drugbank_target|Q6DT37 Serine/threonine-protein kinase MRCK gamma (DB12010)
 OpenBabel12092121143D

  0  0  0     0  0            999 V3000
M  V30 BEGIN CTAB
M  V30 COUNTS 24172 24424 0 0 0
M  V30 BEGIN ATOM
M  V30 1 H -0.908 1.98254 -0.117106 0
M  V30 2 N 0 1.576 0 0
M  V30 3 C 0.933 2.03868 1.02534 0
M  V30 4 C 1.911 0.928543 1.3348 0
M  V30 5 O 3.095 1.19667 1.45644 0
M  V30 6 C 0.222 2.43627 2.35294 0
M  V30 7 C -0.732 3.65373 2.2001 0
M  V30 8 S 0.101 5.13292 1.52614 0
M  V30 9 C 1.257 5.56322 2.86805 0
M  V30 10 H 1.49 2.90518 0.631377 0
M  V30 11 H -0.977 1.52953 0.210867 0
M  V30 12 H 0.981 2.67203 3.11629 0
M  V30 13 H -0.358 1.57376 2.7183 0
M  V30 14 H -1.165 3.90944 3.18086 0
M  V30 15 H -1.563 3.418 1.51819 0
M  V30 16 H 0.729 5.58782 3.83104 0
M  V30 17 H 1.672 6.56266 2.65933 0
M  V30 18 H 2.08 4.83886 2.90714 0
M  V30 19 N 1.4781 -0.272755 1.55222 0
M  V30 20 C 2.3881 -1.35918 1.91216 0
M  V30 21 C 3.4041 -1.54026 0.809436 0
M  V30 22 O 4.5801 -1.68148 1.10852 0
M  V30 23 C 1.6451 -2.69834 2.17693 0
M  V30 24 C 0.7061 -2.6047 3.41253 0
M  V30 25 C -0.0609 -3.88 3.66458 0
M  V30 26 O 0.1621 -4.88693 2.94169 0
M  V30 27 O -0.9039 -3.88189 4.59992 0
M  V30 28 H 2.9221 -1.0839 2.83699 0
M  V30 29 H 0.5071 -0.471301 1.41771 0
M  V30 30 H 2.3891 -3.49017 2.36147 0
M  V30 31 H 1.0641 -2.97148 1.28392 0
M  V30 32 H -0.0289 -1.79663 3.28134 0
M  V30 33 H 1.3041 -2.38106 4.30774 0
M  V30 34 N 2.9562 -1.48159 -0.537278 0
M  V30 35 C 4.3722 -1.34118 -0.865129 0
M  V30 36 C 4.5722 -0.346678 -1.98495 0
M  V30 37 O 3.6282 0.234715 -2.51407 0
M  V30 38 C 4.9412 -2.73963 -1.23954 0
M  V30 39 C 6.4892 -2.82397 -1.34984 0
M  V30 40 C 6.9642 -4.22928 -1.75772 0
M  V30 41 N 8.4552 -4.25566 -1.82887 0
M  V30 42 C 9.1902 -5.31235 -2.15817 0
M  V30 43 N 8.6862 -6.47189 -2.47222 0
M  V30 44 N 10.4792 -5.18624 -2.16761 0
M  V30 45 H 2.6302 -2.1144 0.201715 0
M  V30 46 H 4.8932 -0.947598 0.0275949 0
M  V30 47 H 4.5992 -3.48264 -0.490381 0
M  V30 48 H 4.4732 -3.0702 -2.19132 0
M  V30 49 H 6.8602 -2.08356 -2.08978 0
M  V30 50 H 6.9412 -2.5297 -0.379448 0
M  V30 51 H 6.5852 -4.97482 -1.02341 0
M  V30 52 H 6.5152 -4.49794 -2.73848 0
M  V30 53 H 9.0062 -3.41924 -1.60924 0
M  V30 54 H 9.3192 -7.23564 -2.71433 0
M  V30 55 H 7.6642 -6.50476 -2.44757 0
M  V30 56 H 10.8552 -4.27056 -1.91679 0
M  V30 57 H 11.0282 -6.01078 -2.42093 0
M  V30 58 N 4.4343 0.785586 -1.36625 0
M  V30 59 C 5.8503 1.08419 -1.17122 0
M  V30 60 C 6.0503 2.015 0.00208491 0
M  V30 61 O 5.1063 2.43551 0.666278 0
M  V30 62 C 6.4193 1.69498 -2.48377 0
M  V30 63 C 7.9673 1.81821 -2.54775 0
M  V30 64 C 8.4423 2.46315 -3.86126 0
M  V30 65 N 9.9333 2.53779 -3.87492 0
M  V30 66 C 10.6683 3.045 -4.85868 0
M  V30 67 N 10.1643 3.55499 -5.94637 0
M  V30 68 N 11.9573 3.03247 -4.73284 0
M  V30 69 H 4.1083 0.167264 -2.1174 0
M  V30 70 H 6.3713 0.13682 -0.938075 0
M  V30 71 H 6.0773 1.08571 -3.34522 0
M  V30 72 H 5.9513 2.6896 -2.64462 0
M  V30 73 H 8.3383 2.41884 -1.69045 0
M  V30 74 H 8.4193 0.811532 -2.42586 0
M  V30 75 H 8.0633 1.86895 -4.72263 0
M  V30 76 H 7.9933 3.47561 -3.95612 0
M  V30 77 H 10.4843 2.17672 -3.08913 0
M  V30 78 H 10.7973 3.92562 -6.65669 0
M  V30 79 H 9.1423 3.5364 -5.98301 0
M  V30 80 H 12.3333 2.62696 -3.87438 0
M  V30 81 H 12.5063 3.42467 -5.50109 0
M  V30 82 N 5.9124 1.20967 1.01018 0
M  V30 83 C 6.8424 0.988272 2.11555 0
M  V30 84 C 7.8234 -0.0849778 1.69888 0
M  V30 85 O 9.0084 0.0738202 1.9406 0
M  V30 86 C 6.1384 0.546528 3.42973 0
M  V30 87 C 5.0924 1.56375 3.9841 0
M  V30 88 C 4.4184 0.97842 5.25672 0
M  V30 89 C 5.7184 2.94922 4.31066 0
M  V30 90 H 7.4124 1.91276 2.30334 0
M  V30 91 H 4.9584 0.921073 1.1069 0
M  V30 92 H 6.9114 0.378839 4.19694 0
M  V30 93 H 5.6354 -0.413598 3.23971 0
M  V30 94 H 4.2944 1.71891 3.23804 0
M  V30 95 H 3.9424 0.0101688 5.02999 0
M  V30 96 H 3.6424 1.65784 5.63728 0
M  V30 97 H 5.1664 0.821939 6.05043 0
M  V30 98 H 6.5804 2.8288 4.9865 0
M  V30 99 H 4.9774 3.5983 4.80253 0
M  V30 100 H 6.0474 3.4616 3.39561 0
M  V30 101 N 7.3905 -1.2043 1.01659 0
M  V30 102 C 8.8065 -1.41852 0.731442 0
M  V30 103 C 9.0065 -1.89358 -0.688898 0
M  V30 104 O 8.0625 -2.06247 -1.45666 0
M  V30 105 C 9.3755 -2.44019 1.75714 0
M  V30 106 C 10.9235 -2.57785 1.77527 0
M  V30 107 C 11.3985 -3.63194 2.79023 0
M  V30 108 N 12.8895 -3.70678 2.77763 0
M  V30 109 C 13.6245 -4.51897 3.52954 0
M  V30 110 N 13.1205 -5.36921 4.37821 0
M  V30 111 N 14.9135 -4.4643 3.41551 0
M  V30 112 H 7.0645 -0.879093 1.93354 0
M  V30 113 H 9.3275 -0.448425 0.835236 0
M  V30 114 H 9.0335 -2.1611 2.77469 0
M  V30 115 H 8.9075 -3.43007 1.56927 0
M  V30 116 H 11.2945 -2.85023 0.764569 0
M  V30 117 H 11.3755 -1.58992 2.00387 0
M  V30 118 H 11.0195 -3.36699 3.80258 0
M  V30 119 H 10.9495 -4.61609 2.53425 0
M  V30 120 H 13.4405 -3.09944 2.16201 0
M  V30 121 H 13.7535 -5.95981 4.91962 0
M  V30 122 H 12.0985 -5.36424 4.41899 0
M  V30 123 H 15.2895 -3.79042 2.74672 0
M  V30 124 H 15.4625 -5.09491 4.00404 0
M  V30 125 N 8.8686 -0.792821 -1.36206 0
M  V30 126 C 9.8316 -0.199459 -2.2833 0
M  V30 127 C 10.8316 0.605189 -1.48977 0
M  V30 128 O 12.0216 0.425685 -1.68919 0
M  V30 129 C 9.1536 0.723523 -3.33134 0
M  V30 130 H 10.3466 -1.01181 -2.82316 0
M  V30 131 H 7.8996 -0.562485 -1.45828 0
M  V30 132 H 8.6346 1.56008 -2.84309 0
M  V30 133 H 8.4196 0.148436 -3.91819 0
M  V30 134 H 9.9096 1.13344 -4.01924 0
M  V30 135 N 10.3467 1.47872 -0.545128 0
M  V30 136 C 11.2767 2.32661 0.197793 0
M  V30 137 C 12.2577 1.43041 0.920504 0
M  V30 138 O 13.4427 1.71912 0.90333 0
M  V30 139 C 10.5727 3.24569 1.23582 0
M  V30 140 C 9.5267 4.23333 0.630323 0
M  V30 141 C 8.8527 5.0448 1.77211 0
M  V30 142 C 10.1527 5.20704 -0.407974 0
M  V30 143 H 11.8467 2.95024 -0.510045 0
M  V30 144 H 9.3927 1.4187 -0.246731 0
M  V30 145 H 11.3457 3.8272 1.76362 0
M  V30 146 H 10.0697 2.60236 1.97344 0
M  V30 147 H 8.7287 3.6639 0.123922 0
M  V30 148 H 8.3767 4.36561 2.49847 0
M  V30 149 H 8.0767 5.71339 1.37281 0
M  V30 150 H 9.6007 5.65487 2.3034 0
M  V30 151 H 11.0147 5.7329 0.033305 0
M  V30 152 H 9.4117 5.95699 -0.725486 0
M  V30 153 H 10.4817 4.66917 -1.30828 0
M  V30 154 N 11.8248 0.280983 1.55075 0
M  V30 155 C 12.7348 -0.61388 2.26426 0
M  V30 156 C 13.7508 -1.16521 1.29224 0
M  V30 157 O 14.9268 -1.19426 1.62171 0
M  V30 158 C 11.9918 -1.7788 2.9759 0
M  V30 159 C 11.0528 -1.26355 4.10284 0
M  V30 160 C 10.2858 -2.37295 4.78045 0
M  V30 161 O 10.5088 -3.56777 4.45047 0
M  V30 162 O 9.4428 -2.05119 5.65871 0
M  V30 163 H 13.2688 -0.0356932 3.03679 0
M  V30 164 H 10.8538 0.0481686 1.49322 0
M  V30 165 H 12.7358 -2.45791 3.42293 0
M  V30 166 H 11.4108 -2.34397 2.23249 0
M  V30 167 H 10.3178 -0.550735 3.70024 0
M  V30 168 H 11.6508 -0.744065 4.86543 0
M  V30 169 N 13.3029 -1.57598 0.00835791 0
M  V30 170 C 14.2349 -2.05811 -1.00868 0
M  V30 171 C 15.2479 -0.977579 -1.30182 0
M  V30 172 O 16.4369 -1.25421 -1.27011 0
M  V30 173 C 13.5369 -2.45016 -2.34137 0
M  V30 174 C 12.7099 -3.75903 -2.23643 0
M  V30 175 C 11.7689 -4.01884 -3.3967 0
M  V30 176 O 10.7949 -4.72433 -3.17483 0
M  V30 177 N 11.9969 -3.50432 -4.62793 0
M  V30 178 H 14.7619 -2.93684 -0.597458 0
M  V30 179 H 12.3229 -1.60909 -0.178852 0
M  V30 180 H 14.3149 -2.59506 -3.10546 0
M  V30 181 H 12.8849 -1.62618 -2.66972 0
M  V30 182 H 12.1049 -3.7141 -1.32091 0
M  V30 183 H 13.3929 -4.61695 -2.13812 0
M  V30 184 H 12.7909 -2.93317 -4.83716 0
M  V30 185 H 11.3479 -3.70236 -5.3644 0
M  V30 186 N 14.781 0.264519 -1.55364 0
M  V30 187 C 15.711 1.33121 -1.91836 0
M  V30 188 C 16.692 1.51101 -0.781192 0
M  V30 189 O 17.877 1.64003 -1.04003 0
M  V30 190 C 15.007 2.68921 -2.19769 0
M  V30 191 C 13.961 2.65661 -3.35571 0
M  V30 192 C 13.287 4.05093 -3.49004 0
M  V30 193 C 14.587 2.24187 -4.71739 0
M  V30 194 H 16.281 1.02844 -2.81182 0
M  V30 195 H 13.827 0.493286 -1.35287 0
M  V30 196 H 15.78 3.43663 -2.43872 0
M  V30 197 H 14.504 3.00799 -1.27231 0
M  V30 198 H 13.163 1.93377 -3.1145 0
M  V30 199 H 12.811 4.34206 -2.53917 0
M  V30 200 H 12.511 4.03804 -4.26868 0
M  V30 201 H 14.035 4.81561 -3.75408 0
M  V30 202 H 15.449 2.88654 -4.9533 0
M  V30 203 H 13.846 2.34044 -5.52579 0
M  V30 204 H 14.916 1.19327 -4.69988 0
M  V30 205 N 16.2591 1.48442 0.529413 0
M  V30 206 C 17.2221 1.62524 1.61612 0
M  V30 207 C 18.2221 0.498509 1.52877 0
M  V30 208 O 19.4121 0.76431 1.56537 0
M  V30 209 C 16.5441 1.59597 3.01233 0
M  V30 210 H 17.7371 2.59423 1.50465 0
M  V30 211 H 15.2901 1.37047 0.751514 0
M  V30 212 H 16.0251 0.641781 3.17886 0
M  V30 213 H 15.8101 2.41397 3.08982 0
M  V30 214 H 17.3001 1.72646 3.80241 0
M  V30 215 N 17.7372 -0.778329 1.37039 0
M  V30 216 C 19.1532 -1.07796 1.17695 0
M  V30 217 C 19.3532 -2.01498 0.00860115 0
M  V30 218 O 18.4092 -2.43901 -0.653352 0
M  V30 219 C 19.7222 -1.68178 2.49272 0
M  V30 220 C 21.2702 -1.80467 2.55735 0
M  V30 221 C 21.7452 -2.44263 3.87427 0
M  V30 222 N 23.2362 -2.51721 3.88833 0
M  V30 223 C 23.9712 -3.01919 4.87476 0
M  V30 224 N 23.4672 -3.5234 5.96513 0
M  V30 225 N 25.2602 -3.00733 4.74885 0
M  V30 226 H 17.4112 -0.156032 2.11826 0
M  V30 227 H 19.6742 -0.131844 0.938787 0
M  V30 228 H 19.3802 -1.06796 3.35093 0
M  V30 229 H 19.2542 -2.67554 2.65885 0
M  V30 230 H 21.6412 -2.40984 1.70325 0
M  V30 231 H 21.7222 -0.798656 2.43013 0
M  V30 232 H 21.3662 -1.84388 4.73248 0
M  V30 233 H 21.2962 -3.45458 3.9745 0
M  V30 234 H 23.7872 -2.1603 3.10063 0
M  V30 235 H 24.1002 -3.89027 6.67741 0
M  V30 236 H 22.4452 -3.50462 6.00168 0
M  V30 237 H 25.6362 -2.60638 3.88826 0
M  V30 238 H 25.8092 -3.39545 5.51918 0
M  V30 239 N 19.2153 -1.21501 -1.00376 0
M  V30 240 C 20.4633 -1.03095 -1.73827 0
M  V30 241 C 20.7843 0.436341 -1.90055 0
M  V30 242 O 20.0543 1.31466 -1.45236 0
M  V30 243 H 18.6343 -0.378487 -0.644016 0
M  V30 244 H 21.2963 -1.52831 -1.20949 0
M  V30 245 H 20.3923 -1.49991 -2.73695 0
M  V30 246 N 20.6934 1.19889 -1.02296 0
M  V30 247 C 21.6034 2.26571 -0.608508 0
M  V30 248 C 22.6194 1.70299 0.356964 0
M  V30 249 O 23.7954 2.00235 0.216326 0
M  V30 250 C 20.8604 3.46677 0.0402814 0
M  V30 251 C 19.9214 4.18153 -0.97194 0
M  V30 252 C 19.1544 5.32525 -0.354016 0
M  V30 253 O 19.3774 5.64112 0.844604 0
M  V30 254 O 18.3114 5.92242 -1.07391 0
M  V30 255 H 22.1374 2.64251 -1.49684 0
M  V30 256 H 19.7224 1.26629 -0.792809 0
M  V30 257 H 21.6044 4.19475 0.402324 0
M  V30 258 H 20.2794 3.10858 0.902707 0
M  V30 259 H 19.1864 3.47499 -1.38546 0
M  V30 260 H 20.5194 4.57927 -1.80454 0
M  V30 261 N 22.1715 0.800033 1.35784 0
M  V30 262 C 23.1345 0.211565 2.28221 0
M  V30 263 C 24.1345 -0.59728 1.49296 0
M  V30 264 O 25.3245 -0.416721 1.69142 0
M  V30 265 C 22.4565 -0.705846 3.33513 0
M  V30 266 H 23.6495 1.02677 2.81776 0
M  V30 267 H 21.2025 0.570211 1.45528 0
M  V30 268 H 21.9375 -1.54498 2.85133 0
M  V30 269 H 21.7225 -0.127655 3.91892 0
M  V30 270 H 23.2125 -1.11211 4.02519 0
M  V30 271 N 23.6496 -1.47581 0.552962 0
M  V30 272 C 24.8976 -2.02082 0.0272703 0
M  V30 273 C 25.2186 -1.4301 -1.32563 0
M  V30 274 O 24.4886 -0.603745 -1.86365 0
M  V30 275 H 23.0686 -0.746966 0.00709182 0
M  V30 276 H 25.7306 -1.81033 0.722008 0
M  V30 277 H 24.8266 -3.12034 -0.0639951 0
M  V30 278 N 25.1277 -0.289203 -1.54924 0
M  V30 279 C 26.3757 0.322879 -1.99504 0
M  V30 280 C 26.6967 1.55313 -1.1791 0
M  V30 281 O 25.9667 1.94001 -0.272097 0
M  V30 282 H 24.5467 0.122291 -0.736922 0
M  V30 283 H 27.2087 -0.397802 -1.90797 0
M  V30 284 H 26.3047 0.603061 -3.06218 0
M  V30 285 N 26.6058 1.57591 -0.0167156 0
M  V30 286 C 27.8458 1.93145 0.668902 0
M  V30 287 C 28.2098 0.892406 1.7 0
M  V30 288 O 29.4108 1.13373 2.43721 0
M  V30 289 C 27.6818 3.33678 1.28039 0
M  V30 290 S 29.2408 3.91142 1.9888 0
M  V30 291 H 26.0588 0.67593 0.220545 0
M  V30 292 H 28.6608 1.95347 -0.0774105 0
M  V30 293 H 27.3648 4.07126 0.517339 0
M  V30 294 H 26.8958 3.3489 2.06427 0
M  V30 295 H 28.9108 3.73571 3.26587 0
M  V30 296 N 28.0839 -0.256276 1.55502 0
M  V30 297 C 29.4949 -0.826068 1.67431 0
M  V30 298 C 29.8459 -1.86396 0.612446 0
M  V30 299 O 28.9709 -2.15031 -0.243025 0
M  V30 300 C 29.5659 -1.50512 3.03532 0
M  V30 301 C 28.1249 -2.02273 3.17431 0
M  V30 302 C 27.2719 -0.870548 2.63281 0
M  V30 303 H 30.2229 -0.0322728 1.58667 0
M  V30 304 H 30.2439 -2.37279 2.97454 0
M  V30 305 H 29.7559 -0.749484 3.80794 0
M  V30 306 H 27.8569 -2.80746 2.44974 0
M  V30 307 H 27.9699 -2.22655 4.24219 0
M  V30 308 H 26.3339 -1.26851 2.20864 0
M  V30 309 H 27.1169 -0.128149 3.43061 0
M  V30 310 N 29.562 -1.4872 -0.521534 0
M  V30 311 C 30.81 -1.56857 -1.27437 0
M  V30 312 C 31.131 -0.247982 -1.93417 0
M  V30 313 O 30.401 0.731151 -1.81744 0
M  V30 314 H 28.981 -0.577885 -0.473347 0
M  V30 315 H 31.643 -1.85233 -0.606205 0
M  V30 316 H 30.739 -2.35402 -2.0492 0
M  V30 317 N 31.0401 0.771051 -1.3745 0
M  V30 318 C 31.9701 1.89827 -1.3597 0
M  V30 319 C 32.9511 1.68562 -0.228216 0
M  V30 320 O 34.1361 1.8941 -0.428675 0
M  V30 321 C 31.2661 3.2712 -1.16662 0
M  V30 322 C 30.2201 3.6295 -2.2683 0
M  V30 323 C 29.5461 4.98791 -1.92644 0
M  V30 324 C 30.8461 3.69627 -3.69017 0
M  V30 325 H 32.5401 1.91323 -2.30295 0
M  V30 326 H 30.0861 0.919082 -1.10855 0
M  V30 327 H 32.0391 4.05615 -1.14256 0
M  V30 328 H 30.7631 3.26059 -0.187926 0
M  V30 329 H 29.4221 2.86763 -2.28392 0
M  V30 330 H 29.0701 4.94271 -0.933021 0
M  V30 331 H 28.7701 5.23733 -2.66416 0
M  V30 332 H 30.2941 5.79685 -1.91826 0
M  V30 333 H 31.7081 4.38273 -3.69581 0
M  V30 334 H 30.1051 4.06067 -4.41848 0
M  V30 335 H 31.1751 2.70273 -4.02592 0
M  V30 336 N 32.5182 1.22032 0.997298 0
M  V30 337 C 33.7952 0.950823 1.70935 0
M  V30 338 C 34.1752 -0.535292 2.042 0
M  V30 339 O 33.5232 -1.50217 1.72183 0
M  V30 340 C 33.7332 1.84386 2.96315 0
M  V30 341 C 35.0812 2.09732 3.69185 0
M  V30 342 O 36.1052 1.81798 3.06314 0
M  V30 343 O 34.9642 2.57018 4.82291 0
M  V30 344 H 32.0582 0.357204 0.745878 0
M  V30 345 H 34.6042 1.32997 1.05404 0
M  V30 346 H 33.3762 2.84928 2.68201 0
M  V30 347 H 32.9992 1.46602 3.69586 0
M  V30 348 N 33.9963 -1.19345 1.0293 0
M  V30 349 C 35.2443 -1.88665 0.724574 0
M  V30 350 C 35.5653 -1.80036 -0.749144 0
M  V30 351 O 34.8353 -1.2111 -1.53978 0
M  V30 352 H 33.4153 -0.698406 0.265025 0
M  V30 353 H 36.0773 -1.44885 1.30362 0
M  V30 354 H 35.1733 -2.94987 1.01926 0
M  V30 355 N 35.4744 -0.807222 -1.35358 0
M  V30 356 C 36.4044 -0.232509 -2.3234 0
M  V30 357 C 37.3854 0.642386 -1.57504 0
M  V30 358 O 38.5704 0.572526 -1.85569 0
M  V30 359 C 35.7004 0.619238 -3.41735 0
M  V30 360 C 34.6544 -0.157215 -4.27711 0
M  V30 361 C 33.9804 0.816273 -5.28433 0
M  V30 362 C 35.2804 -1.35656 -5.04376 0
M  V30 363 H 36.9744 -1.04276 -2.80654 0
M  V30 364 H 34.5204 -0.50288 -1.34934 0
M  V30 365 H 36.4734 1.03137 -4.08584 0
M  V30 366 H 35.1974 1.46239 -2.92031 0
M  V30 367 H 33.8564 -0.550525 -3.62443 0
M  V30 368 H 33.5044 1.65494 -4.74996 0
M  V30 369 H 33.2044 0.301067 -5.86828 0
M  V30 370 H 34.7284 1.22659 -5.98153 0
M  V30 371 H 36.1424 -1.01927 -5.64166 0
M  V30 372 H 34.5394 -1.8063 -5.7227 0
M  V30 373 H 35.6094 -2.14288 -4.34981 0
M  V30 374 N 36.9525 1.47285 -0.560781 0
M  V30 375 C 37.8825 2.32857 0.173105 0
M  V30 376 C 38.8635 1.44009 0.905281 0
M  V30 377 O 40.0485 1.7286 0.885046 0
M  V30 378 C 37.1785 3.25861 1.20133 0
M  V30 379 C 36.1325 4.23978 0.585388 0
M  V30 380 C 35.4585 5.06332 1.7185 0
M  V30 381 C 36.7585 5.20242 -0.463178 0
M  V30 382 H 38.4525 2.94466 -0.541307 0
M  V30 383 H 35.9985 1.41601 -0.261764 0
M  V30 384 H 37.9515 3.84569 1.72293 0
M  V30 385 H 36.6755 2.62315 1.94573 0
M  V30 386 H 35.3345 3.66501 0.085054 0
M  V30 387 H 34.9825 4.39186 2.45203 0
M  V30 388 H 34.6825 5.72762 1.31213 0
M  V30 389 H 36.2065 5.67899 2.24329 0
M  V30 390 H 37.6205 5.73293 -0.027502 0
M  V30 391 H 36.0175 5.94896 -0.788627 0
M  V30 392 H 37.0875 4.65504 -1.35773 0
M  V30 393 N 38.4306 0.297415 1.54768 0
M  V30 394 C 39.7076 -0.365847 1.92148 0
M  V30 395 C 40.0876 -1.71975 1.22424 0
M  V30 396 O 39.4356 -2.25666 0.358739 0
M  V30 397 C 39.6456 -0.484056 3.45627 0
M  V30 398 C 40.9936 -0.756594 4.17805 0
M  V30 399 O 42.0176 -0.568007 3.51642 0
M  V30 400 O 40.8766 -1.11863 5.34929 0
M  V30 401 H 37.9706 -0.203919 0.801465 0
M  V30 402 H 40.5166 0.34521 1.66152 0
M  V30 403 H 39.2886 0.467865 3.88493 0
M  V30 404 H 38.9116 -1.24372 3.77647 0
M  V30 405 N 39.9087 -1.5758 0.0250728 0
M  V30 406 C 40.8387 -2.13007 -0.956575 0
M  V30 407 C 41.8197 -1.0452 -1.342 0
M  V30 408 O 43.0047 -1.32332 -1.42133 0
M  V30 409 C 40.1347 -2.65386 -2.24026 0
M  V30 410 C 39.0887 -3.78623 -1.99571 0
M  V30 411 C 38.4147 -4.17414 -3.3417 0
M  V30 412 C 39.7147 -5.04867 -1.33814 0
M  V30 413 H 41.4087 -2.9528 -0.494991 0
M  V30 414 H 38.9547 -1.42042 -0.236651 0
M  V30 415 H 40.9077 -3.02794 -2.93076 0
M  V30 416 H 39.6317 -1.80268 -2.72343 0
M  V30 417 H 38.2907 -3.41646 -1.32941 0
M  V30 418 H 37.9387 -3.29284 -3.80238 0
M  V30 419 H 37.6387 -4.93719 -3.18615 0
M  V30 420 H 39.1627 -4.57402 -4.04495 0
M  V30 421 H 40.5767 -5.39888 -1.92857 0
M  V30 422 H 38.9737 -5.86144 -1.28669 0
M  V30 423 H 40.0437 -4.83904 -0.310561 0
M  V30 424 N 41.3868 0.248026 -1.55636 0
M  V30 425 C 42.3168 1.31079 -1.93237 0
M  V30 426 C 43.2978 1.50264 -0.797174 0
M  V30 427 O 44.4828 1.62891 -1.05737 0
M  V30 428 C 41.6128 2.66575 -2.22609 0
M  V30 429 C 40.5668 2.62087 -3.3837 0
M  V30 430 C 39.8928 4.01369 -3.53281 0
M  V30 431 C 41.1928 2.19171 -4.7409 0
M  V30 432 H 42.8868 0.998556 -2.82257 0
M  V30 433 H 40.4328 0.47891 -1.35803 0
M  V30 434 H 42.3858 3.41057 -2.47503 0
M  V30 435 H 41.1098 2.99432 -1.30414 0
M  V30 436 H 39.7688 1.90063 -3.13483 0
M  V30 437 H 39.4168 4.31489 -2.58508 0
M  V30 438 H 39.1168 3.99254 -4.31127 0
M  V30 439 H 40.6408 4.77552 -3.80495 0
M  V30 440 H 42.0548 2.83384 -4.98363 0
M  V30 441 H 40.4518 2.2817 -5.5503 0
M  V30 442 H 41.5218 1.14336 -4.71227 0
M  V30 443 N 42.8649 1.48995 0.513639 0
M  V30 444 C 43.7949 1.67636 1.62544 0
M  V30 445 C 44.7759 0.525087 1.61793 0
M  V30 446 O 45.9609 0.759502 1.78732 0
M  V30 447 C 43.0909 1.73114 3.01079 0
M  V30 448 C 42.0449 2.87905 3.16693 0
M  V30 449 C 41.3709 2.78486 4.56453 0
M  V30 450 C 42.6709 4.29005 2.97913 0
M  V30 451 H 44.3649 2.60716 1.47198 0
M  V30 452 H 41.9109 1.25465 0.706714 0
M  V30 453 H 43.8639 1.84742 3.78746 0
M  V30 454 H 42.5879 0.766241 3.17484 0
M  V30 455 H 41.2469 2.75859 2.41448 0
M  V30 456 H 40.8949 1.7993 4.69717 0
M  V30 457 H 40.5949 3.55523 4.67843 0
M  V30 458 H 42.1189 2.92104 5.36197 0
M  V30 459 H 43.5329 4.41798 3.65359 0
M  V30 460 H 41.9299 5.07166 3.20785 0
M  V30 461 H 42.9999 4.44329 1.94165 0
M  V30 462 N 44.343 -0.763751 1.37857 0
M  V30 463 C 45.306 -1.85889 1.34081 0
M  V30 464 C 46.306 -1.58949 0.243277 0
M  V30 465 O 47.496 -1.66882 0.499589 0
M  V30 466 C 44.628 -3.23176 1.08489 0
M  V30 467 H 45.821 -1.90648 2.31502 0
M  V30 468 H 43.374 -0.964367 1.23003 0
M  V30 469 H 44.109 -3.24091 0.116318 0
M  V30 470 H 43.894 -3.44124 1.8794 0
M  V30 471 H 45.384 -4.03254 1.08517 0
M  V30 472 N 45.8211 -1.22559 -0.990812 0
M  V30 473 C 46.7511 -1.0218 -2.09956 0
M  V30 474 C 47.7321 0.0579394 -1.70001 0
M  V30 475 O 48.9171 -0.104684 -1.93918 0
M  V30 476 C 46.0471 -0.601023 -3.4206 0
M  V30 477 C 45.0011 -1.62694 -3.95872 0
M  V30 478 C 44.3271 -1.06193 -5.24049 0
M  V30 479 C 45.6271 -3.01743 -4.2632 0
M  V30 480 H 47.3211 -1.94916 -2.27262 0
M  V30 481 H 44.8671 -0.938566 -1.09211 0
M  V30 482 H 46.8201 -0.445561 -4.19038 0
M  V30 483 H 45.5441 0.362005 -3.24588 0
M  V30 484 H 44.2031 -1.77021 -3.21028 0
M  V30 485 H 43.8511 -0.0901903 -5.02919 0
M  V30 486 H 43.5511 -1.74732 -5.61019 0
M  V30 487 H 45.0751 -0.918092 -6.03658 0
M  V30 488 H 46.4891 -2.90777 -4.94087 0
M  V30 489 H 44.8861 -3.67425 -4.74467 0
M  V30 490 H 45.9561 -3.51518 -3.34011 0
M  V30 491 N 47.2992 1.18797 -1.03562 0
M  V30 492 C 48.2492 2.20161 -0.592724 0
M  V30 493 C 49.2332 1.56772 0.362133 0
M  V30 494 O 50.4252 1.76062 0.182009 0
M  V30 495 C 47.5542 3.43266 0.0481024 0
M  V30 496 C 46.6402 4.13786 -0.9296 0
M  V30 497 N 47.0312 4.60388 -2.09467 0
M  V30 498 C 45.3292 4.39572 -0.754499 0
M  V30 499 C 46.0302 5.14619 -2.71187 0
M  V30 500 N 45.0062 5.05826 -1.991 0
M  V30 501 H 48.8082 2.53877 -1.48066 0
M  V30 502 H 46.3222 1.34946 -0.903514 0
M  V30 503 H 48.3192 4.15136 0.383058 0
M  V30 504 H 46.9792 3.11048 0.931636 0
M  V30 505 H 47.9902 4.54999 -2.47379 0
M  V30 506 H 44.6672 4.17425 0.0793713 0
M  V30 507 H 46.0572 5.60917 -3.69895 0
M  V30 508 N 48.7773 0.814389 1.34928 0
M  V30 509 C 49.7273 0.202752 2.27097 0
M  V30 510 C 50.7113 -0.62799 1.48139 0
M  V30 511 O 51.9033 -0.483969 1.70255 0
M  V30 512 C 49.0323 -0.64146 3.37254 0
M  V30 513 C 48.1183 0.19944 4.23631 0
M  V30 514 N 48.5093 1.26628 4.89693 0
M  V30 515 C 46.8073 -0.0176433 4.45997 0
M  V30 516 C 47.5083 1.78031 5.53787 0
M  V30 517 N 46.4843 1.08553 5.32651 0
M  V30 518 H 50.2863 1.01893 2.75672 0
M  V30 519 H 47.8003 0.656332 1.48546 0
M  V30 520 H 49.7973 -1.09575 4.02243 0
M  V30 521 H 48.4573 -1.4559 2.9023 0
M  V30 522 H 49.4683 1.64901 4.90946 0
M  V30 523 H 46.1453 -0.800601 4.09752 0
M  V30 524 H 47.5353 2.67236 6.16469 0
M  V30 525 N 50.2554 -1.46986 0.568584 0
M  V30 526 C 51.1654 -2.33942 -0.17555 0
M  V30 527 C 52.1814 -1.48891 -0.90041 0
M  V30 528 O 53.3574 -1.81794 -0.86676 0
M  V30 529 C 50.4224 -3.25811 -1.18524 0
M  V30 530 C 49.4834 -4.26757 -0.466582 0
M  V30 531 C 48.7164 -5.14236 -1.42817 0
M  V30 532 O 48.9394 -5.04379 -2.66379 0
M  V30 533 O 47.8734 -5.94412 -0.946453 0
M  V30 534 H 51.6994 -2.98896 0.538036 0
M  V30 535 H 49.2844 -1.4573 0.329097 0
M  V30 536 H 51.1664 -3.82527 -1.76779 0
M  V30 537 H 49.8414 -2.63471 -1.88055 0
M  V30 538 H 48.7484 -3.73769 0.157451 0
M  V30 539 H 50.0814 -4.91843 0.187485 0
M  V30 540 N 51.7335 -0.305618 -1.54608 0
M  V30 541 C 52.6635 0.561482 -2.26649 0
M  V30 542 C 53.6445 1.13415 -1.26772 0
M  V30 543 O 54.8295 1.16262 -1.55553 0
M  V30 544 C 51.9595 1.73122 -3.01075 0
M  V30 545 C 50.9135 1.2887 -4.08138 0
M  V30 546 C 50.2395 2.54396 -4.70305 0
M  V30 547 C 51.5395 0.416578 -5.20636 0
M  V30 548 H 53.2335 -0.0393902 -2.99374 0
M  V30 549 H 50.7795 -0.020385 -1.43986 0
M  V30 550 H 52.7325 2.34396 -3.50195 0
M  V30 551 H 51.4565 2.3584 -2.25936 0
M  V30 552 H 50.1155 0.698991 -3.59875 0
M  V30 553 H 49.7635 3.15439 -3.918 0
M  V30 554 H 49.4635 2.25486 -5.42614 0
M  V30 555 H 50.9875 3.16464 -5.2219 0
M  V30 556 H 52.4015 0.935116 -5.65622 0
M  V30 557 H 50.7985 0.221046 -5.99693 0
M  V30 558 H 51.8685 -0.557162 -4.81688 0
M  V30 559 N 53.2116 1.57565 -0.0334293 0
M  V30 560 C 54.4366 1.96689 0.657895 0
M  V30 561 C 54.8616 0.910057 1.64619 0
M  V30 562 O 54.2196 -0.128598 1.80843 0
M  V30 563 C 54.2676 3.34905 1.33683 0
M  V30 564 O 53.3716 3.31574 2.45219 0
M  V30 565 H 52.7126 0.641205 0.172489 0
M  V30 566 H 55.2426 2.04372 -0.0965621 0
M  V30 567 H 55.2526 3.71234 1.69262 0
M  V30 568 H 53.9276 4.11366 0.612411 0
M  V30 569 H 52.5046 3.06968 2.11719 0
M  V30 570 N 54.6897 -0.239769 1.55765 0
M  V30 571 C 55.9147 -0.988373 1.82335 0
M  V30 572 C 56.3397 -1.77886 0.611421 0
M  V30 573 O 55.6977 -1.75889 -0.439639 0
M  V30 574 C 55.7457 -1.89627 3.06715 0
M  V30 575 O 54.8497 -2.98904 2.84131 0
M  V30 576 H 54.1907 -0.280858 0.601677 0
M  V30 577 H 56.7207 -0.258597 2.02959 0
M  V30 578 H 56.7307 -2.30957 3.36338 0
M  V30 579 H 55.4057 -1.31511 3.9456 0
M  V30 580 H 53.9827 -2.61651 2.65694 0
M  V30 581 N 56.1678 -1.49265 -0.50573 0
M  V30 582 C 57.4158 -1.582 -1.25766 0
M  V30 583 C 57.7368 -0.268482 -1.93143 0
M  V30 584 O 57.0068 0.711833 -1.8251 0
M  V30 585 H 55.5868 -0.582873 -0.467191 0
M  V30 586 H 58.2488 -1.85865 -0.586525 0
M  V30 587 H 57.3448 -2.37563 -2.02412 0
M  V30 588 N 57.6459 0.756429 -1.3826 0
M  V30 589 C 59.0569 1.33359 -1.30661 0
M  V30 590 C 59.4079 1.96161 0.0388875 0
M  V30 591 O 58.5329 1.94874 0.940918 0
M  V30 592 C 59.1279 2.42477 -2.36622 0
M  V30 593 C 57.6869 2.95922 -2.3261 0
M  V30 594 C 56.8339 1.69275 -2.19639 0
M  V30 595 H 59.7849 0.55552 -1.4866 0
M  V30 596 H 59.8059 3.22345 -2.02174 0
M  V30 597 H 59.3179 1.96739 -3.34538 0
M  V30 598 H 57.4189 3.45996 -1.38267 0
M  V30 599 H 57.5319 3.50494 -3.26636 0
M  V30 600 H 55.8959 1.92793 -1.66442 0
M  V30 601 H 56.6789 1.25619 -3.19491 0
M  V30 602 N 59.124 1.23083 0.984299 0
M  V30 603 C 60.054 1.03292 2.09411 0
M  V30 604 C 61.035 -0.048923 1.7003 0
M  V30 605 O 62.22 0.114967 1.93859 0
M  V30 606 C 59.35 0.619155 3.41736 0
M  V30 607 C 58.304 1.64791 3.95004 0
M  V30 608 C 57.63 1.0897 5.23478 0
M  V30 609 C 58.93 3.03999 4.24714 0
M  V30 610 H 60.624 1.96119 2.26225 0
M  V30 611 H 58.17 0.944344 1.08711 0
M  V30 612 H 60.123 0.467777 4.18796 0
M  V30 613 H 58.847 -0.344786 3.24775 0
M  V30 614 H 57.506 1.78721 3.20085 0
M  V30 615 H 57.154 0.11686 5.02864 0
M  V30 616 H 56.854 1.77704 5.60085 0
M  V30 617 H 58.378 0.950093 6.03163 0
M  V30 618 H 59.792 2.93393 4.92538 0
M  V30 619 H 58.189 3.69936 4.72512 0
M  V30 620 H 59.259 3.53285 3.32142 0
M  V30 621 N 60.6021 -1.18246 1.0419 0
M  V30 622 C 62.0181 -1.40269 0.761366 0
M  V30 623 C 62.2181 -1.90777 -0.648578 0
M  V30 624 O 61.2741 -2.0929 -1.41258 0
M  V30 625 C 62.5871 -2.40237 1.8085 0
M  V30 626 C 64.1351 -2.53961 1.82955 0
M  V30 627 C 64.6101 -3.57194 2.86664 0
M  V30 628 N 66.1011 -3.64702 2.85563 0
M  V30 629 C 66.8361 -4.44309 3.6246 0
M  V30 630 N 66.3321 -5.27514 4.49111 0
M  V30 631 N 68.1251 -4.39084 3.50944 0
M  V30 632 H 60.2761 -0.837882 1.95175 0
M  V30 633 H 62.5391 -0.430608 0.84456 0
M  V30 634 H 62.2451 -2.10176 2.81991 0
M  V30 635 H 62.1191 -3.39601 1.64168 0
M  V30 636 H 64.5061 -2.83338 0.824855 0
M  V30 637 H 64.5871 -1.54706 2.03715 0
M  V30 638 H 64.2311 -3.28558 3.87314 0
M  V30 639 H 64.1611 -4.5613 2.6316 0
M  V30 640 H 66.6521 -3.05289 2.22727 0
M  V30 641 H 66.9651 -5.85411 5.04493 0
M  V30 642 H 65.3101 -5.2693 4.53178 0
M  V30 643 H 68.5011 -3.7313 2.82651 0
M  V30 644 H 68.6741 -5.00883 4.11121 0
M  V30 645 N 62.0802 -0.821533 -1.34494 0
M  V30 646 C 63.4962 -0.507117 -1.51329 0
M  V30 647 C 63.6962 0.968964 -1.76673 0
M  V30 648 O 62.7522 1.75348 -1.81685 0
M  V30 649 C 64.0652 -1.36544 -2.67911 0
M  V30 650 C 65.6132 -1.36242 -2.81793 0
M  V30 651 C 66.0882 -2.2052 -4.01416 0
M  V30 652 N 67.5792 -2.18136 -4.08621 0
M  V30 653 C 68.3142 -2.80095 -5.00334 0
M  V30 654 N 67.8102 -3.51039 -5.9728 0
M  V30 655 N 69.6032 -2.69656 -4.93196 0
M  V30 656 H 61.7542 -1.77729 -1.16302 0
M  V30 657 H 64.0172 -0.757291 -0.570276 0
M  V30 658 H 63.7232 -2.41361 -2.55808 0
M  V30 659 H 63.5972 -1.02917 -3.62888 0
M  V30 660 H 65.9842 -0.322041 -2.93338 0
M  V30 661 H 66.0652 -1.73866 -1.87628 0
M  V30 662 H 65.7092 -3.24607 -3.90631 0
M  V30 663 H 65.6392 -1.80247 -4.94791 0
M  V30 664 H 68.1302 -1.6653 -3.39229 0
M  V30 665 H 68.4432 -3.95565 -6.63889 0
M  V30 666 H 66.7882 -3.55145 -5.97409 0
M  V30 667 H 69.9792 -2.13808 -4.16418 0
M  V30 668 H 70.1522 -3.1823 -5.64476 0
M  V30 669 N 63.5583 1.46682 -0.576371 0
M  V30 670 C 64.4683 2.34032 0.163141 0
M  V30 671 C 65.4843 1.49367 0.892501 0
M  V30 672 O 66.6603 1.82252 0.857106 0
M  V30 673 C 63.7253 3.26435 1.16795 0
M  V30 674 C 62.7863 4.26998 0.443944 0
M  V30 675 C 62.0193 5.14986 1.40088 0
M  V30 676 O 62.2423 5.05785 2.637 0
M  V30 677 O 61.1763 5.94906 0.914917 0
M  V30 678 H 65.0023 2.98607 -0.55388 0
M  V30 679 H 62.5873 1.45554 -0.336821 0
M  V30 680 H 64.4693 3.83459 1.74748 0
M  V30 681 H 63.1443 2.64465 1.86655 0
M  V30 682 H 62.0513 3.7368 -0.177271 0
M  V30 683 H 63.3843 4.91736 -0.213566 0
M  V30 684 N 65.0364 0.313813 1.54444 0
M  V30 685 C 66.4524 -0.0391619 1.59552 0
M  V30 686 C 66.6524 -1.51322 1.33056 0
M  V30 687 O 65.7084 -2.26782 1.11022 0
M  V30 688 C 67.0214 0.370302 2.98411 0
M  V30 689 C 68.5694 0.320139 3.11358 0
M  V30 690 C 69.0444 0.704617 4.52547 0
M  V30 691 N 70.5354 0.657645 4.58508 0
M  V30 692 C 71.2704 0.927453 5.6585 0
M  V30 693 N 70.7664 1.26389 6.81174 0
M  V30 694 N 72.5594 0.853662 5.5558 0
M  V30 695 H 64.7104 1.27433 1.69925 0
M  V30 696 H 66.9734 0.517511 0.794284 0
M  V30 697 H 66.6794 1.39694 3.22767 0
M  V30 698 H 66.5534 -0.269619 3.76235 0
M  V30 699 H 68.9404 -0.697275 2.86744 0
M  V30 700 H 69.0214 0.99486 2.35661 0
M  V30 701 H 68.6654 1.7199 4.77893 0
M  V30 702 H 68.5954 0.00768843 5.26599 0
M  V30 703 H 71.0864 0.409067 3.75679 0
M  V30 704 H 71.3994 1.4554 7.58972 0
M  V30 705 H 69.7444 1.30206 6.82694 0
M  V30 706 H 72.9354 0.590383 4.64362 0
M  V30 707 H 73.1084 1.0673 6.3915 0
M  V30 708 N 66.5145 -1.57545 0.0417849 0
M  V30 709 C 67.7395 -1.97035 -0.647455 0
M  V30 710 C 68.1645 -0.918775 -1.64135 0
M  V30 711 O 67.5225 0.119006 -1.80909 0
M  V30 712 C 67.5705 -3.35609 -1.31905 0
M  V30 713 O 66.6745 -3.3287 -2.43457 0
M  V30 714 H 66.0155 -0.64211 -0.169086 0
M  V30 715 H 68.5455 -2.04318 0.107399 0
M  V30 716 H 68.5555 -3.72126 -1.67291 0
M  V30 717 H 67.2305 -4.11685 -0.590586 0
M  V30 718 H 65.8075 -3.08087 -2.10088 0
M  V30 719 N 67.9926 0.231505 -1.5589 0
M  V30 720 C 69.2386 0.95877 -1.78705 0
M  V30 721 C 69.5716 1.8438 -0.609725 0
M  V30 722 O 68.8466 1.90521 0.391426 0
M  V30 723 C 69.1296 1.8062 -3.11526 0
M  V30 724 C 68.9826 0.948328 -4.39689 0
M  V30 725 C 70.3016 2.78585 -3.40703 0
M  V30 726 H 67.4206 0.347129 -0.650131 0
M  V30 727 H 70.0626 0.228259 -1.88624 0
M  V30 728 H 68.2126 2.42902 -3.03201 0
M  V30 729 H 69.8846 0.343016 -4.60023 0
M  V30 730 H 68.1276 0.253314 -4.3306 0
M  V30 731 H 68.7986 1.57543 -5.29041 0
M  V30 732 H 71.2746 2.26439 -3.49091 0
M  V30 733 H 70.1506 3.34988 -4.34826 0
M  V30 734 H 70.4116 3.55825 -2.62375 0
M  V30 735 N 69.4707 1.49531 0.497807 0
M  V30 736 C 70.4337 1.65916 1.58128 0
M  V30 737 C 71.4337 0.530825 1.51786 0
M  V30 738 O 72.6237 0.797342 1.54881 0
M  V30 739 C 69.7557 1.65951 2.9778 0
M  V30 740 H 70.9487 2.62556 1.44929 0
M  V30 741 H 68.5017 1.38611 0.722275 0
M  V30 742 H 69.2367 0.709065 3.16453 0
M  V30 743 H 69.0217 2.47897 3.03792 0
M  V30 744 H 70.5117 1.80673 3.76493 0
M  V30 745 N 70.9488 -0.749086 1.3866 0
M  V30 746 C 71.8808 -1.87273 1.32142 0
M  V30 747 C 72.8938 -1.61127 0.232787 0
M  V30 748 O 74.0828 -1.71623 0.49069 0
M  V30 749 C 71.1828 -3.23005 1.02571 0
M  V30 750 C 70.3558 -3.7662 2.22433 0
M  V30 751 C 69.4148 -4.90879 1.89537 0
M  V30 752 O 68.4408 -5.05276 2.62078 0
M  V30 753 N 69.6428 -5.74198 0.853031 0
M  V30 754 H 72.4078 -1.93373 2.28969 0
M  V30 755 H 69.9688 -0.929216 1.32579 0
M  V30 756 H 71.9608 -3.96992 0.786085 0
M  V30 757 H 70.5308 -3.12262 0.145249 0
M  V30 758 H 69.7508 -2.94147 2.62434 0
M  V30 759 H 71.0388 -4.09173 3.02415 0
M  V30 760 H 70.4368 -5.6514 0.25155 0
M  V30 761 H 68.9938 -6.48313 0.67329 0
M  V30 762 N 72.4269 -1.23603 -0.977757 0
M  V30 763 C 73.6739 -1.06971 -1.71941 0
M  V30 764 C 74.0019 0.393009 -1.90488 0
M  V30 765 O 73.2569 1.30719 -1.4564 0
M  V30 766 C 73.5559 -1.7433 -3.11999 0
M  V30 767 C 73.2219 -3.24252 -3.13323 0
M  V30 768 C 71.8839 -3.65156 -3.13392 0
M  V30 769 C 74.2359 -4.20141 -3.08433 0
M  V30 770 C 71.5639 -5.00403 -3.0629 0
M  V30 771 C 73.9159 -5.55384 -3.02873 0
M  V30 772 C 72.5799 -5.95647 -3.01265 0
M  V30 773 H 71.8499 -0.391433 -0.629175 0
M  V30 774 H 74.4969 -1.53572 -1.14403 0
M  V30 775 H 72.8019 -1.20096 -3.7294 0
M  V30 776 H 74.4989 -1.58936 -3.68158 0
M  V30 777 H 71.0889 -2.91692 -3.14029 0
M  V30 778 H 75.2729 -3.89547 -3.07517 0
M  V30 779 H 70.5289 -5.3081 -3.03399 0
M  V30 780 H 74.7029 -6.29398 -2.98046 0
M  V30 781 H 72.3299 -7.0041 -2.95516 0
M  V30 782 N 73.905 1.17692 -1.04816 0
M  V30 783 C 74.835 2.23777 -0.666791 0
M  V30 784 C 75.816 1.66796 0.33361 0
M  V30 785 O 77.001 1.93039 0.212042 0
M  V30 786 C 74.131 3.47281 -0.0367933 0
M  V30 787 C 73.085 4.17059 -0.961546 0
M  V30 788 C 72.411 5.34342 -0.195626 0
M  V30 789 C 73.711 4.69713 -2.28402 0
M  V30 790 H 75.405 2.55933 -1.55367 0
M  V30 791 H 72.951 1.23019 -0.748484 0
M  V30 792 H 74.904 4.20706 0.241775 0
M  V30 793 H 73.628 3.14381 0.885004 0
M  V30 794 H 72.287 3.45541 -1.22462 0
M  V30 795 H 71.935 4.97692 0.728816 0
M  V30 796 H 71.635 5.81966 -0.811775 0
M  V30 797 H 73.159 6.10553 0.0757473 0
M  V30 798 H 74.573 5.34794 -2.06563 0
M  V30 799 H 72.97 5.279 -2.8538 0
M  V30 800 H 74.04 3.86726 -2.92525 0
M  V30 801 N 75.3831 0.828654 1.34056 0
M  V30 802 C 76.6081 0.431637 2.02859 0
M  V30 803 C 77.0331 -0.956339 1.61975 0
M  V30 804 O 76.3911 -1.62338 0.807228 0
M  V30 805 C 76.4391 0.548323 3.56407 0
M  V30 806 O 75.5431 -0.429556 4.10157 0
M  V30 807 H 74.8841 0.176886 0.640006 0
M  V30 808 H 77.4141 1.12066 1.71179 0
M  V30 809 H 77.4241 0.426196 4.05768 0
M  V30 810 H 76.0991 1.5606 3.8551 0
M  V30 811 H 74.6761 -0.265836 3.71951 0
M  V30 812 N 76.8612 -1.46375 0.584142 0
M  V30 813 C 78.1072 -2.03248 0.0787103 0
M  V30 814 C 78.4622 -1.44737 -1.26763 0
M  V30 815 O 77.7552 -0.603625 -1.81843 0
M  V30 816 C 77.9492 -3.57373 -0.0439342 0
M  V30 817 C 77.7782 -4.30831 1.28897 0
M  V30 818 C 76.5482 -4.69683 1.8635 0
M  V30 819 C 78.7462 -4.64278 2.21248 0
M  V30 820 N 76.7282 -5.27898 3.13365 0
M  V30 821 C 78.0992 -5.23078 3.32851 0
M  V30 822 C 80.1542 -4.46209 2.20911 0
M  V30 823 C 78.8572 -5.65715 4.44251 0
M  V30 824 C 80.8832 -4.89864 3.31341 0
M  V30 825 C 80.2452 -5.48736 4.41665 0
M  V30 826 H 76.3442 -0.778714 0.0716144 0
M  V30 827 H 78.9282 -1.78509 0.777355 0
M  V30 828 H 77.0992 -3.81823 -0.711749 0
M  V30 829 H 78.8312 -4.00892 -0.553881 0
M  V30 830 H 75.5862 -4.52488 1.39826 0
M  V30 831 H 76.0102 -5.61525 3.78178 0
M  V30 832 H 80.6522 -4.00027 1.36888 0
M  V30 833 H 78.3702 -6.10875 5.29015 0
M  V30 834 H 81.9562 -4.77634 3.322 0
M  V30 835 H 80.8362 -5.81898 5.25704 0
M  V30 836 N 78.3393 -0.321999 -1.54275 0
M  V30 837 C 79.3023 0.531975 -2.22941 0
M  V30 838 C 80.3023 1.04478 -1.22234 0
M  V30 839 O 81.4923 0.937452 -1.46825 0
M  V30 840 C 78.6243 1.73874 -2.93224 0
M  V30 841 H 79.8173 -0.0682612 -2.99822 0
M  V30 842 H 77.3703 -0.0730644 -1.56129 0
M  V30 843 H 78.1053 2.37825 -2.20476 0
M  V30 844 H 77.8903 1.37847 -3.6707 0
M  V30 845 H 79.3803 2.34496 -3.45545 0
M  V30 846 N 79.8174 1.5752 -0.0501392 0
M  V30 847 C 81.0424 1.97376 0.636997 0
M  V30 848 C 81.4674 0.927466 1.63645 0
M  V30 849 O 80.8254 -0.10941 1.8097 0
M  V30 850 C 80.8734 3.36304 1.30123 0
M  V30 851 O 79.9774 3.34156 2.41689 0
M  V30 852 H 79.3184 0.642998 0.165679 0
M  V30 853 H 81.8484 2.04258 -0.118233 0
M  V30 854 H 81.8584 3.73008 1.65315 0
M  V30 855 H 80.5334 4.11993 0.568746 0
M  V30 856 H 79.1104 3.09196 2.08451 0
M  V30 857 N 81.2955 -0.223234 1.56011 0
M  V30 858 C 82.7065 -0.790368 1.69145 0
M  V30 859 C 83.0575 -1.85055 0.651845 0
M  V30 860 O 82.1825 -2.15498 -0.197359 0
M  V30 861 C 82.7775 -1.4404 3.06656 0
M  V30 862 C 81.3365 -1.95494 3.2165 0
M  V30 863 C 80.4835 -0.814506 2.65068 0
M  V30 864 H 83.4345 0.00139011 1.587 0
M  V30 865 H 83.4555 -2.30916 3.0242 0
M  V30 866 H 82.9675 -0.668543 3.82298 0
M  V30 867 H 81.0685 -2.75487 2.50874 0
M  V30 868 H 81.1815 -2.13607 4.28846 0
M  V30 869 H 79.5455 -1.22137 2.23505 0
M  V30 870 H 80.3285 -0.0553515 3.43255 0
M  V30 871 N 82.7736 -1.49793 -0.48987 0
M  V30 872 C 84.0206 -1.59841 -1.24327 0
M  V30 873 C 84.3486 -0.290135 -1.92324 0
M  V30 874 O 83.6036 0.722749 -1.81865 0
M  V30 875 C 83.9026 -2.71488 -2.32441 0
M  V30 876 C 83.5686 -4.12614 -1.81826 0
M  V30 877 C 82.2306 -4.51017 -1.67742 0
M  V30 878 C 84.5826 -5.00892 -1.4407 0
M  V30 879 C 81.9106 -5.75459 -1.14297 0
M  V30 880 C 84.2626 -6.25863 -0.920742 0
M  V30 881 C 82.9266 -6.63086 -0.766383 0
M  V30 882 H 82.1966 -0.584899 -0.454944 0
M  V30 883 H 84.8436 -1.83663 -0.542215 0
M  V30 884 H 83.1486 -2.4168 -3.0838 0
M  V30 885 H 84.8456 -2.76469 -2.90458 0
M  V30 886 H 81.4356 -3.82307 -1.93751 0
M  V30 887 H 85.6196 -4.7187 -1.53794 0
M  V30 888 H 80.8756 -6.02989 -1.01068 0
M  V30 889 H 85.0496 -6.9364 -0.619448 0
M  V30 890 H 82.6766 -7.59393 -0.350083 0
M  V30 891 N 84.2517 0.741722 -1.39055 0
M  V30 892 C 85.4977 1.50336 -1.36113 0
M  V30 893 C 85.8307 1.94148 0.0450796 0
M  V30 894 O 85.1057 1.66301 1.00868 0
M  V30 895 C 85.3887 2.74773 -2.32749 0
M  V30 896 C 85.2417 2.37023 -3.82283 0
M  V30 897 C 86.5607 3.76846 -2.27322 0
M  V30 898 H 83.6797 0.545351 -0.495743 0
M  V30 899 H 86.3217 0.848624 -1.69995 0
M  V30 900 H 84.4717 3.30639 -2.03986 0
M  V30 901 H 86.1437 1.8684 -4.21768 0
M  V30 902 H 84.3867 1.69334 -3.99385 0
M  V30 903 H 85.0577 3.26104 -4.45376 0
M  V30 904 H 87.5337 3.30548 -2.5274 0
M  V30 905 H 86.4097 4.6159 -2.97028 0
M  V30 906 H 86.6707 4.23286 -1.27599 0
M  V30 907 N 85.7298 1.2412 0.971189 0
M  V30 908 C 86.9548 1.10667 1.75407 0
M  V30 909 C 87.3798 -0.337048 1.85056 0
M  V30 910 O 86.7378 -1.24396 1.31892 0
M  V30 911 C 86.7858 1.74726 3.15441 0
M  V30 912 O 85.8898 1.01566 3.99697 0
M  V30 913 H 85.2308 0.387341 0.539317 0
M  V30 914 H 87.7608 1.64358 1.2185 0
M  V30 915 H 87.7708 1.80341 3.6598 0
M  V30 916 H 86.4458 2.79773 3.07734 0
M  V30 917 H 85.0228 1.03713 3.58187 0
M  V30 918 N 87.2079 -1.17134 1.05439 0
M  V30 919 C 88.1549 -2.21235 0.657539 0
M  V30 920 C 89.1249 -1.62551 -0.341543 0
M  V30 921 O 90.3099 -1.89379 -0.232393 0
M  V30 922 C 87.4499 -3.45076 0.0410575 0
M  V30 923 C 86.5629 -4.18042 1.08927 0
M  V30 924 C 85.6979 -5.29376 0.439848 0
M  V30 925 C 84.7369 -5.94132 1.4722 0
M  V30 926 N 83.8739 -6.96975 0.846756 0
M  V30 927 H 88.7139 -2.54534 1.54972 0
M  V30 928 H 86.2509 -1.25028 0.775006 0
M  V30 929 H 88.2089 -4.15862 -0.33383 0
M  V30 930 H 86.8389 -3.12353 -0.814568 0
M  V30 931 H 85.8909 -3.45945 1.58196 0
M  V30 932 H 87.2029 -4.62306 1.87282 0
M  V30 933 H 86.3569 -6.06699 0.0115125 0
M  V30 934 H 85.0959 -4.86251 -0.375656 0
M  V30 935 H 84.1009 -5.15538 1.91052 0
M  V30 936 H 85.3259 -6.39337 2.28965 0
M  V30 937 H 83.2719 -6.5598 0.0518075 0
M  V30 938 H 83.1889 -7.39565 1.5678 0
M  V30 939 H 84.4569 -7.78239 0.443277 0
M  V30 940 N 88.686 -0.835752 -1.33615 0
M  V30 941 C 89.932 -0.430596 -1.98176 0
M  V30 942 C 90.265 1.00684 -1.66061 0
M  V30 943 O 89.54 1.70339 -0.938877 0
M  V30 944 C 89.823 -0.648065 -3.5422 0
M  V30 945 C 89.676 -2.13255 -3.96033 0
M  V30 946 C 90.995 -0.0922113 -4.40003 0
M  V30 947 H 88.114 -0.157924 -0.719881 0
M  V30 948 H 90.756 -1.05069 -1.58305 0
M  V30 949 H 88.906 -0.120237 -3.88314 0
M  V30 950 H 90.578 -2.725 -3.72211 0
M  V30 951 H 88.821 -2.61823 -3.45878 0
M  V30 952 H 89.492 -2.23547 -5.04708 0
M  V30 953 H 91.968 -0.543343 -4.12537 0
M  V30 954 H 90.844 -0.274083 -5.48215 0
M  V30 955 H 91.105 1.00378 -4.30554 0
M  V30 956 N 90.1641 1.46063 -0.591896 0
M  V30 957 C 91.1111 2.30399 0.136069 0
M  V30 958 C 92.0811 1.41169 0.875238 0
M  V30 959 O 93.2661 1.70112 0.86409 0
M  V30 960 C 90.4061 3.25804 1.13781 0
M  V30 961 C 89.5191 4.30134 0.401137 0
M  V30 962 C 88.6541 5.12659 1.39121 0
M  V30 963 C 87.6931 6.0873 0.641462 0
M  V30 964 N 86.8301 6.8409 1.58004 0
M  V30 965 H 91.6701 2.92118 -0.589144 0
M  V30 966 H 89.2071 1.43959 -0.302342 0
M  V30 967 H 91.1651 3.79569 1.73156 0
M  V30 968 H 89.7951 2.65872 1.83062 0
M  V30 969 H 88.8471 3.79152 -0.307826 0
M  V30 970 H 90.1591 4.98458 -0.184565 0
M  V30 971 H 89.3131 5.70747 2.05749 0
M  V30 972 H 88.0521 4.44316 2.01084 0
M  V30 973 H 87.0571 5.49786 -0.0385419 0
M  V30 974 H 88.2821 6.79095 0.0270945 0
M  V30 975 H 86.2281 6.18449 2.18761 0
M  V30 976 H 86.1451 7.48709 1.04738 0
M  V30 977 H 87.4131 7.4673 2.23639 0
M  V30 978 N 91.6422 0.330177 1.54103 0
M  V30 979 C 92.5522 -0.541534 2.28264 0
M  V30 980 C 93.5682 -1.12351 1.32866 0
M  V30 981 O 94.7442 -1.14206 1.65888 0
M  V30 982 C 91.8092 -1.68322 3.03098 0
M  V30 983 C 90.8702 -1.13238 4.14096 0
M  V30 984 C 90.1032 -2.21966 4.85352 0
M  V30 985 O 90.3262 -3.42437 4.56172 0
M  V30 986 O 89.2602 -1.87013 5.7211 0
M  V30 987 H 93.0862 0.060938 3.03639 0
M  V30 988 H 90.6712 0.09565 1.49093 0
M  V30 989 H 92.5532 -2.34777 3.49939 0
M  V30 990 H 91.2282 -2.27176 2.30593 0
M  V30 991 H 90.1352 -0.432736 3.71589 0
M  V30 992 H 91.4682 -0.588898 4.88664 0
M  V30 993 N 93.1203 -1.57491 0.0584922 0
M  V30 994 C 94.0503 -2.14988 -0.911178 0
M  V30 995 C 95.0313 -1.07343 -1.31952 0
M  V30 996 O 96.2163 -1.35318 -1.39294 0
M  V30 997 C 93.3463 -2.70078 -2.18347 0
M  V30 998 C 92.3003 -3.82771 -1.91495 0
M  V30 999 C 91.6263 -4.24408 -3.25241 0
M  V30 1000 C 92.9263 -5.07592 -1.23075 0
M  V30 1001 H 94.6203 -2.96263 -0.432246 0
M  V30 1002 H 92.1663 -1.42512 -0.206469 0
M  V30 1003 H 94.1193 -3.08943 -2.86587 0
M  V30 1004 H 92.8433 -1.86005 -2.68458 0
M  V30 1005 H 91.5023 -3.44389 -1.25664 0
M  V30 1006 H 91.1503 -3.37275 -3.73168 0
M  V30 1007 H 90.8503 -5.00366 -3.08071 0
M  V30 1008 H 92.3743 -4.65879 -3.94701 0
M  V30 1009 H 93.7883 -5.43857 -1.81362 0
M  V30 1010 H 92.1853 -5.88741 -1.16207 0
M  V30 1011 H 93.2553 -4.84454 -0.207847 0
M  V30 1012 N 94.5984 0.214957 -1.56127 0
M  V30 1013 C 96.0144 0.564948 -1.49267 0
M  V30 1014 C 96.2144 1.86827 -0.754838 0
M  V30 1015 O 95.2704 2.50745 -0.297198 0
M  V30 1016 C 96.5834 0.638071 -2.93852 0
M  V30 1017 C 98.1314 0.728253 -3.0441 0
M  V30 1018 C 98.6064 0.832663 -4.50367 0
M  V30 1019 N 100.097 0.896712 -4.54437 0
M  V30 1020 C 100.832 0.997324 -5.6466 0
M  V30 1021 N 100.328 1.06147 -6.8462 0
M  V30 1022 N 102.121 1.03297 -5.52527 0
M  V30 1023 H 94.2724 -0.640211 -2.02522 0
M  V30 1024 H 96.5354 -0.225507 -0.920788 0
M  V30 1025 H 96.2414 -0.250126 -3.50809 0
M  V30 1026 H 96.1154 1.49947 -3.46115 0
M  V30 1027 H 98.5024 1.60689 -2.47514 0
M  V30 1028 H 98.5834 -0.158952 -2.55306 0
M  V30 1029 H 98.2274 -0.0415417 -5.07883 0
M  V30 1030 H 98.1574 1.73538 -4.97184 0
M  V30 1031 H 100.648 0.857188 -3.6805 0
M  V30 1032 H 100.961 1.1382 -7.64372 0
M  V30 1033 H 99.3064 1.03049 -6.87318 0
M  V30 1034 H 102.497 0.979558 -4.57736 0
M  V30 1035 H 102.67 1.10793 -6.38458 0
M  V30 1036 N 96.0765 1.50051 0.48192 0
M  V30 1037 C 97.0065 1.71046 1.58951 0
M  V30 1038 C 97.9875 0.559288 1.60642 0
M  V30 1039 O 99.1725 0.797243 1.77081 0
M  V30 1040 C 96.3025 1.79462 2.97339 0
M  V30 1041 C 95.2565 2.94558 3.10515 0
M  V30 1042 C 94.5825 2.88105 4.50444 0
M  V30 1043 C 95.8825 4.35227 2.88747 0
M  V30 1044 H 97.5765 2.6378 1.41635 0
M  V30 1045 H 95.1225 1.26936 0.679942 0
M  V30 1046 H 97.0755 1.92734 3.74742 0
M  V30 1047 H 95.7995 0.833412 3.15788 0
M  V30 1048 H 94.4585 2.80918 2.35543 0
M  V30 1049 H 94.1065 1.89853 4.65795 0
M  V30 1050 H 93.8065 3.65366 4.60197 0
M  V30 1051 H 95.3305 3.03412 5.29881 0
M  V30 1052 H 96.7445 4.49449 3.55905 0
M  V30 1053 H 95.1415 5.13856 3.09955 0
M  V30 1054 H 96.2115 4.48347 1.84696 0
M  V30 1055 N 97.5546 -0.734337 1.39446 0
M  V30 1056 C 98.4866 -1.85861 1.34121 0
M  V30 1057 C 99.4996 -1.60871 0.249864 0
M  V30 1058 O 100.689 -1.71093 0.508865 0
M  V30 1059 C 97.7886 -3.21899 1.05991 0
M  V30 1060 C 96.9616 -3.74239 2.26415 0
M  V30 1061 C 96.0206 -4.88841 1.94733 0
M  V30 1062 O 95.0466 -5.02468 2.67422 0
M  V30 1063 N 96.2486 -5.73261 0.913884 0
M  V30 1064 H 99.0136 -1.90934 2.31007 0
M  V30 1065 H 96.5746 -0.915102 1.33557 0
M  V30 1066 H 98.5666 -3.96136 0.828147 0
M  V30 1067 H 97.1366 -3.12091 0.178361 0
M  V30 1068 H 96.3566 -2.91347 2.65539 0
M  V30 1069 H 97.6446 -4.05942 3.06738 0
M  V30 1070 H 97.0426 -5.64842 0.311476 0
M  V30 1071 H 95.5996 -6.47563 0.742015 0
M  V30 1072 N 99.0327 -1.24633 -0.964593 0
M  V30 1073 C 100.449 -1.01239 -1.2338 0
M  V30 1074 C 100.649 0.2769 -1.99588 0
M  V30 1075 O 99.7047 0.992241 -2.32187 0
M  V30 1076 C 101.018 -2.22937 -2.01791 0
M  V30 1077 C 102.566 -2.27594 -2.14872 0
M  V30 1078 C 103.041 -3.48921 -2.96678 0
M  V30 1079 N 104.532 -3.49257 -3.04259 0
M  V30 1080 C 105.267 -4.39795 -3.67924 0
M  V30 1081 N 104.763 -5.40591 -4.33281 0
M  V30 1082 N 106.556 -4.275 -3.64966 0
M  V30 1083 H 98.7067 -2.0748 -0.454502 0
M  V30 1084 H 100.97 -0.910647 -0.26349 0
M  V30 1085 H 100.676 -3.16587 -1.53184 0
M  V30 1086 H 100.55 -2.25306 -3.02518 0
M  V30 1087 H 102.937 -1.34473 -2.6268 0
M  V30 1088 H 103.018 -2.2925 -1.13482 0
M  V30 1089 H 102.662 -4.42359 -2.49562 0
M  V30 1090 H 102.592 -3.4451 -3.98272 0
M  V30 1091 H 105.083 -2.76337 -2.57771 0
M  V30 1092 H 105.396 -6.05904 -4.79687 0
M  V30 1093 H 103.741 -5.44475 -4.3194 0
M  V30 1094 H 106.932 -3.47987 -3.13086 0
M  V30 1095 H 107.105 -4.98258 -4.14298 0
M  V30 1096 N 100.511 1.16574 -1.06058 0
M  V30 1097 C 101.788 1.83048 -0.689416 0
M  V30 1098 C 102.168 1.94122 0.829443 0
M  V30 1099 O 101.516 1.48249 1.7388 0
M  V30 1100 C 101.726 3.20186 -1.38859 0
M  V30 1101 C 103.074 3.95989 -1.53226 0
M  V30 1102 O 104.098 3.29696 -1.3483 0
M  V30 1103 O 102.957 5.14813 -1.83384 0
M  V30 1104 H 100.051 0.790258 -0.243764 0
M  V30 1105 H 102.597 1.23797 -1.16071 0
M  V30 1106 H 101.369 3.07146 -2.4244 0
M  V30 1107 H 100.992 3.87112 -0.907216 0
M  V30 1108 N 101.989 0.842826 1.3317 0
M  V30 1109 C 103.266 0.362216 1.92217 0
M  V30 1110 C 103.646 -1.15289 1.76838 0
M  V30 1111 O 102.994 -1.96914 1.15919 0
M  V30 1112 C 103.204 0.813495 3.39387 0
M  V30 1113 C 104.552 0.823804 4.16532 0
M  V30 1114 O 105.576 0.757358 3.48055 0
M  V30 1115 O 104.435 0.915193 5.38782 0
M  V30 1116 H 101.529 0.103317 0.820521 0
M  V30 1117 H 104.075 0.928942 1.42017 0
M  V30 1118 H 102.847 1.85624 3.4447 0
M  V30 1119 H 102.47 0.223561 3.96971 0
M  V30 1120 N 103.467 -1.45747 0.599634 0
M  V30 1121 C 104.714 -2.02292 0.0917284 0
M  V30 1122 C 105.042 -1.46906 -1.27472 0
M  V30 1123 O 104.297 -0.630652 -1.8526 0
M  V30 1124 C 104.596 -3.57399 -0.00602758 0
M  V30 1125 C 104.262 -4.31902 1.29503 0
M  V30 1126 C 102.924 -4.51974 1.65144 0
M  V30 1127 C 105.276 -4.74551 2.15525 0
M  V30 1128 C 102.604 -5.11949 2.86574 0
M  V30 1129 C 104.956 -5.35868 3.36196 0
M  V30 1130 C 103.62 -5.54165 3.72099 0
M  V30 1131 H 102.89 -0.740239 0.0335658 0
M  V30 1132 H 105.537 -1.7491 0.779661 0
M  V30 1133 H 103.842 -3.84014 -0.777183 0
M  V30 1134 H 105.539 -3.98846 -0.415038 0
M  V30 1135 H 102.129 -4.16588 1.00761 0
M  V30 1136 H 106.313 -4.58784 1.8929 0
M  V30 1137 H 101.569 -5.24305 3.14507 0
M  V30 1138 H 105.743 -5.6787 4.03109 0
M  V30 1139 H 103.37 -6.00406 4.6628 0
M  V30 1140 N 104.945 -0.338344 -1.53925 0
M  V30 1141 C 105.855 0.529421 -2.28548 0
M  V30 1142 C 106.871 1.11645 -1.3346 0
M  V30 1143 O 108.047 1.13325 -1.66492 0
M  V30 1144 C 105.112 1.66713 -3.03987 0
M  V30 1145 C 104.173 1.11041 -4.14691 0
M  V30 1146 C 103.406 2.19389 -4.86522 0
M  V30 1147 O 103.629 3.40013 -4.57982 0
M  V30 1148 O 102.563 1.83976 -5.73094 0
M  V30 1149 H 106.389 -0.0770399 -3.03602 0
M  V30 1150 H 103.974 -0.103555 -1.49041 0
M  V30 1151 H 105.856 2.32918 -3.5118 0
M  V30 1152 H 104.531 2.25949 -2.31794 0
M  V30 1153 H 103.438 0.413024 -3.71813 0
M  V30 1154 H 104.771 0.562975 -4.8897 0
M  V30 1155 N 106.423 1.57458 -0.0668435 0
M  V30 1156 C 107.672 1.92477 0.602947 0
M  V30 1157 C 107.985 0.948419 1.71068 0
M  V30 1158 O 109.191 1.19124 2.43971 0
M  V30 1159 C 107.647 3.41903 1.12383 0
M  V30 1160 C 107.255 4.47975 0.04737 0
M  V30 1161 C 108.999 3.85931 1.76797 0
M  V30 1162 C 106.906 5.88529 0.582022 0
M  V30 1163 H 105.836 0.718387 0.22899 0
M  V30 1164 H 108.487 1.82978 -0.138276 0
M  V30 1165 H 106.869 3.46459 1.91787 0
M  V30 1166 H 108.043 4.55029 -0.726978 0
M  V30 1167 H 106.358 4.13384 -0.500243 0
M  V30 1168 H 108.955 4.88322 2.17821 0
M  V30 1169 H 109.298 3.23029 2.62599 0
M  V30 1170 H 109.831 3.83958 1.04024 0
M  V30 1171 H 106.57 6.55065 -0.238721 0
M  V30 1172 H 106.09 5.85004 1.324 0
M  V30 1173 H 107.769 6.38258 1.05999 0
M  V30 1174 N 107.901 -0.206675 1.56239 0
M  V30 1175 C 108.831 -1.25909 1.96645 0
M  V30 1176 C 109.812 -1.48097 0.836734 0
M  V30 1177 O 110.997 -1.6003 1.10019 0
M  V30 1178 C 108.127 -2.6058 2.29599 0
M  V30 1179 C 107.081 -2.53024 3.452 0
M  V30 1180 C 106.407 -3.91861 3.63798 0
M  V30 1181 C 107.707 -2.06524 4.79734 0
M  V30 1182 H 109.401 -0.923369 2.84806 0
M  V30 1183 H 106.947 -0.442735 1.37025 0
M  V30 1184 H 108.9 -3.34375 2.56459 0
M  V30 1185 H 107.624 -2.95869 1.38307 0
M  V30 1186 H 106.283 -1.81684 3.18412 0
M  V30 1187 H 105.931 -4.24483 2.69857 0
M  V30 1188 H 105.631 -3.87683 4.4156 0
M  V30 1189 H 107.155 -4.67296 3.93022 0
M  V30 1190 H 108.569 -2.70072 5.05702 0
M  V30 1191 H 106.966 -2.13374 5.60885 0
M  V30 1192 H 108.036 -1.01802 4.74093 0
M  V30 1193 N 109.379 -1.50304 -0.473955 0
M  V30 1194 C 110.326 -1.68959 -1.57231 0
M  V30 1195 C 111.296 -0.530899 -1.57387 0
M  V30 1196 O 112.481 -0.761133 -1.74961 0
M  V30 1197 C 109.621 -1.7871 -2.95223 0
M  V30 1198 C 108.734 -3.06061 -3.04878 0
M  V30 1199 C 107.869 -3.06626 -4.33767 0
M  V30 1200 C 106.908 -4.28443 -4.37154 0
M  V30 1201 N 106.045 -4.26763 -5.5751 0
M  V30 1202 H 110.885 -2.6273 -1.40631 0
M  V30 1203 H 108.422 -1.30241 -0.683789 0
M  V30 1204 H 110.38 -1.82344 -3.75242 0
M  V30 1205 H 109.01 -0.883806 -3.10465 0
M  V30 1206 H 108.062 -3.11911 -2.17751 0
M  V30 1207 H 109.374 -3.96039 -3.0324 0
M  V30 1208 H 108.528 -3.08973 -5.22131 0
M  V30 1209 H 107.267 -2.14473 -4.3801 0
M  V30 1210 H 106.272 -4.2631 -3.47188 0
M  V30 1211 H 107.497 -5.2182 -4.34605 0
M  V30 1212 H 105.443 -3.37462 -5.62544 0
M  V30 1213 H 105.36 -5.10507 -5.57601 0
M  V30 1214 H 106.628 -4.33253 -6.48006 0
M  V30 1215 N 110.857 0.726932 -1.39834 0
M  V30 1216 C 112.103 1.48884 -1.377 0
M  V30 1217 C 112.436 1.94185 0.0244852 0
M  V30 1218 O 111.711 1.67361 0.990986 0
M  V30 1219 C 111.994 2.72288 -2.3565 0
M  V30 1220 C 111.847 2.32956 -3.84775 0
M  V30 1221 C 113.166 3.74414 -2.31306 0
M  V30 1222 H 110.285 0.540062 -0.5015 0
M  V30 1223 H 112.927 0.830547 -1.70886 0
M  V30 1224 H 111.077 3.28457 -2.07481 0
M  V30 1225 H 112.749 1.82356 -4.23726 0
M  V30 1226 H 110.992 1.65088 -4.01159 0
M  V30 1227 H 111.663 3.21362 -4.4881 0
M  V30 1228 H 114.139 3.27849 -2.56231 0
M  V30 1229 H 113.015 4.58414 -3.01907 0
M  V30 1230 H 113.276 4.21909 -1.32081 0
M  V30 1231 N 112.336 1.25143 0.95797 0
M  V30 1232 C 113.585 1.0909 1.69654 0
M  V30 1233 C 113.898 -0.368548 1.92097 0
M  V30 1234 O 115.104 -0.649455 2.63618 0
M  V30 1235 C 113.56 1.90395 3.05414 0
M  V30 1236 C 113.168 3.4081 2.90779 0
M  V30 1237 C 114.912 1.82901 3.83076 0
M  V30 1238 C 112.819 4.14423 4.21909 0
M  V30 1239 H 111.749 0.404625 0.636235 0
M  V30 1240 H 114.4 1.4931 1.06672 0
M  V30 1241 H 112.782 1.42996 3.69281 0
M  V30 1242 H 113.956 3.95859 2.35865 0
M  V30 1243 H 112.271 3.49361 2.26575 0
M  V30 1244 H 114.868 2.35196 4.80195 0
M  V30 1245 H 115.211 0.796224 4.08615 0
M  V30 1246 H 115.744 2.28033 3.25954 0
M  V30 1247 H 112.483 5.18102 4.01561 0
M  V30 1248 H 112.003 3.64159 4.76601 0
M  V30 1249 H 113.682 4.21956 4.90471 0
M  V30 1250 N 113.814 -1.1601 1.06675 0
M  V30 1251 C 115.062 -1.86264 0.784229 0
M  V30 1252 C 115.383 -1.82328 -0.691488 0
M  V30 1253 O 114.653 -1.25947 -1.50047 0
M  V30 1254 H 113.233 -0.689621 0.28711 0
M  V30 1255 H 115.895 -1.40664 1.34906 0
M  V30 1256 H 114.991 -2.91595 1.11259 0
M  V30 1257 N 115.292 -0.849877 -1.32721 0
M  V30 1258 C 116.708 -0.539102 -1.50219 0
M  V30 1259 C 116.908 0.931271 -1.78689 0
M  V30 1260 O 115.964 1.71455 -1.85363 0
M  V30 1261 C 117.277 -1.42196 -2.64954 0
M  V30 1262 C 118.825 -1.42189 -2.78839 0
M  V30 1263 C 119.3 -2.28985 -3.96648 0
M  V30 1264 N 120.791 -2.26754 -4.03902 0
M  V30 1265 C 121.526 -2.90644 -4.94281 0
M  V30 1266 N 121.022 -3.63629 -5.897 0
M  V30 1267 N 122.815 -2.80057 -4.87365 0
M  V30 1268 H 114.966 -1.80156 -1.12506 0
M  V30 1269 H 117.229 -0.769217 -0.554085 0
M  V30 1270 H 116.935 -2.46733 -2.50631 0
M  V30 1271 H 116.809 -1.10591 -3.60624 0
M  V30 1272 H 119.196 -0.38419 -2.92588 0
M  V30 1273 H 119.277 -1.77807 -1.83898 0
M  V30 1274 H 118.921 -3.32819 -3.83658 0
M  V30 1275 H 118.851 -1.90702 -4.90857 0
M  V30 1276 H 121.342 -1.73688 -3.3562 0
M  V30 1277 H 121.655 -4.09558 -6.55349 0
M  V30 1278 H 120 -3.67737 -5.89741 0
M  V30 1279 H 123.191 -2.22593 -4.11789 0
M  V30 1280 H 123.364 -3.30132 -5.57599 0
M  V30 1281 N 116.77 1.45427 -0.607355 0
M  V30 1282 C 118.018 2.01841 -0.102253 0
M  V30 1283 C 118.339 1.47832 1.27164 0
M  V30 1284 O 117.609 0.672497 1.83995 0
M  V30 1285 H 116.189 0.746188 -0.0348101 0
M  V30 1286 H 118.851 1.78229 -0.7887 0
M  V30 1287 H 117.947 3.12057 -0.0518585 0
M  V30 1288 N 118.248 0.346503 1.53744 0
M  V30 1289 C 119.211 -0.496439 2.23759 0
M  V30 1290 C 120.211 -1.0252 1.2388 0
M  V30 1291 O 121.401 -0.913974 1.48297 0
M  V30 1292 C 118.533 -1.69187 2.95954 0
M  V30 1293 H 119.726 0.115952 2.99676 0
M  V30 1294 H 117.279 0.0978939 1.55993 0
M  V30 1295 H 118.014 -2.34288 2.24231 0
M  V30 1296 H 117.799 -1.31989 3.69217 0
M  V30 1297 H 119.289 -2.28969 3.49232 0
M  V30 1298 N 119.726 -1.57421 0.075193 0
M  V30 1299 C 120.973 -1.93618 -0.593146 0
M  V30 1300 C 121.301 -0.955484 -1.69413 0
M  V30 1301 O 120.556 0.0283251 -1.9568 0
M  V30 1302 C 120.855 -3.36428 -1.20626 0
M  V30 1303 C 120.521 -4.50307 -0.231078 0
M  V30 1304 C 119.183 -4.81186 0.0371936 0
M  V30 1305 C 121.535 -5.19374 0.435888 0
M  V30 1306 C 118.863 -5.78466 0.979461 0
M  V30 1307 C 121.215 -6.17665 1.3665 0
M  V30 1308 C 119.879 -6.46958 1.6432 0
M  V30 1309 H 119.149 -0.708499 -0.217047 0
M  V30 1310 H 121.796 -1.90937 0.146793 0
M  V30 1311 H 120.101 -3.35592 -2.02201 0
M  V30 1312 H 121.798 -3.61727 -1.73073 0
M  V30 1313 H 118.388 -4.26227 -0.450357 0
M  V30 1314 H 122.572 -4.95711 0.241748 0
M  V30 1315 H 117.828 -5.99487 1.20106 0
M  V30 1316 H 122.002 -6.70284 1.88924 0
M  V30 1317 H 119.629 -7.2215 2.37494 0
M  V30 1318 N 121.204 0.198386 -1.56346 0
M  V30 1319 C 122.452 0.91747 -1.80075 0
M  V30 1320 C 122.773 1.83929 -0.647692 0
M  V30 1321 O 122.043 1.93029 0.334166 0
M  V30 1322 H 120.623 0.341774 -0.664228 0
M  V30 1323 H 123.285 0.204684 -1.93822 0
M  V30 1324 H 122.381 1.51055 -2.7311 0
M  V30 1325 N 122.682 1.50554 0.465978 0
M  V30 1326 C 123.592 1.72585 1.58907 0
M  V30 1327 C 124.608 0.60911 1.6299 0
M  V30 1328 O 125.784 0.88804 1.80765 0
M  V30 1329 C 122.849 1.81995 2.95091 0
M  V30 1330 C 121.91 3.05751 3.01355 0
M  V30 1331 C 121.143 3.14702 4.31043 0
M  V30 1332 O 121.366 2.30313 5.21835 0
M  V30 1333 O 120.3 4.07468 4.43005 0
M  V30 1334 H 124.126 2.67799 1.43239 0
M  V30 1335 H 121.711 1.34711 0.646013 0
M  V30 1336 H 123.593 1.90335 3.75966 0
M  V30 1337 H 122.268 0.899659 3.10947 0
M  V30 1338 H 121.175 3.02908 2.19539 0
M  V30 1339 H 122.508 3.97375 2.90437 0
M  V30 1340 N 124.16 -0.719506 1.40217 0
M  V30 1341 C 125.406 -1.48152 1.38488 0
M  V30 1342 C 125.739 -1.94195 -0.0141867 0
M  V30 1343 O 125.014 -1.67884 -0.982096 0
M  V30 1344 C 125.297 -2.71035 2.37091 0
M  V30 1345 C 125.15 -2.30912 3.86005 0
M  V30 1346 C 126.469 -3.73182 2.33288 0
M  V30 1347 H 123.588 -0.537395 0.504357 0
M  V30 1348 H 126.23 -0.821472 1.71324 0
M  V30 1349 H 124.38 -3.27352 2.0922 0
M  V30 1350 H 126.052 -1.80107 4.24687 0
M  V30 1351 H 124.295 -1.62958 4.02029 0
M  V30 1352 H 124.966 -3.18978 4.50508 0
M  V30 1353 H 127.442 -3.26485 2.57966 0
M  V30 1354 H 126.318 -4.56806 3.04334 0
M  V30 1355 H 126.579 -4.21202 1.34317 0
M  V30 1356 N 125.638 -1.25649 -0.95132 0
M  V30 1357 C 126.866 -1.13343 -1.73092 0
M  V30 1358 C 127.281 0.312434 -1.86197 0
M  V30 1359 O 126.638 1.21465 -1.36207 0
M  V30 1360 C 126.689 -1.78602 -3.14299 0
M  V30 1361 O 126.41 -3.17537 -3.01831 0
M  V30 1362 C 127.911 -1.72119 -4.08522 0
M  V30 1363 H 125.131 -0.395181 -0.542285 0
M  V30 1364 H 127.675 -1.66076 -1.19328 0
M  V30 1365 H 125.83 -1.29832 -3.64996 0
M  V30 1366 H 126.244 -3.49676 -3.90931 0
M  V30 1367 H 127.718 -2.22435 -5.052 0
M  V30 1368 H 128.195 -0.685635 -4.33815 0
M  V30 1369 H 128.801 -2.20393 -3.63741 0
M  V30 1370 N 127.117 1.15442 -1.07289 0
M  V30 1371 C 128.363 1.86489 -0.796846 0
M  V30 1372 C 128.696 1.82078 0.675371 0
M  V30 1373 O 127.971 1.24346 1.4956 0
M  V30 1374 C 128.254 3.35626 -1.30489 0
M  V30 1375 C 128.107 3.48673 -2.84161 0
M  V30 1376 C 129.426 4.30357 -0.920907 0
M  V30 1377 H 126.545 0.677144 -0.290939 0
M  V30 1378 H 129.187 1.35633 -1.33056 0
M  V30 1379 H 127.337 3.79068 -0.850883 0
M  V30 1380 H 129.009 3.14099 -3.37846 0
M  V30 1381 H 127.252 2.90253 -3.22391 0
M  V30 1382 H 127.923 4.53453 -3.14777 0
M  V30 1383 H 130.399 3.94871 -1.3121 0
M  V30 1384 H 129.275 5.33193 -1.30372 0
M  V30 1385 H 129.536 4.4176 0.173226 0
M  V30 1386 N 128.595 0.856903 1.32268 0
M  V30 1387 C 129.841 0.462069 1.97466 0
M  V30 1388 C 130.174 -0.980298 1.67642 0
M  V30 1389 O 129.449 -1.68824 0.965858 0
M  V30 1390 C 129.732 0.704336 3.53145 0
M  V30 1391 C 129.585 2.19529 3.9259 0
M  V30 1392 C 130.904 0.1622 4.39801 0
M  V30 1393 H 128.023 0.169357 0.717278 0
M  V30 1394 H 130.665 1.07574 1.56614 0
M  V30 1395 H 128.815 0.181999 3.88073 0
M  V30 1396 H 130.487 2.78387 3.67829 0
M  V30 1397 H 128.73 2.67292 3.41668 0
M  V30 1398 H 129.401 2.31549 5.01088 0
M  V30 1399 H 131.877 0.608905 4.11621 0
M  V30 1400 H 130.753 0.361265 5.4771 0
M  V30 1401 H 131.014 -0.935158 4.32096 0
M  V30 1402 N 130.073 -1.45103 0.615059 0
M  V30 1403 C 131.489 -1.57137 0.279322 0
M  V30 1404 C 131.689 -1.60523 -1.21797 0
M  V30 1405 O 130.745 -1.53956 -2.00134 0
M  V30 1406 C 132.058 -2.85062 0.957083 0
M  V30 1407 C 133.606 -2.98749 0.933706 0
M  V30 1408 C 134.081 -4.29455 1.59162 0
M  V30 1409 N 135.572 -4.36231 1.55746 0
M  V30 1410 C 136.307 -5.36051 2.0356 0
M  V30 1411 N 135.803 -6.42367 2.59494 0
M  V30 1412 N 137.596 -5.27456 1.94284 0
M  V30 1413 H 129.747 -1.41148 1.58717 0
M  V30 1414 H 132.01 -0.675331 0.665306 0
M  V30 1415 H 131.716 -2.88488 2.01166 0
M  V30 1416 H 131.59 -3.7407 0.48494 0
M  V30 1417 H 133.977 -2.94886 -0.112347 0
M  V30 1418 H 134.058 -2.11132 1.44419 0
M  V30 1419 H 133.702 -4.34077 2.63704 0
M  V30 1420 H 133.632 -5.15901 1.0561 0
M  V30 1421 H 136.123 -3.60011 1.14893 0
M  V30 1422 H 136.436 -7.14793 2.93752 0
M  V30 1423 H 134.781 -6.43097 2.63537 0
M  V30 1424 H 137.972 -4.43308 1.5032 0
M  V30 1425 H 138.145 -6.05099 2.3186 0
M  V30 1426 N 131.551 -0.354651 -1.53558 0
M  V30 1427 C 132.483 0.5315 -2.22952 0
M  V30 1428 C 133.496 1.05503 -1.23988 0
M  V30 1429 O 134.685 0.963279 -1.50277 0
M  V30 1430 C 131.785 1.74538 -2.90499 0
M  V30 1431 C 130.958 1.35524 -4.15875 0
M  V30 1432 C 130.017 2.42999 -4.66731 0
M  V30 1433 O 129.043 2.05844 -5.30676 0
M  V30 1434 N 130.245 3.74423 -4.43608 0
M  V30 1435 H 133.01 -0.0628615 -2.99634 0
M  V30 1436 H 130.571 -0.179302 -1.60904 0
M  V30 1437 H 132.563 2.45892 -3.21433 0
M  V30 1438 H 131.133 2.24686 -2.17336 0
M  V30 1439 H 130.353 0.471998 -3.91364 0
M  V30 1440 H 131.641 1.07071 -4.97406 0
M  V30 1441 H 131.039 4.07391 -3.92491 0
M  V30 1442 H 129.596 4.41913 -4.7912 0
M  V30 1443 N 133.029 1.57378 -0.0835403 0
M  V30 1444 C 134.445 1.57246 0.273109 0
M  V30 1445 C 134.645 1.09385 1.69225 0
M  V30 1446 O 133.701 0.765051 2.40631 0
M  V30 1447 C 135.014 3.00614 0.0720628 0
M  V30 1448 C 136.562 3.12684 0.1407 0
M  V30 1449 C 137.037 4.57989 -0.0322094 0
M  V30 1450 N 138.528 4.63194 0.0230085 0
M  V30 1451 C 139.263 5.73335 -0.0861941 0
M  V30 1452 N 138.759 6.9235 -0.24958 0
M  V30 1453 N 140.552 5.62093 -0.0282886 0
M  V30 1454 H 132.703 1.86801 -1.0109 0
M  V30 1455 H 134.966 0.861687 -0.395222 0
M  V30 1456 H 134.672 3.39786 -0.907662 0
M  V30 1457 H 134.546 3.68193 0.81936 0
M  V30 1458 H 136.933 2.73391 1.11092 0
M  V30 1459 H 137.014 2.47719 -0.637896 0
M  V30 1460 H 136.658 4.97973 -0.999247 0
M  V30 1461 H 136.588 5.21 0.765937 0
M  V30 1462 H 139.079 3.77613 0.14722 0
M  V30 1463 H 139.392 7.72117 -0.324733 0
M  V30 1464 H 137.737 6.94415 -0.285097 0
M  V30 1465 H 140.928 4.67997 0.0981408 0
M  V30 1466 H 141.101 6.47895 -0.116845 0
M  V30 1467 N 134.507 -0.190092 1.56449 0
M  V30 1468 C 135.784 -0.935886 1.71757 0
M  V30 1469 C 136.164 -2.01173 0.639726 0
M  V30 1470 O 135.512 -2.25827 -0.348502 0
M  V30 1471 C 135.722 -1.51775 3.1427 0
M  V30 1472 C 137.07 -1.99794 3.74656 0
M  V30 1473 O 138.094 -1.61607 3.1743 0
M  V30 1474 O 136.953 -2.70079 4.751 0
M  V30 1475 H 134.047 -0.439229 0.700719 0
M  V30 1476 H 136.593 -0.179395 1.68749 0
M  V30 1477 H 135.365 -0.742505 3.84191 0
M  V30 1478 H 134.988 -2.33894 3.21527 0
M  V30 1479 N 135.985 -1.50799 -0.457987 0
M  V30 1480 C 137.213 -1.66218 -1.23203 0
M  V30 1481 C 137.628 -0.350894 -1.85511 0
M  V30 1482 O 136.985 0.668546 -1.69814 0
M  V30 1483 C 137.036 -2.76291 -2.33121 0
M  V30 1484 O 136.757 -4.02338 -1.73366 0
M  V30 1485 C 138.258 -3.028 -3.2377 0
M  V30 1486 H 135.478 -0.558361 -0.372121 0
M  V30 1487 H 138.022 -1.97099 -0.545179 0
M  V30 1488 H 136.177 -2.48068 -2.97558 0
M  V30 1489 H 136.591 -4.63312 -2.4585 0
M  V30 1490 H 138.065 -3.8345 -3.97077 0
M  V30 1491 H 138.542 -2.14385 -3.83322 0
M  V30 1492 H 139.148 -3.32604 -2.65056 0
M  V30 1493 N 137.463 0.71206 -1.40597 0
M  V30 1494 C 138.711 1.46907 -1.38791 0
M  V30 1495 C 139.032 1.94998 0.00780391 0
M  V30 1496 O 138.302 1.70587 0.963174 0
M  V30 1497 H 136.882 0.545043 -0.51082 0
M  V30 1498 H 139.544 0.843882 -1.75683 0
M  V30 1499 H 138.64 2.34021 -2.06496 0
M  V30 1500 N 138.941 1.26152 0.944643 0
M  V30 1501 C 139.873 1.03199 2.04652 0
M  V30 1502 C 140.886 -0.00642356 1.62799 0
M  V30 1503 O 142.075 0.233263 1.76969 0
M  V30 1504 C 139.175 0.540111 3.34568 0
M  V30 1505 C 138.348 1.64697 4.05208 0
M  V30 1506 C 137.407 1.15374 5.13396 0
M  V30 1507 O 136.433 1.85013 5.38293 0
M  V30 1508 N 137.635 0.00031529 5.805 0
M  V30 1509 H 140.4 1.9808 2.2491 0
M  V30 1510 H 137.961 1.17491 1.11389 0
M  V30 1511 H 139.953 0.194401 4.04233 0
M  V30 1512 H 138.523 -0.315021 3.11009 0
M  V30 1513 H 137.743 2.16379 3.29506 0
M  V30 1514 H 139.031 2.3903 4.49157 0
M  V30 1515 H 138.429 -0.581336 5.62705 0
M  V30 1516 H 136.986 -0.286346 6.51171 0
M  V30 1517 N 140.419 -1.14872 1.07899 0
M  V30 1518 C 141.668 -1.85135 0.800499 0
M  V30 1519 C 141.981 -1.83547 -0.676014 0
M  V30 1520 O 143.187 -2.49548 -1.06948 0
M  V30 1521 C 141.643 -3.3231 1.38197 0
M  V30 1522 C 141.251 -3.42329 2.8899 0
M  V30 1523 C 142.995 -4.0772 1.18174 0
M  V30 1524 C 140.902 -4.83684 3.403 0
M  V30 1525 H 139.832 -0.693563 0.29578 0
M  V30 1526 H 142.483 -1.29532 1.29976 0
M  V30 1527 H 140.865 -3.87618 0.810431 0
M  V30 1528 H 142.039 -2.97097 3.52236 0
M  V30 1529 H 140.354 -2.80369 3.07867 0
M  V30 1530 H 142.951 -5.12049 1.5398 0
M  V30 1531 H 143.294 -4.16124 0.12117 0
M  V30 1532 H 143.827 -3.58696 1.71994 0
M  V30 1533 H 140.566 -4.80465 4.45907 0
M  V30 1534 H 140.086 -5.29474 2.81811 0
M  V30 1535 H 141.765 -5.52558 3.36584 0
M  V30 1536 N 141.898 -0.863906 -1.31812 0
M  V30 1537 C 143.145 -0.471836 -1.96926 0
M  V30 1538 C 143.473 0.974578 -1.68322 0
M  V30 1539 O 142.728 1.7003 -0.968933 0
M  V30 1540 C 143.027 -0.668547 -3.51091 0
M  V30 1541 C 142.693 -2.08683 -3.99703 0
M  V30 1542 C 141.355 -2.47471 -4.12688 0
M  V30 1543 C 143.707 -3.01207 -4.25351 0
M  V30 1544 C 141.035 -3.78037 -4.4867 0
M  V30 1545 C 143.387 -4.31282 -4.62794 0
M  V30 1546 C 142.051 -4.69992 -4.73987 0
M  V30 1547 H 141.321 -0.172657 -0.720604 0
M  V30 1548 H 143.968 -1.09573 -1.57054 0
M  V30 1549 H 142.273 0.0385252 -3.91781 0
M  V30 1550 H 143.97 -0.345102 -3.99512 0
M  V30 1551 H 140.56 -1.77566 -3.90087 0
M  V30 1552 H 144.744 -2.72469 -4.14819 0
M  V30 1553 H 140 -4.078 -4.55532 0
M  V30 1554 H 144.174 -5.03031 -4.81594 0
M  V30 1555 H 141.801 -5.71207 -5.01624 0
M  V30 1556 N 143.376 1.44774 -0.622745 0
M  V30 1557 C 144.339 2.29069 0.0774015 0
M  V30 1558 C 145.339 1.4059 0.780461 0
M  V30 1559 O 146.529 1.62551 0.626322 0
M  V30 1560 C 143.661 3.21974 1.12006 0
M  V30 1561 H 144.854 2.92459 -0.663901 0
M  V30 1562 H 142.407 1.51548 -0.382486 0
M  V30 1563 H 143.142 2.63417 1.89162 0
M  V30 1564 H 142.927 3.87168 0.619951 0
M  V30 1565 H 144.417 3.85318 1.60995 0
M  V30 1566 N 144.854 0.36279 1.53368 0
M  V30 1567 C 145.787 -0.528507 2.21996 0
M  V30 1568 C 146.765 -1.0852 1.21087 0
M  V30 1569 O 147.949 -1.14186 1.4998 0
M  V30 1570 C 145.076 -1.72893 2.91249 0
M  V30 1571 C 144.122 -1.29994 4.06207 0
M  V30 1572 S 144.955 -0.303575 5.34639 0
M  V30 1573 C 146.111 -1.51039 6.07403 0
M  V30 1574 H 146.344 0.0543423 2.9725 0
M  V30 1575 H 143.877 0.146889 1.537 0
M  V30 1576 H 145.835 -2.41751 3.31763 0
M  V30 1577 H 144.496 -2.28303 2.15724 0
M  V30 1578 H 143.689 -2.19549 4.53667 0
M  V30 1579 H 143.291 -0.690608 3.67569 0
M  V30 1580 H 145.583 -2.44186 6.31965 0
M  V30 1581 H 146.526 -1.07721 6.99858 0
M  V30 1582 H 146.934 -1.71518 5.37812 0
M  V30 1583 N 146.332 -1.57332 0.0918853 0
M  V30 1584 C 147.279 -2.13847 -0.868211 0
M  V30 1585 C 148.249 -1.05618 -1.28196 0
M  V30 1586 O 149.434 -1.33387 -1.36427 0
M  V30 1587 C 146.574 -2.72062 -2.12312 0
M  V30 1588 C 145.687 -3.94514 -1.7602 0
M  V30 1589 C 144.822 -4.40903 -2.96273 0
M  V30 1590 C 143.861 -5.55953 -2.56092 0
M  V30 1591 N 142.998 -5.97209 -3.69169 0
M  V30 1592 H 147.838 -2.95575 -0.379406 0
M  V30 1593 H 145.375 -1.46048 -0.175606 0
M  V30 1594 H 147.333 -3.03931 -2.858 0
M  V30 1595 H 145.963 -1.93068 -2.58698 0
M  V30 1596 H 145.015 -3.68979 -0.925135 0
M  V30 1597 H 146.327 -4.7802 -1.42472 0
M  V30 1598 H 145.481 -4.74539 -3.78018 0
M  V30 1599 H 144.22 -3.56291 -3.33029 0
M  V30 1600 H 143.225 -5.21948 -1.72773 0
M  V30 1601 H 144.45 -6.42311 -2.20484 0
M  V30 1602 H 142.396 -5.15543 -4.05649 0
M  V30 1603 H 142.313 -6.75504 -3.39456 0
M  V30 1604 H 143.581 -6.35475 -4.51434 0
M  V30 1605 N 147.81 0.181792 -1.56548 0
M  V30 1606 C 148.743 1.25366 -1.90679 0
M  V30 1607 C 149.721 1.43299 -0.768376 0
M  V30 1608 O 150.905 1.58475 -1.02068 0
M  V30 1609 C 148.032 2.61826 -2.1486 0
M  V30 1610 C 147.078 2.60688 -3.37556 0
M  V30 1611 S 147.911 2.10804 -4.92262 0
M  V30 1612 C 149.067 3.49062 -5.19525 0
M  V30 1613 H 149.3 0.962277 -2.81296 0
M  V30 1614 H 146.833 0.385892 -1.495 0
M  V30 1615 H 148.791 3.40371 -2.29473 0
M  V30 1616 H 147.452 2.88169 -1.24969 0
M  V30 1617 H 146.645 3.61058 -3.51643 0
M  V30 1618 H 146.247 1.90232 -3.22006 0
M  V30 1619 H 148.539 4.45003 -5.10861 0
M  V30 1620 H 149.482 3.39859 -6.2121 0
M  V30 1621 H 149.89 3.4459 -4.47122 0
M  V30 1622 N 149.288 1.51039 0.449983 0
M  V30 1623 C 150.218 1.74379 1.55288 0
M  V30 1624 C 151.199 0.593236 1.5942 0
M  V30 1625 O 152.384 0.834625 1.7535 0
M  V30 1626 C 149.514 1.85728 2.93466 0
M  V30 1627 C 148.468 3.01078 3.04197 0
M  V30 1628 C 147.794 2.97595 4.44231 0
M  V30 1629 C 149.094 4.41254 2.7945 0
M  V30 1630 H 150.788 2.66725 1.36008 0
M  V30 1631 H 148.334 1.2835 0.652864 0
M  V30 1632 H 150.287 2.0064 3.70569 0
M  V30 1633 H 149.011 0.900207 3.13949 0
M  V30 1634 H 147.67 2.85851 2.29531 0
M  V30 1635 H 147.318 1.99691 4.61663 0
M  V30 1636 H 147.018 3.75046 4.52343 0
M  V30 1637 H 148.542 3.14583 5.23326 0
M  V30 1638 H 149.956 4.56897 3.46292 0
M  V30 1639 H 148.353 5.20315 2.98985 0
M  V30 1640 H 149.423 4.52164 1.75144 0
M  V30 1641 N 150.766 -0.704594 1.40972 0
M  V30 1642 C 151.716 -1.81051 1.38581 0
M  V30 1643 C 152.7 -1.58759 0.261585 0
M  V30 1644 O 153.892 -1.69745 0.501556 0
M  V30 1645 C 151.021 -3.19279 1.26157 0
M  V30 1646 C 150.107 -3.47296 2.43405 0
M  V30 1647 N 150.498 -3.46064 3.68881 0
M  V30 1648 C 148.796 -3.77804 2.37023 0
M  V30 1649 C 149.497 -3.72733 4.46592 0
M  V30 1650 N 148.473 -3.9203 3.76581 0
M  V30 1651 H 152.275 -1.78448 2.33525 0
M  V30 1652 H 149.789 -0.904198 1.349 0
M  V30 1653 H 151.786 -3.98488 1.22526 0
M  V30 1654 H 150.446 -3.231 0.321902 0
M  V30 1655 H 151.457 -3.26656 4.01891 0
M  V30 1656 H 148.134 -3.8905 1.51481 0
M  V30 1657 H 149.524 -3.77993 5.55492 0
M  V30 1658 N 152.244 -1.26651 -0.937939 0
M  V30 1659 C 153.191 -1.0849 -2.03712 0
M  V30 1660 C 154.161 0.011033 -1.66096 0
M  V30 1661 O 155.346 -0.149353 -1.90215 0
M  V30 1662 C 152.486 -0.72735 -3.37348 0
M  V30 1663 C 151.599 -1.89986 -3.87981 0
M  V30 1664 C 150.734 -1.48513 -5.10017 0
M  V30 1665 C 149.773 -2.62575 -5.5292 0
M  V30 1666 N 148.91 -2.21762 -6.66158 0
M  V30 1667 H 153.75 -2.02551 -2.18579 0
M  V30 1668 H 151.287 -1.00844 -1.07093 0
M  V30 1669 H 153.245 -0.50092 -4.14182 0
M  V30 1670 H 151.875 0.176298 -3.22318 0
M  V30 1671 H 150.927 -2.23913 -3.07518 0
M  V30 1672 H 152.239 -2.75586 -4.15757 0
M  V30 1673 H 151.393 -1.21934 -5.94321 0
M  V30 1674 H 150.132 -0.60009 -4.83994 0
M  V30 1675 H 149.137 -2.8988 -4.67172 0
M  V30 1676 H 150.362 -3.51685 -5.80943 0
M  V30 1677 H 148.308 -1.35696 -6.41812 0
M  V30 1678 H 148.225 -3.00903 -6.93537 0
M  V30 1679 H 149.493 -1.98403 -7.53828 0
M  V30 1680 N 153.722 1.14298 -1.08507 0
M  V30 1681 C 154.968 1.85854 -0.826438 0
M  V30 1682 C 155.323 1.81413 0.640878 0
M  V30 1683 O 154.616 1.23463 1.46518 0
M  V30 1684 C 154.81 3.33547 -1.28379 0
M  V30 1685 C 154.639 3.52369 -2.79403 0
M  V30 1686 C 153.409 3.67159 -3.47164 0
M  V30 1687 C 155.607 3.49203 -3.77573 0
M  V30 1688 N 153.589 3.74149 -4.86709 0
M  V30 1689 C 154.96 3.6245 -5.03021 0
M  V30 1690 C 157.015 3.32547 -3.70563 0
M  V30 1691 C 155.718 3.60761 -6.2229 0
M  V30 1692 C 157.744 3.32162 -4.89308 0
M  V30 1693 C 157.106 3.45949 -6.13595 0
M  V30 1694 H 153.205 0.696705 -0.355143 0
M  V30 1695 H 155.789 1.36981 -1.38362 0
M  V30 1696 H 153.96 3.81008 -0.754166 0
M  V30 1697 H 155.692 3.92867 -0.971469 0
M  V30 1698 H 152.447 3.68433 -2.9758 0
M  V30 1699 H 152.871 3.81359 -5.5937 0
M  V30 1700 H 157.513 3.20797 -2.75407 0
M  V30 1701 H 155.231 3.71286 -7.17755 0
M  V30 1702 H 158.817 3.20485 -4.85573 0
M  V30 1703 H 157.697 3.456 -7.03939 0
M  V30 1704 N 155.201 0.870884 1.31352 0
M  V30 1705 C 156.111 0.330783 2.32256 0
M  V30 1706 C 157.127 -0.559767 1.6475 0
M  V30 1707 O 158.303 -0.456263 1.96164 0
M  V30 1708 C 155.368 -0.458137 3.4366 0
M  V30 1709 C 154.429 0.460482 4.26823 0
M  V30 1710 C 153.662 -0.290881 5.32907 0
M  V30 1711 O 153.885 -1.51885 5.49806 0
M  V30 1712 O 152.819 0.351732 6.00871 0
M  V30 1713 H 156.645 1.16718 2.80376 0
M  V30 1714 H 154.23 0.634285 1.35267 0
M  V30 1715 H 156.112 -0.905343 4.1156 0
M  V30 1716 H 154.787 -1.27106 2.97701 0
M  V30 1717 H 153.694 0.956207 3.61673 0
M  V30 1718 H 155.027 1.23903 4.7635 0
M  V30 1719 N 156.679 -1.44442 0.630414 0
M  V30 1720 C 157.612 -2.27862 -0.124247 0
M  V30 1721 C 158.59 -1.38495 -0.851931 0
M  V30 1722 O 159.774 -1.67935 -0.856166 0
M  V30 1723 C 156.901 -3.17407 -1.18197 0
M  V30 1724 C 155.947 -4.22875 -0.554892 0
M  V30 1725 S 156.78 -5.31485 0.654489 0
M  V30 1726 C 157.936 -6.246 -0.40326 0
M  V30 1727 H 158.169 -2.91519 0.583435 0
M  V30 1728 H 155.702 -1.48618 0.418565 0
M  V30 1729 H 157.66 -3.69549 -1.78728 0
M  V30 1730 H 156.321 -2.52971 -1.86184 0
M  V30 1731 H 155.514 -4.85542 -1.35148 0
M  V30 1732 H 155.116 -3.73992 -0.0242105 0
M  V30 1733 H 157.408 -6.65375 -1.27602 0
M  V30 1734 H 158.351 -7.07851 0.187813 0
M  V30 1735 H 158.759 -5.59775 -0.728837 0
M  V30 1736 N 158.157 -0.370918 -1.53173 0
M  V30 1737 C 159.087 0.464847 -2.28826 0
M  V30 1738 C 160.068 1.07936 -1.31468 0
M  V30 1739 O 161.253 1.0956 -1.60344 0
M  V30 1740 C 158.383 1.60196 -3.08147 0
M  V30 1741 C 157.337 1.11443 -4.13237 0
M  V30 1742 C 156.663 2.3422 -4.80672 0
M  V30 1743 C 157.963 0.195384 -5.21934 0
M  V30 1744 H 159.657 -0.166329 -2.98938 0
M  V30 1745 H 157.203 -0.0814359 -1.4377 0
M  V30 1746 H 159.156 2.19332 -3.59822 0
M  V30 1747 H 157.88 2.26045 -2.35735 0
M  V30 1748 H 156.539 0.545727 -3.62515 0
M  V30 1749 H 156.187 2.98537 -4.04827 0
M  V30 1750 H 155.887 2.02269 -5.51689 0
M  V30 1751 H 157.411 2.94032 -5.35143 0
M  V30 1752 H 158.825 0.694375 -5.69079 0
M  V30 1753 H 157.222 -0.0335027 -6.00091 0
M  V30 1754 H 158.292 -0.760961 -4.78892 0
M  V30 1755 N 159.635 1.57281 -0.100228 0
M  V30 1756 C 160.582 2.14305 0.856858 0
M  V30 1757 C 161.552 1.06296 1.27634 0
M  V30 1758 O 162.737 1.34109 1.35718 0
M  V30 1759 C 159.877 2.73184 2.10866 0
M  V30 1760 C 158.99 3.95442 1.73925 0
M  V30 1761 C 158.125 4.42468 2.93931 0
M  V30 1762 C 157.164 5.57303 2.5314 0
M  V30 1763 N 156.301 5.99158 3.65997 0
M  V30 1764 H 161.141 2.95772 0.363726 0
M  V30 1765 H 158.678 1.46139 0.167858 0
M  V30 1766 H 160.636 3.05442 2.84185 0
M  V30 1767 H 159.266 1.94437 2.57671 0
M  V30 1768 H 158.318 3.69464 0.905554 0
M  V30 1769 H 159.63 4.78769 1.39935 0
M  V30 1770 H 158.784 4.76537 3.75496 0
M  V30 1771 H 157.523 3.58052 3.31134 0
M  V30 1772 H 156.528 5.22857 1.70003 0
M  V30 1773 H 157.753 6.43471 2.17075 0
M  V30 1774 H 155.699 5.17687 4.02909 0
M  V30 1775 H 155.616 6.77295 3.35869 0
M  V30 1776 H 156.884 6.3786 4.48057 0
M  V30 1777 N 161.113 -0.173488 1.56642 0
M  V30 1778 C 162.529 -0.525174 1.50712 0
M  V30 1779 C 162.729 -1.8476 0.804107 0
M  V30 1780 O 161.785 -2.49869 0.363574 0
M  V30 1781 C 163.098 -0.559937 2.95441 0
M  V30 1782 C 164.646 -0.647288 3.06234 0
M  V30 1783 C 165.121 -0.712963 4.52417 0
M  V30 1784 N 166.612 -0.775911 4.56655 0
M  V30 1785 C 167.347 -0.847264 5.67106 0
M  V30 1786 N 166.843 -0.879585 6.87194 0
M  V30 1787 N 168.636 -0.886117 5.55071 0
M  V30 1788 H 160.787 0.693681 2.00753 0
M  V30 1789 H 163.05 0.249841 0.914485 0
M  V30 1790 H 162.756 0.343049 3.50023 0
M  V30 1791 H 162.63 -1.40718 3.49969 0
M  V30 1792 H 165.017 -1.5407 2.51687 0
M  V30 1793 H 165.098 0.226586 2.54794 0
M  V30 1794 H 164.742 0.176183 5.07594 0
M  V30 1795 H 164.672 -1.60295 5.0161 0
M  V30 1796 H 167.163 -0.759304 3.70193 0
M  V30 1797 H 167.476 -0.935144 7.67121 0
M  V30 1798 H 165.821 -0.847898 6.89808 0
M  V30 1799 H 169.012 -0.857853 4.60172 0
M  V30 1800 H 169.185 -0.938263 6.41171 0
M  V30 1801 N 162.591 -1.51276 -0.441967 0
M  V30 1802 C 163.554 -1.7167 -1.51862 0
M  V30 1803 C 164.554 -0.586793 -1.49711 0
M  V30 1804 O 165.744 -0.854276 -1.51815 0
M  V30 1805 C 162.876 -1.76889 -2.91416 0
M  V30 1806 H 164.069 -2.67754 -1.35084 0
M  V30 1807 H 161.622 -1.41196 -0.670333 0
M  V30 1808 H 162.357 -0.826026 -3.13604 0
M  V30 1809 H 162.142 -2.59001 -2.94382 0
M  V30 1810 H 163.632 -1.94522 -3.69528 0
M  V30 1811 N 164.069 0.697108 -1.41344 0
M  V30 1812 C 164.979 1.84088 -1.45427 0
M  V30 1813 C 165.995 1.70545 -0.34501 0
M  V30 1814 O 167.171 1.92488 -0.592492 0
M  V30 1815 C 164.236 3.20056 -1.33286 0
M  V30 1816 C 163.297 3.45718 -2.54514 0
M  V30 1817 C 162.53 4.75199 -2.42944 0
M  V30 1818 O 162.753 5.51579 -1.45318 0
M  V30 1819 O 161.687 5.0161 -3.32672 0
M  V30 1820 H 165.513 1.836 -2.41919 0
M  V30 1821 H 163.098 0.849966 -1.22866 0
M  V30 1822 H 164.98 4.01236 -1.28794 0
M  V30 1823 H 163.655 3.2123 -0.39909 0
M  V30 1824 H 162.562 2.64474 -2.64583 0
M  V30 1825 H 163.895 3.49356 -3.46715 0
M  V30 1826 N 165.547 1.27147 0.931209 0
M  V30 1827 C 166.775 1.16082 1.71267 0
M  V30 1828 C 167.19 -0.282772 1.8667 0
M  V30 1829 O 166.547 -1.19283 1.38122 0
M  V30 1830 C 166.598 1.8358 3.11417 0
M  V30 1831 O 166.319 3.22299 2.96741 0
M  V30 1832 C 167.82 1.78597 4.05732 0
M  V30 1833 H 165.04 0.403758 0.535929 0
M  V30 1834 H 167.584 1.67953 1.16671 0
M  V30 1835 H 165.739 1.35623 3.62885 0
M  V30 1836 H 166.153 3.55851 3.85319 0
M  V30 1837 H 167.627 2.30444 5.01597 0
M  V30 1838 H 168.104 0.754564 4.3267 0
M  V30 1839 H 168.71 2.26152 3.60188 0
M  V30 1840 N 167.025 -1.13721 1.09112 0
M  V30 1841 C 167.988 -2.17222 0.731241 0
M  V30 1842 C 168.988 -1.59035 -0.237566 0
M  V30 1843 O 170.178 -1.74192 -0.0161704 0
M  V30 1844 C 167.31 -3.40804 0.0808443 0
M  V30 1845 H 168.503 -2.50573 1.64783 0
M  V30 1846 H 166.056 -1.28493 0.889897 0
M  V30 1847 H 166.791 -3.1304 -0.847127 0
M  V30 1848 H 166.576 -3.84306 0.777896 0
M  V30 1849 H 168.066 -4.1731 -0.155657 0
M  V30 1850 N 168.503 -0.877838 -1.30888 0
M  V30 1851 C 169.743 -0.499301 -1.98208 0
M  V30 1852 C 170.107 0.932649 -1.67826 0
M  V30 1853 O 171.308 1.41694 -2.28421 0
M  V30 1854 C 169.579 -0.758221 -3.49265 0
M  V30 1855 S 171.138 -0.480719 -4.36159 0
M  V30 1856 H 167.956 -0.186062 -0.686223 0
M  V30 1857 H 170.558 -1.13556 -1.59139 0
M  V30 1858 H 169.262 -1.79903 -3.68867 0
M  V30 1859 H 168.793 -0.109247 -3.93248 0
M  V30 1860 H 170.808 0.683698 -4.91467 0
M  V30 1861 N 169.982 1.44106 -0.638065 0
M  V30 1862 C 171.229 2.01978 -0.14533 0
M  V30 1863 C 171.557 1.50234 1.23532 0
M  V30 1864 O 170.812 0.679548 1.83523 0
M  V30 1865 C 171.111 3.5729 -0.0887327 0
M  V30 1866 C 170.777 4.28317 -1.40909 0
M  V30 1867 C 169.439 4.47437 -1.77069 0
M  V30 1868 C 171.791 4.6867 -2.28031 0
M  V30 1869 C 169.119 5.04171 -3.00047 0
M  V30 1870 C 171.471 5.26766 -3.50286 0
M  V30 1871 C 170.135 5.44104 -3.86661 0
M  V30 1872 H 169.405 0.739089 -0.0531801 0
M  V30 1873 H 172.052 1.72781 -0.825761 0
M  V30 1874 H 170.357 3.8594 0.675095 0
M  V30 1875 H 172.054 3.99807 0.309145 0
M  V30 1876 H 168.644 4.1377 -1.1177 0
M  V30 1877 H 172.828 4.53604 -2.01388 0
M  V30 1878 H 168.084 5.15782 -3.28298 0
M  V30 1879 H 172.258 5.56983 -4.18023 0
M  V30 1880 H 169.885 5.87832 -4.82034 0
M  V30 1881 N 171.46 0.379036 1.52974 0
M  V30 1882 C 172.876 0.0285448 1.59574 0
M  V30 1883 C 173.076 -1.45542 1.39355 0
M  V30 1884 O 172.132 -2.2187 1.20541 0
M  V30 1885 C 173.445 0.496535 2.96572 0
M  V30 1886 C 174.993 0.451909 3.0972 0
M  V30 1887 C 175.468 0.895924 4.49152 0
M  V30 1888 N 176.959 0.851522 4.55306 0
M  V30 1889 C 177.694 1.16661 5.61407 0
M  V30 1890 N 177.19 1.55166 6.752 0
M  V30 1891 N 178.983 1.08853 5.51459 0
M  V30 1892 H 171.134 1.34525 1.64367 0
M  V30 1893 H 173.397 0.550733 0.771619 0
M  V30 1894 H 173.103 1.53258 3.16552 0
M  V30 1895 H 172.977 -0.109802 3.7704 0
M  V30 1896 H 175.364 -0.575029 2.89443 0
M  V30 1897 H 175.445 1.09392 2.3123 0
M  V30 1898 H 175.089 1.92104 4.70168 0
M  V30 1899 H 175.019 0.23103 5.26093 0
M  V30 1900 H 177.51 0.568038 3.73606 0
M  V30 1901 H 177.823 1.776 7.52116 0
M  V30 1902 H 176.168 1.59044 6.76557 0
M  V30 1903 H 179.359 0.786803 4.6144 0
M  V30 1904 H 179.532 1.33742 6.34048 0
M  V30 1905 N 172.938 -1.57226 0.108567 0
M  V30 1906 C 173.848 -2.18292 -0.859401 0
M  V30 1907 C 174.864 -1.15612 -1.30038 0
M  V30 1908 O 176.04 -1.48039 -1.36552 0
M  V30 1909 C 173.105 -2.762 -2.09558 0
M  V30 1910 C 172.166 -3.93881 -1.70752 0
M  V30 1911 C 171.399 -4.49018 -2.88477 0
M  V30 1912 O 171.622 -4.03068 -4.036 0
M  V30 1913 O 170.556 -5.39852 -2.66164 0
M  V30 1914 H 174.382 -3.01441 -0.369769 0
M  V30 1915 H 171.967 -1.48945 -0.1165 0
M  V30 1916 H 173.849 -3.13156 -2.81978 0
M  V30 1917 H 172.524 -1.96089 -2.57548 0
M  V30 1918 H 171.431 -3.61713 -0.954714 0
M  V30 1919 H 172.764 -4.75396 -1.27513 0
M  V30 1920 N 174.416 0.165178 -1.56732 0
M  V30 1921 C 175.326 1.22423 -2.00125 0
M  V30 1922 C 176.342 1.48084 -0.913619 0
M  V30 1923 O 177.518 1.60112 -1.22172 0
M  V30 1924 C 174.583 2.54197 -2.35764 0
M  V30 1925 C 173.644 2.36343 -3.58386 0
M  V30 1926 C 172.877 3.61834 -3.92316 0
M  V30 1927 O 173.1 4.67267 -3.27135 0
M  V30 1928 O 172.034 3.55579 -4.85641 0
M  V30 1929 H 175.86 0.885886 -2.90492 0
M  V30 1930 H 173.445 0.372518 -1.44681 0
M  V30 1931 H 175.327 3.3192 -2.59629 0
M  V30 1932 H 174.002 2.87598 -1.48557 0
M  V30 1933 H 172.909 1.56632 -3.39731 0
M  V30 1934 H 174.242 2.07865 -4.46154 0
M  V30 1935 N 175.894 1.51508 0.433938 0
M  V30 1936 C 177.31 1.39759 0.770682 0
M  V30 1937 C 177.51 0.482594 1.95636 0
M  V30 1938 O 176.566 -0.0609691 2.52426 0
M  V30 1939 C 177.879 2.81851 1.04787 0
M  V30 1940 C 179.427 2.91025 1.1521 0
M  V30 1941 C 179.902 4.34032 1.46219 0
M  V30 1942 N 181.393 4.37154 1.53136 0
M  V30 1943 C 182.128 5.4484 1.78709 0
M  V30 1944 N 181.624 6.62682 2.02051 0
M  V30 1945 N 183.417 5.32324 1.80519 0
M  V30 1946 H 175.568 2.09548 -0.346892 0
M  V30 1947 H 177.831 0.943446 -0.0928074 0
M  V30 1948 H 177.537 3.50815 0.249304 0
M  V30 1949 H 177.411 3.21386 1.97461 0
M  V30 1950 H 179.798 2.22257 1.94128 0
M  V30 1951 H 179.879 2.54983 0.204281 0
M  V30 1952 H 179.523 5.03351 0.678274 0
M  V30 1953 H 179.453 4.6759 2.42212 0
M  V30 1954 H 181.944 3.52197 1.36987 0
M  V30 1955 H 182.257 7.40543 2.20943 0
M  V30 1956 H 180.602 6.65791 1.99366 0
M  V30 1957 H 183.793 4.39246 1.61805 0
M  V30 1958 H 183.966 6.16328 2.00111 0
M  V30 1959 N 177.372 -0.689602 1.41712 0
M  V30 1960 C 178.649 -1.44457 1.31877 0
M  V30 1961 C 179.029 -2.11039 -0.0508537 0
M  V30 1962 O 178.377 -2.02138 -1.06547 0
M  V30 1963 C 178.587 -2.45913 2.47645 0
M  V30 1964 C 179.935 -3.10991 2.89084 0
M  V30 1965 O 180.959 -2.56238 2.47428 0
M  V30 1966 O 179.818 -4.10174 3.61137 0
M  V30 1967 H 176.912 -0.64362 0.519309 0
M  V30 1968 H 179.458 -0.719576 1.53689 0
M  V30 1969 H 178.23 -1.95409 3.39015 0
M  V30 1970 H 177.853 -3.25913 2.27742 0
M  V30 1971 N 178.85 -1.27639 -0.924453 0
M  V30 1972 C 180.096 -1.14336 -1.67497 0
M  V30 1973 C 180.429 0.309465 -1.91718 0
M  V30 1974 O 179.704 1.22608 -1.50989 0
M  V30 1975 C 179.987 -1.93096 -3.0395 0
M  V30 1976 C 179.84 -3.46381 -2.8695 0
M  V30 1977 C 181.159 -1.73798 -4.0433 0
M  V30 1978 H 178.278 -0.416728 -0.607871 0
M  V30 1979 H 180.92 -1.56832 -1.07256 0
M  V30 1980 H 179.07 -1.56982 -3.55372 0
M  V30 1981 H 180.742 -3.92343 -2.42621 0
M  V30 1982 H 178.985 -3.72557 -2.22225 0
M  V30 1983 H 179.656 -3.96735 -3.83804 0
M  V30 1984 H 182.132 -2.05293 -3.61931 0
M  V30 1985 H 181.008 -2.31294 -4.97789 0
M  V30 1986 H 181.269 -0.686725 -4.36734 0
M  V30 1987 N 180.328 1.1314 -1.09713 0
M  V30 1988 C 181.258 2.20748 -0.761102 0
M  V30 1989 C 182.239 1.68061 0.262566 0
M  V30 1990 O 183.424 1.93765 0.129977 0
M  V30 1991 C 180.554 3.46812 -0.184054 0
M  V30 1992 C 179.508 4.12606 -1.13757 0
M  V30 1993 C 178.834 5.33031 -0.422083 0
M  V30 1994 C 180.134 4.59603 -2.48118 0
M  V30 1995 H 181.828 2.49113 -1.66082 0
M  V30 1996 H 179.374 1.19734 -0.799987 0
M  V30 1997 H 181.327 4.21353 0.0631215 0
M  V30 1998 H 180.051 3.17851 0.750868 0
M  V30 1999 H 178.71 3.40036 -1.37007 0
M  V30 2000 H 178.358 5.00335 0.517072 0
M  V30 2001 H 178.058 5.77999 -1.05788 0
M  V30 2002 H 179.582 6.10325 -0.183277 0
M  V30 2003 H 180.996 5.25552 -2.29059 0
M  V30 2004 H 179.393 5.15321 -3.07514 0
M  V30 2005 H 180.463 3.73971 -3.08665 0
M  V30 2006 N 181.806 0.884767 1.30421 0
M  V30 2007 C 183.052 0.503851 1.96441 0
M  V30 2008 C 183.385 -0.944518 1.69684 0
M  V30 2009 O 182.66 -1.66737 1.00145 0
M  V30 2010 C 182.943 0.779085 3.51571 0
M  V30 2011 C 182.796 2.27807 3.87846 0
M  V30 2012 C 184.115 0.255452 4.39358 0
M  V30 2013 H 181.234 0.184533 0.713524 0
M  V30 2014 H 183.876 1.10872 1.54297 0
M  V30 2015 H 182.026 0.264274 3.876 0
M  V30 2016 H 183.698 2.86127 3.61841 0
M  V30 2017 H 181.941 2.74479 3.35922 0
M  V30 2018 H 182.612 2.42125 4.96064 0
M  V30 2019 H 185.088 0.696079 4.10236 0
M  V30 2020 H 183.964 0.477361 5.4682 0
M  V30 2021 H 184.225 -0.843293 4.33983 0
M  V30 2022 N 183.284 -1.43765 0.645699 0
M  V30 2023 C 184.231 -2.30745 -0.0504648 0
M  V30 2024 C 185.201 -1.4432 -0.822241 0
M  V30 2025 O 186.386 -1.73202 -0.800358 0
M  V30 2026 C 183.526 -3.29802 -1.0161 0
M  V30 2027 C 182.639 -4.31326 -0.241219 0
M  V30 2028 C 181.774 -5.17469 -1.19998 0
M  V30 2029 C 180.813 -6.10691 -0.415094 0
M  V30 2030 N 179.95 -6.89483 -1.32506 0
M  V30 2031 H 184.79 -2.8973 0.697155 0
M  V30 2032 H 182.327 -1.42738 0.355563 0
M  V30 2033 H 184.285 -3.85734 -1.58949 0
M  V30 2034 H 182.915 -2.72483 -1.73069 0
M  V30 2035 H 181.967 -3.77749 0.448334 0
M  V30 2036 H 183.279 -4.9743 0.369437 0
M  V30 2037 H 182.433 -5.7799 -1.84424 0
M  V30 2038 H 181.172 -4.51473 -1.84455 0
M  V30 2039 H 180.177 -5.49265 0.242565 0
M  V30 2040 H 181.402 -6.78727 0.224966 0
M  V30 2041 H 179.348 -6.26142 -1.95657 0
M  V30 2042 H 179.265 -7.52081 -0.768783 0
M  V30 2043 H 180.533 -7.54516 -1.9577 0
M  V30 2044 N 184.763 -0.387143 -1.52771 0
M  V30 2045 C 186.011 0.195349 -2.01154 0
M  V30 2046 C 186.332 1.475 -1.27549 0
M  V30 2047 O 185.602 1.91878 -0.394924 0
M  V30 2048 H 184.182 0.075178 -0.743207 0
M  V30 2049 H 186.844 -0.518337 -1.87881 0
M  V30 2050 H 185.94 0.407096 -3.09434 0
M  V30 2051 N 186.241 1.57166 -0.116904 0
M  V30 2052 C 187.518 1.86645 0.585049 0
M  V30 2053 C 187.898 1.0177 1.84949 0
M  V30 2054 O 187.246 0.0960379 2.28298 0
M  V30 2055 C 187.456 3.37736 0.879507 0
M  V30 2056 C 188.804 4.06289 1.23348 0
M  V30 2057 O 189.828 3.42743 0.969836 0
M  V30 2058 O 188.687 5.18455 1.7282 0
M  V30 2059 H 185.781 0.772593 0.295007 0
M  V30 2060 H 188.327 1.69025 -0.151249 0
M  V30 2061 H 187.099 3.91296 -0.0166136 0
M  V30 2062 H 186.722 3.6078 1.67103 0
M  V30 2063 N 187.719 -0.156864 1.56817 0
M  V30 2064 C 188.944 -0.890331 1.87318 0
M  V30 2065 C 189.369 -1.74394 0.704855 0
M  V30 2066 O 188.727 -1.77972 -0.345786 0
M  V30 2067 C 188.775 -1.73102 3.16336 0
M  V30 2068 O 187.879 -2.83422 2.99576 0
M  V30 2069 H 187.22 -0.24857 0.615718 0
M  V30 2070 H 189.75 -0.150649 2.04045 0
M  V30 2071 H 189.76 -2.12803 3.48107 0
M  V30 2072 H 188.435 -1.10412 4.00976 0
M  V30 2073 H 187.012 -2.47199 2.7919 0
M  V30 2074 N 189.197 -1.51736 -0.425897 0
M  V30 2075 C 190.613 -1.40166 -0.76326 0
M  V30 2076 C 190.813 -0.492962 -1.95377 0
M  V30 2077 O 189.869 0.0475815 -2.52455 0
M  V30 2078 C 191.182 -2.82403 -1.03291 0
M  V30 2079 C 192.73 -2.91632 -1.13665 0
M  V30 2080 C 193.205 -4.34801 -1.43916 0
M  V30 2081 N 194.696 -4.3796 -1.50816 0
M  V30 2082 C 195.431 -5.4578 -1.75817 0
M  V30 2083 N 194.927 -6.63744 -1.98534 0
M  V30 2084 N 196.72 -5.33274 -1.77694 0
M  V30 2085 H 188.871 -2.09361 0.358 0
M  V30 2086 H 191.134 -0.942941 0.0978094 0
M  V30 2087 H 190.84 -3.50943 -0.230696 0
M  V30 2088 H 190.714 -3.22428 -1.95754 0
M  V30 2089 H 193.101 -2.23284 -1.92947 0
M  V30 2090 H 193.182 -2.55088 -0.190756 0
M  V30 2091 H 192.826 -5.03703 -0.65157 0
M  V30 2092 H 192.756 -4.68868 -2.39729 0
M  V30 2093 H 195.247 -3.52919 -1.35118 0
M  V30 2094 H 195.56 -7.41704 -2.17013 0
M  V30 2095 H 193.905 -6.66839 -1.95832 0
M  V30 2096 H 197.096 -4.40098 -1.59473 0
M  V30 2097 H 197.269 -6.1738 -1.9684 0
M  V30 2098 N 190.675 0.682077 -1.42076 0
M  V30 2099 C 191.921 1.44283 -1.43366 0
M  V30 2100 C 192.276 1.92344 -0.0465775 0
M  V30 2101 O 191.569 1.67517 0.929973 0
M  V30 2102 C 191.763 2.66036 -2.38662 0
M  V30 2103 C 191.592 2.29889 -3.86499 0
M  V30 2104 C 190.362 2.19599 -4.55087 0
M  V30 2105 C 192.56 1.91999 -4.77117 0
M  V30 2106 N 190.542 1.76478 -5.87987 0
M  V30 2107 C 191.913 1.59741 -5.99068 0
M  V30 2108 C 193.968 1.78927 -4.64639 0
M  V30 2109 C 192.671 1.15723 -7.0993 0
M  V30 2110 C 194.697 1.36314 -5.75476 0
M  V30 2111 C 194.059 1.04975 -6.96534 0
M  V30 2112 H 190.158 0.524739 -0.579805 0
M  V30 2113 H 192.742 0.787834 -1.78048 0
M  V30 2114 H 190.913 3.29237 -2.06053 0
M  V30 2115 H 192.645 3.32588 -2.30581 0
M  V30 2116 H 189.4 2.38433 -4.09202 0
M  V30 2117 H 189.824 1.57362 -6.58458 0
M  V30 2118 H 194.466 2.01805 -3.7153 0
M  V30 2119 H 192.184 0.91591 -8.02893 0
M  V30 2120 H 195.77 1.26731 -5.6783 0
M  V30 2121 H 194.65 0.725017 -7.80841 0
M  V30 2122 N 192.153 1.28127 0.917671 0
M  V30 2123 C 193.399 1.15223 1.66888 0
M  V30 2124 C 193.732 -0.299293 1.9188 0
M  V30 2125 O 193.007 -1.21805 1.51637 0
M  V30 2126 C 193.29 1.94706 3.02922 0
M  V30 2127 C 193.143 3.47898 2.85109 0
M  V30 2128 C 194.462 1.75939 4.03402 0
M  V30 2129 H 191.581 0.419946 0.605652 0
M  V30 2130 H 194.223 1.57398 1.06423 0
M  V30 2131 H 192.373 1.58864 3.54534 0
M  V30 2132 H 194.045 3.93624 2.40537 0
M  V30 2133 H 192.288 3.7373 2.20246 0
M  V30 2134 H 192.959 3.98765 3.81694 0
M  V30 2135 H 195.435 2.07209 3.60837 0
M  V30 2136 H 194.311 2.33931 4.96556 0
M  V30 2137 H 194.572 0.709877 4.36364 0
M  V30 2138 N 193.631 -1.12557 1.10312 0
M  V30 2139 C 194.859 -1.87864 0.866873 0
M  V30 2140 C 195.274 -1.79588 -0.582557 0
M  V30 2141 O 194.631 -1.16887 -1.40156 0
M  V30 2142 C 194.682 -3.37125 1.30496 0
M  V30 2143 O 194.403 -3.45201 2.69755 0
M  V30 2144 C 195.904 -4.29373 1.10243 0
M  V30 2145 H 193.124 -0.594452 0.311236 0
M  V30 2146 H 195.668 -1.42429 1.46745 0
M  V30 2147 H 193.823 -3.80109 0.748081 0
M  V30 2148 H 194.237 -4.38056 2.88457 0
M  V30 2149 H 195.711 -5.32394 1.45811 0
M  V30 2150 H 196.188 -4.39181 0.0409492 0
M  V30 2151 H 196.794 -3.92169 1.64571 0
M  V30 2152 N 195.109 -0.891671 -1.2995 0
M  V30 2153 C 196.337 -0.52866 -2.00032 0
M  V30 2154 C 196.752 0.884574 -1.66795 0
M  V30 2155 O 196.109 1.5827 -0.908669 0
M  V30 2156 C 196.16 -0.701814 -3.54622 0
M  V30 2157 O 195.881 -2.05942 -3.86678 0
M  V30 2158 C 197.382 -0.342683 -4.41973 0
M  V30 2159 H 194.602 -0.203659 -0.639347 0
M  V30 2160 H 197.146 -1.19881 -1.65677 0
M  V30 2161 H 195.301 -0.0789468 -3.8732 0
M  V30 2162 H 195.715 -2.08291 -4.81368 0
M  V30 2163 H 197.189 -0.514709 -5.49595 0
M  V30 2164 H 197.666 0.71975 -4.33262 0
M  V30 2165 H 198.272 -0.942154 -4.14733 0
M  V30 2166 N 196.587 1.43421 -0.653314 0
M  V30 2167 C 197.517 2.33487 0.0246656 0
M  V30 2168 C 198.498 1.49475 0.811863 0
M  V30 2169 O 199.683 1.78139 0.773322 0
M  V30 2170 C 196.813 3.32841 0.99166 0
M  V30 2171 C 195.767 4.26842 0.314568 0
M  V30 2172 C 195.093 5.16236 1.39302 0
M  V30 2173 C 196.393 5.16243 -0.793095 0
M  V30 2174 H 198.087 2.90427 -0.727481 0
M  V30 2175 H 195.633 1.39649 -0.351287 0
M  V30 2176 H 197.586 3.94747 1.47487 0
M  V30 2177 H 196.31 2.74158 1.77497 0
M  V30 2178 H 194.969 3.663 -0.148199 0
M  V30 2179 H 194.617 4.53891 2.16776 0
M  V30 2180 H 194.317 5.79948 0.945223 0
M  V30 2181 H 195.841 5.81015 1.87759 0
M  V30 2182 H 197.255 5.71958 -0.392039 0
M  V30 2183 H 195.652 5.88676 -1.16536 0
M  V30 2184 H 196.722 4.55927 -1.65103 0
M  V30 2185 N 198.065 0.39524 1.52563 0
M  V30 2186 C 199.015 -0.4541 2.23432 0
M  V30 2187 C 199.999 -1.02482 1.24042 0
M  V30 2188 O 201.191 -0.949938 1.49349 0
M  V30 2189 C 198.32 -1.57769 3.049 0
M  V30 2190 C 197.406 -1.01842 4.1169 0
M  V30 2191 N 197.797 -0.184613 5.05463 0
M  V30 2192 C 196.095 -1.29033 4.26927 0
M  V30 2193 C 196.796 0.125013 5.81566 0
M  V30 2194 N 195.772 -0.480498 5.41472 0
M  V30 2195 H 199.574 0.189413 2.93289 0
M  V30 2196 H 197.088 0.204877 1.61102 0
M  V30 2197 H 199.085 -2.19862 3.54212 0
M  V30 2198 H 197.745 -2.22397 2.36579 0
M  V30 2199 H 198.756 0.178602 5.17592 0
M  V30 2200 H 195.433 -1.93721 3.69836 0
M  V30 2201 H 196.823 0.800962 6.67109 0
M  V30 2202 N 199.544 -1.57102 0.125237 0
M  V30 2203 C 200.774 -1.99472 -0.538015 0
M  V30 2204 C 201.182 -1.00395 -1.60366 0
M  V30 2205 O 200.525 0.0103875 -1.83697 0
M  V30 2206 C 200.587 -3.38262 -1.21734 0
M  V30 2207 C 200.251 -4.56021 -0.298897 0
M  V30 2208 C 201.248 -5.17817 0.464943 0
M  V30 2209 C 198.933 -5.01869 -0.208149 0
M  V30 2210 C 200.927 -6.23852 1.3072 0
M  V30 2211 C 198.614 -6.07763 0.637736 0
M  V30 2212 C 199.612 -6.68622 1.39403 0
M  V30 2213 O 199.3 -7.7247 2.22586 0
M  V30 2214 H 199.032 -0.659934 -0.146501 0
M  V30 2215 H 201.586 -2.04321 0.210267 0
M  V30 2216 H 199.816 -3.30185 -2.01282 0
M  V30 2217 H 201.505 -3.6488 -1.77813 0
M  V30 2218 H 202.271 -4.83308 0.404741 0
M  V30 2219 H 198.15 -4.54241 -0.786522 0
M  V30 2220 H 201.694 -6.71284 1.898 0
M  V30 2221 H 197.591 -6.41701 0.699309 0
M  V30 2222 H 198.359 -7.89595 2.15596 0
M  V30 2223 N 201.022 0.148545 -1.56898 0
M  V30 2224 C 201.985 1.16736 -1.97244 0
M  V30 2225 C 202.985 1.35947 -0.858777 0
M  V30 2226 O 204.175 1.32966 -1.12542 0
M  V30 2227 C 201.307 2.52798 -2.28705 0
M  V30 2228 H 202.5 0.821279 -2.88435 0
M  V30 2229 H 200.053 0.391831 -1.51309 0
M  V30 2230 H 200.788 2.92381 -1.403 0
M  V30 2231 H 200.573 2.40216 -3.09901 0
M  V30 2232 H 202.063 3.26179 -2.60762 0
M  V30 2233 N 202.5 1.5196 0.417844 0
M  V30 2234 C 203.747 1.65591 1.16559 0
M  V30 2235 C 204.075 0.381565 1.90721 0
M  V30 2236 O 203.33 -0.635156 1.85106 0
M  V30 2237 C 203.629 2.82269 2.19223 0
M  V30 2238 C 203.295 4.20819 1.61933 0
M  V30 2239 C 201.957 4.58506 1.46033 0
M  V30 2240 C 204.309 5.07196 1.20008 0
M  V30 2241 C 201.637 5.80257 0.867113 0
M  V30 2242 C 203.989 6.29544 0.621086 0
M  V30 2243 C 202.653 6.65987 0.449144 0
M  V30 2244 H 201.923 0.605939 0.42652 0
M  V30 2245 H 204.57 1.86041 0.45397 0
M  V30 2246 H 202.875 2.56118 2.96498 0
M  V30 2247 H 204.572 2.90012 2.76936 0
M  V30 2248 H 201.162 3.91116 1.7529 0
M  V30 2249 H 205.346 4.7867 1.31105 0
M  V30 2250 H 200.602 6.07124 0.721833 0
M  V30 2251 H 204.776 6.95805 0.287798 0
M  V30 2252 H 202.403 7.60199 -0.012632 0
M  V30 2253 N 203.978 -0.674533 1.42435 0
M  V30 2254 C 204.91 -1.80005 1.41883 0
M  V30 2255 C 205.923 -1.59667 0.31787 0
M  V30 2256 O 207.112 -1.68781 0.580973 0
M  V30 2257 C 204.212 -3.17114 1.19549 0
M  V30 2258 C 203.385 -3.64299 2.42084 0
M  V30 2259 C 202.444 -4.80142 2.15291 0
M  V30 2260 O 201.47 -4.90673 2.88493 0
M  V30 2261 N 202.672 -5.68869 1.1562 0
M  V30 2262 H 205.437 -1.80964 2.38898 0
M  V30 2263 H 202.998 -0.857633 1.37318 0
M  V30 2264 H 204.99 -3.92267 0.995417 0
M  V30 2265 H 203.56 -3.11053 0.310569 0
M  V30 2266 H 202.78 -2.79822 2.77657 0
M  V30 2267 H 204.068 -3.92567 3.23679 0
M  V30 2268 H 203.466 -5.63012 0.550765 0
M  V30 2269 H 202.023 -6.43833 1.016 0
M  V30 2270 N 205.456 -1.28612 -0.910864 0
M  V30 2271 C 206.733 -1.06632 -1.63979 0
M  V30 2272 C 207.113 0.393351 -2.07403 0
M  V30 2273 O 206.461 1.37999 -1.82122 0
M  V30 2274 C 206.671 -2.0436 -2.8291 0
M  V30 2275 C 208.019 -2.34666 -3.5386 0
M  V30 2276 O 209.043 -2.02467 -2.93062 0
M  V30 2277 O 207.902 -2.89631 -4.63439 0
M  V30 2278 H 204.996 -0.407737 -0.7195 0
M  V30 2279 H 207.542 -1.39942 -0.959914 0
M  V30 2280 H 206.314 -3.02727 -2.47936 0
M  V30 2281 H 205.937 -1.71714 -3.58609 0
M  V30 2282 N 206.934 1.1197 -1.10907 0
M  V30 2283 C 207.844 2.21433 -0.774896 0
M  V30 2284 C 208.86 1.72478 0.229657 0
M  V30 2285 O 210.036 2.01288 0.0672008 0
M  V30 2286 C 207.101 3.4602 -0.216986 0
M  V30 2287 C 206.162 4.09791 -1.27944 0
M  V30 2288 C 205.395 5.28431 -0.748055 0
M  V30 2289 O 205.618 5.68823 0.423833 0
M  V30 2290 O 204.552 5.82644 -1.51027 0
M  V30 2291 H 208.378 2.5242 -1.68873 0
M  V30 2292 H 205.963 1.20399 -0.884555 0
M  V30 2293 H 207.845 4.21304 0.090059 0
M  V30 2294 H 206.52 3.16698 0.669633 0
M  V30 2295 H 205.427 3.36265 -1.63941 0
M  V30 2296 H 206.76 4.4328 -2.13925 0
M  V30 2297 N 208.412 0.89855 1.29475 0
M  V30 2298 C 209.322 0.379974 2.31502 0
M  V30 2299 C 210.338 -0.524695 1.659 0
M  V30 2300 O 211.514 -0.414551 1.97087 0
M  V30 2301 C 208.579 -0.385138 3.44554 0
M  V30 2302 C 207.64 0.550914 4.2575 0
M  V30 2303 C 206.873 -0.177778 5.33404 0
M  V30 2304 O 207.096 -1.40189 5.52904 0
M  V30 2305 O 206.03 0.479106 5.9999 0
M  V30 2306 H 209.856 1.22639 2.77837 0
M  V30 2307 H 207.441 0.662834 1.33891 0
M  V30 2308 H 209.323 -0.817841 4.13388 0
M  V30 2309 H 207.998 -1.20763 3.0033 0
M  V30 2310 H 206.905 1.03271 3.59564 0
M  V30 2311 H 208.238 1.33979 4.73614 0
M  V30 2312 N 209.89 -1.43072 0.660911 0
M  V30 2313 C 211.12 -2.05769 0.185153 0
M  V30 2314 C 211.528 -1.49668 -1.15742 0
M  V30 2315 O 210.871 -0.625649 -1.72717 0
M  V30 2316 C 210.933 -3.59489 0.0278237 0
M  V30 2317 C 210.597 -4.38212 1.2969 0
M  V30 2318 C 211.594 -4.69772 2.22734 0
M  V30 2319 C 209.279 -4.7809 1.54063 0
M  V30 2320 C 211.273 -5.40129 3.38437 0
M  V30 2321 C 208.96 -5.4819 2.70058 0
M  V30 2322 C 209.958 -5.79132 3.62071 0
M  V30 2323 O 209.646 -6.47798 4.76039 0
M  V30 2324 H 209.378 -0.669873 0.0908086 0
M  V30 2325 H 211.932 -1.84436 0.90402 0
M  V30 2326 H 210.162 -3.79426 -0.746489 0
M  V30 2327 H 211.851 -4.03862 -0.406275 0
M  V30 2328 H 212.617 -4.39476 2.05149 0
M  V30 2329 H 208.496 -4.53408 0.833215 0
M  V30 2330 H 212.04 -5.64198 4.10277 0
M  V30 2331 H 207.937 -5.77902 2.87574 0
M  V30 2332 H 208.705 -6.66283 4.75404 0
M  V30 2333 N 211.368 -0.403325 -1.52352 0
M  V30 2334 C 212.298 0.416205 -2.29761 0
M  V30 2335 C 213.279 1.05123 -1.33728 0
M  V30 2336 O 214.464 1.06134 -1.62632 0
M  V30 2337 C 211.594 1.53624 -3.11475 0
M  V30 2338 C 210.548 1.02653 -4.15507 0
M  V30 2339 C 209.874 2.23971 -4.85532 0
M  V30 2340 C 211.174 0.08463 -5.22231 0
M  V30 2341 H 212.868 -0.229701 -2.98518 0
M  V30 2342 H 210.414 -0.111913 -1.43564 0
M  V30 2343 H 212.367 2.1165 -3.64393 0
M  V30 2344 H 211.091 2.20994 -2.40477 0
M  V30 2345 H 209.75 0.46871 -3.63591 0
M  V30 2346 H 209.398 2.89883 -4.11068 0
M  V30 2347 H 209.098 1.90521 -5.55856 0
M  V30 2348 H 210.622 2.82614 -5.41259 0
M  V30 2349 H 212.036 0.573509 -5.70424 0
M  V30 2350 H 210.433 -0.160783 -5.99885 0
M  V30 2351 H 211.503 -0.86237 -4.7717 0
M  V30 2352 N 212.846 1.57033 -0.133567 0
M  V30 2353 C 214.076 1.99754 0.527429 0
M  V30 2354 C 214.484 1.01245 1.59832 0
M  V30 2355 O 213.827 -0.000645496 1.837 0
M  V30 2356 C 213.889 3.38903 1.19939 0
M  V30 2357 C 213.553 4.56174 0.274709 0
M  V30 2358 C 214.55 5.17563 -0.492398 0
M  V30 2359 C 212.235 5.01972 0.18153 0
M  V30 2360 C 214.229 6.2315 -1.34027 0
M  V30 2361 C 211.916 6.07416 -0.669958 0
M  V30 2362 C 212.914 6.67874 -1.42947 0
M  V30 2363 O 212.602 7.71279 -2.2668 0
M  V30 2364 H 212.334 0.660702 0.142999 0
M  V30 2365 H 214.888 2.04207 -0.221099 0
M  V30 2366 H 213.118 3.31248 1.99528 0
M  V30 2367 H 214.807 3.65818 1.75875 0
M  V30 2368 H 215.573 4.83087 -0.430367 0
M  V30 2369 H 211.452 4.54652 0.762422 0
M  V30 2370 H 214.996 6.70268 -1.93357 0
M  V30 2371 H 210.893 6.41321 -0.73333 0
M  V30 2372 H 211.661 7.88441 -2.1978 0
M  V30 2373 N 214.325 -0.140222 1.56975 0
M  V30 2374 C 215.255 -1.17456 2.01808 0
M  V30 2375 C 216.236 -1.44415 0.898794 0
M  V30 2376 O 217.421 -1.5522 1.16707 0
M  V30 2377 C 214.551 -2.50607 2.40444 0
M  V30 2378 C 213.505 -2.38155 3.55621 0
M  V30 2379 C 212.831 -3.76078 3.80091 0
M  V30 2380 C 214.131 -1.85991 4.88062 0
M  V30 2381 H 215.825 -0.801743 2.88466 0
M  V30 2382 H 213.371 -0.38422 1.38779 0
M  V30 2383 H 215.324 -3.23197 2.7041 0
M  V30 2384 H 214.048 -2.89737 1.50732 0
M  V30 2385 H 212.707 -1.68016 3.25832 0
M  V30 2386 H 212.355 -4.12656 2.87618 0
M  V30 2387 H 212.055 -3.68606 4.57606 0
M  V30 2388 H 213.579 -4.50206 4.12488 0
M  V30 2389 H 214.993 -2.4838 5.16701 0
M  V30 2390 H 213.39 -1.89393 5.6943 0
M  V30 2391 H 214.46 -0.816023 4.77984 0
M  V30 2392 N 215.803 -1.52179 -0.40978 0
M  V30 2393 C 217.049 -1.66453 -1.15851 0
M  V30 2394 C 217.382 -0.392972 -1.90182 0
M  V30 2395 O 216.657 0.608579 -1.84734 0
M  V30 2396 C 216.94 -2.88612 -2.15349 0
M  V30 2397 C 216.793 -4.25815 -1.44918 0
M  V30 2398 C 218.112 -3.06294 -3.16026 0
M  V30 2399 H 215.231 -0.60575 -0.419805 0
M  V30 2400 H 217.873 -1.84732 -0.444314 0
M  V30 2401 H 216.023 -2.73158 -2.76255 0
M  V30 2402 H 217.695 -4.52995 -0.871365 0
M  V30 2403 H 215.938 -4.27247 -0.751159 0
M  V30 2404 H 216.609 -5.07337 -2.17516 0
M  V30 2405 H 219.085 -3.20641 -2.65195 0
M  V30 2406 H 217.961 -3.93283 -3.8291 0
M  V30 2407 H 218.222 -2.19579 -3.83715 0
M  V30 2408 N 217.281 0.66697 -1.42791 0
M  V30 2409 C 218.214 1.79177 -1.41318 0
M  V30 2410 C 219.192 1.60234 -0.276401 0
M  V30 2411 O 220.376 1.82602 -0.46785 0
M  V30 2412 C 217.503 3.16289 -1.21157 0
M  V30 2413 C 216.549 3.53964 -2.37932 0
M  V30 2414 S 217.382 3.55501 -4.00474 0
M  V30 2415 C 218.538 4.95292 -3.8267 0
M  V30 2416 H 218.771 1.80153 -2.365 0
M  V30 2417 H 216.304 0.838357 -1.29657 0
M  V30 2418 H 218.262 3.95428 -1.10212 0
M  V30 2419 H 216.923 3.1289 -0.275481 0
M  V30 2420 H 216.116 4.53646 -2.19594 0
M  V30 2421 H 215.718 2.82204 -2.45432 0
M  V30 2422 H 218.01 5.83584 -3.44145 0
M  V30 2423 H 218.953 5.18679 -4.82055 0
M  V30 2424 H 219.361 4.68179 -3.15386 0
M  V30 2425 N 218.759 1.29093 0.90403 0
M  V30 2426 C 220.036 1.075 1.63411 0
M  V30 2427 C 220.416 -0.382346 2.07609 0
M  V30 2428 O 219.764 -1.37031 1.82851 0
M  V30 2429 C 219.974 2.05858 2.81822 0
M  V30 2430 C 221.322 2.36539 3.52611 0
M  V30 2431 O 222.346 2.04019 2.91984 0
M  V30 2432 O 221.205 2.92085 4.61897 0
M  V30 2433 H 218.299 0.411547 0.717327 0
M  V30 2434 H 220.845 1.40449 0.952479 0
M  V30 2435 H 219.617 3.04037 2.46327 0
M  V30 2436 H 219.24 1.73613 3.57693 0
M  V30 2437 N 220.237 -1.11381 1.11499 0
M  V30 2438 C 221.467 -1.86663 0.885464 0
M  V30 2439 C 221.875 -1.80464 -0.568281 0
M  V30 2440 O 221.218 -1.18445 -1.40415 0
M  V30 2441 C 221.28 -3.36337 1.26956 0
M  V30 2442 C 220.944 -3.66304 2.73259 0
M  V30 2443 C 221.941 -3.63733 3.71476 0
M  V30 2444 C 219.626 -3.9529 3.09921 0
M  V30 2445 C 221.62 -3.89725 5.04374 0
M  V30 2446 C 219.307 -4.20941 4.43004 0
M  V30 2447 C 220.305 -4.18147 5.40039 0
M  V30 2448 O 219.993 -4.43153 6.70724 0
M  V30 2449 H 219.725 -0.597114 0.316908 0
M  V30 2450 H 222.279 -1.41782 1.48617 0
M  V30 2451 H 220.509 -3.81826 0.611999 0
M  V30 2452 H 222.198 -3.92986 1.01573 0
M  V30 2453 H 222.964 -3.41389 3.44498 0
M  V30 2454 H 218.843 -3.966 2.35009 0
M  V30 2455 H 222.387 -3.8746 5.80104 0
M  V30 2456 H 218.284 -4.42761 4.69716 0
M  V30 2457 H 219.052 -4.60717 6.76522 0
M  V30 2458 N 221.715 -0.905404 -1.28997 0
M  V30 2459 C 222.945 -0.549049 -1.99171 0
M  V30 2460 C 223.353 0.87203 -1.67906 0
M  V30 2461 O 222.696 1.58796 -0.923561 0
M  V30 2462 C 222.758 -0.668306 -3.53234 0
M  V30 2463 C 222.422 -2.0574 -4.08069 0
M  V30 2464 C 223.419 -3.0292 -4.22534 0
M  V30 2465 C 221.104 -2.36833 -4.42962 0
M  V30 2466 C 223.098 -4.29314 -4.71135 0
M  V30 2467 C 220.785 -3.63467 -4.91258 0
M  V30 2468 C 221.783 -4.59522 -5.053 0
M  V30 2469 O 221.471 -5.83907 -5.52546 0
M  V30 2470 H 221.203 -0.208784 -0.64295 0
M  V30 2471 H 223.757 -1.21836 -1.65363 0
M  V30 2472 H 221.987 0.0580547 -3.86656 0
M  V30 2473 H 223.676 -0.320273 -4.04634 0
M  V30 2474 H 224.442 -2.80216 -3.95859 0
M  V30 2475 H 220.321 -1.62824 -4.31288 0
M  V30 2476 H 223.865 -5.04293 -4.8201 0
M  V30 2477 H 219.762 -3.86 -5.17372 0
M  V30 2478 H 220.53 -5.86578 -5.70849 0
M  V30 2479 N 223.193 1.4272 -0.668489 0
M  V30 2480 C 224.156 2.292 0.00448567 0
M  V30 2481 C 225.156 1.43001 0.735339 0
M  V30 2482 O 226.346 1.64461 0.57429 0
M  V30 2483 C 223.478 3.25375 1.01705 0
M  V30 2484 H 224.671 2.90199 -0.756608 0
M  V30 2485 H 222.224 1.50254 -0.430506 0
M  V30 2486 H 222.959 2.69301 1.80686 0
M  V30 2487 H 222.744 3.88944 0.496463 0
M  V30 2488 H 224.234 3.90245 1.48655 0
M  V30 2489 N 224.671 0.411399 1.52136 0
M  V30 2490 C 225.919 -0.163322 2.01439 0
M  V30 2491 C 226.24 -1.45453 1.29879 0
M  V30 2492 O 225.51 -1.91225 0.4254 0
M  V30 2493 H 224.09 -0.0633447 0.744309 0
M  V30 2494 H 226.752 0.548161 1.87033 0
M  V30 2495 H 225.848 -0.357817 3.10042 0
M  V30 2496 N 226.149 -1.5696 0.141893 0
M  V30 2497 C 227.397 -1.95573 -0.509484 0
M  V30 2498 C 227.718 -1.02746 -1.65736 0
M  V30 2499 O 226.988 -0.0880311 -1.95702 0
M  V30 2500 H 225.568 -0.722115 -0.191205 0
M  V30 2501 H 228.23 -1.93697 0.216196 0
M  V30 2502 H 227.326 -2.99171 -0.889 0
M  V30 2503 N 227.627 0.131896 -1.57047 0
M  V30 2504 C 228.904 0.871495 -1.75112 0
M  V30 2505 C 229.284 1.9866 -0.713949 0
M  V30 2506 O 228.632 2.26965 0.264447 0
M  V30 2507 C 228.842 1.40007 -3.19686 0
M  V30 2508 C 230.19 1.85752 -3.81813 0
M  V30 2509 O 231.214 1.49715 -3.23209 0
M  V30 2510 O 230.073 2.5226 -4.84796 0
M  V30 2511 H 227.167 0.412919 -0.716538 0
M  V30 2512 H 229.713 0.116641 -1.69299 0
M  V30 2513 H 228.485 0.599404 -3.86682 0
M  V30 2514 H 228.108 2.218 -3.29986 0
M  V30 2515 N 229.106 1.52395 0.401703 0
M  V30 2516 C 230.036 1.79231 1.49661 0
M  V30 2517 C 231.017 0.643654 1.57452 0
M  V30 2518 O 232.202 0.889989 1.72606 0
M  V30 2519 C 229.332 1.94971 2.87409 0
M  V30 2520 C 228.286 3.10604 2.94465 0
M  V30 2521 C 227.612 3.11577 4.34538 0
M  V30 2522 C 228.912 4.49921 2.6527 0
M  V30 2523 H 230.606 2.70917 1.27454 0
M  V30 2524 H 228.152 1.30362 0.6117 0
M  V30 2525 H 230.105 2.12328 3.63999 0
M  V30 2526 H 228.829 0.999632 3.10926 0
M  V30 2527 H 227.488 2.93009 2.20321 0
M  V30 2528 H 227.136 2.14277 4.55076 0
M  V30 2529 H 226.836 3.89247 4.40183 0
M  V30 2530 H 228.36 3.31073 5.13053 0
M  V30 2531 H 229.774 4.67683 3.31581 0
M  V30 2532 H 228.171 5.29564 2.82281 0
M  V30 2533 H 229.241 4.57507 1.60671 0
M  V30 2534 N 230.584 -0.659388 1.43143 0
M  V30 2535 C 231.514 -1.78422 1.50625 0
M  V30 2536 C 232.495 -1.66216 0.361443 0
M  V30 2537 O 233.68 -1.85404 0.577834 0
M  V30 2538 C 230.81 -3.16815 1.42287 0
M  V30 2539 C 229.764 -3.43777 2.54954 0
M  V30 2540 C 229.09 -4.81905 2.31671 0
M  V30 2541 C 230.39 -3.39134 3.97222 0
M  V30 2542 H 232.084 -1.72417 2.44771 0
M  V30 2543 H 229.63 -0.828084 1.17808 0
M  V30 2544 H 231.583 -3.95253 1.46127 0
M  V30 2545 H 230.307 -3.23534 0.446435 0
M  V30 2546 H 228.966 -2.67707 2.50457 0
M  V30 2547 H 228.614 -4.85294 1.32284 0
M  V30 2548 H 228.314 -5.00906 3.07192 0
M  V30 2549 H 229.838 -5.62609 2.37284 0
M  V30 2550 H 231.252 -4.07518 4.03239 0
M  V30 2551 H 229.649 -3.69671 4.72719 0
M  V30 2552 H 230.719 -2.37426 4.22797 0
M  V30 2553 N 232.062 -1.29571 -0.897171 0
M  V30 2554 C 233.29 -1.20583 -1.68129 0
M  V30 2555 C 233.705 0.233181 -1.87354 0
M  V30 2556 O 233.062 1.15579 -1.41236 0
M  V30 2557 C 233.113 -1.91772 -3.06441 0
M  V30 2558 O 232.834 -3.30053 -2.88091 0
M  V30 2559 C 234.335 -1.89291 -4.00854 0
M  V30 2560 H 231.555 -0.417826 -0.525036 0
M  V30 2561 H 234.099 -1.70987 -1.12177 0
M  V30 2562 H 232.254 -1.45196 -3.59161 0
M  V30 2563 H 232.668 -3.65942 -3.75748 0
M  V30 2564 H 234.142 -2.43662 -4.95311 0
M  V30 2565 H 234.619 -0.869014 -4.30517 0
M  V30 2566 H 235.225 -2.35622 -3.54066 0
M  V30 2567 N 233.54 1.10788 -1.12088 0
M  V30 2568 C 234.47 2.19083 -0.807755 0
M  V30 2569 C 235.451 1.6858 0.226859 0
M  V30 2570 O 236.636 1.93997 0.0888475 0
M  V30 2571 C 233.766 3.46344 -0.257576 0
M  V30 2572 C 232.72 4.101 -1.22483 0
M  V30 2573 C 232.046 5.32016 -0.535052 0
M  V30 2574 C 233.346 4.54236 -2.57811 0
M  V30 2575 H 235.04 2.45534 -1.71328 0
M  V30 2576 H 232.586 1.1801 -0.825205 0
M  V30 2577 H 234.539 4.21392 -0.0262679 0
M  V30 2578 H 233.263 3.19373 0.683278 0
M  V30 2579 H 231.922 3.37054 -1.44189 0
M  V30 2580 H 231.57 5.01319 0.410827 0
M  V30 2581 H 231.27 5.75625 -1.18024 0
M  V30 2582 H 232.794 6.09799 -0.312695 0
M  V30 2583 H 234.208 5.20575 -2.40155 0
M  V30 2584 H 232.605 5.08682 -3.18375 0
M  V30 2585 H 233.675 3.6734 -3.16528 0
M  V30 2586 N 235.018 0.912232 1.28515 0
M  V30 2587 C 235.948 0.416403 2.29757 0
M  V30 2588 C 236.929 -0.515194 1.6211 0
M  V30 2589 O 238.114 -0.423253 1.89532 0
M  V30 2590 C 235.244 -0.34572 3.45575 0
M  V30 2591 C 234.198 0.496599 4.25109 0
M  V30 2592 C 233.524 -0.393771 5.33248 0
M  V30 2593 C 234.824 1.75307 4.92001 0
M  V30 2594 H 236.518 1.26249 2.7148 0
M  V30 2595 H 234.064 0.608515 1.30511 0
M  V30 2596 H 236.017 -0.703422 4.15488 0
M  V30 2597 H 234.741 -1.2257 3.02728 0
M  V30 2598 H 233.4 0.8368 3.56922 0
M  V30 2599 H 233.048 -1.27225 4.86644 0
M  V30 2600 H 232.748 0.166209 5.87365 0
M  V30 2601 H 234.272 -0.747389 6.06009 0
M  V30 2602 H 235.686 1.46437 5.54283 0
M  V30 2603 H 234.083 2.25534 5.56106 0
M  V30 2604 H 235.153 2.48176 4.16577 0
M  V30 2605 N 236.496 -1.42363 0.676048 0
M  V30 2606 C 237.721 -2.06377 0.205705 0
M  V30 2607 C 238.146 -1.50463 -1.12883 0
M  V30 2608 O 237.504 -0.623619 -1.70237 0
M  V30 2609 C 237.552 -3.60277 0.152655 0
M  V30 2610 O 236.656 -4.02935 -0.87845 0
M  V30 2611 H 235.997 -0.655588 0.105359 0
M  V30 2612 H 238.527 -1.82475 0.925412 0
M  V30 2613 H 238.537 -4.07993 -0.0230675 0
M  V30 2614 H 237.212 -4.00346 1.12675 0
M  V30 2615 H 235.789 -3.66764 -0.673668 0
M  V30 2616 N 237.974 -0.419461 -1.51915 0
M  V30 2617 C 239.39 -0.0708431 -1.59443 0
M  V30 2618 C 239.59 1.41796 -1.43164 0
M  V30 2619 O 238.646 2.18596 -1.26381 0
M  V30 2620 C 239.959 -0.574991 -2.95151 0
M  V30 2621 C 241.507 -0.533867 -3.08413 0
M  V30 2622 C 241.982 -1.01469 -4.46618 0
M  V30 2623 N 243.473 -0.971939 -4.52888 0
M  V30 2624 C 244.208 -1.31505 -5.58116 0
M  V30 2625 N 243.704 -1.73014 -6.70849 0
M  V30 2626 N 245.497 -1.23436 -5.48379 0
M  V30 2627 H 237.648 -1.38836 -1.60743 0
M  V30 2628 H 239.911 -0.570998 -0.756747 0
M  V30 2629 H 239.617 -1.61597 -3.12377 0
M  V30 2630 H 239.491 0.00979777 -3.77199 0
M  V30 2631 H 241.878 0.498086 -2.90866 0
M  V30 2632 H 241.959 -1.15484 -2.28248 0
M  V30 2633 H 241.603 -2.04502 -4.6491 0
M  V30 2634 H 241.533 -0.370433 -5.25295 0
M  V30 2635 H 244.024 -0.666893 -3.71969 0
M  V30 2636 H 244.337 -1.97479 -7.47143 0
M  V30 2637 H 242.682 -1.76926 -6.72103 0
M  V30 2638 H 245.873 -0.908869 -4.59192 0
M  V30 2639 H 246.046 -1.50506 -6.30279 0
M  V30 2640 N 239.452 1.56882 -0.150215 0
M  V30 2641 C 240.699 1.96228 0.500093 0
M  V30 2642 C 241.027 1.03522 1.64661 0
M  V30 2643 O 240.282 0.0650683 1.95592 0
M  V30 2644 C 240.581 3.41801 1.04437 0
M  V30 2645 C 240.247 4.50897 0.0159671 0
M  V30 2646 C 238.909 4.8046 -0.266731 0
M  V30 2647 C 241.261 5.16703 -0.683192 0
M  V30 2648 C 238.589 5.73135 -1.25434 0
M  V30 2649 C 240.941 6.10441 -1.65964 0
M  V30 2650 C 239.605 6.38382 -1.95 0
M  V30 2651 H 238.875 0.718048 0.182997 0
M  V30 2652 H 241.522 1.90019 -0.237724 0
M  V30 2653 H 239.827 3.44857 1.85959 0
M  V30 2654 H 241.524 3.69573 1.55618 0
M  V30 2655 H 238.114 4.27891 0.246485 0
M  V30 2656 H 242.298 4.93993 -0.477983 0
M  V30 2657 H 237.554 5.93074 -1.48571 0
M  V30 2658 H 241.728 6.60507 -2.20689 0
M  V30 2659 H 239.355 7.09996 -2.71679 0
M  V30 2660 N 240.93 -0.123565 1.57115 0
M  V30 2661 C 241.84 -1.17074 2.033 0
M  V30 2662 C 242.856 -1.4561 0.952559 0
M  V30 2663 O 244.032 -1.56817 1.26374 0
M  V30 2664 C 241.097 -2.47857 2.42421 0
M  V30 2665 C 240.158 -2.26758 3.64526 0
M  V30 2666 C 239.391 -3.51305 4.01771 0
M  V30 2667 O 239.614 -4.5843 3.39409 0
M  V30 2668 O 238.548 -3.42578 4.94898 0
M  V30 2669 H 242.374 -0.808555 2.92739 0
M  V30 2670 H 239.959 -0.334027 1.45618 0
M  V30 2671 H 241.841 -3.2492 2.68338 0
M  V30 2672 H 240.516 -2.83558 1.5613 0
M  V30 2673 H 239.423 -1.47569 3.43765 0
M  V30 2674 H 240.756 -1.95963 4.51508 0
M  V30 2675 N 242.408 -1.52605 -0.393616 0
M  V30 2676 C 243.685 -1.58001 -1.15304 0
M  V30 2677 C 244.065 -0.370385 -2.07825 0
M  V30 2678 O 243.413 0.641638 -2.19306 0
M  V30 2679 C 243.623 -2.91652 -1.91677 0
M  V30 2680 C 244.971 -3.4522 -2.47201 0
M  V30 2681 O 245.995 -2.93495 -2.01839 0
M  V30 2682 O 244.854 -4.35579 -3.3005 0
M  V30 2683 H 241.948 -0.637068 -0.527327 0
M  V30 2684 H 244.494 -1.64939 -0.399141 0
M  V30 2685 H 243.266 -3.71136 -1.23992 0
M  V30 2686 H 242.889 -2.88077 -2.74039 0
M  V30 2687 N 243.887 0.651787 -1.4349 0
M  V30 2688 C 245.303 0.96762 -1.26922 0
M  V30 2689 C 245.503 2.00602 -0.189982 0
M  V30 2690 O 244.559 2.48793 0.431107 0
M  V30 2691 C 245.872 1.45052 -2.63401 0
M  V30 2692 C 247.42 1.5671 -2.70945 0
M  V30 2693 C 247.895 2.0839 -4.07845 0
M  V30 2694 N 249.386 2.1569 -4.09917 0
M  V30 2695 C 250.121 2.56804 -5.12679 0
M  V30 2696 N 249.617 2.97203 -6.25813 0
M  V30 2697 N 251.41 2.56756 -5.00033 0
M  V30 2698 H 243.561 -0.0353158 -2.12371 0
M  V30 2699 H 245.824 0.0467858 -0.946845 0
M  V30 2700 H 245.53 0.761926 -3.43348 0
M  V30 2701 H 245.404 2.42529 -2.88894 0
M  V30 2702 H 247.791 2.2467 -1.9133 0
M  V30 2703 H 247.872 0.57662 -2.49216 0
M  V30 2704 H 247.516 1.41031 -4.87927 0
M  V30 2705 H 247.446 3.08271 -4.26938 0
M  V30 2706 H 249.937 1.87237 -3.28254 0
M  V30 2707 H 250.25 3.27328 -7.00055 0
M  V30 2708 H 248.595 2.95004 -6.29283 0
M  V30 2709 H 251.786 2.24572 -4.10713 0
M  V30 2710 H 251.959 2.88475 -5.80247 0
M  V30 2711 N 245.365 1.30045 0.890287 0
M  V30 2712 C 246.295 1.18541 2.01172 0
M  V30 2713 C 247.276 0.0773356 1.69924 0
M  V30 2714 O 248.461 0.25845 1.92473 0
M  V30 2715 C 245.591 0.870941 3.36202 0
M  V30 2716 C 244.545 1.93637 3.81692 0
M  V30 2717 C 243.871 1.475 5.13953 0
M  V30 2718 C 245.171 3.34666 4.00994 0
M  V30 2719 H 246.865 2.12359 2.11054 0
M  V30 2720 H 244.411 1.02238 1.01407 0
M  V30 2721 H 246.364 0.777141 4.14172 0
M  V30 2722 H 245.088 -0.102926 3.26438 0
M  V30 2723 H 243.747 2.01972 3.05946 0
M  V30 2724 H 243.395 0.489551 5.00612 0
M  V30 2725 H 243.095 2.1876 5.4536 0
M  V30 2726 H 244.619 1.39489 5.94454 0
M  V30 2727 H 246.033 3.2912 4.69417 0
M  V30 2728 H 244.43 4.03966 4.43769 0
M  V30 2729 H 245.5 3.76949 3.05021 0
M  V30 2730 N 246.843 -1.10192 1.12674 0
M  V30 2731 C 248.254 -1.63707 0.897604 0
M  V30 2732 C 248.605 -1.87812 -0.567546 0
M  V30 2733 O 247.73 -1.62196 -1.43253 0
M  V30 2734 C 248.325 -2.974 1.62292 0
M  V30 2735 C 246.884 -3.47772 1.43986 0
M  V30 2736 C 246.031 -2.22332 1.65722 0
M  V30 2737 H 248.982 -0.936587 1.28116 0
M  V30 2738 H 249.003 -3.64986 1.07541 0
M  V30 2739 H 248.515 -2.79824 2.68924 0
M  V30 2740 H 246.616 -3.70487 0.396206 0
M  V30 2741 H 246.729 -4.25723 2.19765 0
M  V30 2742 H 245.093 -2.30599 1.08149 0
M  V30 2743 H 245.876 -2.07285 2.73657 0
M  V30 2744 N 248.321 -0.919034 -1.28029 0
M  V30 2745 C 249.732 -0.600735 -1.76771 0
M  V30 2746 C 250.083 0.884024 -1.75156 0
M  V30 2747 O 249.208 1.69163 -1.34956 0
M  V30 2748 C 249.803 -1.08372 -3.21 0
M  V30 2749 C 248.362 -0.816248 -3.67443 0
M  V30 2750 C 247.509 -1.24742 -2.47658 0
M  V30 2751 H 250.46 -1.09974 -1.14418 0
M  V30 2752 H 250.481 -0.427512 -3.78091 0
M  V30 2753 H 249.993 -2.16437 -3.22144 0
M  V30 2754 H 248.094 0.250968 -3.71754 0
M  V30 2755 H 248.207 -1.4277 -4.57333 0
M  V30 2756 H 246.571 -0.666083 -2.45836 0
M  V30 2757 H 247.354 -2.33653 -2.51518 0
M  V30 2758 N 249.799 1.42003 -0.683588 0
M  V30 2759 C 250.709 2.34597 -0.0109075 0
M  V30 2760 C 251.725 1.55576 0.779245 0
M  V30 2761 O 252.901 1.88107 0.719555 0
M  V30 2762 C 249.966 3.34199 0.922588 0
M  V30 2763 C 249.027 4.29115 0.125984 0
M  V30 2764 C 248.26 5.23959 1.01502 0
M  V30 2765 O 248.483 5.23952 2.25456 0
M  V30 2766 O 247.417 6.00053 0.47111 0
M  V30 2767 H 251.243 2.93675 -0.773853 0
M  V30 2768 H 248.828 1.42654 -0.443861 0
M  V30 2769 H 250.71 3.95365 1.45823 0
M  V30 2770 H 249.385 2.77582 1.66523 0
M  V30 2771 H 248.292 3.71335 -0.453969 0
M  V30 2772 H 249.625 4.88798 -0.577736 0
M  V30 2773 N 251.277 0.427512 1.51691 0
M  V30 2774 C 252.207 -0.3796 2.30394 0
M  V30 2775 C 253.188 -1.02982 1.35384 0
M  V30 2776 O 254.373 -1.03534 1.643 0
M  V30 2777 C 251.503 -1.48649 3.1388 0
M  V30 2778 C 250.457 -0.960294 4.17088 0
M  V30 2779 C 249.783 -2.16219 4.89033 0
M  V30 2780 C 251.083 -0.00153679 5.223 0
M  V30 2781 H 252.777 0.277164 2.98114 0
M  V30 2782 H 250.323 0.134739 1.43368 0
M  V30 2783 H 252.276 -2.05826 3.67714 0
M  V30 2784 H 251 -2.1714 2.43962 0
M  V30 2785 H 249.659 -0.410806 3.64291 0
M  V30 2786 H 249.307 -2.83307 4.15628 0
M  V30 2787 H 249.007 -1.81654 5.58816 0
M  V30 2788 H 250.531 -2.73968 5.45687 0
M  V30 2789 H 251.945 -0.482687 5.71264 0
M  V30 2790 H 250.342 0.256199 5.99553 0
M  V30 2791 H 251.412 0.938174 4.75738 0
M  V30 2792 N 252.755 -1.56801 0.158532 0
M  V30 2793 C 253.718 -2.16138 -0.762705 0
M  V30 2794 C 254.718 -1.1061 -1.16713 0
M  V30 2795 O 255.908 -1.36191 -1.08617 0
M  V30 2796 C 253.04 -2.73386 -2.03649 0
M  V30 2797 H 254.233 -2.98886 -0.246354 0
M  V30 2798 H 251.786 -1.56035 -0.0909744 0
M  V30 2799 H 252.521 -1.94335 -2.59623 0
M  V30 2800 H 252.306 -3.50601 -1.75559 0
M  V30 2801 H 253.796 -3.19065 -2.6942 0
M  V30 2802 N 254.233 0.115231 -1.57178 0
M  V30 2803 C 255.165 1.16694 -1.97269 0
M  V30 2804 C 256.178 1.37445 -0.872502 0
M  V30 2805 O 257.367 1.36454 -1.15077 0
M  V30 2806 C 254.467 2.52627 -2.25905 0
M  V30 2807 C 253.64 2.52427 -3.57211 0
M  V30 2808 C 252.699 3.70134 -3.74016 0
M  V30 2809 O 251.725 3.53546 -4.46087 0
M  V30 2810 N 252.927 4.88844 -3.13068 0
M  V30 2811 H 255.692 0.82588 -2.88096 0
M  V30 2812 H 253.253 0.304461 -1.59011 0
M  V30 2813 H 255.245 3.29937 -2.34359 0
M  V30 2814 H 253.815 2.789 -1.41186 0
M  V30 2815 H 253.035 1.60805 -3.5991 0
M  V30 2816 H 254.323 2.49353 -4.43509 0
M  V30 2817 H 253.721 5.05225 -2.54489 0
M  V30 2818 H 252.278 5.63817 -3.27037 0
M  V30 2819 N 255.711 1.52812 0.385517 0
M  V30 2820 C 256.958 1.68026 1.1302 0
M  V30 2821 C 257.286 0.421934 1.89868 0
M  V30 2822 O 256.541 -0.595749 1.86412 0
M  V30 2823 C 256.84 2.86856 2.13187 0
M  V30 2824 C 256.506 4.24159 1.5297 0
M  V30 2825 C 255.168 4.61501 1.36274 0
M  V30 2826 C 257.52 5.09627 1.09223 0
M  V30 2827 C 254.848 5.81966 0.743837 0
M  V30 2828 C 257.2 6.30719 0.487411 0
M  V30 2829 C 255.864 6.6679 0.307777 0
M  V30 2830 H 255.134 0.614849 0.413571 0
M  V30 2831 H 257.781 1.86962 0.414405 0
M  V30 2832 H 256.086 2.6235 2.90998 0
M  V30 2833 H 257.783 2.95821 2.70722 0
M  V30 2834 H 254.373 3.94746 1.66954 0
M  V30 2835 H 258.557 4.81343 1.20922 0
M  V30 2836 H 253.813 6.08519 0.592891 0
M  V30 2837 H 257.987 6.96259 0.140143 0
M  V30 2838 H 255.614 7.60001 -0.173879 0
M  V30 2839 N 257.189 -0.644168 1.43834 0
M  V30 2840 C 258.419 -1.42939 1.49171 0
M  V30 2841 C 258.827 -1.88874 0.111048 0
M  V30 2842 O 258.17 -1.60656 -0.8908 0
M  V30 2843 C 258.232 -2.69151 2.38324 0
M  V30 2844 C 257.896 -2.45097 3.85715 0
M  V30 2845 C 258.893 -2.07747 4.76589 0
M  V30 2846 C 256.578 -2.59141 4.30292 0
M  V30 2847 C 258.572 -1.8475 6.10038 0
M  V30 2848 C 256.259 -2.35759 5.63792 0
M  V30 2849 C 257.257 -1.9862 6.53482 0
M  V30 2850 O 256.945 -1.75489 7.84512 0
M  V30 2851 H 256.677 -0.445271 0.508635 0
M  V30 2852 H 259.231 -0.79621 1.8934 0
M  V30 2853 H 257.461 -3.3506 1.93058 0
M  V30 2854 H 259.15 -3.31123 2.3476 0
M  V30 2855 H 259.916 -1.96465 4.43426 0
M  V30 2856 H 255.795 -2.87022 3.60749 0
M  V30 2857 H 259.339 -1.55686 6.80006 0
M  V30 2858 H 255.236 -2.46646 5.9652 0
M  V30 2859 H 256.004 -1.89841 7.9618 0
M  V30 2860 N 258.668 -1.30515 -0.883378 0
M  V30 2861 C 259.598 -1.19607 -2.00541 0
M  V30 2862 C 260.579 -0.086346 -1.69881 0
M  V30 2863 O 261.764 -0.268654 -1.92333 0
M  V30 2864 C 258.894 -0.888758 -3.35736 0
M  V30 2865 C 257.848 -1.95659 -3.8066 0
M  V30 2866 C 257.174 -1.50224 -5.13164 0
M  V30 2867 C 258.474 -3.36788 -3.99213 0
M  V30 2868 H 260.168 -2.13476 -2.09925 0
M  V30 2869 H 257.714 -1.02775 -1.00863 0
M  V30 2870 H 259.667 -0.799094 -4.13754 0
M  V30 2871 H 258.391 0.0856125 -3.26488 0
M  V30 2872 H 257.05 -2.03591 -3.04871 0
M  V30 2873 H 256.698 -0.516092 -5.00345 0
M  V30 2874 H 256.398 -2.2165 -5.44192 0
M  V30 2875 H 257.922 -1.42639 -5.93706 0
M  V30 2876 H 259.336 -3.31605 -4.67665 0
M  V30 2877 H 257.733 -4.06314 -4.41621 0
M  V30 2878 H 258.803 -3.78561 -3.03017 0
M  V30 2879 N 260.146 1.09593 -1.13257 0
M  V30 2880 C 261.109 2.14359 -0.811358 0
M  V30 2881 C 262.109 1.59808 0.178377 0
M  V30 2882 O 263.299 1.74132 -0.0484911 0
M  V30 2883 C 260.431 3.40269 -0.207276 0
M  V30 2884 H 261.624 2.44284 -1.73969 0
M  V30 2885 H 259.177 1.25102 -0.936973 0
M  V30 2886 H 259.912 3.15969 0.73036 0
M  V30 2887 H 259.697 3.81154 -0.919992 0
M  V30 2888 H 261.187 4.176 0.000667944 0
M  V30 2889 N 261.624 0.925811 1.2754 0
M  V30 2890 C 262.534 0.428993 2.30644 0
M  V30 2891 C 263.55 -0.489387 1.66976 0
M  V30 2892 O 264.726 -0.372653 1.97922 0
M  V30 2893 C 261.791 -0.311967 3.45294 0
M  V30 2894 C 260.852 0.641098 4.24486 0
M  V30 2895 C 260.085 -0.0645955 5.33661 0
M  V30 2896 O 260.308 -1.28429 5.55754 0
M  V30 2897 O 259.242 0.606265 5.98839 0
M  V30 2898 H 263.068 1.28504 2.75173 0
M  V30 2899 H 260.653 0.691086 1.32455 0
M  V30 2900 H 262.535 -0.729972 4.15029 0
M  V30 2901 H 261.21 -1.14365 3.02824 0
M  V30 2902 H 260.117 1.10874 3.57292 0
M  V30 2903 H 261.45 1.43995 4.70666 0
M  V30 2904 N 263.102 -1.41638 0.69111 0
M  V30 2905 C 264.035 -2.28183 -0.0274913 0
M  V30 2906 C 265.013 -1.41984 -0.792424 0
M  V30 2907 O 266.197 -1.71415 -0.784169 0
M  V30 2908 C 263.324 -3.22135 -1.04628 0
M  V30 2909 C 262.37 -4.24848 -0.375037 0
M  V30 2910 S 263.203 -5.28231 0.879321 0
M  V30 2911 C 264.359 -6.25748 -0.137983 0
M  V30 2912 H 264.592 -2.88782 0.706553 0
M  V30 2913 H 262.125 -1.46709 0.481222 0
M  V30 2914 H 264.083 -3.76797 -1.62894 0
M  V30 2915 H 262.744 -2.6064 -1.75287 0
M  V30 2916 H 261.937 -4.90837 -1.14433 0
M  V30 2917 H 261.539 -3.73758 0.134434 0
M  V30 2918 H 263.831 -6.70188 -0.992659 0
M  V30 2919 H 264.774 -7.06417 0.487867 0
M  V30 2920 H 265.182 -5.62363 -0.490762 0
M  V30 2921 N 264.58 -0.43555 -1.51462 0
M  V30 2922 C 265.826 0.131709 -2.02372 0
M  V30 2923 C 266.159 1.42516 -1.3192 0
M  V30 2924 O 265.434 1.89606 -0.433573 0
M  V30 2925 C 265.717 0.352301 -3.58373 0
M  V30 2926 C 265.57 -0.959676 -4.39443 0
M  V30 2927 C 266.889 1.12286 -4.25535 0
M  V30 2928 H 264.008 0.0463936 -0.735538 0
M  V30 2929 H 266.65 -0.574197 -1.81116 0
M  V30 2930 H 264.8 0.9536 -3.76615 0
M  V30 2931 H 266.472 -1.59482 -4.32855 0
M  V30 2932 H 264.715 -1.56468 -4.04599 0
M  V30 2933 H 265.386 -0.759394 -5.46752 0
M  V30 2934 H 267.862 0.613545 -4.11552 0
M  V30 2935 H 266.738 1.24598 -5.34571 0
M  V30 2936 H 266.999 2.15048 -3.86273 0
M  V30 2937 N 266.058 1.56714 -0.166846 0
M  V30 2938 C 266.988 2.20754 0.760913 0
M  V30 2939 C 267.969 1.16178 1.24244 0
M  V30 2940 O 269.154 1.44592 1.29641 0
M  V30 2941 C 266.284 2.84478 1.99223 0
M  V30 2942 C 265.238 3.95053 1.64672 0
M  V30 2943 C 264.564 4.45805 2.95232 0
M  V30 2944 C 265.864 5.14865 0.878155 0
M  V30 2945 H 267.558 2.98537 0.22713 0
M  V30 2946 H 265.104 1.43596 0.107805 0
M  V30 2947 H 267.057 3.27951 2.64624 0
M  V30 2948 H 265.781 2.04056 2.55007 0
M  V30 2949 H 264.44 3.52228 1.01641 0
M  V30 2950 H 264.088 3.62181 3.49047 0
M  V30 2951 H 263.788 5.204 2.7287 0
M  V30 2952 H 265.312 4.91962 3.6167 0
M  V30 2953 H 266.726 5.55059 1.43466 0
M  V30 2954 H 265.123 5.95348 0.753738 0
M  V30 2955 H 266.193 4.84735 -0.126377 0
M  V30 2956 N 267.536 -0.106894 1.57237 0
M  V30 2957 C 268.499 -1.11466 2.0027 0
M  V30 2958 C 269.499 -1.33623 0.894519 0
M  V30 2959 O 270.689 -1.29935 1.16028 0
M  V30 2960 C 267.821 -2.46646 2.35327 0
M  V30 2961 H 269.014 -0.744516 2.90512 0
M  V30 2962 H 266.567 -0.351576 1.52295 0
M  V30 2963 H 267.302 -2.88558 1.48003 0
M  V30 2964 H 267.087 -2.31915 3.16161 0
M  V30 2965 H 268.577 -3.19151 2.69318 0
M  V30 2966 N 269.014 -1.53014 -0.377408 0
M  V30 2967 C 270.263 -1.67845 -1.11853 0
M  V30 2968 C 270.576 -0.430625 -1.90801 0
M  V30 2969 O 271.782 -0.459261 -2.67587 0
M  V30 2970 C 270.238 -2.96668 -2.03756 0
M  V30 2971 C 269.846 -4.28671 -1.30175 0
M  V30 2972 C 271.59 -3.20865 -2.77932 0
M  V30 2973 C 269.497 -5.48591 -2.20911 0
M  V30 2974 H 268.427 -0.625343 -0.421263 0
M  V30 2975 H 271.078 -1.79514 -0.380409 0
M  V30 2976 H 269.46 -2.78773 -2.8125 0
M  V30 2977 H 270.634 -4.57157 -0.578259 0
M  V30 2978 H 268.949 -4.10825 -0.679108 0
M  V30 2979 H 271.546 -4.07642 -3.46024 0
M  V30 2980 H 271.889 -2.36424 -3.4265 0
M  V30 2981 H 272.422 -3.39379 -2.07525 0
M  V30 2982 H 269.161 -6.35474 -1.6079 0
M  V30 2983 H 268.681 -5.244 -2.91144 0
M  V30 2984 H 270.36 -5.8292 -2.80736 0
M  V30 2985 N 270.492 0.636531 -1.44174 0
M  V30 2986 C 271.442 1.74233 -1.47061 0
M  V30 2987 C 272.426 1.57331 -0.337034 0
M  V30 2988 O 273.618 1.67159 -0.581973 0
M  V30 2989 C 270.747 3.12897 -1.41246 0
M  V30 2990 C 269.833 3.35288 -2.59698 0
M  V30 2991 N 270.224 3.2807 -3.84972 0
M  V30 2992 C 268.522 3.66065 -2.54778 0
M  V30 2993 C 269.223 3.51001 -4.63867 0
M  V30 2994 N 268.199 3.73616 -3.94857 0
M  V30 2995 H 272.001 1.67103 -2.41773 0
M  V30 2996 H 269.515 0.838806 -1.3906 0
M  V30 2997 H 271.512 3.92189 -1.41398 0
M  V30 2998 H 270.172 3.21197 -0.47569 0
M  V30 2999 H 271.183 3.07109 -4.17019 0
M  V30 3000 H 267.86 3.81379 -1.6987 0
M  V30 3001 H 269.25 3.51059 -5.72894 0
M  V30 3002 N 271.97 1.30982 0.876444 0
M  V30 3003 C 273.195 1.23373 1.66715 0
M  V30 3004 C 273.62 -0.19885 1.87046 0
M  V30 3005 O 272.978 -1.1427 1.40756 0
M  V30 3006 C 273.026 1.97644 3.01611 0
M  V30 3007 O 272.13 1.30935 3.91062 0
M  V30 3008 H 271.471 0.426279 0.509099 0
M  V30 3009 H 274.001 1.72944 1.09323 0
M  V30 3010 H 274.011 2.06992 3.51594 0
M  V30 3011 H 272.686 3.01829 2.86133 0
M  V30 3012 H 271.263 1.29996 3.49507 0
M  V30 3013 N 273.449 -1.08991 1.13837 0
M  V30 3014 C 274.379 -2.17771 0.842507 0
M  V30 3015 C 275.36 -1.6892 -0.20001 0
M  V30 3016 O 276.545 -1.94113 -0.0579731 0
M  V30 3017 C 273.675 -3.4589 0.312644 0
M  V30 3018 C 272.629 -4.08099 1.28992 0
M  V30 3019 C 271.955 -5.31098 0.619623 0
M  V30 3020 C 273.255 -4.50077 2.65005 0
M  V30 3021 H 274.949 -2.42777 1.75213 0
M  V30 3022 H 272.495 -1.16682 0.843875 0
M  V30 3023 H 274.448 -4.21297 0.0933043 0
M  V30 3024 H 273.172 -3.20419 -0.632382 0
M  V30 3025 H 271.831 -3.34717 1.49533 0
M  V30 3026 H 271.479 -5.0191 -0.33102 0
M  V30 3027 H 271.179 -5.73674 1.27167 0
M  V30 3028 H 272.703 -6.09224 0.409669 0
M  V30 3029 H 274.117 -5.16688 2.48407 0
M  V30 3030 H 272.514 -5.03553 3.26427 0
M  V30 3031 H 273.584 -3.62257 3.22332 0
M  V30 3032 N 274.927 -0.932562 -1.27047 0
M  V30 3033 C 275.877 -0.406392 -2.24349 0
M  V30 3034 C 276.861 0.492066 -1.53191 0
M  V30 3035 O 278.053 0.328717 -1.73921 0
M  V30 3036 C 275.182 0.335214 -3.41659 0
M  V30 3037 C 274.268 -0.58004 -4.20115 0
M  V30 3038 N 274.659 -1.70203 -4.76303 0
M  V30 3039 C 272.957 -0.383974 -4.44344 0
M  V30 3040 C 273.658 -2.27167 -5.35509 0
M  V30 3041 N 272.634 -1.56068 -5.20715 0
M  V30 3042 H 276.436 -1.26299 -2.65378 0
M  V30 3043 H 273.95 -0.787408 -1.42034 0
M  V30 3044 H 275.947 0.729142 -4.10474 0
M  V30 3045 H 274.607 1.18868 -3.0216 0
M  V30 3046 H 275.618 -2.08433 -4.74106 0
M  V30 3047 H 272.295 0.428436 -4.15296 0
M  V30 3048 H 273.685 -3.21654 -5.89905 0
M  V30 3049 N 276.405 1.4127 -0.698611 0
M  V30 3050 C 277.337 2.292 0.00399731 0
M  V30 3051 C 278.35 1.44944 0.741279 0
M  V30 3052 O 279.539 1.68416 0.591477 0
M  V30 3053 C 276.639 3.22875 1.02979 0
M  V30 3054 C 275.812 4.35904 0.36151 0
M  V30 3055 C 274.871 5.10134 1.29033 0
M  V30 3056 O 273.897 5.63809 0.781562 0
M  V30 3057 N 275.099 5.17885 2.6225 0
M  V30 3058 H 277.864 2.9014 -0.750921 0
M  V30 3059 H 275.425 1.52455 -0.544882 0
M  V30 3060 H 277.417 3.69404 1.65296 0
M  V30 3061 H 275.987 2.63221 1.68622 0
M  V30 3062 H 275.207 3.91719 -0.441584 0
M  V30 3063 H 276.495 5.08696 -0.103055 0
M  V30 3064 H 275.893 4.7573 3.061 0
M  V30 3065 H 274.45 5.6798 3.19754 0
M  V30 3066 N 277.883 0.443576 1.51229 0
M  V30 3067 C 278.813 -0.355142 2.30783 0
M  V30 3068 C 279.794 -1.0154 1.36468 0
M  V30 3069 O 280.979 -1.01785 1.65389 0
M  V30 3070 C 278.109 -1.45312 3.15439 0
M  V30 3071 C 277.063 -0.916002 4.18083 0
M  V30 3072 C 276.389 -2.1102 4.91299 0
M  V30 3073 C 277.689 0.0538602 5.22272 0
M  V30 3074 H 279.383 0.308767 2.97804 0
M  V30 3075 H 276.929 0.149937 1.43217 0
M  V30 3076 H 278.882 -2.01914 3.69876 0
M  V30 3077 H 277.606 -2.14541 2.46252 0
M  V30 3078 H 276.265 -0.372145 3.64706 0
M  V30 3079 H 275.913 -2.78882 4.18609 0
M  V30 3080 H 275.613 -1.75717 5.60712 0
M  V30 3081 H 277.137 -2.68164 5.48562 0
M  V30 3082 H 278.551 -0.422069 5.71744 0
M  V30 3083 H 276.948 0.319776 5.99247 0
M  V30 3084 H 278.018 0.98858 4.74716 0
M  V30 3085 N 279.361 -1.56624 0.175154 0
M  V30 3086 C 280.609 -1.96609 -0.467885 0
M  V30 3087 C 280.93 -1.06238 -1.63519 0
M  V30 3088 O 280.2 -0.129523 -1.95471 0
M  V30 3089 H 278.78 -0.726008 -0.175845 0
M  V30 3090 H 281.442 -1.93195 0.257234 0
M  V30 3091 H 280.538 -3.00989 -0.825342 0
M  V30 3092 N 280.839 0.0985539 -1.57292 0
M  V30 3093 C 282.069 0.815135 -1.8984 0
M  V30 3094 C 282.477 1.7297 -0.766679 0
M  V30 3095 O 281.82 1.81698 0.270483 0
M  V30 3096 C 281.882 1.6842 -3.17608 0
M  V30 3097 C 281.546 0.94182 -4.4719 0
M  V30 3098 C 282.543 0.273212 -5.19182 0
M  V30 3099 C 280.228 0.916927 -4.9386 0
M  V30 3100 C 282.222 -0.410361 -6.36078 0
M  V30 3101 C 279.909 0.229567 -6.10669 0
M  V30 3102 C 280.907 -0.432902 -6.81627 0
M  V30 3103 O 280.595 -1.10925 -7.9621 0
M  V30 3104 H 280.327 0.238501 -0.632529 0
M  V30 3105 H 282.881 0.0812659 -2.05239 0
M  V30 3106 H 281.111 2.46022 -2.98345 0
M  V30 3107 H 282.8 2.27704 -3.36015 0
M  V30 3108 H 283.566 0.283927 -4.84168 0
M  V30 3109 H 279.445 1.42201 -4.3852 0
M  V30 3110 H 282.989 -0.928013 -6.914 0
M  V30 3111 H 278.886 0.216686 -6.45136 0
M  V30 3112 H 279.654 -1.01579 -8.12172 0
M  V30 3113 N 282.317 1.53212 0.369288 0
M  V30 3114 C 283.563 1.69466 1.11397 0
M  V30 3115 C 283.896 0.443257 1.89074 0
M  V30 3116 O 283.171 -0.559386 1.86282 0
M  V30 3117 C 283.454 2.9422 2.07621 0
M  V30 3118 C 283.307 4.29508 1.33577 0
M  V30 3119 C 284.626 3.14565 3.07794 0
M  V30 3120 H 281.745 0.616667 0.403597 0
M  V30 3121 H 284.387 1.85845 0.395179 0
M  V30 3122 H 282.537 2.80387 2.68916 0
M  V30 3123 H 284.209 4.55147 0.750955 0
M  V30 3124 H 282.452 4.29088 0.637618 0
M  V30 3125 H 283.123 5.12926 2.03989 0
M  V30 3126 H 285.599 3.2756 2.56601 0
M  V30 3127 H 284.475 4.03297 3.72348 0
M  V30 3128 H 284.736 2.29675 3.77759 0
M  V30 3129 N 283.795 -0.628877 1.44509 0
M  V30 3130 C 284.745 -1.7345 1.47983 0
M  V30 3131 C 285.729 -1.5715 0.345373 0
M  V30 3132 O 286.921 -1.66848 0.590829 0
M  V30 3133 C 284.05 -3.12143 1.42904 0
M  V30 3134 C 283.136 -3.33906 2.61472 0
M  V30 3135 N 283.527 -3.26024 3.86706 0
M  V30 3136 C 281.825 -3.64709 2.56716 0
M  V30 3137 C 282.526 -3.48536 4.65722 0
M  V30 3138 N 281.502 -3.71517 3.96832 0
M  V30 3139 H 285.304 -1.65818 2.42655 0
M  V30 3140 H 282.818 -0.831419 1.39503 0
M  V30 3141 H 284.815 -3.91433 1.43476 0
M  V30 3142 H 283.475 -3.2094 0.492717 0
M  V30 3143 H 284.486 -3.04893 4.18641 0
M  V30 3144 H 281.163 -3.80473 1.71891 0
M  V30 3145 H 282.553 -3.48016 5.74747 0
M  V30 3146 N 285.273 -1.31445 -0.869486 0
M  V30 3147 C 286.689 -1.10113 -1.15531 0
M  V30 3148 C 286.889 0.128087 -2.01092 0
M  V30 3149 O 285.945 0.817276 -2.38908 0
M  V30 3150 C 287.258 -2.37291 -1.84698 0
M  V30 3151 C 288.806 -2.42906 -1.97397 0
M  V30 3152 C 289.281 -3.69967 -2.69979 0
M  V30 3153 N 290.772 -3.70864 -2.77514 0
M  V30 3154 C 291.507 -4.65875 -3.34287 0
M  V30 3155 N 291.003 -5.71242 -3.91988 0
M  V30 3156 N 292.796 -4.53394 -3.3225 0
M  V30 3157 H 284.947 -2.1028 -0.299347 0
M  V30 3158 H 287.21 -0.927683 -0.195214 0
M  V30 3159 H 286.916 -3.27078 -1.29278 0
M  V30 3160 H 286.79 -2.47125 -2.84972 0
M  V30 3161 H 289.177 -1.53588 -2.51982 0
M  V30 3162 H 289.258 -2.37036 -0.961643 0
M  V30 3163 H 288.902 -4.59652 -2.16062 0
M  V30 3164 H 288.832 -3.73103 -3.7162 0
M  V30 3165 H 291.323 -2.94697 -2.36563 0
M  V30 3166 H 291.636 -6.39817 -4.33421 0
M  V30 3167 H 289.981 -5.75015 -3.90362 0
M  V30 3168 H 293.172 -3.70252 -2.8641 0
M  V30 3169 H 293.345 -5.27617 -3.76197 0
M  V30 3170 N 286.751 1.08385 -1.14413 0
M  V30 3171 C 288.028 1.77429 -0.823297 0
M  V30 3172 C 288.408 1.9974 0.683163 0
M  V30 3173 O 287.756 1.60739 1.62405 0
M  V30 3174 C 287.966 3.09004 -1.62227 0
M  V30 3175 C 289.314 3.83532 -1.82177 0
M  V30 3176 O 290.338 3.18786 -1.58915 0
M  V30 3177 O 289.197 4.99792 -2.21067 0
M  V30 3178 H 286.291 0.769999 -0.301712 0
M  V30 3179 H 288.837 1.14846 -1.24934 0
M  V30 3180 H 287.609 2.88316 -2.64555 0
M  V30 3181 H 287.232 3.79316 -1.19187 0
M  V30 3182 N 288.23 0.939286 1.26551 0
M  V30 3183 C 289.476 0.586715 1.94128 0
M  V30 3184 C 289.809 -0.8717 1.73537 0
M  V30 3185 O 289.084 -1.62339 1.07127 0
M  V30 3186 C 289.367 0.927497 3.4795 0
M  V30 3187 C 289.22 2.44052 3.77834 0
M  V30 3188 C 290.539 0.441569 4.37879 0
M  V30 3189 H 287.658 0.21463 0.705055 0
M  V30 3190 H 290.3 1.17316 1.49455 0
M  V30 3191 H 288.45 0.428431 3.8613 0
M  V30 3192 H 290.122 3.01216 3.4938 0
M  V30 3193 H 288.365 2.8848 3.23978 0
M  V30 3194 H 289.036 2.62947 4.85348 0
M  V30 3195 H 291.512 0.869448 4.06915 0
M  V30 3196 H 290.388 0.708856 5.44304 0
M  V30 3197 H 290.649 -0.658467 4.37169 0
M  V30 3198 N 289.708 -1.40897 0.706093 0
M  V30 3199 C 290.655 -2.30751 0.0474474 0
M  V30 3200 C 291.625 -1.47678 -0.76029 0
M  V30 3201 O 292.81 -1.76441 -0.726177 0
M  V30 3202 C 289.95 -3.33815 -0.875309 0
M  V30 3203 C 289.063 -4.31961 -0.0580623 0
M  V30 3204 C 288.198 -5.22093 -0.979425 0
M  V30 3205 C 287.237 -6.11902 -0.155706 0
M  V30 3206 N 286.374 -6.94482 -1.03144 0
M  V30 3207 H 291.214 -2.86513 0.819413 0
M  V30 3208 H 288.751 -1.41102 0.415783 0
M  V30 3209 H 290.709 -3.92129 -1.42446 0
M  V30 3210 H 289.339 -2.79579 -1.61356 0
M  V30 3211 H 288.391 -3.75507 0.608147 0
M  V30 3212 H 289.703 -4.95415 0.580082 0
M  V30 3213 H 288.857 -5.85292 -1.59744 0
M  V30 3214 H 287.596 -4.5889 -1.65141 0
M  V30 3215 H 286.601 -5.47742 0.475309 0
M  V30 3216 H 287.826 -6.77162 0.512635 0
M  V30 3217 H 285.772 -6.33877 -1.68924 0
M  V30 3218 H 285.689 -7.54665 -0.449108 0
M  V30 3219 H 286.957 -7.6214 -1.63593 0
M  V30 3220 N 291.186 -0.45159 -1.50991 0
M  V30 3221 C 292.597 0.00818571 -1.86698 0
M  V30 3222 C 292.948 1.40661 -1.3678 0
M  V30 3223 O 292.073 2.0391 -0.724546 0
M  V30 3224 C 292.668 0.0216303 -3.38793 0
M  V30 3225 C 291.227 0.425865 -3.73983 0
M  V30 3226 C 290.374 -0.372163 -2.74791 0
M  V30 3227 H 293.325 -0.666785 -1.44013 0
M  V30 3228 H 293.346 0.828078 -3.7138 0
M  V30 3229 H 292.858 -0.996288 -3.75094 0
M  V30 3230 H 290.959 1.44886 -3.43277 0
M  V30 3231 H 291.072 0.140761 -4.78893 0
M  V30 3232 H 289.436 0.171498 -2.54122 0
M  V30 3233 H 290.219 -1.38922 -3.13935 0
M  V30 3234 N 292.664 1.56529 -0.183458 0
M  V30 3235 C 293.941 1.88959 0.50536 0
M  V30 3236 C 294.321 1.09523 1.80466 0
M  V30 3237 O 293.669 0.19278 2.27685 0
M  V30 3238 C 293.879 3.41162 0.73547 0
M  V30 3239 C 295.227 4.11155 1.06005 0
M  V30 3240 O 296.251 3.46548 0.823594 0
M  V30 3241 O 295.11 5.25318 1.50675 0
M  V30 3242 H 292.204 0.78441 0.261973 0
M  V30 3243 H 294.75 1.68231 -0.222802 0
M  V30 3244 H 293.522 3.90874 -0.182561 0
M  V30 3245 H 293.145 3.67543 1.51651 0
M  V30 3246 N 294.142 -0.090211 1.57342 0
M  V30 3247 C 295.09 -1.12792 2.03422 0
M  V30 3248 C 296.084 -1.41182 0.936166 0
M  V30 3249 O 297.29 -1.40805 1.12133 0
M  V30 3250 H 293.665 -0.380986 0.648347 0
M  V30 3251 H 295.636 -0.71299 2.89757 0
M  V30 3252 C 294.385 -2.43855 2.47851 0
M  V30 3253 H 293.708 -2.22855 3.31927 0
M  V30 3254 H 295.148 -3.14955 2.83865 0
M  V30 3255 C 293.607 -3.08503 1.3538 0
M  V30 3256 O 294.137 -3.95805 0.685641 0
M  V30 3257 N 292.343 -2.68831 1.10355 0
M  V30 3258 H 291.89 -1.97929 1.64869 0
M  V30 3259 H 291.848 -3.12412 0.353031 0
M  V30 3260 N 295.62 -1.53406 -0.361157 0
M  V30 3261 C 296.866 -1.70054 -1.10496 0
M  V30 3262 C 297.199 -0.453278 -1.88836 0
M  V30 3263 O 296.474 0.5495 -1.86576 0
M  V30 3264 C 296.757 -2.95317 -2.06058 0
M  V30 3265 C 296.61 -4.3021 -1.31298 0
M  V30 3266 C 297.929 -3.16193 -3.06121 0
M  V30 3267 H 295.048 -0.618799 -0.400321 0
M  V30 3268 H 297.69 -1.86052 -0.385318 0
M  V30 3269 H 295.84 -2.81809 -2.67425 0
M  V30 3270 H 297.512 -4.55538 -0.726807 0
M  V30 3271 H 295.755 -4.29421 -0.614853 0
M  V30 3272 H 296.426 -5.14 -2.01265 0
M  V30 3273 H 298.902 -3.28916 -2.5486 0
M  V30 3274 H 297.778 -4.05266 -3.70204 0
M  V30 3275 H 298.039 -2.31676 -3.76535 0
M  V30 3276 N 297.098 0.621204 -1.44841 0
M  V30 3277 C 298.028 1.74366 -1.55303 0
M  V30 3278 C 299.009 1.65199 -0.405385 0
M  V30 3279 O 300.194 1.83807 -0.626787 0
M  V30 3280 C 297.324 3.12931 -1.50637 0
M  V30 3281 C 296.278 3.36896 -2.63979 0
M  V30 3282 C 295.604 4.75594 -2.44366 0
M  V30 3283 C 296.904 3.28483 -4.06074 0
M  V30 3284 H 298.598 1.65867 -2.49256 0
M  V30 3285 H 296.144 0.796558 -1.19962 0
M  V30 3286 H 298.097 3.9124 -1.56555 0
M  V30 3287 H 296.821 3.22237 -0.532057 0
M  V30 3288 H 295.48 2.60972 -2.57467 0
M  V30 3289 H 295.128 4.81616 -1.45105 0
M  V30 3290 H 294.828 4.92586 -3.20364 0
M  V30 3291 H 296.352 5.5612 -2.52117 0
M  V30 3292 H 297.766 3.96684 -4.13902 0
M  V30 3293 H 296.163 3.57008 -4.82354 0
M  V30 3294 H 297.233 2.26133 -4.28943 0
M  V30 3295 N 298.576 1.31904 0.862503 0
M  V30 3296 C 299.506 1.22782 1.98612 0
M  V30 3297 C 300.487 0.113362 1.69722 0
M  V30 3298 O 301.672 0.299218 1.91881 0
M  V30 3299 C 298.802 0.942058 3.34279 0
M  V30 3300 C 297.756 2.0169 3.77499 0
M  V30 3301 C 297.082 1.58369 5.10709 0
M  V30 3302 C 298.382 3.43096 3.93805 0
M  V30 3303 H 300.076 2.16788 2.06502 0
M  V30 3304 H 297.622 1.04366 0.992154 0
M  V30 3305 H 299.575 0.864818 4.1243 0
M  V30 3306 H 298.299 -0.0336603 3.26583 0
M  V30 3307 H 296.958 2.08416 3.01593 0
M  V30 3308 H 296.606 0.595628 4.99461 0
M  V30 3309 H 296.306 2.30279 5.40597 0
M  V30 3310 H 297.83 1.52067 5.91361 0
M  V30 3311 H 299.244 3.39003 4.62331 0
M  V30 3312 H 297.641 4.13288 4.35101 0
M  V30 3313 H 298.711 3.83334 2.96957 0
M  V30 3314 N 300.054 -1.07777 1.14986 0
M  V30 3315 C 301.331 -1.7699 0.832695 0
M  V30 3316 C 301.711 -2.001 -0.672561 0
M  V30 3317 O 301.059 -1.61598 -1.6155 0
M  V30 3318 C 301.269 -3.08139 1.63863 0
M  V30 3319 C 302.617 -3.8256 1.84208 0
M  V30 3320 O 303.641 -3.17939 1.60603 0
M  V30 3321 O 302.5 -4.98612 2.23714 0
M  V30 3322 H 299.594 -0.768389 0.305791 0
M  V30 3323 H 302.14 -1.14182 1.25541 0
M  V30 3324 H 300.912 -2.86909 2.6608 0
M  V30 3325 H 300.535 -3.78678 1.21197 0
M  V30 3326 N 301.532 -0.945985 -1.26051 0
M  V30 3327 C 302.778 -0.597002 -1.93814 0
M  V30 3328 C 303.111 0.862484 -1.73997 0
M  V30 3329 O 302.386 1.61769 -1.07986 0
M  V30 3330 C 302.669 -0.945937 -3.47454 0
M  V30 3331 C 302.522 -2.46052 -3.76535 0
M  V30 3332 C 303.841 -0.464785 -4.37639 0
M  V30 3333 H 300.96 -0.218366 -0.703907 0
M  V30 3334 H 303.602 -1.18107 -1.48831 0
M  V30 3335 H 301.752 -0.448902 -3.85898 0
M  V30 3336 H 303.424 -3.03065 -3.47778 0
M  V30 3337 H 301.667 -2.90194 -3.22444 0
M  V30 3338 H 302.338 -2.65517 -4.83947 0
M  V30 3339 H 304.814 -0.891016 -4.06448 0
M  V30 3340 H 303.69 -0.737712 -5.4392 0
M  V30 3341 H 303.951 0.635274 -4.37512 0
M  V30 3342 N 303.011 1.40521 -0.713556 0
M  V30 3343 C 303.959 2.32549 -0.0485227 0
M  V30 3344 C 304.953 1.51931 0.74922 0
M  V30 3345 O 306.159 1.67745 0.652816 0
M  V30 3346 H 302.534 0.751994 0.00311138 0
M  V30 3347 H 304.505 2.86291 -0.841443 0
M  V30 3348 C 303.254 3.36879 0.860687 0
M  V30 3349 H 302.577 3.98978 0.256246 0
M  V30 3350 H 304.017 4.03772 1.294 0
M  V30 3351 C 302.476 2.72197 1.9852 0
M  V30 3352 O 303.006 2.5837 3.07584 0
M  V30 3353 N 301.212 2.30612 1.76823 0
M  V30 3354 H 300.759 2.42059 0.881217 0
M  V30 3355 H 300.717 1.87672 2.52243 0
M  V30 3356 N 304.489 0.459591 1.5075 0
M  V30 3357 C 305.737 -0.0991532 2.01857 0
M  V30 3358 C 306.058 -1.41247 1.34441 0
M  V30 3359 O 305.328 -1.89775 0.486022 0
M  V30 3360 H 303.908 -0.039633 0.745948 0
M  V30 3361 H 306.57 0.607387 1.85194 0
M  V30 3362 H 305.666 -0.258998 3.11023 0
M  V30 3363 N 305.967 -1.56429 0.191757 0
M  V30 3364 C 306.917 -2.15548 -0.743184 0
M  V30 3365 C 307.901 -1.09531 -1.17863 0
M  V30 3366 O 309.093 -1.35602 -1.13759 0
M  V30 3367 C 306.222 -2.81577 -1.96391 0
M  V30 3368 C 305.308 -3.9478 -1.54951 0
M  V30 3369 N 305.699 -4.98677 -0.845876 0
M  V30 3370 C 303.997 -4.06319 -1.83905 0
M  V30 3371 C 304.698 -5.78183 -0.638724 0
M  V30 3372 N 303.674 -5.30495 -1.18643 0
M  V30 3373 H 307.476 -2.9324 -0.196839 0
M  V30 3374 H 304.99 -1.62398 -0.0081603 0
M  V30 3375 H 306.987 -3.22321 -2.64415 0
M  V30 3376 H 305.647 -2.05371 -2.51501 0
M  V30 3377 H 306.658 -5.15464 -0.501704 0
M  V30 3378 H 303.335 -3.41238 -2.40548 0
M  V30 3379 H 304.725 -6.71851 -0.0807929 0
M  V30 3380 N 307.445 0.0818655 -1.57387 0
M  V30 3381 C 308.694 0.781681 -1.85937 0
M  V30 3382 C 309.007 1.79246 -0.782957 0
M  V30 3383 O 310.213 2.54112 -0.955987 0
M  V30 3384 C 308.669 1.44109 -3.29789 0
M  V30 3385 C 308.277 0.469396 -4.45534 0
M  V30 3386 C 310.021 2.12386 -3.67549 0
M  V30 3387 C 307.928 1.13415 -5.80423 0
M  V30 3388 H 306.858 0.295682 -0.693605 0
M  V30 3389 H 309.509 0.0348051 -1.83467 0
M  V30 3390 H 307.891 2.23588 -3.2684 0
M  V30 3391 H 309.065 -0.294856 -4.59856 0
M  V30 3392 H 307.38 -0.108383 -4.16259 0
M  V30 3393 H 309.977 2.62878 -4.65617 0
M  V30 3394 H 310.32 2.91877 -2.96839 0
M  V30 3395 H 310.853 1.39751 -3.72444 0
M  V30 3396 H 307.592 0.379771 -6.54399 0
M  V30 3397 H 307.112 1.8695 -5.69921 0
M  V30 3398 H 308.791 1.65686 -6.25426 0
M  V30 3399 N 308.923 1.53595 0.353017 0
M  V30 3400 C 310.339 1.43648 0.695516 0
M  V30 3401 C 310.539 0.585617 1.92802 0
M  V30 3402 O 309.595 0.0729223 2.52395 0
M  V30 3403 C 310.908 2.8701 0.896991 0
M  V30 3404 C 312.456 2.96723 0.996209 0
M  V30 3405 C 312.931 4.41173 1.23007 0
M  V30 3406 N 314.422 4.44657 1.29749 0
M  V30 3407 C 315.157 5.53547 1.49577 0
M  V30 3408 N 314.653 6.72461 1.66639 0
M  V30 3409 N 316.446 5.41145 1.52048 0
M  V30 3410 H 308.597 2.07415 -0.457481 0
M  V30 3411 H 310.86 0.9372 -0.142687 0
M  V30 3412 H 310.566 3.51644 0.0629938 0
M  V30 3413 H 310.44 3.31401 1.80148 0
M  V30 3414 H 312.827 2.32235 1.82074 0
M  V30 3415 H 312.908 2.55707 0.0688331 0
M  V30 3416 H 312.552 5.06238 0.410505 0
M  V30 3417 H 312.482 4.79772 2.17086 0
M  V30 3418 H 314.973 3.58963 1.18126 0
M  V30 3419 H 315.286 7.51214 1.81378 0
M  V30 3420 H 313.631 6.75423 1.63794 0
M  V30 3421 H 316.822 4.47205 1.38294 0
M  V30 3422 H 316.995 6.26068 1.67159 0
M  V30 3423 N 310.401 -0.613514 1.45168 0
M  V30 3424 C 311.331 -1.7354 1.56225 0
M  V30 3425 C 312.312 -1.64981 0.41414 0
M  V30 3426 O 313.497 -1.83472 0.636526 0
M  V30 3427 C 310.627 -3.12128 1.52295 0
M  V30 3428 C 309.581 -3.35491 2.65762 0
M  V30 3429 C 308.907 -4.74291 2.46885 0
M  V30 3430 C 310.207 -3.26325 4.0781 0
M  V30 3431 H 311.901 -1.64543 2.50132 0
M  V30 3432 H 309.447 -0.790185 1.20383 0
M  V30 3433 H 311.4 -3.90404 1.58628 0
M  V30 3434 H 310.124 -3.2195 0.549139 0
M  V30 3435 H 308.783 -2.59603 2.58847 0
M  V30 3436 H 308.431 -4.80839 1.47657 0
M  V30 3437 H 308.131 -4.9088 3.22972 0
M  V30 3438 H 309.655 -5.54775 2.55063 0
M  V30 3439 H 311.069 -3.94483 4.16 0
M  V30 3440 H 309.466 -3.54445 4.8424 0
M  V30 3441 H 310.536 -2.23855 4.30136 0
M  V30 3442 N 311.879 -1.3236 -0.855495 0
M  V30 3443 C 312.842 -1.21164 -1.94556 0
M  V30 3444 C 313.842 -0.134908 -1.60233 0
M  V30 3445 O 315.032 -0.385249 -1.69887 0
M  V30 3446 C 312.164 -0.863192 -3.29791 0
M  V30 3447 H 313.357 -2.18038 -2.05911 0
M  V30 3448 H 310.91 -1.16179 -1.04557 0
M  V30 3449 H 311.645 0.103769 -3.24134 0
M  V30 3450 H 311.43 -1.64166 -3.56078 0
M  V30 3451 H 312.92 -0.809156 -4.09686 0
M  V30 3452 N 313.357 1.07166 -1.15556 0
M  V30 3453 C 314.634 1.76546 -0.842069 0
M  V30 3454 C 315.014 2.00453 0.661939 0
M  V30 3455 O 314.362 1.62452 1.60691 0
M  V30 3456 C 314.572 3.07266 -1.65495 0
M  V30 3457 C 315.92 3.81578 -1.86234 0
M  V30 3458 O 316.944 3.17083 -1.62287 0
M  V30 3459 O 315.803 4.97419 -2.26355 0
M  V30 3460 H 312.897 0.766756 -0.309862 0
M  V30 3461 H 315.443 1.13514 -1.26145 0
M  V30 3462 H 314.215 2.85494 -2.67598 0
M  V30 3463 H 313.838 3.7803 -1.23203 0
M  V30 3464 N 314.835 0.952656 1.25548 0
M  V30 3465 C 316.082 0.606373 1.93208 0
M  V30 3466 C 316.41 -0.85631 1.74636 0
M  V30 3467 O 315.665 -1.62951 1.08376 0
M  V30 3468 C 315.964 0.908818 3.45652 0
M  V30 3469 C 315.63 2.35722 3.84378 0
M  V30 3470 C 314.292 2.75312 3.9466 0
M  V30 3471 C 316.644 3.29793 4.03591 0
M  V30 3472 C 313.972 4.08047 4.21562 0
M  V30 3473 C 316.324 4.62138 4.31985 0
M  V30 3474 C 314.988 5.01528 4.40484 0
M  V30 3475 H 314.258 0.221888 0.706998 0
M  V30 3476 H 316.905 1.20132 1.49133 0
M  V30 3477 H 315.21 0.231456 3.91116 0
M  V30 3478 H 316.907 0.619498 3.96186 0
M  V30 3479 H 313.497 2.04017 3.76928 0
M  V30 3480 H 317.681 3.00397 3.95064 0
M  V30 3481 H 312.937 4.38212 4.26357 0
M  V30 3482 H 317.111 5.35012 4.45797 0
M  V30 3483 H 314.738 6.04406 4.61083 0
M  V30 3484 N 316.313 -1.40141 0.720998 0
M  V30 3485 C 317.561 -2.0039 0.262323 0
M  V30 3486 C 317.882 -1.57469 -1.15015 0
M  V30 3487 O 317.152 -0.816582 -1.78069 0
M  V30 3488 H 315.732 -0.741063 0.093996 0
M  V30 3489 H 318.394 -1.71398 0.927835 0
M  V30 3490 H 317.49 -3.10658 0.299671 0
M  V30 3491 N 317.792 -0.46758 -1.50504 0
M  V30 3492 C 319.017 0.0886943 -2.0721 0
M  V30 3493 C 319.442 1.33057 -1.32956 0
M  V30 3494 O 318.8 1.77354 -0.376197 0
M  V30 3495 C 318.848 0.359202 -3.58806 0
M  V30 3496 O 317.952 1.44034 -3.8643 0
M  V30 3497 H 317.293 -0.0114349 -0.663902 0
M  V30 3498 H 319.823 -0.657613 -1.93744 0
M  V30 3499 H 319.833 0.600742 -4.03553 0
M  V30 3500 H 318.508 -0.548311 -4.1227 0
M  V30 3501 H 317.085 1.18638 -3.53524 0
M  V30 3502 N 319.27 1.56325 -0.20005 0
M  V30 3503 C 320.51 1.99619 0.439519 0
M  V30 3504 C 320.874 1.08423 1.58456 0
M  V30 3505 O 322.075 1.40973 2.28867 0
M  V30 3506 C 320.346 3.46314 0.883258 0
M  V30 3507 S 321.905 4.11634 1.51997 0
M  V30 3508 H 318.723 0.697007 0.140363 0
M  V30 3509 H 321.325 1.93118 -0.304282 0
M  V30 3510 H 320.029 4.10381 0.0398967 0
M  V30 3511 H 319.56 3.56643 1.6604 0
M  V30 3512 H 321.575 4.09049 2.8088 0
M  V30 3513 N 320.748 -0.0735177 1.57428 0
M  V30 3514 C 321.678 -1.0879 2.06608 0
M  V30 3515 C 322.659 -1.40473 0.959237 0
M  V30 3516 O 323.844 -1.5013 1.23185 0
M  V30 3517 C 320.974 -2.40183 2.50857 0
M  V30 3518 C 319.928 -2.22858 3.65402 0
M  V30 3519 C 319.254 -3.59619 3.957 0
M  V30 3520 C 320.554 -1.65123 4.95511 0
M  V30 3521 H 322.248 -0.678673 2.91607 0
M  V30 3522 H 319.794 -0.325013 1.40284 0
M  V30 3523 H 321.747 -3.11437 2.83874 0
M  V30 3524 H 320.471 -2.83083 1.62885 0
M  V30 3525 H 319.13 -1.54045 3.32664 0
M  V30 3526 H 318.778 -4.00086 3.04861 0
M  V30 3527 H 318.478 -3.48866 4.72828 0
M  V30 3528 H 320.002 -4.32306 4.31212 0
M  V30 3529 H 321.416 -2.26241 5.26771 0
M  V30 3530 H 319.813 -1.65071 5.7695 0
M  V30 3531 H 320.883 -0.612559 4.81015 0
M  V30 3532 N 322.226 -1.5378 -0.344866 0
M  V30 3533 C 323.642 -1.44015 -0.687888 0
M  V30 3534 C 323.842 -0.595834 -1.92489 0
M  V30 3535 O 322.898 -0.0863064 -2.52352 0
M  V30 3536 C 324.211 -2.87481 -0.881758 0
M  V30 3537 C 325.759 -2.97247 -0.980459 0
M  V30 3538 C 326.234 -4.41819 -1.20665 0
M  V30 3539 N 327.725 -4.45339 -1.27389 0
M  V30 3540 C 328.46 -5.54333 -1.46639 0
M  V30 3541 N 327.956 -6.73335 -1.63071 0
M  V30 3542 N 329.749 -5.41944 -1.49176 0
M  V30 3543 H 321.9 -2.07169 0.468475 0
M  V30 3544 H 324.163 -0.93643 0.147655 0
M  V30 3545 H 323.869 -3.51672 -0.0443444 0
M  V30 3546 H 323.743 -3.32352 -1.78388 0
M  V30 3547 H 326.13 -2.33197 -1.8084 0
M  V30 3548 H 326.211 -2.5574 -0.0552713 0
M  V30 3549 H 325.855 -5.06449 -0.383652 0
M  V30 3550 H 325.785 -4.80917 -2.14539 0
M  V30 3551 H 328.276 -3.59585 -1.1622 0
M  V30 3552 H 328.589 -7.52165 -1.77391 0
M  V30 3553 H 326.934 -6.76282 -1.60209 0
M  V30 3554 H 330.125 -4.47932 -1.3592 0
M  V30 3555 H 330.298 -6.26946 -1.63837 0
M  V30 3556 N 323.704 0.605807 -1.45491 0
M  V30 3557 C 324.634 1.72709 -1.57143 0
M  V30 3558 C 325.615 1.6476 -0.422884 0
M  V30 3559 O 326.8 1.83132 -0.646247 0
M  V30 3560 C 323.93 3.11316 -1.53948 0
M  V30 3561 C 322.884 3.34077 -2.67537 0
M  V30 3562 C 322.21 4.72975 -2.49397 0
M  V30 3563 C 323.51 3.24158 -4.09535 0
M  V30 3564 H 325.204 1.63214 -2.51001 0
M  V30 3565 H 322.75 0.78379 -1.208 0
M  V30 3566 H 324.703 3.89557 -1.60696 0
M  V30 3567 H 323.427 3.21655 -0.566205 0
M  V30 3568 H 322.086 2.58227 -2.6022 0
M  V30 3569 H 321.734 4.8005 -1.50205 0
M  V30 3570 H 321.434 4.8916 -3.25571 0
M  V30 3571 H 322.958 5.53414 -2.58002 0
M  V30 3572 H 324.372 3.92271 -4.18086 0
M  V30 3573 H 322.769 3.51872 -4.86113 0
M  V30 3574 H 323.839 2.2157 -4.31317 0
M  V30 3575 N 325.182 1.32811 0.848464 0
M  V30 3576 C 326.13 1.22231 1.97895 0
M  V30 3577 C 327.124 0.125749 1.68933 0
M  V30 3578 O 328.33 0.289083 1.77663 0
M  V30 3579 H 324.705 0.379058 0.649476 0
M  V30 3580 H 326.676 2.17828 2.03945 0
M  V30 3581 C 325.425 0.968572 3.33937 0
M  V30 3582 H 324.748 1.80458 3.56756 0
M  V30 3583 H 326.188 0.934808 4.13567 0
M  V30 3584 C 324.647 -0.328628 3.35293 0
M  V30 3585 O 325.177 -1.33848 3.78745 0
M  V30 3586 N 323.383 -0.352788 2.88451 0
M  V30 3587 H 322.93 0.469541 2.53285 0
M  V30 3588 H 322.888 -1.22057 2.89741 0
M  V30 3589 N 326.66 -1.06551 1.16123 0
M  V30 3590 C 327.888 -1.83005 0.965237 0
M  V30 3591 C 328.303 -1.82423 -0.486542 0
M  V30 3592 O 327.66 -1.24152 -1.33763 0
M  V30 3593 C 327.711 -3.29733 1.48183 0
M  V30 3594 O 327.432 -3.30416 2.87674 0
M  V30 3595 C 328.933 -4.22926 1.32848 0
M  V30 3596 H 326.153 -0.577118 0.342309 0
M  V30 3597 H 328.697 -1.3445 1.54089 0
M  V30 3598 H 326.852 -3.75609 0.948517 0
M  V30 3599 H 327.266 -4.22149 3.11272 0
M  V30 3600 H 328.74 -5.23916 1.73827 0
M  V30 3601 H 329.217 -4.38346 0.273692 0
M  V30 3602 H 329.823 -3.82894 1.85127 0
M  V30 3603 N 328.138 -0.959301 -1.25041 0
M  V30 3604 C 329.086 -0.474437 -2.2771 0
M  V30 3605 C 330.08 0.457697 -1.631 0
M  V30 3606 O 331.286 0.333912 -1.76876 0
M  V30 3607 H 327.661 -0.134936 -0.739795 0
M  V30 3608 H 329.632 -1.35251 -2.65988 0
M  V30 3609 C 328.381 0.227884 -3.46952 0
M  V30 3610 H 327.704 -0.480248 -3.96905 0
M  V30 3611 H 329.144 0.531091 -4.20661 0
M  V30 3612 C 327.603 1.452 -3.04004 0
M  V30 3613 O 328.133 2.54949 -3.10426 0
M  V30 3614 N 326.339 1.31502 -2.59144 0
M  V30 3615 H 325.886 0.422065 -2.54119 0
M  V30 3616 H 325.844 2.13521 -2.30773 0
M  V30 3617 N 329.616 1.39756 -0.72842 0
M  V30 3618 C 330.864 2.00248 -0.272946 0
M  V30 3619 C 331.185 1.58077 1.14178 0
M  V30 3620 O 330.455 0.826014 1.77634 0
M  V30 3621 H 329.035 0.740554 -0.0979247 0
M  V30 3622 H 331.697 1.70903 -0.936912 0
M  V30 3623 H 330.793 3.10495 -0.316142 0
M  V30 3624 N 331.094 0.475555 1.50254 0
M  V30 3625 C 332.027 -0.362381 2.25304 0
M  V30 3626 C 333.005 -0.992393 1.28803 0
M  V30 3627 O 334.189 -1.02746 1.58036 0
M  V30 3628 C 331.316 -1.50813 3.03271 0
M  V30 3629 C 330.362 -0.995044 4.1473 0
M  V30 3630 S 331.195 0.0938436 5.35418 0
M  V30 3631 C 332.351 -1.05567 6.16933 0
M  V30 3632 H 332.584 0.274686 2.96028 0
M  V30 3633 H 330.117 0.260495 1.52187 0
M  V30 3634 H 332.075 -2.16476 3.48781 0
M  V30 3635 H 330.736 -2.11672 2.32064 0
M  V30 3636 H 329.929 -1.85293 4.68703 0
M  V30 3637 H 329.531 -0.416052 3.71679 0
M  V30 3638 H 331.823 -1.96636 6.48337 0
M  V30 3639 H 332.766 -0.555109 7.05921 0
M  V30 3640 H 333.174 -1.31151 5.49053 0
M  V30 3641 N 332.573 -1.56217 0.208337 0
M  V30 3642 C 333.819 -1.98242 -0.427552 0
M  V30 3643 C 334.152 -1.09554 -1.60348 0
M  V30 3644 O 333.427 -0.15035 -1.93918 0
M  V30 3645 C 333.71 -3.4931 -0.874907 0
M  V30 3646 C 333.563 -4.48773 0.303751 0
M  V30 3647 C 334.882 -4.04424 -1.73577 0
M  V30 3648 H 332.001 -0.720744 -0.153936 0
M  V30 3649 H 334.643 -1.87586 0.30192 0
M  V30 3650 H 332.793 -3.58522 -1.49648 0
M  V30 3651 H 334.465 -4.51586 0.941682 0
M  V30 3652 H 332.708 -4.23194 0.953375 0
M  V30 3653 H 333.379 -5.51976 -0.0519883 0
M  V30 3654 H 335.855 -3.98075 -1.21143 0
M  V30 3655 H 334.731 -5.1047 -2.01771 0
M  V30 3656 H 334.992 -3.50494 -2.69456 0
M  V30 3657 N 334.051 0.0651679 -1.57465 0
M  V30 3658 C 335.328 0.79644 -1.78651 0
M  V30 3659 C 335.708 1.95454 -0.797566 0
M  V30 3660 O 335.056 2.27882 0.167946 0
M  V30 3661 C 335.266 1.26322 -3.25337 0
M  V30 3662 C 336.614 1.6939 -3.89348 0
M  V30 3663 O 337.638 1.35872 -3.29268 0
M  V30 3664 O 336.497 2.31471 -4.95059 0
M  V30 3665 H 333.591 0.382157 -0.733407 0
M  V30 3666 H 336.137 0.0447311 -1.69641 0
M  V30 3667 H 334.909 0.434859 -3.88876 0
M  V30 3668 H 334.532 2.07604 -3.39096 0
M  V30 3669 N 335.529 1.53961 0.336706 0
M  V30 3670 C 336.754 1.75797 1.10046 0
M  V30 3671 C 337.179 0.498985 1.81361 0
M  V30 3672 O 336.537 -0.548769 1.72795 0
M  V30 3673 C 336.585 2.94257 2.08436 0
M  V30 3674 O 335.689 2.64883 3.16087 0
M  V30 3675 H 335.03 0.582936 0.317934 0
M  V30 3676 H 337.56 2.00945 0.38501 0
M  V30 3677 H 337.57 3.21237 2.51537 0
M  V30 3678 H 336.245 3.85564 1.55927 0
M  V30 3679 H 334.822 2.48812 2.77753 0
M  V30 3680 N 337.007 -0.598083 1.45811 0
M  V30 3681 C 338.232 -1.3881 1.54099 0
M  V30 3682 C 338.657 -1.8726 0.177578 0
M  V30 3683 O 338.015 -1.6069 -0.839541 0
M  V30 3684 C 338.063 -2.56217 2.53743 0
M  V30 3685 O 337.167 -3.5716 2.06182 0
M  V30 3686 H 336.508 -0.414024 0.519115 0
M  V30 3687 H 339.038 -0.726971 1.91249 0
M  V30 3688 H 339.048 -3.03337 2.72856 0
M  V30 3689 H 337.723 -2.20303 3.5276 0
M  V30 3690 H 336.3 -3.16624 1.96987 0
M  V30 3691 N 338.485 -1.33259 -0.841409 0
M  V30 3692 C 339.731 -1.24757 -1.59886 0
M  V30 3693 C 340.064 0.186913 -1.93298 0
M  V30 3694 O 339.339 1.12757 -1.5848 0
M  V30 3695 C 339.622 -2.12036 -2.91055 0
M  V30 3696 C 339.475 -3.63929 -2.6434 0
M  V30 3697 C 340.794 -1.9916 -3.92458 0
M  V30 3698 H 337.913 -0.454542 -0.580138 0
M  V30 3699 H 340.555 -1.63335 -0.970647 0
M  V30 3700 H 338.705 -1.79265 -3.44669 0
M  V30 3701 H 340.377 -4.06978 -2.17178 0
M  V30 3702 H 338.62 -3.85935 -1.98082 0
M  V30 3703 H 339.291 -4.20341 -3.57796 0
M  V30 3704 H 341.767 -2.27895 -3.48143 0
M  V30 3705 H 340.643 -2.62484 -4.82072 0
M  V30 3706 H 340.904 -0.963082 -4.31482 0
M  V30 3707 N 339.963 1.05934 -1.16686 0
M  V30 3708 C 340.926 2.11669 -0.879144 0
M  V30 3709 C 341.926 1.60294 0.127445 0
M  V30 3710 O 343.116 1.7389 -0.103865 0
M  V30 3711 C 340.248 3.39438 -0.315425 0
M  V30 3712 H 341.441 2.38626 -1.81653 0
M  V30 3713 H 338.994 1.22058 -0.976299 0
M  V30 3714 H 339.729 3.18132 0.629468 0
M  V30 3715 H 339.514 3.78034 -1.04079 0
M  V30 3716 H 341.004 4.17391 -0.132189 0
M  V30 3717 N 341.441 0.965919 1.2453 0
M  V30 3718 C 342.687 0.62776 1.92839 0
M  V30 3719 C 343.02 -0.834694 1.75347 0
M  V30 3720 O 342.295 -1.60031 1.10546 0
M  V30 3721 C 342.578 1.00109 3.45905 0
M  V30 3722 C 342.431 2.52011 3.72573 0
M  V30 3723 C 343.75 0.53435 4.36844 0
M  V30 3724 H 340.869 0.229537 0.700344 0
M  V30 3725 H 343.511 1.2046 1.46933 0
M  V30 3726 H 341.661 0.510238 3.85135 0
M  V30 3727 H 343.333 3.08559 3.42912 0
M  V30 3728 H 341.576 2.95287 3.17786 0
M  V30 3729 H 342.247 2.73183 4.79661 0
M  V30 3730 H 344.723 0.955565 4.04979 0
M  V30 3731 H 343.599 0.824152 5.42678 0
M  V30 3732 H 343.86 -0.565589 4.38467 0
M  V30 3733 N 342.919 -1.39368 0.735821 0
M  V30 3734 C 344.167 -2.00101 0.283562 0
M  V30 3735 C 344.488 -1.5868 -1.13338 0
M  V30 3736 O 343.758 -0.835423 -1.77193 0
M  V30 3737 H 342.338 -0.740024 0.101851 0
M  V30 3738 H 345 -1.70404 0.945962 0
M  V30 3739 H 344.096 -3.10323 0.332604 0
M  V30 3740 N 344.397 -0.483516 -1.5 0
M  V30 3741 C 345.625 0.0644831 -2.06799 0
M  V30 3742 C 346.04 1.32399 -1.34596 0
M  V30 3743 O 345.397 1.77626 -0.418946 0
M  V30 3744 C 345.448 0.339927 -3.59898 0
M  V30 3745 O 345.169 -0.869635 -4.29382 0
M  V30 3746 C 346.67 0.933515 -4.33359 0
M  V30 3747 H 343.89 -0.0126333 -0.670881 0
M  V30 3748 H 346.434 -0.675864 -1.93009 0
M  V30 3749 H 344.589 1.03022 -3.7345 0
M  V30 3750 H 345.003 -0.62179 -5.20801 0
M  V30 3751 H 346.477 1.07593 -5.41413 0
M  V30 3752 H 346.954 1.92685 -3.94676 0
M  V30 3753 H 347.56 0.281221 -4.24369 0
M  V30 3754 N 345.875 1.56104 -0.216619 0
M  V30 3755 C 347.286 1.844 0.292128 0
M  V30 3756 C 347.637 1.13788 1.59833 0
M  V30 3757 O 346.762 0.405888 2.12559 0
M  V30 3758 C 347.357 3.3452 0.53681 0
M  V30 3759 C 345.916 3.63151 0.989876 0
M  V30 3760 C 345.063 2.77255 0.0502302 0
M  V30 3761 H 348.014 1.52481 -0.439926 0
M  V30 3762 H 348.035 3.54459 1.38345 0
M  V30 3763 H 347.547 3.85885 -0.414031 0
M  V30 3764 H 345.648 3.17238 1.95425 0
M  V30 3765 H 345.761 4.71177 0.867698 0
M  V30 3766 H 344.125 2.48555 0.556117 0
M  V30 3767 H 344.908 3.31416 -0.89544 0
M  V30 3768 N 347.353 -0.0568162 1.57498 0
M  V30 3769 C 348.63 -0.786954 1.79071 0
M  V30 3770 C 349.01 -1.95028 0.80792 0
M  V30 3771 O 348.358 -2.27968 -0.155858 0
M  V30 3772 C 348.568 -1.24594 3.26002 0
M  V30 3773 C 349.916 -1.67323 3.90241 0
M  V30 3774 O 350.94 -1.34124 3.29984 0
M  V30 3775 O 349.799 -2.28842 4.9628 0
M  V30 3776 H 346.893 -0.378262 0.735423 0
M  V30 3777 H 349.439 -0.035734 1.69662 0
M  V30 3778 H 348.211 -0.41423 3.89101 0
M  V30 3779 H 347.834 -2.05803 3.40192 0
M  V30 3780 N 348.832 -1.54138 -0.328536 0
M  V30 3781 C 350.062 -1.75807 -1.08516 0
M  V30 3782 C 350.47 -0.50428 -1.82356 0
M  V30 3783 O 349.813 0.534451 -1.75754 0
M  V30 3784 C 349.875 -2.89423 -2.13248 0
M  V30 3785 C 349.539 -4.28504 -1.5885 0
M  V30 3786 C 350.536 -5.09536 -1.03289 0
M  V30 3787 C 348.221 -4.75034 -1.63243 0
M  V30 3788 C 350.215 -6.35206 -0.52845 0
M  V30 3789 C 347.902 -6.00672 -1.12411 0
M  V30 3790 C 348.9 -6.80592 -0.573062 0
M  V30 3791 O 348.588 -8.03867 -0.0723692 0
M  V30 3792 H 348.32 -0.590633 -0.328829 0
M  V30 3793 H 350.874 -2.01819 -0.381868 0
M  V30 3794 H 349.104 -2.5897 -2.87178 0
M  V30 3795 H 350.793 -2.98921 -2.74592 0
M  V30 3796 H 351.559 -4.74745 -0.99206 0
M  V30 3797 H 347.438 -4.12875 -2.05074 0
M  V30 3798 H 350.982 -6.97532 -0.0976774 0
M  V30 3799 H 346.879 -6.34955 -1.162 0
M  V30 3800 H 347.647 -8.18283 -0.188258 0
M  V30 3801 N 350.31 0.590341 -1.46126 0
M  V30 3802 C 351.559 1.34499 -1.50309 0
M  V30 3803 C 351.872 1.94977 -0.156021 0
M  V30 3804 O 353.078 2.71395 -0.0756037 0
M  V30 3805 C 351.534 2.43723 -2.64815 0
M  V30 3806 C 351.142 1.89582 -4.0591 0
M  V30 3807 C 352.886 3.20579 -2.78262 0
M  V30 3808 C 350.793 2.9639 -5.11769 0
M  V30 3809 H 349.723 0.505593 -0.559368 0
M  V30 3810 H 352.374 0.630848 -1.72315 0
M  V30 3811 H 350.756 3.17902 -2.36124 0
M  V30 3812 H 351.93 1.21997 -4.44357 0
M  V30 3813 H 350.245 1.25418 -3.97063 0
M  V30 3814 H 352.842 4.00276 -3.54519 0
M  V30 3815 H 353.185 3.72684 -1.85505 0
M  V30 3816 H 353.718 2.53505 -3.06562 0
M  V30 3817 H 350.457 2.49181 -6.06291 0
M  V30 3818 H 349.977 3.62487 -4.77873 0
M  V30 3819 H 351.656 3.60474 -5.37278 0
M  V30 3820 N 351.788 1.33704 0.83433 0
M  V30 3821 C 353.013 1.28615 1.62705 0
M  V30 3822 C 353.438 -0.139242 1.87584 0
M  V30 3823 O 352.796 -1.09734 1.4432 0
M  V30 3824 C 352.844 2.07139 2.95171 0
M  V30 3825 O 351.948 1.4331 3.86699 0
M  V30 3826 H 351.289 0.44226 0.49528 0
M  V30 3827 H 353.819 1.76335 1.03766 0
M  V30 3828 H 353.829 2.18073 3.44831 0
M  V30 3829 H 352.504 3.10779 2.76386 0
M  V30 3830 H 351.081 1.4105 3.45195 0
M  V30 3831 N 353.266 -1.05314 1.17247 0
M  V30 3832 C 354.677 -1.59753 0.96623 0
M  V30 3833 C 355.028 -1.9005 -0.487378 0
M  V30 3834 O 354.153 -1.68126 -1.36245 0
M  V30 3835 C 354.748 -2.90249 1.74759 0
M  V30 3836 C 353.307 -3.41352 1.58606 0
M  V30 3837 C 352.454 -2.15103 1.75002 0
M  V30 3838 H 355.405 -0.881406 1.31973 0
M  V30 3839 H 355.426 -3.60097 1.22925 0
M  V30 3840 H 354.938 -2.68166 2.8055 0
M  V30 3841 H 353.039 -3.68474 0.552985 0
M  V30 3842 H 353.152 -4.16019 2.37624 0
M  V30 3843 H 351.516 -2.25804 1.17833 0
M  V30 3844 H 352.299 -1.95491 2.82202 0
M  V30 3845 N 354.744 -0.972509 -1.24016 0
M  V30 3846 C 355.654 -0.5143 -2.28893 0
M  V30 3847 C 356.67 0.427078 -1.68677 0
M  V30 3848 O 357.846 0.298939 -1.99169 0
M  V30 3849 C 354.911 0.183598 -3.46214 0
M  V30 3850 C 353.972 -0.798202 -4.21814 0
M  V30 3851 C 353.205 -0.133514 -5.33533 0
M  V30 3852 O 353.428 1.07714 -5.60137 0
M  V30 3853 O 352.362 -0.828103 -5.96176 0
M  V30 3854 H 356.188 -1.38629 -2.70214 0
M  V30 3855 H 353.773 -0.739769 -1.29799 0
M  V30 3856 H 355.655 0.575433 -4.17453 0
M  V30 3857 H 354.33 1.03048 -3.0686 0
M  V30 3858 H 353.237 -1.24059 -3.52931 0
M  V30 3859 H 354.57 -1.61364 -4.64997 0
M  V30 3860 N 356.222 1.38976 -0.743202 0
M  V30 3861 C 357.471 1.99581 -0.291592 0
M  V30 3862 C 357.784 1.59656 1.13001 0
M  V30 3863 O 358.99 2.13157 1.68156 0
M  V30 3864 C 357.446 3.56813 -0.470391 0
M  V30 3865 C 357.054 4.05695 -1.90041 0
M  V30 3866 C 358.798 4.24423 -0.0809709 0
M  V30 3867 C 356.705 5.5553 -2.02832 0
M  V30 3868 H 355.635 0.746615 -0.105272 0
M  V30 3869 H 358.286 1.58872 -0.918258 0
M  V30 3870 H 356.668 3.95359 0.225299 0
M  V30 3871 H 357.842 3.78464 -2.62872 0
M  V30 3872 H 356.157 3.50775 -2.24379 0
M  V30 3873 H 358.754 5.34474 -0.155445 0
M  V30 3874 H 359.097 4.04962 0.96497 0
M  V30 3875 H 359.63 3.9108 -0.728124 0
M  V30 3876 H 356.369 5.79881 -3.05643 0
M  V30 3877 H 355.889 5.84537 -1.34448 0
M  V30 3878 H 357.568 6.21069 -1.81335 0
M  V30 3879 N 357.7 0.491464 1.49741 0
M  V30 3880 C 358.63 -0.28154 2.31796 0
M  V30 3881 C 359.611 -0.971473 1.3963 0
M  V30 3882 O 360.796 -0.964719 1.68543 0
M  V30 3883 C 357.926 -1.35203 3.19902 0
M  V30 3884 C 356.88 -0.782529 4.20786 0
M  V30 3885 C 356.206 -1.95283 4.97764 0
M  V30 3886 C 357.506 0.21999 5.21837 0
M  V30 3887 H 359.2 0.403355 2.96671 0
M  V30 3888 H 356.746 0.195425 1.42668 0
M  V30 3889 H 358.699 -1.90045 3.76113 0
M  V30 3890 H 357.423 -2.06598 2.52953 0
M  V30 3891 H 356.082 -0.255928 3.65706 0
M  V30 3892 H 355.73 -2.65423 4.2727 0
M  V30 3893 H 355.43 -1.57789 5.66018 0
M  V30 3894 H 356.954 -2.50577 5.56816 0
M  V30 3895 H 358.368 -0.23996 5.72798 0
M  V30 3896 H 356.765 0.51026 5.97927 0
M  V30 3897 H 357.835 1.13911 4.7133 0
M  V30 3898 N 359.178 -1.55987 0.224894 0
M  V30 3899 C 360.11 -2.17722 -0.716224 0
M  V30 3900 C 361.123 -1.14723 -1.15509 0
M  V30 3901 O 362.312 -1.41688 -1.08567 0
M  V30 3902 C 359.412 -2.74873 -1.98238 0
M  V30 3903 C 358.585 -4.03074 -1.69853 0
M  V30 3904 C 357.644 -4.44757 -2.81208 0
M  V30 3905 O 356.67 -5.11587 -2.49534 0
M  V30 3906 N 357.872 -4.10716 -4.10235 0
M  V30 3907 H 360.637 -2.99109 -0.188123 0
M  V30 3908 H 358.198 -1.6184 0.0440123 0
M  V30 3909 H 360.19 -2.99727 -2.7193 0
M  V30 3910 H 358.76 -1.9777 -2.42086 0
M  V30 3911 H 357.98 -3.86041 -0.797875 0
M  V30 3912 H 359.268 -4.86701 -1.48324 0
M  V30 3913 H 358.666 -3.57019 -4.38809 0
M  V30 3914 H 357.223 -4.40455 -4.80461 0
M  V30 3915 N 360.656 0.0484629 -1.57525 0
M  V30 3916 C 361.619 1.03956 -2.04269 0
M  V30 3917 C 362.619 1.30211 -0.943496 0
M  V30 3918 O 363.809 1.25539 -1.20771 0
M  V30 3919 C 360.941 2.37742 -2.44319 0
M  V30 3920 H 362.134 0.636182 -2.93075 0
M  V30 3921 H 359.687 0.294811 -1.53494 0
M  V30 3922 H 360.422 2.82866 -1.5861 0
M  V30 3923 H 360.207 2.20021 -3.24551 0
M  V30 3924 H 361.697 3.08936 -2.80978 0
M  V30 3925 N 362.134 1.5431 0.320358 0
M  V30 3926 C 363.067 1.78769 1.41834 0
M  V30 3927 C 364.045 0.63783 1.49568 0
M  V30 3928 O 365.229 0.875628 1.66928 0
M  V30 3929 C 362.356 1.90712 2.79905 0
M  V30 3930 C 361.402 3.13023 2.89687 0
M  V30 3931 S 362.235 4.71554 2.53766 0
M  V30 3932 C 363.391 4.86408 3.93902 0
M  V30 3933 H 363.624 2.71619 1.20874 0
M  V30 3934 H 361.157 1.45474 0.517377 0
M  V30 3935 H 363.115 1.98279 3.59438 0
M  V30 3936 H 361.776 0.988343 2.98145 0
M  V30 3937 H 360.969 3.18124 3.90913 0
M  V30 3938 H 360.571 3.03803 2.18128 0
M  V30 3939 H 362.863 4.69241 4.88691 0
M  V30 3940 H 363.806 5.88508 3.93782 0
M  V30 3941 H 364.214 4.14689 3.83005 0
M  V30 3942 N 363.613 -0.582584 1.46437 0
M  V30 3943 C 364.523 -1.71949 1.59595 0
M  V30 3944 C 365.539 -1.67264 0.479443 0
M  V30 3945 O 366.715 -1.87171 0.743579 0
M  V30 3946 C 363.78 -3.08452 1.58298 0
M  V30 3947 C 362.841 -3.244 2.81182 0
M  V30 3948 C 362.074 -4.54391 2.79937 0
M  V30 3949 O 362.297 -5.38287 1.8869 0
M  V30 3950 O 361.231 -4.73588 3.71481 0
M  V30 3951 H 365.057 -1.63795 2.55744 0
M  V30 3952 H 362.642 -0.749643 1.29231 0
M  V30 3953 H 364.524 -3.89732 1.60271 0
M  V30 3954 H 363.199 -3.17043 0.653094 0
M  V30 3955 H 362.106 -2.42613 2.84763 0
M  V30 3956 H 363.439 -3.20699 3.7338 0
M  V30 3957 N 365.091 -1.34144 -0.827227 0
M  V30 3958 C 366.001 -1.27428 -1.96975 0
M  V30 3959 C 367.017 -0.182728 -1.73038 0
M  V30 3960 O 368.193 -0.408426 -1.97215 0
M  V30 3961 C 365.258 -1.02526 -3.31194 0
M  V30 3962 C 364.319 -2.20796 -3.68168 0
M  V30 3963 C 363.552 -1.97073 -4.95982 0
M  V30 3964 O 363.775 -0.926822 -5.6282 0
M  V30 3965 O 362.709 -2.83912 -5.30733 0
M  V30 3966 H 366.535 -2.23537 -2.05584 0
M  V30 3967 H 364.12 -1.14307 -0.961989 0
M  V30 3968 H 366.002 -0.904026 -4.11589 0
M  V30 3969 H 364.677 -0.0945389 -3.23562 0
M  V30 3970 H 363.584 -2.38477 -2.88235 0
M  V30 3971 H 364.917 -3.12243 -3.8048 0
M  V30 3972 N 366.569 1.04691 -1.17803 0
M  V30 3973 C 367.817 1.7743 -0.967617 0
M  V30 3974 C 368.138 1.88359 0.504574 0
M  V30 3975 O 367.408 1.40402 1.36617 0
M  V30 3976 H 365.988 0.657242 -0.355024 0
M  V30 3977 H 368.65 1.2638 -1.48371 0
M  V30 3978 H 367.746 2.78924 -1.40027 0
M  V30 3979 N 368.047 0.979072 1.23499 0
M  V30 3980 C 368.994 0.517904 2.24914 0
M  V30 3981 C 369.964 -0.442525 1.60097 0
M  V30 3982 O 371.149 -0.350365 1.87556 0
M  V30 3983 C 368.289 -0.174813 3.44657 0
M  V30 3984 C 367.402 0.825721 4.24035 0
M  V30 3985 C 366.537 0.107946 5.3109 0
M  V30 3986 C 365.576 1.09778 6.02175 0
M  V30 3987 N 364.713 0.40925 7.00906 0
M  V30 3988 H 369.553 1.38751 2.63727 0
M  V30 3989 H 367.09 0.695303 1.2963 0
M  V30 3990 H 369.048 -0.593233 4.12961 0
M  V30 3991 H 367.678 -1.0083 3.06648 0
M  V30 3992 H 366.73 1.36253 3.55161 0
M  V30 3993 H 368.042 1.58005 4.73113 0
M  V30 3994 H 367.196 -0.367904 6.05583 0
M  V30 3995 H 365.935 -0.678994 4.8295 0
M  V30 3996 H 364.94 1.5844 5.26476 0
M  V30 3997 H 366.165 1.88536 6.52404 0
M  V30 3998 H 364.111 -0.358506 6.5502 0
M  V30 3999 H 364.028 1.10226 7.47921 0
M  V30 4000 H 365.296 -0.0442557 7.79487 0
M  V30 4001 N 369.525 -1.3858 0.750561 0
M  V30 4002 C 370.773 -1.99789 0.30477 0
M  V30 4003 C 371.094 -1.59874 -1.11649 0
M  V30 4004 O 370.364 -0.85417 -1.76297 0
M  V30 4005 H 368.944 -0.738902 0.109694 0
M  V30 4006 H 371.606 -1.69391 0.963983 0
M  V30 4007 H 370.702 -3.09952 0.365499 0
M  V30 4008 N 371.003 -0.499398 -1.49478 0
M  V30 4009 C 371.953 0.299103 -2.2603 0
M  V30 4010 C 372.937 0.936934 -1.30807 0
M  V30 4011 O 374.129 0.844798 -1.55538 0
M  V30 4012 C 371.258 1.36391 -3.15044 0
M  V30 4013 C 370.344 0.732398 -4.17728 0
M  V30 4014 N 370.735 -0.164028 -5.05534 0
M  V30 4015 C 369.033 0.993162 -4.34801 0
M  V30 4016 C 369.734 -0.525345 -5.79323 0
M  V30 4017 N 368.71 0.106348 -5.43496 0
M  V30 4018 H 372.512 -0.391003 -2.91287 0
M  V30 4019 H 370.026 -0.31537 -1.59308 0
M  V30 4020 H 372.023 1.94939 -3.68516 0
M  V30 4021 H 370.683 2.05571 -2.51338 0
M  V30 4022 H 371.694 -0.534736 -5.15132 0
M  V30 4023 H 368.371 1.67783 -3.82302 0
M  V30 4024 H 369.761 -1.25862 -6.60006 0
M  V30 4025 N 372.481 1.55866 -0.233164 0
M  V30 4026 C 373.711 2.02704 0.399325 0
M  V30 4027 C 374.119 1.11204 1.53069 0
M  V30 4028 O 373.462 0.116182 1.83332 0
M  V30 4029 C 373.524 3.45844 0.981429 0
M  V30 4030 C 373.188 4.56997 -0.0159561 0
M  V30 4031 C 374.185 5.13384 -0.820552 0
M  V30 4032 C 371.87 5.0211 -0.138072 0
M  V30 4033 C 373.864 6.13365 -1.73386 0
M  V30 4034 C 371.551 6.01926 -1.0549 0
M  V30 4035 C 372.549 6.57431 -1.85132 0
M  V30 4036 O 372.237 7.55302 -2.75272 0
M  V30 4037 H 371.969 0.668459 0.100692 0
M  V30 4038 H 374.523 2.02387 -0.35052 0
M  V30 4039 H 372.753 3.43267 1.78058 0
M  V30 4040 H 374.442 3.76262 1.52255 0
M  V30 4041 H 375.208 4.79372 -0.736721 0
M  V30 4042 H 371.087 4.5858 0.471737 0
M  V30 4043 H 374.631 6.56614 -2.35592 0
M  V30 4044 H 370.528 6.35359 -1.1397 0
M  V30 4045 H 371.296 7.72867 -2.69477 0
M  V30 4046 N 373.959 -0.0401083 1.57549 0
M  V30 4047 C 375.207 -0.731677 1.8839 0
M  V30 4048 C 375.528 -1.76481 0.829425 0
M  V30 4049 O 374.798 -1.95411 -0.1383 0
M  V30 4050 H 373.378 -0.273225 0.695239 0
M  V30 4051 H 376.04 -0.00867725 1.94898 0
M  V30 4052 H 375.136 -1.22816 2.86919 0
M  V30 4053 N 375.437 -1.54477 -0.31217 0
M  V30 4054 C 376.848 -1.64344 -0.885891 0
M  V30 4055 C 377.199 -0.54485 -1.88483 0
M  V30 4056 O 376.324 0.320387 -2.14015 0
M  V30 4057 C 376.919 -2.97908 -1.61357 0
M  V30 4058 C 375.478 -3.09933 -2.13585 0
M  V30 4059 C 374.625 -2.59971 -0.964897 0
M  V30 4060 H 377.576 -1.58448 -0.0894528 0
M  V30 4061 H 377.597 -2.88706 -2.47848 0
M  V30 4062 H 377.109 -3.77845 -0.886277 0
M  V30 4063 H 375.21 -2.34694 -2.89395 0
M  V30 4064 H 375.323 -4.15916 -2.37804 0
M  V30 4065 H 373.687 -2.16147 -1.34731 0
M  V30 4066 H 374.47 -3.42376 -0.251742 0
M  V30 4067 N 376.915 0.57481 -1.46744 0
M  V30 4068 C 377.847 1.69804 -1.53946 0
M  V30 4069 C 378.86 1.57098 -0.427106 0
M  V30 4070 O 380.049 1.64378 -0.695863 0
M  V30 4071 C 377.149 3.08125 -1.4111 0
M  V30 4072 C 376.322 3.46757 -2.66605 0
M  V30 4073 C 375.381 4.6417 -2.47855 0
M  V30 4074 O 374.407 4.69634 -3.21609 0
M  V30 4075 N 375.609 5.59553 -1.54534 0
M  V30 4076 H 378.374 1.64077 -2.50796 0
M  V30 4077 H 375.935 0.761 -1.429 0
M  V30 4078 H 377.927 3.84478 -1.26328 0
M  V30 4079 H 376.497 3.08175 -0.524109 0
M  V30 4080 H 375.717 2.6003 -2.96274 0
M  V30 4081 H 377.005 3.69337 -3.49954 0
M  V30 4082 H 376.403 5.57881 -0.937304 0
M  V30 4083 H 374.96 6.35304 -1.45711 0
M  V30 4084 N 378.394 1.34581 0.820102 0
M  V30 4085 C 379.634 1.28448 1.58998 0
M  V30 4086 C 379.998 -0.142883 1.91468 0
M  V30 4087 O 381.199 -0.328422 2.66786 0
M  V30 4088 C 379.47 2.153 2.85273 0
M  V30 4089 S 381.029 2.26548 3.75794 0
M  V30 4090 H 377.847 0.456685 0.54494 0
M  V30 4091 H 380.449 1.69825 0.968487 0
M  V30 4092 H 379.153 3.18008 2.59421 0
M  V30 4093 H 378.684 1.7483 3.52417 0
M  V30 4094 H 380.699 1.44034 4.74835 0
M  V30 4095 N 379.872 -1.04064 1.18357 0
M  V30 4096 C 381.149 -1.74252 0.888581 0
M  V30 4097 C 381.529 -2.02138 -0.60856 0
M  V30 4098 O 380.877 -1.66656 -1.56327 0
M  V30 4099 C 381.087 -3.0277 1.73584 0
M  V30 4100 C 382.435 -3.76506 1.96286 0
M  V30 4101 O 383.459 -3.12668 1.70637 0
M  V30 4102 O 382.318 -4.91243 2.39464 0
M  V30 4103 H 379.412 -0.758271 0.330082 0
M  V30 4104 H 381.958 -1.1013 1.2911 0
M  V30 4105 H 380.73 -2.78299 2.75073 0
M  V30 4106 H 380.353 -3.74631 1.33183 0
M  V30 4107 N 381.35 -0.985608 -1.22978 0
M  V30 4108 C 382.596 -0.667998 -1.92118 0
M  V30 4109 C 382.951 0.790454 -1.75413 0
M  V30 4110 O 382.244 1.56336 -1.10768 0
M  V30 4111 C 382.438 -1.00014 -3.43121 0
M  V30 4112 C 382.267 -2.48933 -3.74516 0
M  V30 4113 C 381.037 -3.15218 -3.94925 0
M  V30 4114 C 383.235 -3.47024 -3.79577 0
M  V30 4115 N 381.217 -4.53689 -4.13569 0
M  V30 4116 C 382.588 -4.70923 -4.03276 0
M  V30 4117 C 384.643 -3.41432 -3.62393 0
M  V30 4118 C 383.346 -5.89914 -4.11574 0
M  V30 4119 C 385.372 -4.59793 -3.71947 0
M  V30 4120 C 384.734 -5.82489 -3.96088 0
M  V30 4121 H 380.833 -0.295589 -0.723983 0
M  V30 4122 H 383.417 -1.26413 -1.4808 0
M  V30 4123 H 381.588 -0.432655 -3.85983 0
M  V30 4124 H 383.32 -0.63927 -3.99619 0
M  V30 4125 H 380.075 -2.65702 -3.92045 0
M  V30 4126 H 380.499 -5.25492 -4.26834 0
M  V30 4127 H 385.141 -2.47594 -3.4272 0
M  V30 4128 H 382.859 -6.84164 -4.30053 0
M  V30 4129 H 386.445 -4.57048 -3.59998 0
M  V30 4130 H 385.325 -6.72546 -4.033 0
M  V30 4131 N 382.828 1.3818 -0.7579 0
M  V30 4132 C 384.074 2.0078 -0.325423 0
M  V30 4133 C 384.429 1.59085 1.08211 0
M  V30 4134 O 383.722 0.820394 1.73148 0
M  V30 4135 C 383.916 3.55252 -0.391218 0
M  V30 4136 C 383.745 4.11947 -1.8036 0
M  V30 4137 C 382.515 4.43519 -2.42113 0
M  V30 4138 C 384.713 4.33908 -2.76095 0
M  V30 4139 N 382.695 4.85847 -3.75267 0
M  V30 4140 C 384.066 4.78692 -3.94023 0
M  V30 4141 C 386.121 4.16015 -2.73561 0
M  V30 4142 C 384.824 5.07459 -5.09782 0
M  V30 4143 C 386.85 4.45909 -3.88483 0
M  V30 4144 C 386.212 4.90921 -5.0515 0
M  V30 4145 H 382.311 0.764215 -0.165831 0
M  V30 4146 H 384.895 1.67724 -0.988776 0
M  V30 4147 H 383.066 3.87646 0.241886 0
M  V30 4148 H 384.798 4.04653 0.061989 0
M  V30 4149 H 381.553 4.32113 -1.93842 0
M  V30 4150 H 381.977 5.11339 -4.4369 0
M  V30 4151 H 386.619 3.80399 -1.84544 0
M  V30 4152 H 384.337 5.4197 -5.99412 0
M  V30 4153 H 387.923 4.33666 -3.87847 0
M  V30 4154 H 386.803 5.1361 -5.92599 0
M  V30 4155 N 384.306 0.507319 1.49211 0
M  V30 4156 C 385.531 -0.033725 2.07373 0
M  V30 4157 C 385.956 -1.29485 1.36437 0
M  V30 4158 O 385.314 -1.76294 0.423087 0
M  V30 4159 C 385.362 -0.263945 3.59633 0
M  V30 4160 O 384.466 -1.33737 3.90113 0
M  V30 4161 H 383.807 0.0290331 0.663365 0
M  V30 4162 H 386.337 0.708749 1.91932 0
M  V30 4163 H 386.347 -0.493536 4.05004 0
M  V30 4164 H 385.022 0.657424 4.10671 0
M  V30 4165 H 383.599 -1.09224 3.56545 0
M  V30 4166 N 385.784 -1.5574 0.241426 0
M  V30 4167 C 386.714 -2.24133 -0.654722 0
M  V30 4168 C 387.695 -1.21974 -1.1856 0
M  V30 4169 O 388.88 -1.50612 -1.22595 0
M  V30 4170 C 386.01 -2.93659 -1.85423 0
M  V30 4171 C 384.964 -4.0246 -1.45636 0
M  V30 4172 C 384.29 -4.59383 -2.73626 0
M  V30 4173 C 385.59 -5.18468 -0.631506 0
M  V30 4174 H 387.284 -2.99281 -0.0844353 0
M  V30 4175 H 384.83 -1.43947 -0.0391707 0
M  V30 4176 H 386.783 -3.40203 -2.48676 0
M  V30 4177 H 385.507 -2.15991 -2.44981 0
M  V30 4178 H 384.166 -3.56676 -0.847202 0
M  V30 4179 H 383.814 -3.78422 -3.3137 0
M  V30 4180 H 383.514 -5.32826 -2.4773 0
M  V30 4181 H 385.038 -5.08658 -3.37786 0
M  V30 4182 H 386.452 -5.61272 -1.1682 0
M  V30 4183 H 384.849 -5.98266 -0.468831 0
M  V30 4184 H 385.919 -4.8358 0.357506 0
M  V30 4185 N 387.262 0.0317525 -1.57568 0
M  V30 4186 C 388.51 0.721676 -1.88776 0
M  V30 4187 C 388.831 1.76039 -0.838772 0
M  V30 4188 O 388.101 1.95482 0.127935 0
M  V30 4189 H 386.681 0.269534 -0.696678 0
M  V30 4190 H 389.343 -0.00165879 -1.949 0
M  V30 4191 H 388.439 1.21293 -2.87566 0
M  V30 4192 N 388.74 1.54641 0.303973 0
M  V30 4193 C 389.986 1.74038 1.04109 0
M  V30 4194 C 390.319 0.523051 1.87024 0
M  V30 4195 O 389.594 -0.479874 1.88487 0
M  V30 4196 C 389.877 3.02761 1.94955 0
M  V30 4197 C 389.73 4.34787 1.1524 0
M  V30 4198 C 391.049 3.27336 2.94175 0
M  V30 4199 H 388.168 0.63323 0.377079 0
M  V30 4200 H 390.81 1.87354 0.316001 0
M  V30 4201 H 388.96 2.9154 2.56782 0
M  V30 4202 H 390.632 4.57922 0.557236 0
M  V30 4203 H 388.875 4.31407 0.455053 0
M  V30 4204 H 389.546 5.21116 1.8205 0
M  V30 4205 H 392.022 3.38148 2.42477 0
M  V30 4206 H 390.898 4.18726 3.54908 0
M  V30 4207 H 391.159 2.45491 3.67677 0
M  V30 4208 N 390.218 -0.567019 1.47046 0
M  V30 4209 C 391.458 -1.3355 1.54738 0
M  V30 4210 C 391.822 -1.90947 0.200772 0
M  V30 4211 O 393.023 -2.68367 0.152489 0
M  V30 4212 C 391.294 -2.42317 2.62712 0
M  V30 4213 S 392.853 -3.29383 2.89918 0
M  V30 4214 H 389.671 -0.454788 0.546525 0
M  V30 4215 H 392.273 -0.650191 1.84371 0
M  V30 4216 H 390.977 -1.98568 3.59164 0
M  V30 4217 H 390.508 -3.15601 2.34861 0
M  V30 4218 H 392.523 -4.41548 2.26384 0
M  V30 4219 N 391.696 -1.35014 -0.812953 0
M  V30 4220 C 392.659 -1.27292 -1.90602 0
M  V30 4221 C 393.659 -0.185817 -1.59723 0
M  V30 4222 O 394.849 -0.439102 -1.68575 0
M  V30 4223 C 391.981 -0.967676 -3.26877 0
M  V30 4224 H 393.174 -2.24479 -1.9887 0
M  V30 4225 H 390.727 -1.19446 -1.00808 0
M  V30 4226 H 391.462 0.0005954 -3.243 0
M  V30 4227 H 391.247 -1.75412 -3.50675 0
M  V30 4228 H 392.737 -0.939085 -4.06904 0
M  V30 4229 N 393.175 1.03435 -1.18907 0
M  V30 4230 C 394.405 1.8012 -1.01195 0
M  V30 4231 C 394.813 1.8395 0.442613 0
M  V30 4232 O 394.156 1.27836 1.31923 0
M  V30 4233 C 394.218 3.26792 -1.49823 0
M  V30 4234 C 393.882 3.46609 -2.97844 0
M  V30 4235 C 394.879 3.37278 -3.95651 0
M  V30 4236 C 392.564 3.73001 -3.36416 0
M  V30 4237 C 394.558 3.54054 -5.30023 0
M  V30 4238 C 392.245 3.89423 -4.70949 0
M  V30 4239 C 393.243 3.79951 -5.67562 0
M  V30 4240 O 392.931 3.95895 -6.99659 0
M  V30 4241 H 392.663 0.573865 -0.357289 0
M  V30 4242 H 395.217 1.31207 -1.58031 0
M  V30 4243 H 393.447 3.76703 -0.873578 0
M  V30 4244 H 395.136 3.85055 -1.28404 0
M  V30 4245 H 395.902 3.16846 -3.67197 0
M  V30 4246 H 391.781 3.79469 -2.61772 0
M  V30 4247 H 395.325 3.46577 -6.05417 0
M  V30 4248 H 391.222 4.09351 -4.99101 0
M  V30 4249 H 391.99 4.13019 -7.06653 0
M  V30 4250 N 394.653 0.992116 1.22453 0
M  V30 4251 C 395.563 0.55065 2.28046 0
M  V30 4252 C 396.579 -0.400189 1.69335 0
M  V30 4253 O 397.755 -0.267215 1.99619 0
M  V30 4254 C 394.82 -0.128496 3.46462 0
M  V30 4255 C 393.881 0.865208 4.20491 0
M  V30 4256 C 393.114 0.218377 5.33253 0
M  V30 4257 O 393.337 -0.987894 5.6178 0
M  V30 4258 O 392.271 0.922845 5.94783 0
M  V30 4259 H 396.097 1.4291 2.67975 0
M  V30 4260 H 393.682 0.760326 1.28606 0
M  V30 4261 H 395.564 -0.508947 4.18315 0
M  V30 4262 H 394.239 -0.981526 3.0846 0
M  V30 4263 H 393.146 1.29658 3.50913 0
M  V30 4264 H 394.479 1.68741 4.62371 0
M  V30 4265 N 396.131 -1.37776 0.765217 0
M  V30 4266 C 397.061 -2.32945 0.160953 0
M  V30 4267 C 398.042 -1.55454 -0.690516 0
M  V30 4268 O 399.227 -1.83721 -0.629318 0
M  V30 4269 C 396.357 -3.39669 -0.724031 0
M  V30 4270 C 395.311 -4.27992 0.0256173 0
M  V30 4271 C 394.637 -5.25673 -0.978383 0
M  V30 4272 C 395.937 -5.08309 1.20082 0
M  V30 4273 H 397.631 -2.83728 0.955969 0
M  V30 4274 H 395.177 -1.36416 0.461149 0
M  V30 4275 H 397.13 -4.05219 -1.15652 0
M  V30 4276 H 395.854 -2.87396 -1.5515 0
M  V30 4277 H 394.513 -3.63964 0.438812 0
M  V30 4278 H 394.161 -4.69682 -1.80022 0
M  V30 4279 H 393.861 -5.85625 -0.481378 0
M  V30 4280 H 395.385 -5.94098 -1.40995 0
M  V30 4281 H 396.799 -5.67034 0.845307 0
M  V30 4282 H 395.196 -5.77554 1.62947 0
M  V30 4283 H 396.266 -4.41365 2.00811 0
M  V30 4284 N 397.609 -0.515225 -1.4894 0
M  V30 4285 C 398.539 0.244628 -2.32215 0
M  V30 4286 C 399.52 0.949136 -1.41157 0
M  V30 4287 O 400.705 0.937783 -1.70057 0
M  V30 4288 C 397.835 1.30096 -3.22013 0
M  V30 4289 C 396.789 0.715486 -4.21977 0
M  V30 4290 C 396.115 1.87339 -5.00808 0
M  V30 4291 C 397.415 -0.302982 -5.2142 0
M  V30 4292 H 399.109 -0.450501 -2.95991 0
M  V30 4293 H 396.655 -0.218098 -1.42339 0
M  V30 4294 H 398.608 1.84037 -3.79089 0
M  V30 4295 H 397.332 2.02547 -2.56207 0
M  V30 4296 H 395.991 0.197715 -3.66066 0
M  V30 4297 H 395.639 2.58592 -4.31438 0
M  V30 4298 H 395.339 1.48764 -5.68457 0
M  V30 4299 H 396.863 2.41686 -5.60732 0
M  V30 4300 H 398.277 0.148802 -5.73107 0
M  V30 4301 H 396.674 -0.60532 -5.97039 0
M  V30 4302 H 397.744 -1.21395 -4.69459 0
M  V30 4303 N 399.087 1.5561 -0.249682 0
M  V30 4304 C 400.334 1.99011 0.374287 0
M  V30 4305 C 400.662 1.13785 1.57744 0
M  V30 4306 O 399.917 0.189326 1.94782 0
M  V30 4307 C 400.216 3.4775 0.824887 0
M  V30 4308 C 399.882 4.50086 -0.270819 0
M  V30 4309 C 398.544 4.77791 -0.571746 0
M  V30 4310 C 400.896 5.11312 -1.01041 0
M  V30 4311 C 398.224 5.63997 -1.61629 0
M  V30 4312 C 400.576 5.98651 -2.0445 0
M  V30 4313 C 399.24 6.24688 -2.35204 0
M  V30 4314 H 398.51 0.728233 0.136961 0
M  V30 4315 H 401.157 1.88122 -0.358087 0
M  V30 4316 H 399.462 3.55985 1.63651 0
M  V30 4317 H 401.159 3.78721 1.31799 0
M  V30 4318 H 397.749 4.28592 -0.026136 0
M  V30 4319 H 401.933 4.89953 -0.791177 0
M  V30 4320 H 397.189 5.82425 -1.85988 0
M  V30 4321 H 401.363 6.45135 -2.62248 0
M  V30 4322 H 398.99 6.91281 -3.16282 0
M  V30 4323 N 400.565 -0.0233959 1.57583 0
M  V30 4324 C 401.813 -0.711654 1.89156 0
M  V30 4325 C 402.134 -1.75591 0.848096 0
M  V30 4326 O 401.404 -1.95547 -0.117566 0
M  V30 4327 H 399.984 -0.265835 0.698098 0
M  V30 4328 H 402.646 0.0119948 1.94896 0
M  V30 4329 H 401.742 -1.19766 2.88206 0
M  V30 4330 N 402.043 -1.548 -0.295768 0
M  V30 4331 C 402.953 -1.89177 -1.38742 0
M  V30 4332 C 403.969 -0.786481 -1.55211 0
M  V30 4333 O 405.145 -1.08344 -1.69775 0
M  V30 4334 C 402.21 -2.13663 -2.73036 0
M  V30 4335 C 401.271 -3.37349 -2.65508 0
M  V30 4336 C 400.504 -3.60658 -3.93398 0
M  V30 4337 O 400.727 -2.86882 -4.93006 0
M  V30 4338 O 399.661 -4.54179 -3.94975 0
M  V30 4339 H 403.487 -2.82059 -1.12589 0
M  V30 4340 H 401.072 -1.41056 -0.492295 0
M  V30 4341 H 402.954 -2.3094 -3.52484 0
M  V30 4342 H 401.629 -1.23967 -2.99022 0
M  V30 4343 H 400.536 -3.25431 -1.84514 0
M  V30 4344 H 401.869 -4.27192 -2.44474 0
M  V30 4345 N 403.521 0.559213 -1.47345 0
M  V30 4346 C 404.749 1.34194 -1.57479 0
M  V30 4347 C 405.164 1.87463 -0.224261 0
M  V30 4348 O 404.521 1.64888 0.782185 0
M  V30 4349 C 404.572 2.51324 -2.59843 0
M  V30 4350 O 404.293 2.00256 -3.89653 0
M  V30 4351 C 405.794 3.43563 -2.80142 0
M  V30 4352 H 403.014 0.409136 -0.531835 0
M  V30 4353 H 405.558 0.677609 -1.92947 0
M  V30 4354 H 403.713 3.13699 -2.27314 0
M  V30 4355 H 404.127 2.76708 -4.4557 0
M  V30 4356 H 405.601 4.2217 -3.55635 0
M  V30 4357 H 406.078 3.9698 -1.87892 0
M  V30 4358 H 406.684 2.87005 -3.1386 0
M  V30 4359 N 404.999 1.35443 0.805782 0
M  V30 4360 C 406.41 1.25768 1.37983 0
M  V30 4361 C 406.761 -0.10958 1.95894 0
M  V30 4362 O 405.886 -1.01056 1.91355 0
M  V30 4363 C 406.481 2.27727 2.5085 0
M  V30 4364 C 405.04 2.2179 3.04115 0
M  V30 4365 C 404.187 2.13393 1.77084 0
M  V30 4366 H 407.138 1.4656 0.608752 0
M  V30 4367 H 407.159 1.90422 3.29424 0
M  V30 4368 H 406.671 3.27227 2.08671 0
M  V30 4369 H 404.772 1.25703 3.50756 0
M  V30 4370 H 404.885 3.13788 3.62042 0
M  V30 4371 H 403.249 1.59384 1.98668 0
M  V30 4372 H 404.032 3.14755 1.37056 0
M  V30 4373 N 406.477 -1.02803 1.19454 0
M  V30 4374 C 407.724 -1.76217 0.997693 0
M  V30 4375 C 408.052 -1.887 -0.47144 0
M  V30 4376 O 407.307 -1.4011 -1.3663 0
M  V30 4377 C 407.606 -3.18941 1.6128 0
M  V30 4378 C 407.272 -3.26463 3.11019 0
M  V30 4379 C 405.934 -3.28223 3.51885 0
M  V30 4380 C 408.286 -3.25542 4.07028 0
M  V30 4381 C 405.614 -3.26719 4.8731 0
M  V30 4382 C 407.966 -3.25579 5.42385 0
M  V30 4383 C 406.63 -3.25637 5.82681 0
M  V30 4384 H 405.9 -0.644823 0.365082 0
M  V30 4385 H 408.547 -1.20655 1.4871 0
M  V30 4386 H 406.852 -3.77587 1.04572 0
M  V30 4387 H 408.549 -3.74415 1.43577 0
M  V30 4388 H 405.139 -3.25822 2.78457 0
M  V30 4389 H 409.323 -3.23362 3.76498 0
M  V30 4390 H 404.579 -3.25089 5.1781 0
M  V30 4391 H 408.753 -3.23817 6.16535 0
M  V30 4392 H 406.38 -3.24226 6.87591 0
M  V30 4393 N 407.956 -0.998596 -1.21925 0
M  V30 4394 C 409.186 -0.695276 -1.94549 0
M  V30 4395 C 409.594 0.745079 -1.73911 0
M  V30 4396 O 408.937 1.51507 -1.03881 0
M  V30 4397 C 408.999 -0.928485 -3.47303 0
M  V30 4398 C 408.663 -2.35443 -3.91683 0
M  V30 4399 C 409.66 -3.33428 -3.98901 0
M  V30 4400 C 407.345 -2.69038 -4.24174 0
M  V30 4401 C 409.339 -4.63079 -4.37992 0
M  V30 4402 C 407.026 -3.98906 -4.62944 0
M  V30 4403 C 408.024 -4.95738 -4.69822 0
M  V30 4404 O 407.712 -6.23285 -5.07711 0
M  V30 4405 H 407.444 -0.255902 -0.625692 0
M  V30 4406 H 409.998 -1.33767 -1.5587 0
M  V30 4407 H 408.228 -0.228917 -3.86022 0
M  V30 4408 H 409.917 -0.619539 -4.01144 0
M  V30 4409 H 410.683 -3.08807 -3.73983 0
M  V30 4410 H 406.562 -1.94367 -4.18022 0
M  V30 4411 H 410.106 -5.38658 -4.43275 0
M  V30 4412 H 406.003 -4.23314 -4.87314 0
M  V30 4413 H 406.771 -6.27306 -5.25766 0
M  V30 4414 N 409.434 1.37368 -0.772513 0
M  V30 4415 C 410.397 2.28601 -0.165541 0
M  V30 4416 C 411.397 1.48062 0.627238 0
M  V30 4417 O 412.587 1.68268 0.450715 0
M  V30 4418 C 409.719 3.32023 0.772897 0
M  V30 4419 H 410.912 2.83787 -0.969787 0
M  V30 4420 H 408.465 1.46647 -0.540775 0
M  V30 4421 H 409.2 2.81962 1.60212 0
M  V30 4422 H 408.985 3.91555 0.206585 0
M  V30 4423 H 410.475 4.00197 1.19298 0
M  V30 4424 N 410.912 0.523116 1.48665 0
M  V30 4425 C 411.822 -0.247406 2.33292 0
M  V30 4426 C 412.838 -0.945769 1.46052 0
M  V30 4427 O 414.014 -0.922253 1.79043 0
M  V30 4428 C 411.079 -1.28487 3.22012 0
M  V30 4429 C 410.14 -0.597592 4.2512 0
M  V30 4430 C 409.373 -1.58563 5.09601 0
M  V30 4431 O 409.596 -2.81763 4.95949 0
M  V30 4432 O 408.53 -1.12879 5.91221 0
M  V30 4433 H 412.356 0.445869 3.00409 0
M  V30 4434 H 409.941 0.284128 1.46673 0
M  V30 4435 H 411.823 -1.88459 3.7691 0
M  V30 4436 H 410.498 -1.96068 2.57564 0
M  V30 4437 H 409.405 0.0424407 3.74076 0
M  V30 4438 H 410.738 0.0361517 4.92187 0
M  V30 4439 N 412.39 -1.55475 0.257931 0
M  V30 4440 C 413.615 -2.04064 -0.370488 0
M  V30 4441 C 414.04 -1.13565 -1.49948 0
M  V30 4442 O 413.398 -0.130781 -1.80828 0
M  V30 4443 C 413.446 -3.50554 -0.845237 0
M  V30 4444 O 412.55 -3.63173 -1.95394 0
M  V30 4445 H 411.891 -0.659257 -0.0792243 0
M  V30 4446 H 414.421 -2.00903 0.387212 0
M  V30 4447 H 414.431 -3.91588 -1.14555 0
M  V30 4448 H 413.106 -4.15896 -0.0191259 0
M  V30 4449 H 411.683 -3.34039 -1.65748 0
M  V30 4450 N 413.868 0.0150385 -1.57593 0
M  V30 4451 C 414.798 1.01047 -2.10503 0
M  V30 4452 C 415.779 1.36816 -1.01071 0
M  V30 4453 O 416.964 1.45455 -1.28672 0
M  V30 4454 C 414.094 2.30708 -2.59598 0
M  V30 4455 C 413.048 2.09142 -3.73421 0
M  V30 4456 C 412.374 3.44685 -4.08774 0
M  V30 4457 C 413.674 1.46619 -5.01298 0
M  V30 4458 H 415.368 0.569978 -2.93925 0
M  V30 4459 H 412.914 0.272724 -1.41394 0
M  V30 4460 H 414.867 3.00687 -2.95238 0
M  V30 4461 H 413.591 2.76843 -1.73279 0
M  V30 4462 H 412.25 1.41592 -3.38153 0
M  V30 4463 H 411.898 3.88495 -3.195 0
M  V30 4464 H 411.598 3.31077 -4.8545 0
M  V30 4465 H 413.122 4.16004 -4.4696 0
M  V30 4466 H 414.536 2.06535 -5.34805 0
M  V30 4467 H 412.933 1.43544 -5.82679 0
M  V30 4468 H 414.003 0.433611 -4.82957 0
M  V30 4469 N 415.346 1.54954 0.287554 0
M  V30 4470 C 416.592 1.75132 1.02257 0
M  V30 4471 C 416.925 0.542858 1.86458 0
M  V30 4472 O 416.2 -0.459856 1.88986 0
M  V30 4473 C 416.483 3.04812 1.91733 0
M  V30 4474 C 416.336 4.35985 1.10622 0
M  V30 4475 C 417.655 3.30438 2.90687 0
M  V30 4476 H 414.774 0.637194 0.370341 0
M  V30 4477 H 417.416 1.87678 0.296111 0
M  V30 4478 H 415.566 2.94247 2.53675 0
M  V30 4479 H 417.238 4.58487 0.508636 0
M  V30 4480 H 415.481 4.31865 0.409271 0
M  V30 4481 H 416.152 5.23017 1.76513 0
M  V30 4482 H 418.628 3.40701 2.38877 0
M  V30 4483 H 417.504 4.22467 3.50447 0
M  V30 4484 H 417.765 2.49377 3.65053 0
M  V30 4485 N 416.824 -0.551391 1.4764 0
M  V30 4486 C 417.734 -1.68525 1.63207 0
M  V30 4487 C 418.75 -1.6621 0.514815 0
M  V30 4488 O 419.926 -1.85551 0.783113 0
M  V30 4489 C 416.991 -3.05025 1.64805 0
M  V30 4490 C 416.052 -3.18362 2.88 0
M  V30 4491 C 415.285 -4.4835 2.89513 0
M  V30 4492 O 415.508 -5.34163 2.00065 0
M  V30 4493 O 414.442 -4.65602 3.81443 0
M  V30 4494 H 418.268 -1.58333 2.59161 0
M  V30 4495 H 415.853 -0.722063 1.30792 0
M  V30 4496 H 417.735 -3.86245 1.68502 0
M  V30 4497 H 416.41 -3.15587 0.720197 0
M  V30 4498 H 415.317 -2.36518 2.89845 0
M  V30 4499 H 416.65 -3.12707 3.80099 0
M  V30 4500 N 418.302 -1.35869 -0.798587 0
M  V30 4501 C 419.53 -1.32722 -1.58722 0
M  V30 4502 C 419.945 0.0935631 -1.88568 0
M  V30 4503 O 419.302 1.04784 -1.49421 0
M  V30 4504 C 419.353 -2.13974 -2.91371 0
M  V30 4505 O 419.074 -3.50514 -2.62815 0
M  V30 4506 C 420.575 -2.18504 -3.85708 0
M  V30 4507 H 417.795 -0.45562 -0.492596 0
M  V30 4508 H 420.339 -1.78837 -0.991843 0
M  V30 4509 H 418.494 -1.71438 -3.47402 0
M  V30 4510 H 418.908 -3.92806 -3.47568 0
M  V30 4511 H 420.382 -2.79732 -4.75872 0
M  V30 4512 H 420.859 -1.18597 -4.22885 0
M  V30 4513 H 421.465 -2.61236 -3.35612 0
M  V30 4514 N 419.78 1.02168 -1.19998 0
M  V30 4515 C 421.01 1.79036 -1.031 0
M  V30 4516 C 421.418 1.84409 0.423078 0
M  V30 4517 O 420.761 1.29228 1.30559 0
M  V30 4518 C 420.823 3.25185 -1.53281 0
M  V30 4519 C 420.487 3.43431 -3.01503 0
M  V30 4520 C 421.484 3.33063 -3.99206 0
M  V30 4521 C 419.169 3.69412 -3.40353 0
M  V30 4522 C 421.163 3.48413 -5.33748 0
M  V30 4523 C 418.85 3.84406 -4.75053 0
M  V30 4524 C 419.848 3.7391 -5.71559 0
M  V30 4525 O 419.536 3.88452 -7.03818 0
M  V30 4526 H 419.268 0.570043 -0.363355 0
M  V30 4527 H 421.822 1.29524 -1.59414 0
M  V30 4528 H 420.052 3.75756 -0.913483 0
M  V30 4529 H 421.741 3.83671 -1.32481 0
M  V30 4530 H 422.507 3.12934 -3.70537 0
M  V30 4531 H 418.386 3.76671 -2.65782 0
M  V30 4532 H 421.93 3.40137 -6.09059 0
M  V30 4533 H 417.827 4.04035 -5.03415 0
M  V30 4534 H 418.595 4.055 -7.10993 0
M  V30 4535 N 421.258 1.00505 1.21394 0
M  V30 4536 C 422.506 0.686415 1.90086 0
M  V30 4537 C 422.827 -0.785264 1.7849 0
M  V30 4538 O 422.097 -1.56387 1.17983 0
M  V30 4539 H 420.677 0.2509 0.703604 0
M  V30 4540 H 423.339 1.27417 1.47482 0
M  V30 4541 H 422.435 0.959621 2.96981 0
M  V30 4542 N 422.737 -1.36956 0.779787 0
M  V30 4543 C 423.684 -2.30175 0.169697 0
M  V30 4544 C 424.654 -1.51501 -0.68094 0
M  V30 4545 O 425.839 -1.80042 -0.631629 0
M  V30 4546 C 422.979 -3.37985 -0.697131 0
M  V30 4547 C 422.092 -4.31661 0.170992 0
M  V30 4548 C 421.227 -5.2655 -0.701298 0
M  V30 4549 C 420.266 -6.11867 0.168869 0
M  V30 4550 N 419.403 -6.98973 -0.661855 0
M  V30 4551 H 424.243 -2.81767 0.970135 0
M  V30 4552 H 421.78 -1.38699 0.489994 0
M  V30 4553 H 423.738 -3.99128 -1.2146 0
M  V30 4554 H 422.368 -2.87739 -1.46309 0
M  V30 4555 H 421.42 -3.71756 0.80634 0
M  V30 4556 H 422.732 -4.91644 0.841875 0
M  V30 4557 H 421.886 -5.92937 -1.28494 0
M  V30 4558 H 420.625 -4.66998 -1.40584 0
M  V30 4559 H 419.63 -5.44452 0.764986 0
M  V30 4560 H 420.855 -6.73493 0.870863 0
M  V30 4561 H 418.801 -6.41941 -1.35086 0
M  V30 4562 H 418.718 -7.55984 -0.0484447 0
M  V30 4563 H 419.986 -7.6974 -1.22963 0
M  V30 4564 N 424.215 -0.530993 -1.48385 0
M  V30 4565 C 425.464 0.00474348 -2.01699 0
M  V30 4566 C 425.777 1.35227 -1.41325 0
M  V30 4567 O 426.983 1.97643 -1.86144 0
M  V30 4568 C 425.439 0.0588473 -3.59852 0
M  V30 4569 C 425.047 -1.28385 -4.2921 0
M  V30 4570 C 426.791 0.543358 -4.21008 0
M  V30 4571 C 424.698 -1.19028 -5.79298 0
M  V30 4572 H 423.628 0.00554317 -0.75398 0
M  V30 4573 H 426.279 -0.674924 -1.70637 0
M  V30 4574 H 424.661 0.803612 -3.8776 0
M  V30 4575 H 425.835 -2.04426 -4.12973 0
M  V30 4576 H 424.15 -1.70418 -3.7993 0
M  V30 4577 H 426.747 0.631351 -5.3096 0
M  V30 4578 H 427.09 1.54937 -3.86394 0
M  V30 4579 H 427.623 -0.145754 -3.97533 0
M  V30 4580 H 424.362 -2.17147 -6.18488 0
M  V30 4581 H 423.882 -0.471246 -5.97946 0
M  V30 4582 H 425.561 -0.881365 -6.40969 0
M  V30 4583 N 425.693 1.55336 -0.266172 0
M  V30 4584 C 426.626 2.18256 0.666296 0
M  V30 4585 C 427.604 1.14064 1.1588 0
M  V30 4586 O 428.788 1.42546 1.23341 0
M  V30 4587 C 425.915 2.79867 1.90768 0
M  V30 4588 C 424.961 3.97283 1.55141 0
M  V30 4589 S 425.794 5.31694 0.637313 0
M  V30 4590 C 426.95 5.96769 1.88727 0
M  V30 4591 H 427.183 2.97008 0.131647 0
M  V30 4592 H 424.716 1.54317 -0.0504869 0
M  V30 4593 H 426.674 3.15996 2.62025 0
M  V30 4594 H 425.335 2.01025 2.41346 0
M  V30 4595 H 424.528 4.3905 2.4749 0
M  V30 4596 H 424.13 3.6253 0.919113 0
M  V30 4597 H 426.422 6.15458 2.83227 0
M  V30 4598 H 427.365 6.91752 1.51276 0
M  V30 4599 H 427.773 5.26034 2.04814 0
M  V30 4600 N 427.171 -0.0066808 1.57599 0
M  V30 4601 C 428.119 -1.01851 2.09115 0
M  V30 4602 C 429.113 -1.36021 1.00969 0
M  V30 4603 O 430.319 -1.34663 1.19439 0
M  V30 4604 H 426.694 -0.346083 0.667631 0
M  V30 4605 H 428.665 -0.558394 2.93129 0
M  V30 4606 C 427.414 -2.30374 2.60429 0
M  V30 4607 H 426.737 -2.04947 3.43273 0
M  V30 4608 H 428.177 -2.99466 3.00161 0
M  V30 4609 C 426.636 -3.00893 1.51542 0
M  V30 4610 O 427.166 -3.91614 0.894484 0
M  V30 4611 N 425.372 -2.62603 1.2445 0
M  V30 4612 H 424.919 -1.88911 1.75129 0
M  V30 4613 H 424.877 -3.10101 0.518137 0
M  V30 4614 N 428.649 -1.55105 -0.279332 0
M  V30 4615 C 429.599 -1.83937 -1.34727 0
M  V30 4616 C 430.583 -0.69785 -1.44979 0
M  V30 4617 O 431.775 -0.95904 -1.48766 0
M  V30 4618 C 428.904 -2.1092 -2.70864 0
M  V30 4619 C 427.99 -3.31314 -2.64748 0
M  V30 4620 N 428.381 -4.51371 -2.2825 0
M  V30 4621 C 426.679 -3.33777 -2.95819 0
M  V30 4622 C 427.38 -5.33447 -2.31969 0
M  V30 4623 N 426.356 -4.71697 -2.7019 0
M  V30 4624 H 430.158 -2.74309 -1.05506 0
M  V30 4625 H 427.672 -1.54896 -0.487959 0
M  V30 4626 H 429.669 -2.2973 -3.47893 0
M  V30 4627 H 428.329 -1.21828 -3.00979 0
M  V30 4628 H 429.34 -4.77584 -2.00335 0
M  V30 4629 H 426.017 -2.54858 -3.30687 0
M  V30 4630 H 427.407 -6.39424 -2.06365 0
M  V30 4631 N 430.127 0.543554 -1.4793 0
M  V30 4632 C 431.037 1.67657 -1.64098 0
M  V30 4633 C 432.053 1.65934 -0.523622 0
M  V30 4634 O 433.229 1.85133 -0.792943 0
M  V30 4635 C 430.294 3.04146 -1.66421 0
M  V30 4636 C 429.355 3.16831 -2.89684 0
M  V30 4637 C 428.588 4.46809 -2.91886 0
M  V30 4638 O 428.811 5.33095 -2.02895 0
M  V30 4639 O 427.745 4.63573 -3.83906 0
M  V30 4640 H 431.571 1.56957 -2.59997 0
M  V30 4641 H 429.156 0.715116 -1.31173 0
M  V30 4642 H 431.038 3.85346 -1.70548 0
M  V30 4643 H 429.713 3.152 -0.736923 0
M  V30 4644 H 428.62 2.34977 -2.91095 0
M  V30 4645 H 429.953 3.10687 -3.81752 0
M  V30 4646 N 431.605 1.3629 0.791371 0
M  V30 4647 C 432.882 1.20962 1.53712 0
M  V30 4648 C 433.262 -0.205021 2.10102 0
M  V30 4649 O 432.61 -1.21042 1.93807 0
M  V30 4650 C 432.82 2.29002 2.63361 0
M  V30 4651 C 434.168 2.65572 3.31295 0
M  V30 4652 O 435.192 2.2803 2.73643 0
M  V30 4653 O 434.051 3.3018 4.35481 0
M  V30 4654 H 431.145 0.47086 0.679867 0
M  V30 4655 H 433.691 1.48016 0.830021 0
M  V30 4656 H 432.463 3.2382 2.19674 0
M  V30 4657 H 432.086 2.03303 3.41692 0
M  V30 4658 N 433.083 -1.0153 1.20538 0
M  V30 4659 C 434.033 -2.08482 0.922991 0
M  V30 4660 C 435.017 -1.60469 -0.117702 0
M  V30 4661 O 436.209 -1.76772 0.0898465 0
M  V30 4662 C 433.338 -3.39952 0.478312 0
M  V30 4663 C 432.424 -3.94662 1.5525 0
M  V30 4664 N 432.815 -4.22866 2.77521 0
M  V30 4665 C 431.113 -4.22825 1.41897 0
M  V30 4666 C 431.814 -4.67002 3.4682 0
M  V30 4667 N 430.79 -4.69356 2.74237 0
M  V30 4668 H 434.592 -2.28199 1.85209 0
M  V30 4669 H 432.106 -1.19512 1.09957 0
M  V30 4670 H 434.103 -4.16105 0.257408 0
M  V30 4671 H 432.763 -3.21648 -0.444148 0
M  V30 4672 H 433.774 -4.11732 3.1416 0
M  V30 4673 H 430.451 -4.13714 0.561015 0
M  V30 4674 H 431.841 -4.97632 4.51455 0
M  V30 4675 N 434.561 -1.01147 -1.20859 0
M  V30 4676 C 435.491 -0.597663 -2.25722 0
M  V30 4677 C 436.472 0.384744 -1.65692 0
M  V30 4678 O 437.657 0.271303 -1.92296 0
M  V30 4679 C 434.787 0.0700149 -3.47229 0
M  V30 4680 C 433.741 -0.832843 -4.19819 0
M  V30 4681 C 433.067 -0.0312202 -5.34691 0
M  V30 4682 C 434.367 -2.1385 -4.76514 0
M  V30 4683 H 436.061 -1.47423 -2.60589 0
M  V30 4684 H 433.607 -0.710301 -1.25263 0
M  V30 4685 H 435.56 0.37103 -4.19763 0
M  V30 4686 H 434.284 0.981259 -3.11511 0
M  V30 4687 H 432.943 -1.11778 -3.49144 0
M  V30 4688 H 432.591 0.881515 -4.95215 0
M  V30 4689 H 432.291 -0.632434 -5.84187 0
M  V30 4690 H 433.815 0.26346 -6.10031 0
M  V30 4691 H 435.229 -1.9002 -5.40893 0
M  V30 4692 H 433.626 -2.69012 -5.36426 0
M  V30 4693 H 434.696 -2.80495 -3.95538 0
M  V30 4694 N 436.039 1.36541 -0.78704 0
M  V30 4695 C 436.971 2.28761 -0.141773 0
M  V30 4696 C 437.984 1.49365 0.647599 0
M  V30 4697 O 439.173 1.71836 0.483173 0
M  V30 4698 C 436.273 3.28771 0.822368 0
M  V30 4699 C 435.446 4.3732 0.0835594 0
M  V30 4700 C 434.505 5.17307 0.963296 0
M  V30 4701 O 433.531 5.67638 0.421419 0
M  V30 4702 N 434.733 5.33515 2.28784 0
M  V30 4703 H 437.498 2.84777 -0.933919 0
M  V30 4704 H 435.059 1.48682 -0.640735 0
M  V30 4705 H 437.051 3.79169 1.41468 0
M  V30 4706 H 435.621 2.73412 1.5154 0
M  V30 4707 H 434.841 3.88118 -0.689809 0
M  V30 4708 H 436.129 5.0701 -0.426358 0
M  V30 4709 H 435.527 4.94234 2.75226 0
M  V30 4710 H 434.084 5.87165 2.82985 0
M  V30 4711 N 437.518 0.538854 1.48102 0
M  V30 4712 C 438.765 0.0080018 2.02498 0
M  V30 4713 C 439.093 -1.33437 1.41509 0
M  V30 4714 O 438.348 -1.87709 0.553507 0
M  V30 4715 C 438.647 -0.153808 3.57069 0
M  V30 4716 C 438.313 1.11533 4.36888 0
M  V30 4717 C 436.975 1.46314 4.58417 0
M  V30 4718 C 439.327 1.95718 4.83057 0
M  V30 4719 C 436.655 2.6516 5.23361 0
M  V30 4720 C 439.007 3.13751 5.49312 0
M  V30 4721 C 437.671 3.48866 5.69077 0
M  V30 4722 H 436.941 0.00292807 0.740994 0
M  V30 4723 H 439.588 0.706668 1.77984 0
M  V30 4724 H 437.893 -0.935309 3.80472 0
M  V30 4725 H 439.59 -0.579607 3.96789 0
M  V30 4726 H 436.18 0.834484 4.20398 0
M  V30 4727 H 440.364 1.70158 4.66219 0
M  V30 4728 H 435.62 2.92558 5.36861 0
M  V30 4729 H 439.794 3.79282 5.84053 0
M  V30 4730 H 437.421 4.41054 6.19173 0
M  V30 4731 N 438.996 -1.55193 0.274407 0
M  V30 4732 C 440.407 -1.85358 -0.223488 0
M  V30 4733 C 440.758 -1.19642 -1.555 0
M  V30 4734 O 439.883 -0.484498 -2.10907 0
M  V30 4735 C 440.478 -3.36282 -0.412285 0
M  V30 4736 C 439.037 -3.66574 -0.854413 0
M  V30 4737 C 438.184 -2.7725 0.0527056 0
M  V30 4738 H 441.135 -1.50743 0.496215 0
M  V30 4739 H 441.156 -3.59349 -1.25094 0
M  V30 4740 H 440.668 -3.84083 0.556965 0
M  V30 4741 H 438.769 -3.24273 -1.83516 0
M  V30 4742 H 438.882 -4.74073 -0.692226 0
M  V30 4743 H 437.246 -2.50447 -0.463484 0
M  V30 4744 H 438.029 -3.27865 1.01783 0
M  V30 4745 N 440.474 -0.00167713 -1.576 0
M  V30 4746 C 441.885 0.54091 -1.78693 0
M  V30 4747 C 442.236 1.7386 -0.909247 0
M  V30 4748 O 441.361 2.16109 -0.112176 0
M  V30 4749 C 441.956 0.98806 -3.24072 0
M  V30 4750 C 440.515 1.47594 -3.46256 0
M  V30 4751 C 439.662 0.42792 -2.73978 0
M  V30 4752 H 442.613 -0.22784 -1.57056 0
M  V30 4753 H 442.634 1.85398 -3.32277 0
M  V30 4754 H 442.146 0.116164 -3.87926 0
M  V30 4755 H 440.247 2.36868 -2.87618 0
M  V30 4756 H 440.36 1.50225 -4.54939 0
M  V30 4757 H 438.724 0.889934 -2.38647 0
M  V30 4758 H 439.507 -0.435038 -3.40532 0
M  V30 4759 N 441.952 1.55251 0.271103 0
M  V30 4760 C 443.229 1.66664 1.02384 0
M  V30 4761 C 443.609 0.534363 2.04225 0
M  V30 4762 O 442.957 -0.465337 2.23712 0
M  V30 4763 C 443.167 3.05961 1.67895 0
M  V30 4764 C 444.515 3.63772 2.18986 0
M  V30 4765 O 445.539 3.08606 1.77878 0
M  V30 4766 O 444.398 4.60429 2.94393 0
M  V30 4767 H 441.492 0.676957 0.475035 0
M  V30 4768 H 444.038 1.67589 0.26681 0
M  V30 4769 H 442.81 3.79815 0.941071 0
M  V30 4770 H 442.433 3.08943 2.5028 0
M  V30 4771 N 443.43 -0.535701 1.48216 0
M  V30 4772 C 444.676 -1.29375 1.56173 0
M  V30 4773 C 445.009 -1.92804 0.232429 0
M  V30 4774 O 444.284 -1.78992 -0.761048 0
M  V30 4775 C 444.567 -2.38747 2.69577 0
M  V30 4776 C 444.42 -1.80046 4.12193 0
M  V30 4777 C 445.739 -3.40551 2.78771 0
M  V30 4778 H 442.858 -0.469027 0.568491 0
M  V30 4779 H 445.5 -0.597358 1.80365 0
M  V30 4780 H 443.65 -2.98147 2.4908 0
M  V30 4781 H 445.322 -1.24742 4.44114 0
M  V30 4782 H 443.565 -1.10609 4.19462 0
M  V30 4783 H 444.236 -2.59212 4.87353 0
M  V30 4784 H 446.712 -2.91099 2.97322 0
M  V30 4785 H 445.588 -4.1448 3.59857 0
M  V30 4786 H 445.849 -4.00746 1.86696 0
M  V30 4787 N 444.908 -1.36708 -0.784132 0
M  V30 4788 C 446.319 -1.27947 -1.35965 0
M  V30 4789 C 446.67 0.0784013 -1.96043 0
M  V30 4790 O 445.795 0.979989 -1.92938 0
M  V30 4791 C 446.39 -2.31689 -2.47195 0
M  V30 4792 C 444.949 -2.26601 -3.00548 0
M  V30 4793 C 444.096 -2.16184 -1.73666 0
M  V30 4794 H 447.047 -1.4751 -0.585358 0
M  V30 4795 H 447.068 -1.95638 -3.26352 0
M  V30 4796 H 446.58 -3.30506 -2.03439 0
M  V30 4797 H 444.681 -1.31268 -3.48711 0
M  V30 4798 H 444.794 -3.19508 -3.57004 0
M  V30 4799 H 443.158 -1.62524 -1.96107 0
M  V30 4800 H 443.941 -3.16896 -1.32031 0
M  V30 4801 N 446.386 1.0089 -1.21074 0
M  V30 4802 C 447.663 1.71834 -0.934469 0
M  V30 4803 C 448.043 2.0368 0.554753 0
M  V30 4804 O 447.391 1.70742 1.51854 0
M  V30 4805 C 447.601 2.98061 -1.8155 0
M  V30 4806 C 448.949 3.7117 -2.06199 0
M  V30 4807 O 449.973 3.08034 -1.78867 0
M  V30 4808 O 448.832 4.84721 -2.52404 0
M  V30 4809 H 445.926 0.749253 -0.35007 0
M  V30 4810 H 448.472 1.06668 -1.31985 0
M  V30 4811 H 447.244 2.70908 -2.82355 0
M  V30 4812 H 446.867 3.70968 -1.43068 0
M  V30 4813 N 447.864 1.01787 1.20321 0
M  V30 4814 C 449.11 0.708985 1.90003 0
M  V30 4815 C 449.443 -0.759572 1.78729 0
M  V30 4816 O 448.718 -1.55198 1.17234 0
M  V30 4817 C 449.001 1.1469 3.41348 0
M  V30 4818 C 448.854 2.67586 3.61549 0
M  V30 4819 C 450.173 0.71915 4.34185 0
M  V30 4820 H 447.292 0.259034 0.689978 0
M  V30 4821 H 449.934 1.26584 1.41692 0
M  V30 4822 H 448.084 0.673128 3.82624 0
M  V30 4823 H 449.756 3.22826 3.29517 0
M  V30 4824 H 447.999 3.085 3.04976 0
M  V30 4825 H 448.67 2.93281 4.67643 0
M  V30 4826 H 451.146 1.12647 4.00562 0
M  V30 4827 H 450.022 1.05358 5.38694 0
M  V30 4828 H 450.283 -0.379111 4.40472 0
M  V30 4829 N 449.342 -1.36122 0.79427 0
M  V30 4830 C 450.753 -1.81646 0.431446 0
M  V30 4831 C 451.104 -1.66043 -1.04518 0
M  V30 4832 O 450.229 -1.1841 -1.8113 0
M  V30 4833 C 450.824 -3.29785 0.776341 0
M  V30 4834 C 449.383 -3.73501 0.466282 0
M  V30 4835 C 448.53 -2.58313 1.00844 0
M  V30 4836 H 451.481 -1.24274 0.986995 0
M  V30 4837 H 451.502 -3.80437 0.0692413 0
M  V30 4838 H 451.014 -3.4111 1.8511 0
M  V30 4839 H 449.115 -3.67733 -0.600245 0
M  V30 4840 H 449.228 -4.68754 0.990288 0
M  V30 4841 H 447.592 -2.5102 0.431406 0
M  V30 4842 H 448.375 -2.72421 2.08906 0
M  V30 4843 N 450.82 -0.546701 -1.47814 0
M  V30 4844 C 451.783 0.196287 -2.28358 0
M  V30 4845 C 452.783 0.852437 -1.36346 0
M  V30 4846 O 453.973 0.709913 -1.59078 0
M  V30 4847 C 451.105 1.28579 -3.15722 0
M  V30 4848 H 452.298 -0.511086 -2.95513 0
M  V30 4849 H 449.851 -0.303248 -1.5333 0
M  V30 4850 H 450.586 2.0259 -2.53235 0
M  V30 4851 H 450.371 0.820229 -3.83425 0
M  V30 4852 H 451.861 1.80793 -3.76435 0
M  V30 4853 N 452.299 1.55045 -0.282633 0
M  V30 4854 C 453.524 2.04628 0.337977 0
M  V30 4855 C 453.949 1.15937 1.48123 0
M  V30 4856 O 453.307 0.159532 1.80597 0
M  V30 4857 C 453.355 3.51854 0.78936 0
M  V30 4858 O 452.459 3.66236 1.89592 0
M  V30 4859 H 451.8 0.660434 0.0687261 0
M  V30 4860 H 454.33 2.00261 -0.419124 0
M  V30 4861 H 454.34 3.93361 1.08311 0
M  V30 4862 H 453.015 4.15873 -0.0470419 0
M  V30 4863 H 451.592 3.36633 1.60413 0
M  V30 4864 N 453.777 0.010035 1.57597 0
M  V30 4865 C 454.74 -0.963029 2.07986 0
M  V30 4866 C 455.74 -1.26619 0.991173 0
M  V30 4867 O 456.93 -1.2097 1.25347 0
M  V30 4868 C 454.062 -2.2851 2.52974 0
M  V30 4869 H 455.255 -0.526971 2.95234 0
M  V30 4870 H 452.808 -0.237639 1.54483 0
M  V30 4871 H 453.543 -2.76784 1.69 0
M  V30 4872 H 453.328 -2.07824 3.32493 0
M  V30 4873 H 454.818 -2.98294 2.9225 0
M  V30 4874 N 455.255 -1.55392 -0.262866 0
M  V30 4875 C 456.187 -1.85392 -1.34768 0
M  V30 4876 C 457.2 -0.739069 -1.45057 0
M  V30 4877 O 458.389 -1.01703 -1.46693 0
M  V30 4878 C 455.489 -2.01088 -2.72795 0
M  V30 4879 C 454.662 -3.31828 -2.84972 0
M  V30 4880 C 453.721 -3.37464 -4.03738 0
M  V30 4881 O 452.747 -4.10778 -3.94018 0
M  V30 4882 N 453.949 -2.65599 -5.16176 0
M  V30 4883 H 456.714 -2.79029 -1.09375 0
M  V30 4884 H 454.275 -1.55434 -0.452981 0
M  V30 4885 H 456.267 -2.02217 -3.50557 0
M  V30 4886 H 454.837 -1.1427 -2.90966 0
M  V30 4887 H 454.057 -3.43152 -1.94012 0
M  V30 4888 H 455.345 -4.18032 -2.90045 0
M  V30 4889 H 454.743 -2.05736 -5.26962 0
M  V30 4890 H 453.3 -2.72439 -5.92132 0
M  V30 4891 N 456.733 0.527833 -1.48498 0
M  V30 4892 C 458.01 1.28905 -1.47115 0
M  V30 4893 C 458.39 2.10297 -0.184007 0
M  V30 4894 O 457.738 2.12728 0.834218 0
M  V30 4895 C 457.948 2.16866 -2.73441 0
M  V30 4896 C 459.296 2.76936 -3.21857 0
M  V30 4897 O 460.32 2.27152 -2.74373 0
M  V30 4898 O 459.179 3.67496 -4.04486 0
M  V30 4899 H 456.273 0.581918 -0.587623 0
M  V30 4900 H 458.819 0.544311 -1.60734 0
M  V30 4901 H 457.591 1.56521 -3.58632 0
M  V30 4902 H 457.214 2.98583 -2.62553 0
M  V30 4903 N 458.211 1.37122 0.776871 0
M  V30 4904 C 459.141 1.35164 1.90402 0
M  V30 4905 C 460.122 0.221069 1.68657 0
M  V30 4906 O 461.307 0.420642 1.8959 0
M  V30 4907 C 458.437 1.15274 3.27611 0
M  V30 4908 C 457.391 2.25289 3.63908 0
M  V30 4909 C 456.717 1.90527 4.99603 0
M  V30 4910 C 458.017 3.67446 3.71188 0
M  V30 4911 H 459.711 2.29482 1.92297 0
M  V30 4912 H 457.257 1.10465 0.923773 0
M  V30 4913 H 459.21 1.12536 4.06096 0
M  V30 4914 H 457.934 0.174102 3.26136 0
M  V30 4915 H 456.593 2.27174 2.87728 0
M  V30 4916 H 456.241 0.91206 4.94662 0
M  V30 4917 H 455.941 2.64193 5.24858 0
M  V30 4918 H 457.465 1.89367 5.80493 0
M  V30 4919 H 458.879 3.67719 4.39836 0
M  V30 4920 H 457.276 4.40123 4.07936 0
M  V30 4921 H 458.346 4.01443 2.71977 0
M  V30 4922 N 459.689 -1.00246 1.21608 0
M  V30 4923 C 460.938 -1.73476 1.02902 0
M  V30 4924 C 461.251 -1.90643 -0.437561 0
M  V30 4925 O 462.457 -2.61105 -0.74407 0
M  V30 4926 C 460.913 -3.12079 1.79261 0
M  V30 4927 C 460.521 -3.02877 3.30106 0
M  V30 4928 C 462.265 -3.89421 1.68972 0
M  V30 4929 C 460.172 -4.36575 3.98944 0
M  V30 4930 H 459.102 -0.650408 0.381425 0
M  V30 4931 H 461.753 -1.11985 1.45367 0
M  V30 4932 H 460.135 -3.74196 1.2959 0
M  V30 4933 H 461.309 -2.49983 3.87098 0
M  V30 4934 H 459.624 -2.39022 3.40965 0
M  V30 4935 H 462.221 -4.88362 2.17731 0
M  V30 4936 H 462.564 -4.1122 0.648397 0
M  V30 4937 H 463.097 -3.33963 2.16133 0
M  V30 4938 H 459.836 -4.19978 5.03288 0
M  V30 4939 H 459.356 -4.8942 3.4674 0
M  V30 4940 H 461.035 -5.05364 4.04 0
M  V30 4941 N 461.167 -1.02423 -1.1978 0
M  V30 4942 C 462.583 -0.740459 -1.41384 0
M  V30 4943 C 462.783 0.676827 -1.89793 0
M  V30 4944 O 461.839 1.4435 -2.0717 0
M  V30 4945 C 463.152 -1.77264 -2.42895 0
M  V30 4946 C 464.7 -1.79165 -2.56649 0
M  V30 4947 C 465.175 -2.8133 -3.6141 0
M  V30 4948 N 466.666 -2.80118 -3.68901 0
M  V30 4949 C 467.401 -3.55824 -4.49641 0
M  V30 4950 N 466.897 -4.41231 -5.34123 0
M  V30 4951 N 468.69 -3.44387 -4.44246 0
M  V30 4952 H 460.841 -1.9391 -0.866764 0
M  V30 4953 H 463.104 -0.838074 -0.443098 0
M  V30 4954 H 462.81 -2.7884 -2.14339 0
M  V30 4955 H 462.684 -1.59108 -3.42001 0
M  V30 4956 H 465.071 -0.782702 -2.84531 0
M  V30 4957 H 465.152 -2.01396 -1.57713 0
M  V30 4958 H 464.796 -3.82394 -3.34271 0
M  V30 4959 H 464.726 -2.56359 -4.59986 0
M  V30 4960 H 467.217 -2.1817 -3.08562 0
M  V30 4961 H 467.53 -4.95747 -5.92836 0
M  V30 4962 H 465.875 -4.45306 -5.33599 0
M  V30 4963 H 469.066 -2.7708 -3.77285 0
M  V30 4964 H 469.239 -4.0364 -5.06931 0
M  V30 4965 N 462.645 1.35699 -0.801477 0
M  V30 4966 C 463.577 2.28598 -0.166028 0
M  V30 4967 C 464.59 1.50044 0.631721 0
M  V30 4968 O 465.779 1.72339 0.464921 0
M  V30 4969 C 462.879 3.29625 0.787451 0
M  V30 4970 C 462.052 4.37384 0.037171 0
M  V30 4971 C 461.111 5.183 0.908375 0
M  V30 4972 O 460.137 5.68053 0.361189 0
M  V30 4973 N 461.339 5.35912 2.23112 0
M  V30 4974 H 464.104 2.83771 -0.964071 0
M  V30 4975 H 461.665 1.47994 -0.656469 0
M  V30 4976 H 463.657 3.80648 1.37439 0
M  V30 4977 H 462.227 2.75004 1.48632 0
M  V30 4978 H 461.447 3.87364 -0.730935 0
M  V30 4979 H 462.735 5.0653 -0.480109 0
M  V30 4980 H 462.133 4.97125 2.69968 0
M  V30 4981 H 460.69 5.90133 2.76741 0
M  V30 4982 N 464.123 0.554532 1.47522 0
M  V30 4983 C 465.053 -0.182974 2.32782 0
M  V30 4984 C 466.034 -0.911377 1.43624 0
M  V30 4985 O 467.219 -0.892366 1.72483 0
M  V30 4986 C 464.349 -1.21513 3.25349 0
M  V30 4987 C 463.303 -0.603355 4.23726 0
M  V30 4988 C 462.629 -1.73995 5.05598 0
M  V30 4989 C 463.929 0.441121 5.20434 0
M  V30 4990 H 465.623 0.52882 2.94693 0
M  V30 4991 H 463.169 0.255759 1.41711 0
M  V30 4992 H 465.122 -1.73922 3.83835 0
M  V30 4993 H 463.846 -1.95683 2.61487 0
M  V30 4994 H 462.505 -0.10059 3.66462 0
M  V30 4995 H 462.153 -2.47063 4.38143 0
M  V30 4996 H 461.853 -1.3364 5.72201 0
M  V30 4997 H 463.377 -2.26735 5.66942 0
M  V30 4998 H 464.791 0.00319931 5.733 0
M  V30 4999 H 463.188 0.763402 5.95224 0
M  V30 5000 H 464.258 1.33799 4.66075 0
M  V30 5001 N 465.601 -1.54893 0.290851 0
M  V30 5002 C 466.531 -2.26103 -0.583084 0
M  V30 5003 C 467.512 -1.25684 -1.14619 0
M  V30 5004 O 468.697 -1.54436 -1.17741 0
M  V30 5005 C 465.827 -2.99409 -1.75987 0
M  V30 5006 C 464.781 -4.0689 -1.32758 0
M  V30 5007 C 464.107 -4.67856 -2.58872 0
M  V30 5008 C 465.407 -5.20215 -0.46624 0
M  V30 5009 H 467.101 -2.99398 0.0108214 0
M  V30 5010 H 464.647 -1.43998 0.00664468 0
M  V30 5011 H 466.6 -3.47943 -2.37727 0
M  V30 5012 H 465.324 -2.23675 -2.37985 0
M  V30 5013 H 463.983 -3.59191 -0.733299 0
M  V30 5014 H 463.631 -3.88772 -3.19163 0
M  V30 5015 H 463.331 -5.40438 -2.30653 0
M  V30 5016 H 464.855 -5.19147 -3.21433 0
M  V30 5017 H 466.269 -5.64704 -0.989047 0
M  V30 5018 H 464.666 -5.99455 -0.27826 0
M  V30 5019 H 465.736 -4.82198 0.511173 0
M  V30 5020 N 467.08 -0.0183926 -1.57589 0
M  V30 5021 C 468.32 0.666846 -1.93216 0
M  V30 5022 C 468.684 1.69905 -0.894215 0
M  V30 5023 O 469.885 2.436 -1.13633 0
M  V30 5024 C 468.156 1.27684 -3.33814 0
M  V30 5025 S 469.715 1.98464 -3.91353 0
M  V30 5026 H 466.533 0.219826 -0.676164 0
M  V30 5027 H 469.135 -0.0794893 -1.95338 0
M  V30 5028 H 467.839 0.513006 -4.07181 0
M  V30 5029 H 467.37 2.06071 -3.3511 0
M  V30 5030 H 469.385 3.26189 -3.73918 0
M  V30 5031 N 468.558 1.5553 0.254621 0
M  V30 5032 C 469.974 1.4778 0.602753 0
M  V30 5033 C 470.174 0.707047 1.88688 0
M  V30 5034 O 469.23 0.233288 2.5142 0
M  V30 5035 C 470.543 2.92133 0.712648 0
M  V30 5036 C 472.091 3.02458 0.805488 0
M  V30 5037 C 472.566 4.48102 0.947009 0
M  V30 5038 N 474.057 4.52008 1.01207 0
M  V30 5039 C 474.792 5.61939 1.1407 0
M  V30 5040 N 474.288 6.81697 1.23536 0
M  V30 5041 N 476.081 5.49719 1.17325 0
M  V30 5042 H 468.232 2.04085 -0.588463 0
M  V30 5043 H 470.495 0.926229 -0.202001 0
M  V30 5044 H 470.201 3.51332 -0.160766 0
M  V30 5045 H 470.075 3.42187 1.58707 0
M  V30 5046 H 472.462 2.43344 1.66936 0
M  V30 5047 H 472.543 2.55627 -0.0939266 0
M  V30 5048 H 472.187 5.07824 0.087725 0
M  V30 5049 H 472.117 4.92607 1.86135 0
M  V30 5050 H 474.608 3.65749 0.950577 0
M  V30 5051 H 474.921 7.61228 1.33236 0
M  V30 5052 H 473.266 6.84473 1.20508 0
M  V30 5053 H 476.457 4.55095 1.09573 0
M  V30 5054 H 476.63 6.35432 1.27005 0
M  V30 5055 N 470.036 -0.519951 1.48776 0
M  V30 5056 C 470.968 -1.63973 1.60142 0
M  V30 5057 C 471.981 -1.55404 0.485117 0
M  V30 5058 O 473.17 -1.61682 0.756391 0
M  V30 5059 C 470.27 -3.02676 1.52449 0
M  V30 5060 C 469.443 -3.36624 2.79291 0
M  V30 5061 C 468.502 -4.54652 2.64912 0
M  V30 5062 O 467.528 -4.57374 3.38818 0
M  V30 5063 N 468.73 -5.53432 1.75195 0
M  V30 5064 H 471.495 -1.54656 2.56713 0
M  V30 5065 H 469.056 -0.707439 1.45626 0
M  V30 5066 H 471.048 -3.79525 1.4051 0
M  V30 5067 H 469.618 -3.06018 0.638125 0
M  V30 5068 H 468.838 -2.48855 3.0572 0
M  V30 5069 H 470.126 -3.56094 3.6342 0
M  V30 5070 H 469.524 -5.54018 1.14371 0
M  V30 5071 H 468.081 -6.29459 1.69189 0
M  V30 5072 N 471.514 -1.37532 -0.769588 0
M  V30 5073 C 472.424 -1.35668 -1.91393 0
M  V30 5074 C 473.44 -0.255954 -1.72107 0
M  V30 5075 O 474.616 -0.491704 -1.95305 0
M  V30 5076 C 471.681 -1.16481 -3.26547 0
M  V30 5077 C 470.742 -2.36212 -3.58472 0
M  V30 5078 C 469.975 -2.17932 -4.87177 0
M  V30 5079 O 470.198 -1.1647 -5.58382 0
M  V30 5080 O 469.132 -3.06167 -5.18214 0
M  V30 5081 H 472.958 -2.32055 -1.95918 0
M  V30 5082 H 470.543 -1.18284 -0.912641 0
M  V30 5083 H 472.425 -1.07778 -4.07384 0
M  V30 5084 H 471.1 -0.231687 -3.2287 0
M  V30 5085 H 470.007 -2.50488 -2.77861 0
M  V30 5086 H 471.34 -3.281 -3.66894 0
M  V30 5087 N 472.992 0.995999 -1.22138 0
M  V30 5088 C 473.902 2.11985 -1.00496 0
M  V30 5089 C 474.918 1.7394 0.0457701 0
M  V30 5090 O 476.094 2.00868 -0.146273 0
M  V30 5091 C 473.159 3.41779 -0.582086 0
M  V30 5092 C 472.22 3.93943 -1.70608 0
M  V30 5093 C 471.453 5.17542 -1.30328 0
M  V30 5094 O 471.676 5.70114 -0.180743 0
M  V30 5095 O 470.61 5.63382 -2.11861 0
M  V30 5096 H 474.436 2.33123 -1.94647 0
M  V30 5097 H 472.021 1.10358 -1.00705 0
M  V30 5098 H 473.903 4.1989 -0.356467 0
M  V30 5099 H 472.578 3.22007 0.330592 0
M  V30 5100 H 471.485 3.17019 -1.98619 0
M  V30 5101 H 472.818 4.18141 -2.59651 0
M  V30 5102 N 474.47 1.03057 1.19235 0
M  V30 5103 C 475.886 0.747947 1.40989 0
M  V30 5104 C 476.086 -0.666752 1.90149 0
M  V30 5105 O 475.142 -1.43249 2.07933 0
M  V30 5106 C 476.455 1.7855 2.41951 0
M  V30 5107 C 478.003 1.80524 2.55695 0
M  V30 5108 C 478.478 2.83243 3.59913 0
M  V30 5109 N 479.969 2.8207 3.67411 0
M  V30 5110 C 480.704 3.58204 4.47747 0
M  V30 5111 N 480.2 4.44057 5.31775 0
M  V30 5112 N 481.993 3.46738 4.42413 0
M  V30 5113 H 474.144 1.94367 0.856468 0
M  V30 5114 H 476.407 0.840412 0.438647 0
M  V30 5115 H 476.113 2.79973 2.12857 0
M  V30 5116 H 475.987 1.6092 3.41152 0
M  V30 5117 H 478.374 0.79778 2.84112 0
M  V30 5118 H 478.455 2.02229 1.56643 0
M  V30 5119 H 478.099 3.84161 3.32239 0
M  V30 5120 H 478.029 2.58795 4.5862 0
M  V30 5121 H 480.52 2.19803 3.074 0
M  V30 5122 H 480.833 4.98884 5.90199 0
M  V30 5123 H 479.178 4.48129 5.3123 0
M  V30 5124 H 482.369 2.79077 3.75811 0
M  V30 5125 H 482.542 4.06322 5.04783 0
M  V30 5126 N 475.948 -1.35272 0.808662 0
M  V30 5127 C 476.878 -2.32315 0.234981 0
M  V30 5128 C 477.859 -1.57572 -0.64071 0
M  V30 5129 O 479.044 -1.8563 -0.570551 0
M  V30 5130 C 476.174 -3.41801 -0.615601 0
M  V30 5131 C 475.128 -4.27694 0.161767 0
M  V30 5132 C 474.454 -5.28519 -0.810649 0
M  V30 5133 C 475.754 -5.04231 1.36193 0
M  V30 5134 H 477.448 -2.80543 1.04575 0
M  V30 5135 H 474.994 -1.3488 0.504315 0
M  V30 5136 H 476.947 -4.08693 -1.02702 0
M  V30 5137 H 475.671 -2.92186 -1.45928 0
M  V30 5138 H 474.33 -3.62384 0.554382 0
M  V30 5139 H 473.978 -4.75171 -1.64988 0
M  V30 5140 H 473.678 -5.8686 -0.294822 0
M  V30 5141 H 475.202 -5.98283 -1.22023 0
M  V30 5142 H 476.616 -5.64058 1.02528 0
M  V30 5143 H 475.013 -5.72077 1.81239 0
M  V30 5144 H 476.083 -4.34753 2.14751 0
M  V30 5145 N 477.426 -0.562348 -1.47226 0
M  V30 5146 C 478.674 -0.0401371 -2.0206 0
M  V30 5147 C 478.995 1.3165 -1.43852 0
M  V30 5148 O 478.265 1.85976 -0.615599 0
M  V30 5149 H 476.845 -0.0118479 -0.746906 0
M  V30 5150 H 479.507 -0.73352 -1.8057 0
M  V30 5151 H 478.603 0.0441254 -3.12069 0
M  V30 5152 N 478.904 1.54736 -0.299062 0
M  V30 5153 C 480.32 1.59507 0.0543849 0
M  V30 5154 C 480.52 1.31606 1.52585 0
M  V30 5155 O 479.576 1.08853 2.27832 0
M  V30 5156 C 480.889 2.98751 -0.34181 0
M  V30 5157 C 482.437 3.1165 -0.290414 0
M  V30 5158 C 482.912 4.53199 -0.661402 0
M  V30 5159 N 484.403 4.59114 -0.613863 0
M  V30 5160 C 485.138 5.66709 -0.873417 0
M  V30 5161 N 484.634 6.82349 -1.19884 0
M  V30 5162 N 486.427 5.56369 -0.800608 0
M  V30 5163 H 478.578 1.71133 -1.25806 0
M  V30 5164 H 480.841 0.799186 -0.509908 0
M  V30 5165 H 480.547 3.24085 -1.36608 0
M  V30 5166 H 480.421 3.75961 0.305508 0
M  V30 5167 H 482.808 2.86066 0.724605 0
M  V30 5168 H 482.889 2.366 -0.972327 0
M  V30 5169 H 482.533 4.79513 -1.67422 0
M  V30 5170 H 482.463 5.26583 0.0425612 0
M  V30 5171 H 484.954 3.76053 -0.3732 0
M  V30 5172 H 485.267 7.60326 -1.38291 0
M  V30 5173 H 483.612 6.83906 -1.23685 0
M  V30 5174 H 486.803 4.64904 -0.546045 0
M  V30 5175 H 486.976 6.40139 -1.00626 0
M  V30 5176 N 480.382 0.0267497 1.57577 0
M  V30 5177 C 481.63 -0.651116 1.91324 0
M  V30 5178 C 481.951 -1.72804 0.90353 0
M  V30 5179 O 481.221 -1.95822 -0.0552946 0
M  V30 5180 H 479.801 -0.243491 0.706202 0
M  V30 5181 H 482.463 0.0739935 1.94759 0
M  V30 5182 H 481.559 -1.10536 2.9187 0
M  V30 5183 N 481.861 -1.55662 -0.24637 0
M  V30 5184 C 483.109 -1.77168 -0.972411 0
M  V30 5185 C 483.43 -0.590827 -1.85834 0
M  V30 5186 O 482.7 0.393365 -1.9191 0
M  V30 5187 H 481.28 -0.653405 -0.362038 0
M  V30 5188 H 483.942 -1.93101 -0.264189 0
M  V30 5189 H 483.038 -2.68335 -1.59382 0
M  V30 5190 N 483.339 0.512053 -1.4905 0
M  V30 5191 C 484.269 1.62365 -1.67809 0
M  V30 5192 C 485.25 1.61737 -0.526809 0
M  V30 5193 O 486.435 1.78651 -0.761404 0
M  V30 5194 C 483.565 3.00895 -1.73435 0
M  V30 5195 C 482.519 3.16387 -2.88242 0
M  V30 5196 C 481.845 4.56157 -2.78971 0
M  V30 5197 C 483.145 2.97457 -4.29321 0
M  V30 5198 H 484.839 1.46921 -2.60873 0
M  V30 5199 H 482.385 0.705379 -1.2554 0
M  V30 5200 H 484.338 3.78549 -1.85145 0
M  V30 5201 H 483.062 3.17403 -0.769619 0
M  V30 5202 H 481.721 2.41155 -2.76116 0
M  V30 5203 H 481.369 4.69525 -1.8043 0
M  V30 5204 H 481.069 4.67465 -3.5602 0
M  V30 5205 H 482.593 5.35886 -2.92675 0
M  V30 5206 H 484.007 3.64888 -4.42187 0
M  V30 5207 H 482.404 3.20245 -5.07507 0
M  V30 5208 H 483.474 1.93692 -4.44535 0
M  V30 5209 N 484.817 1.37938 0.762283 0
M  V30 5210 C 486.094 1.24196 1.51112 0
M  V30 5211 C 486.474 -0.160409 2.1049 0
M  V30 5212 O 485.822 -1.16904 1.96331 0
M  V30 5213 C 486.032 2.34537 2.58445 0
M  V30 5214 C 487.38 2.7254 3.25588 0
M  V30 5215 O 488.404 2.33783 2.68745 0
M  V30 5216 O 487.263 3.39343 4.28379 0
M  V30 5217 H 484.357 0.485175 0.669727 0
M  V30 5218 H 486.903 1.49743 0.798438 0
M  V30 5219 H 485.675 3.28406 2.12756 0
M  V30 5220 H 485.298 2.10505 3.37303 0
M  V30 5221 N 486.295 -0.989507 1.22664 0
M  V30 5222 C 487.572 -1.70326 0.961688 0
M  V30 5223 C 487.952 -2.04537 -0.522279 0
M  V30 5224 O 487.3 -1.73136 -1.49118 0
M  V30 5225 C 487.51 -2.95135 1.86269 0
M  V30 5226 C 488.858 -3.67842 2.12078 0
M  V30 5227 O 489.882 -3.0515 1.83745 0
M  V30 5228 O 488.741 -4.80644 2.60083 0
M  V30 5229 H 485.835 -0.743589 0.361946 0
M  V30 5230 H 488.381 -1.04555 1.33665 0
M  V30 5231 H 487.153 -2.66382 2.8663 0
M  V30 5232 H 486.776 -3.68645 1.48952 0
M  V30 5233 N 487.773 -1.03688 -1.18687 0
M  V30 5234 C 489.02 -0.73803 -1.88572 0
M  V30 5235 C 489.348 0.733973 -1.8012 0
M  V30 5236 O 488.603 1.55098 -1.19344 0
M  V30 5237 C 488.902 -1.14477 -3.3857 0
M  V30 5238 C 488.568 -2.61641 -3.67226 0
M  V30 5239 C 487.23 -3.01846 -3.74757 0
M  V30 5240 C 489.582 -3.56812 -3.79914 0
M  V30 5241 C 486.91 -4.36118 -3.92451 0
M  V30 5242 C 489.262 -4.90799 -3.99123 0
M  V30 5243 C 487.926 -5.3068 -4.04888 0
M  V30 5244 H 487.196 -0.270064 -0.690034 0
M  V30 5245 H 489.843 -1.3012 -1.40503 0
M  V30 5246 H 488.148 -0.500337 -3.88592 0
M  V30 5247 H 489.845 -0.89095 -3.90977 0
M  V30 5248 H 486.435 -2.29498 -3.61979 0
M  V30 5249 H 490.619 -3.26899 -3.73431 0
M  V30 5250 H 485.875 -4.66542 -3.95157 0
M  V30 5251 H 490.049 -5.64451 -4.07882 0
M  V30 5252 H 487.676 -6.34733 -4.18351 0
M  V30 5253 N 489.251 1.34841 -0.815825 0
M  V30 5254 C 490.667 1.51543 -0.500697 0
M  V30 5255 C 490.867 1.76261 0.976444 0
M  V30 5256 O 489.923 1.8094 1.76117 0
M  V30 5257 C 491.236 2.68487 -1.35407 0
M  V30 5258 C 492.784 2.82368 -1.35046 0
M  V30 5259 C 493.259 4.02347 -2.18816 0
M  V30 5260 N 494.75 4.09542 -2.16402 0
M  V30 5261 C 495.485 5.01517 -2.77971 0
M  V30 5262 N 494.981 5.98763 -3.48503 0
M  V30 5263 N 496.774 4.94334 -2.67563 0
M  V30 5264 H 488.925 1.17055 -1.77234 0
M  V30 5265 H 491.188 0.573481 -0.754866 0
M  V30 5266 H 490.894 2.56829 -2.40274 0
M  V30 5267 H 490.768 3.63321 -1.01377 0
M  V30 5268 H 493.155 2.93471 -0.309604 0
M  V30 5269 H 493.236 1.88363 -1.73069 0
M  V30 5270 H 492.88 3.92004 -3.22948 0
M  V30 5271 H 492.81 4.95551 -1.78148 0
M  V30 5272 H 495.301 3.39932 -1.65091 0
M  V30 5273 H 495.614 6.6556 -3.92747 0
M  V30 5274 H 493.959 5.98909 -3.52609 0
M  V30 5275 H 497.15 4.1732 -2.12041 0
M  V30 5276 H 497.323 5.6582 -3.15834 0
M  V30 5277 N 490.729 0.570148 1.46925 0
M  V30 5278 C 491.677 -0.183181 2.31878 0
M  V30 5279 C 492.671 -0.896721 1.43719 0
M  V30 5280 O 493.877 -0.816536 1.60414 0
M  V30 5281 H 490.252 -0.077944 0.74795 0
M  V30 5282 H 492.223 0.552312 2.93244 0
M  V30 5283 C 490.972 -1.19172 3.2664 0
M  V30 5284 H 490.295 -0.652088 3.94446 0
M  V30 5285 H 491.735 -1.68946 3.88887 0
M  V30 5286 C 490.194 -2.24627 2.51086 0
M  V30 5287 O 490.724 -3.31773 2.26472 0
M  V30 5288 N 488.93 -1.98898 2.11867 0
M  V30 5289 H 488.477 -1.11777 2.32086 0
M  V30 5290 H 488.435 -2.6967 1.61634 0
M  V30 5291 N 492.207 -1.54576 0.307264 0
M  V30 5292 C 493.157 -2.20467 -0.581249 0
M  V30 5293 C 494.141 -1.17972 -1.09414 0
M  V30 5294 O 495.333 -1.43667 -1.03387 0
M  V30 5295 C 492.462 -2.95369 -1.74963 0
M  V30 5296 C 491.548 -4.05186 -1.25241 0
M  V30 5297 N 491.939 -5.03577 -0.47364 0
M  V30 5298 C 490.237 -4.18841 -1.53259 0
M  V30 5299 C 490.938 -5.81328 -0.208083 0
M  V30 5300 N 489.914 -5.37834 -0.789651 0
M  V30 5301 H 493.716 -2.93892 0.0212221 0
M  V30 5302 H 491.23 -1.62011 0.112325 0
M  V30 5303 H 493.227 -3.41046 -2.39777 0
M  V30 5304 H 491.887 -2.23461 -2.35574 0
M  V30 5305 H 492.898 -5.17766 -0.117963 0
M  V30 5306 H 489.575 -3.58141 -2.14573 0
M  V30 5307 H 490.965 -6.706 0.417793 0
M  V30 5308 N 493.685 -0.035106 -1.57561 0
M  V30 5309 C 495.096 0.502885 -1.798 0
M  V30 5310 C 495.447 1.71892 -0.945921 0
M  V30 5311 O 494.572 2.15822 -0.157991 0
M  V30 5312 C 495.167 0.919097 -3.26095 0
M  V30 5313 C 493.726 1.40216 -3.49308 0
M  V30 5314 C 492.873 0.369709 -2.74824 0
M  V30 5315 H 495.824 -0.261102 -1.56537 0
M  V30 5316 H 495.845 1.78308 -3.36135 0
M  V30 5317 H 495.357 0.0338526 -3.88085 0
M  V30 5318 H 493.458 2.30714 -2.92578 0
M  V30 5319 H 493.571 1.40541 -4.58023 0
M  V30 5320 H 491.935 0.839113 -2.40481 0
M  V30 5321 H 492.718 -0.507173 -3.39533 0
M  V30 5322 N 495.163 1.55791 0.238111 0
M  V30 5323 C 496.41 1.78033 0.964907 0
M  V30 5324 C 496.738 0.600984 1.84982 0
M  V30 5325 O 495.993 -0.41536 1.91241 0
M  V30 5326 C 496.292 3.05869 1.84875 0
M  V30 5327 C 495.958 4.36808 1.11846 0
M  V30 5328 C 494.62 4.72388 0.916662 0
M  V30 5329 C 496.972 5.17717 0.60151 0
M  V30 5330 C 494.3 5.86406 0.185756 0
M  V30 5331 C 496.652 6.32494 -0.115972 0
M  V30 5332 C 495.316 6.66688 -0.329168 0
M  V30 5333 H 494.586 0.651469 0.353085 0
M  V30 5334 H 497.233 1.90061 0.234318 0
M  V30 5335 H 495.538 2.88891 2.64668 0
M  V30 5336 H 497.235 3.20278 2.41294 0
M  V30 5337 H 493.825 4.08862 1.28569 0
M  V30 5338 H 498.009 4.90678 0.744932 0
M  V30 5339 H 493.265 6.11399 0.0101886 0
M  V30 5340 H 497.439 6.94425 -0.524127 0
M  V30 5341 H 495.066 7.54884 -0.897474 0
M  V30 5342 N 496.642 -0.504142 1.49319 0
M  V30 5343 C 497.889 -1.25846 1.58647 0
M  V30 5344 C 498.217 -1.92592 0.27177 0
M  V30 5345 O 497.472 -1.81167 -0.74007 0
M  V30 5346 C 497.771 -2.35021 2.69258 0
M  V30 5347 C 497.437 -1.85755 4.1086 0
M  V30 5348 C 496.099 -1.72038 4.49395 0
M  V30 5349 C 498.451 -1.48844 4.99495 0
M  V30 5350 C 495.779 -1.19783 5.74342 0
M  V30 5351 C 498.131 -0.980422 6.24956 0
M  V30 5352 C 496.795 -0.829622 6.62324 0
M  V30 5353 H 496.065 -0.460505 0.580531 0
M  V30 5354 H 498.712 -0.559716 1.83138 0
M  V30 5355 H 497.017 -3.10672 2.38726 0
M  V30 5356 H 498.714 -2.93083 2.73685 0
M  V30 5357 H 495.304 -1.9739 3.80441 0
M  V30 5358 H 499.488 -1.5829 4.70381 0
M  V30 5359 H 494.744 -1.06817 6.01997 0
M  V30 5360 H 498.918 -0.685608 6.93017 0
M  V30 5361 H 496.545 -0.42253 7.59025 0
M  V30 5362 N 498.12 -1.38341 -0.754957 0
M  V30 5363 C 499.03 -1.3769 -1.89944 0
M  V30 5364 C 500.046 -0.274194 -1.71826 0
M  V30 5365 O 501.222 -0.512391 -1.94773 0
M  V30 5366 C 498.287 -1.19938 -3.25293 0
M  V30 5367 C 497.348 -2.40001 -3.55946 0
M  V30 5368 C 496.581 -2.23087 -4.84838 0
M  V30 5369 O 496.804 -1.22386 -5.57116 0
M  V30 5370 O 495.738 -3.11646 -5.14937 0
M  V30 5371 H 499.564 -2.3412 -1.93446 0
M  V30 5372 H 497.149 -1.19246 -0.900044 0
M  V30 5373 H 499.031 -1.12093 -4.06218 0
M  V30 5374 H 497.706 -0.265919 -3.22606 0
M  V30 5375 H 496.613 -2.53421 -2.75188 0
M  V30 5376 H 497.946 -3.31973 -3.63394 0
M  V30 5377 N 499.598 0.982988 -1.23187 0
M  V30 5378 C 500.846 1.72052 -1.06031 0
M  V30 5379 C 501.167 1.90769 0.404019 0
M  V30 5380 O 500.437 1.47446 1.28982 0
M  V30 5381 H 499.017 0.637499 -0.389363 0
M  V30 5382 H 501.679 1.18338 -1.54862 0
M  V30 5383 H 500.775 2.7111 -1.54615 0
M  V30 5384 N 501.076 1.04316 1.18135 0
M  V30 5385 C 502.322 0.749128 1.88457 0
M  V30 5386 C 502.655 -0.72149 1.803 0
M  V30 5387 O 501.93 -1.52676 1.205 0
M  V30 5388 C 502.213 1.21905 3.38838 0
M  V30 5389 C 502.066 2.75195 3.55792 0
M  V30 5390 C 503.385 0.811085 4.32561 0
M  V30 5391 H 500.504 0.273611 0.684329 0
M  V30 5392 H 503.146 1.29561 1.38975 0
M  V30 5393 H 501.296 0.754137 3.8111 0
M  V30 5394 H 502.968 3.29743 3.22595 0
M  V30 5395 H 501.211 3.14899 2.98364 0
M  V30 5396 H 501.882 3.03135 4.61317 0
M  V30 5397 H 504.358 1.21118 3.98082 0
M  V30 5398 H 503.234 1.16761 5.36338 0
M  V30 5399 H 503.495 -0.285596 4.41177 0
M  V30 5400 N 502.554 -1.34406 0.822964 0
M  V30 5401 C 503.831 -1.92733 0.333641 0
M  V30 5402 C 504.211 -1.75107 -1.17901 0
M  V30 5403 O 503.559 -1.12983 -1.98613 0
M  V30 5404 C 503.769 -3.40557 0.763023 0
M  V30 5405 C 505.117 -4.17709 0.761879 0
M  V30 5406 O 506.141 -3.49141 0.705606 0
M  V30 5407 O 505 -5.40082 0.835109 0
M  V30 5408 H 502.094 -0.821964 0.0911249 0
M  V30 5409 H 504.64 -1.4338 0.907757 0
M  V30 5410 H 503.412 -3.47187 1.8049 0
M  V30 5411 H 503.035 -3.97259 0.164605 0
M  V30 5412 N 504.032 -0.577932 -1.46621 0
M  V30 5413 C 505.278 -0.0700937 -2.03279 0
M  V30 5414 C 505.633 1.27376 -1.44198 0
M  V30 5415 O 504.926 1.82097 -0.595911 0
M  V30 5416 C 505.12 0.0590832 -3.57351 0
M  V30 5417 C 504.949 -1.2707 -4.31374 0
M  V30 5418 C 503.719 -1.84357 -4.70469 0
M  V30 5419 C 505.917 -2.19278 -4.65211 0
M  V30 5420 N 503.899 -3.11124 -5.29221 0
M  V30 5421 C 505.27 -3.30631 -5.24484 0
M  V30 5422 C 507.325 -2.19018 -4.47142 0
M  V30 5423 C 506.028 -4.41849 -5.67593 0
M  V30 5424 C 508.054 -3.29262 -4.91264 0
M  V30 5425 C 507.416 -4.39335 -5.50604 0
M  V30 5426 H 503.515 -0.0683127 -0.779011 0
M  V30 5427 H 506.099 -0.76978 -1.78836 0
M  V30 5428 H 504.27 0.727929 -3.81518 0
M  V30 5429 H 506.002 0.57087 -4.00653 0
M  V30 5430 H 502.757 -1.37906 -4.53077 0
M  V30 5431 H 503.181 -3.75794 -5.63123 0
M  V30 5432 H 507.823 -1.35191 -4.00604 0
M  V30 5433 H 505.541 -5.26421 -6.13112 0
M  V30 5434 H 509.127 -3.30172 -4.79038 0
M  V30 5435 H 508.007 -5.23233 -5.84121 0
M  V30 5436 N 505.51 1.54411 -0.315457 0
M  V30 5437 C 506.42 2.27737 0.56329 0
M  V30 5438 C 507.436 1.31787 1.13614 0
M  V30 5439 O 508.612 1.64791 1.15784 0
M  V30 5440 C 505.677 3.01478 1.71207 0
M  V30 5441 C 504.738 4.12997 1.17185 0
M  V30 5442 C 503.971 4.83212 2.26588 0
M  V30 5443 O 504.194 4.52884 3.46775 0
M  V30 5444 O 503.128 5.70299 1.92463 0
M  V30 5445 H 506.954 3.03683 -0.0319614 0
M  V30 5446 H 504.539 1.49178 -0.0814188 0
M  V30 5447 H 506.421 3.47683 2.38106 0
M  V30 5448 H 505.096 2.28414 2.29366 0
M  V30 5449 H 504.003 3.71159 0.468174 0
M  V30 5450 H 505.336 4.8808 0.635501 0
M  V30 5451 N 506.988 0.0434614 1.5754 0
M  V30 5452 C 508.404 -0.313039 1.565 0
M  V30 5453 C 508.604 -1.71954 1.05043 0
M  V30 5454 O 507.66 -2.425 0.703564 0
M  V30 5455 C 508.973 -0.148544 3.00333 0
M  V30 5456 C 510.521 -0.220231 3.12224 0
M  V30 5457 C 510.996 -0.0843565 4.57922 0
M  V30 5458 N 512.487 -0.140881 4.62986 0
M  V30 5459 C 513.222 -0.0597443 5.73369 0
M  V30 5460 N 512.718 0.0733004 6.92761 0
M  V30 5461 N 514.511 -0.11477 5.61983 0
M  V30 5462 H 506.662 0.96303 1.89313 0
M  V30 5463 H 508.925 0.373164 0.871466 0
M  V30 5464 H 508.631 0.820894 3.41986 0
M  V30 5465 H 508.505 -0.912798 3.65989 0
M  V30 5466 H 510.892 -1.18014 2.70475 0
M  V30 5467 H 510.973 0.574646 2.49262 0
M  V30 5468 H 510.617 0.872192 5.00355 0
M  V30 5469 H 510.547 -0.898281 5.18882 0
M  V30 5470 H 513.038 -0.243273 3.77116 0
M  V30 5471 H 513.351 0.128128 7.72694 0
M  V30 5472 H 511.696 0.10828 6.94916 0
M  V30 5473 H 514.887 -0.217212 4.67596 0
M  V30 5474 H 515.06 -0.0480779 6.47982 0
M  V30 5475 N 508.466 -1.55915 -0.229846 0
M  V30 5476 C 509.396 -1.94754 -1.28815 0
M  V30 5477 C 510.377 -0.814657 -1.49323 0
M  V30 5478 O 511.562 -1.07631 -1.61645 0
M  V30 5479 C 508.692 -2.25705 -2.63959 0
M  V30 5480 C 507.646 -3.41406 -2.5812 0
M  V30 5481 C 506.972 -3.57941 -3.97218 0
M  V30 5482 C 508.272 -4.76616 -2.13623 0
M  V30 5483 H 509.966 -2.83404 -0.965547 0
M  V30 5484 H 507.512 -1.36353 -0.463028 0
M  V30 5485 H 509.465 -2.51467 -3.38146 0
M  V30 5486 H 508.189 -1.339 -2.9789 0
M  V30 5487 H 506.848 -3.1568 -1.86391 0
M  V30 5488 H 506.496 -2.63526 -4.28443 0
M  V30 5489 H 506.196 -4.35757 -3.94195 0
M  V30 5490 H 507.72 -3.86042 -4.73079 0
M  V30 5491 H 509.134 -5.01637 -2.77549 0
M  V30 5492 H 507.531 -5.57655 -2.21677 0
M  V30 5493 H 508.601 -4.7253 -1.08829 0
M  V30 5494 N 509.944 0.496216 -1.49584 0
M  V30 5495 C 510.907 1.57952 -1.66084 0
M  V30 5496 C 511.907 1.51729 -0.53244 0
M  V30 5497 O 513.097 1.54796 -0.79899 0
M  V30 5498 C 510.229 2.97604 -1.66268 0
M  V30 5499 H 511.422 1.44649 -2.6271 0
M  V30 5500 H 508.975 0.7208 -1.38687 0
M  V30 5501 H 509.71 3.16378 -0.712432 0
M  V30 5502 H 509.495 3.03528 -2.4822 0
M  V30 5503 H 510.985 3.76301 -1.81073 0
M  V30 5504 N 511.423 1.38739 0.74761 0
M  V30 5505 C 512.648 1.38702 1.54197 0
M  V30 5506 C 513.073 -0.019664 1.8809 0
M  V30 5507 O 512.431 -1.00333 1.51006 0
M  V30 5508 C 512.479 2.25492 2.814 0
M  V30 5509 O 511.583 1.67613 3.76802 0
M  V30 5510 H 510.924 0.472863 0.466151 0
M  V30 5511 H 513.454 1.82577 0.923413 0
M  V30 5512 H 513.464 2.39561 3.30264 0
M  V30 5513 H 512.139 3.27727 2.56062 0
M  V30 5514 H 510.716 1.62718 3.35526 0
M  V30 5515 N 512.901 -0.976442 1.23707 0
M  V30 5516 C 514.126 -1.75875 1.09922 0
M  V30 5517 C 514.551 -1.84911 -0.34489 0
M  V30 5518 O 513.909 -1.31363 -1.24954 0
M  V30 5519 C 513.957 -3.16179 1.73388 0
M  V30 5520 O 513.061 -4.00124 0.99871 0
M  V30 5521 H 512.402 -0.540954 0.385052 0
M  V30 5522 H 514.932 -1.22546 1.6384 0
M  V30 5523 H 514.942 -3.66741 1.78788 0
M  V30 5524 H 513.617 -3.08917 2.78466 0
M  V30 5525 H 512.194 -3.58624 1.02193 0
M  V30 5526 N 514.379 -1.04941 -1.1758 0
M  V30 5527 C 515.607 -0.778294 -1.91703 0
M  V30 5528 C 516.022 0.665697 -1.76675 0
M  V30 5529 O 515.379 1.45456 -1.10222 0
M  V30 5530 C 515.43 -1.14628 -3.42845 0
M  V30 5531 O 515.151 -2.53359 -3.57409 0
M  V30 5532 C 516.652 -0.900931 -4.34049 0
M  V30 5533 H 513.872 -0.283167 -0.608323 0
M  V30 5534 H 516.416 -1.39942 -1.49119 0
M  V30 5535 H 514.571 -0.569953 -3.83184 0
M  V30 5536 H 514.985 -2.67709 -4.51035 0
M  V30 5537 H 516.459 -1.20817 -5.38616 0
M  V30 5538 H 516.936 0.163966 -4.38894 0
M  V30 5539 H 517.542 -1.46097 -3.99419 0
M  V30 5540 N 515.857 1.33968 -0.830081 0
M  V30 5541 C 516.82 2.27694 -0.26235 0
M  V30 5542 C 517.82 1.50589 0.563876 0
M  V30 5543 O 519.01 1.70028 0.378941 0
M  V30 5544 C 516.142 3.35002 0.63138 0
M  V30 5545 H 517.335 2.79419 -1.08928 0
M  V30 5546 H 514.888 1.44221 -0.602486 0
M  V30 5547 H 515.623 2.88504 1.48109 0
M  V30 5548 H 515.408 3.92079 0.0403276 0
M  V30 5549 H 516.898 4.04897 1.02217 0
M  V30 5550 N 517.335 0.585699 1.46312 0
M  V30 5551 C 518.746 0.159938 1.86014 0
M  V30 5552 C 519.097 -1.27775 1.48889 0
M  V30 5553 O 518.222 -1.96559 0.90519 0
M  V30 5554 C 518.817 0.283485 3.37612 0
M  V30 5555 C 517.376 -0.0874256 3.76298 0
M  V30 5556 C 516.523 0.618055 2.70325 0
M  V30 5557 H 519.474 0.793737 1.37425 0
M  V30 5558 H 519.495 -0.490348 3.77327 0
M  V30 5559 H 519.007 1.32995 3.64601 0
M  V30 5560 H 517.108 -1.13391 3.54927 0
M  V30 5561 H 517.221 0.290975 4.78216 0
M  V30 5562 H 515.585 0.057993 2.54634 0
M  V30 5563 H 516.368 1.66623 3.00153 0
M  V30 5564 N 518.813 -1.54241 0.323641 0
M  V30 5565 C 520.043 -2.04687 -0.280464 0
M  V30 5566 C 520.451 -1.19939 -1.46326 0
M  V30 5567 O 519.794 -0.222872 -1.82343 0
M  V30 5568 C 519.856 -3.50978 -0.778123 0
M  V30 5569 C 519.52 -4.56127 0.282371 0
M  V30 5570 C 520.517 -5.07726 1.11847 0
M  V30 5571 C 518.202 -5.00451 0.430582 0
M  V30 5572 C 520.196 -6.02212 2.08851 0
M  V30 5573 C 517.883 -5.94752 1.40404 0
M  V30 5574 C 518.881 -6.45519 2.23147 0
M  V30 5575 O 518.569 -7.37968 3.1884 0
M  V30 5576 H 518.301 -0.673192 -0.0615473 0
M  V30 5577 H 520.855 -1.99999 0.467921 0
M  V30 5578 H 519.085 -3.53064 -1.57742 0
M  V30 5579 H 520.774 -3.84499 -1.30058 0
M  V30 5580 H 521.54 -4.74261 1.01496 0
M  V30 5581 H 517.419 -4.6055 -0.203569 0
M  V30 5582 H 520.963 -6.41761 2.73474 0
M  V30 5583 H 516.86 -6.27633 1.5082 0
M  V30 5584 H 517.628 -7.55841 3.14079 0
M  V30 5585 N 520.291 -0.0518155 -1.57515 0
M  V30 5586 C 521.54 0.621286 -1.91893 0
M  V30 5587 C 521.853 1.71966 -0.932052 0
M  V30 5588 O 523.059 2.45096 -1.16791 0
M  V30 5589 C 521.515 1.15641 -3.40816 0
M  V30 5590 C 521.123 0.0901146 -4.47909 0
M  V30 5591 C 522.867 1.80472 -3.84227 0
M  V30 5592 C 520.774 0.638154 -5.87947 0
M  V30 5593 H 519.704 0.235835 -0.716169 0
M  V30 5594 H 522.355 -0.120809 -1.83102 0
M  V30 5595 H 520.737 1.95084 -3.44613 0
M  V30 5596 H 521.911 -0.683525 -4.55702 0
M  V30 5597 H 520.226 -0.460774 -4.13843 0
M  V30 5598 H 522.823 2.22471 -4.86221 0
M  V30 5599 H 523.166 2.65669 -3.20508 0
M  V30 5600 H 523.699 1.07683 -3.82948 0
M  V30 5601 H 520.438 -0.176202 -6.55263 0
M  V30 5602 H 519.958 1.37976 -5.83714 0
M  V30 5603 H 521.637 1.12085 -6.37217 0
M  V30 5604 N 521.769 1.56035 0.221574 0
M  V30 5605 C 523.18 1.69229 0.788567 0
M  V30 5606 C 523.531 0.653814 1.84986 0
M  V30 5607 O 522.656 -0.195065 2.15519 0
M  V30 5608 C 523.251 3.06809 1.43713 0
M  V30 5609 C 521.81 3.21858 1.95152 0
M  V30 5610 C 520.957 2.65155 0.811685 0
M  V30 5611 H 523.908 1.587 -0.00307894 0
M  V30 5612 H 523.929 3.02666 2.30594 0
M  V30 5613 H 523.441 3.82369 0.664475 0
M  V30 5614 H 521.542 2.51167 2.7522 0
M  V30 5615 H 521.655 4.29073 2.1315 0
M  V30 5616 H 520.019 2.23635 1.21899 0
M  V30 5617 H 520.802 3.43261 0.0516987 0
M  V30 5618 N 523.247 -0.488276 1.49845 0
M  V30 5619 C 524.157 -1.61451 1.70207 0
M  V30 5620 C 525.173 -1.63877 0.584846 0
M  V30 5621 O 526.349 -1.82063 0.861107 0
M  V30 5622 C 523.414 -2.9776 1.77594 0
M  V30 5623 C 522.475 -3.05861 3.01243 0
M  V30 5624 C 521.708 -4.35668 3.08268 0
M  V30 5625 O 521.931 -5.25197 2.22541 0
M  V30 5626 O 520.865 -4.49005 4.00847 0
M  V30 5627 H 524.691 -1.47199 2.65643 0
M  V30 5628 H 522.276 -0.665939 1.33737 0
M  V30 5629 H 524.158 -3.7875 1.84732 0
M  V30 5630 H 522.833 -3.12248 0.8534 0
M  V30 5631 H 521.74 -2.24012 2.99616 0
M  V30 5632 H 523.073 -2.96304 3.9302 0
M  V30 5633 N 524.725 -1.39134 -0.740242 0
M  V30 5634 C 525.655 -1.40165 -1.86751 0
M  V30 5635 C 526.636 -0.265708 -1.68012 0
M  V30 5636 O 527.821 -0.47076 -1.88408 0
M  V30 5637 C 524.951 -1.2392 -3.2444 0
M  V30 5638 C 523.905 -2.34858 -3.57807 0
M  V30 5639 C 523.231 -2.03707 -4.94376 0
M  V30 5640 C 524.531 -3.77159 -3.61315 0
M  V30 5641 H 526.225 -2.345 -1.86145 0
M  V30 5642 H 523.771 -1.12875 -0.89416 0
M  V30 5643 H 525.724 -1.23263 -4.02969 0
M  V30 5644 H 524.448 -0.26051 -3.25559 0
M  V30 5645 H 523.107 -2.34723 -2.81604 0
M  V30 5646 H 522.755 -1.04289 -4.9207 0
M  V30 5647 H 522.455 -2.78016 -5.17669 0
M  V30 5648 H 523.979 -2.04691 -5.75268 0
M  V30 5649 H 525.393 -3.79252 -4.29931 0
M  V30 5650 H 523.79 -4.50784 -3.96124 0
M  V30 5651 H 524.86 -4.08513 -2.61238 0
M  V30 5652 N 526.204 0.969867 -1.24223 0
M  V30 5653 C 527.62 1.23809 -1.00716 0
M  V30 5654 C 527.82 1.99469 0.285358 0
M  V30 5655 O 526.876 2.31764 1.00207 0
M  V30 5656 C 528.189 2.02734 -2.2208 0
M  V30 5657 C 529.737 2.15834 -2.26681 0
M  V30 5658 C 530.212 2.98154 -3.47661 0
M  V30 5659 N 531.703 3.05737 -3.47964 0
M  V30 5660 C 532.438 3.69785 -4.38231 0
M  V30 5661 N 531.934 4.35569 -5.3875 0
M  V30 5662 N 533.727 3.66775 -4.25949 0
M  V30 5663 H 525.878 0.463294 -2.07286 0
M  V30 5664 H 528.141 0.267348 -0.909521 0
M  V30 5665 H 527.847 1.54524 -3.15935 0
M  V30 5666 H 527.721 3.0347 -2.24021 0
M  V30 5667 H 530.108 2.63248 -1.33359 0
M  V30 5668 H 530.189 1.14453 -2.28767 0
M  V30 5669 H 529.833 2.51435 -4.41297 0
M  V30 5670 H 529.763 3.99729 -3.42818 0
M  V30 5671 H 532.254 2.58941 -2.75242 0
M  V30 5672 H 532.567 4.82251 -6.03866 0
M  V30 5673 H 530.912 4.34244 -5.42639 0
M  V30 5674 H 534.103 3.14558 -3.46657 0
M  V30 5675 H 534.276 4.16407 -4.96497 0
M  V30 5676 N 527.682 1.05563 1.17022 0
M  V30 5677 C 528.93 0.76642 1.87004 0
M  V30 5678 C 529.251 -0.708854 1.8166 0
M  V30 5679 O 528.521 -1.51242 1.2451 0
M  V30 5680 H 527.101 0.280516 0.692329 0
M  V30 5681 H 529.763 1.33557 1.41945 0
M  V30 5682 H 528.859 1.08472 2.92644 0
M  V30 5683 N 529.16 -1.33526 0.837174 0
M  V30 5684 C 530.571 -1.80182 0.489017 0
M  V30 5685 C 530.922 -1.69285 -0.991826 0
M  V30 5686 O 530.047 -1.24113 -1.77271 0
M  V30 5687 C 530.642 -3.27149 0.880866 0
M  V30 5688 C 529.201 -3.71828 0.584872 0
M  V30 5689 C 528.348 -2.54974 1.09011 0
M  V30 5690 H 531.299 -1.21071 1.02603 0
M  V30 5691 H 531.32 -3.80024 0.190239 0
M  V30 5692 H 530.832 -3.35048 1.95869 0
M  V30 5693 H 528.933 -3.69457 -0.48295 0
M  V30 5694 H 529.046 -4.65366 1.13892 0
M  V30 5695 H 527.41 -2.4952 0.511047 0
M  V30 5696 H 528.193 -2.65637 2.17467 0
M  V30 5697 N 530.638 -0.59345 -1.46 0
M  V30 5698 C 531.571 0.182196 -2.27472 0
M  V30 5699 C 532.549 0.886901 -1.36282 0
M  V30 5700 O 533.733 0.898627 -1.65701 0
M  V30 5701 C 530.86 1.26236 -3.14296 0
M  V30 5702 C 529.906 0.662331 -4.21326 0
M  V30 5703 S 530.739 -0.519017 -5.32979 0
M  V30 5704 C 531.895 0.562086 -6.23371 0
M  V30 5705 H 532.128 -0.509056 -2.92909 0
M  V30 5706 H 529.661 -0.380607 -1.49635 0
M  V30 5707 H 531.619 1.88075 -3.64881 0
M  V30 5708 H 530.28 1.92562 -2.48151 0
M  V30 5709 H 529.473 1.47461 -4.81945 0
M  V30 5710 H 529.075 0.119381 -3.73809 0
M  V30 5711 H 531.367 1.44494 -6.61912 0
M  V30 5712 H 532.31 -0.00760776 -7.081 0
M  V30 5713 H 532.718 0.871061 -5.57739 0
M  V30 5714 N 532.116 1.54067 -0.331816 0
M  V30 5715 C 533.393 1.92915 0.322955 0
M  V30 5716 C 533.773 1.26225 1.69205 0
M  V30 5717 O 533.121 0.408919 2.24811 0
M  V30 5718 C 533.331 3.46619 0.406946 0
M  V30 5719 C 534.679 4.19386 0.663339 0
M  V30 5720 O 535.703 3.5282 0.489536 0
M  V30 5721 O 534.562 5.37288 0.999193 0
M  V30 5722 H 531.656 0.805808 0.186016 0
M  V30 5723 H 534.202 1.65342 -0.382135 0
M  V30 5724 H 532.974 3.87354 -0.554287 0
M  V30 5725 H 532.597 3.80324 1.15929 0
M  V30 5726 N 533.594 0.0601682 1.57485 0
M  V30 5727 C 534.822 -0.620937 1.97363 0
M  V30 5728 C 535.237 -1.63846 0.938082 0
M  V30 5729 O 534.594 -1.82339 -0.0766578 0
M  V30 5730 C 534.645 -1.29987 3.37321 0
M  V30 5731 O 534.366 -0.323081 4.36907 0
M  V30 5732 C 535.867 -2.06989 3.92008 0
M  V30 5733 H 533.087 -0.169135 0.649334 0
M  V30 5734 H 535.631 0.129132 2.04092 0
M  V30 5735 H 533.786 -2.0011 3.31715 0
M  V30 5736 H 534.2 -0.808754 5.18227 0
M  V30 5737 H 535.674 -2.49901 4.92192 0
M  V30 5738 H 536.151 -2.92173 3.2792 0
M  V30 5739 H 536.757 -1.41757 4.0098 0
M  V30 5740 N 535.072 -1.5615 -0.213296 0
M  V30 5741 C 536.297 -1.83986 -0.957282 0
M  V30 5742 C 536.722 -0.641526 -1.76822 0
M  V30 5743 O 536.08 0.409722 -1.7661 0
M  V30 5744 C 536.128 -3.09889 -1.84393 0
M  V30 5745 O 535.232 -2.89163 -2.94038 0
M  V30 5746 H 534.573 -0.606357 -0.270605 0
M  V30 5747 H 537.103 -2.03369 -0.224111 0
M  V30 5748 H 537.113 -3.40209 -2.25215 0
M  V30 5749 H 535.788 -3.96735 -1.24795 0
M  V30 5750 H 534.365 -2.70097 -2.57103 0
M  V30 5751 N 536.55 0.480323 -1.50102 0
M  V30 5752 C 537.498 1.60024 -1.68805 0
M  V30 5753 C 538.492 1.60089 -0.553888 0
M  V30 5754 O 539.698 1.64349 -0.734127 0
M  V30 5755 H 536.073 0.530841 -0.532646 0
M  V30 5756 H 538.044 1.41408 -2.62767 0
M  V30 5757 C 536.793 2.98029 -1.79092 0
M  V30 5758 H 536.116 2.98694 -2.65748 0
M  V30 5759 H 537.556 3.75871 -1.96206 0
M  V30 5760 C 536.015 3.32538 -0.540388 0
M  V30 5761 O 536.545 4.00386 0.324637 0
M  V30 5762 N 534.751 2.87873 -0.397154 0
M  V30 5763 H 534.298 2.32834 -1.1021 0
M  V30 5764 H 534.256 3.11328 0.438425 0
M  V30 5765 N 538.028 1.39524 0.732853 0
M  V30 5766 C 539.275 1.36865 1.49246 0
M  V30 5767 C 539.603 -0.0347118 1.94469 0
M  V30 5768 O 538.858 -1.01596 1.67262 0
M  V30 5769 C 539.157 2.28916 2.74468 0
M  V30 5770 C 538.823 3.76506 2.481 0
M  V30 5771 C 537.485 4.16721 2.40619 0
M  V30 5772 C 539.837 4.69846 2.25598 0
M  V30 5773 C 537.165 5.48334 2.08679 0
M  V30 5774 C 539.517 6.01739 1.95174 0
M  V30 5775 C 538.181 6.41015 1.86163 0
M  V30 5776 H 537.451 0.500824 0.546129 0
M  V30 5777 H 540.098 1.72047 0.840958 0
M  V30 5778 H 538.403 1.86859 3.4437 0
M  V30 5779 H 540.1 2.2415 3.32502 0
M  V30 5780 H 536.69 3.44635 2.54803 0
M  V30 5781 H 540.874 4.39608 2.30344 0
M  V30 5782 H 536.13 5.77685 2.00226 0
M  V30 5783 H 540.304 6.73591 1.76771 0
M  V30 5784 H 537.931 7.42917 1.61179 0
M  V30 5785 N 539.506 -0.963266 1.24736 0
M  V30 5786 C 540.783 -1.68248 0.9976 0
M  V30 5787 C 541.163 -2.05599 -0.478776 0
M  V30 5788 O 540.511 -1.7626 -1.45412 0
M  V30 5789 C 540.721 -2.91118 1.92487 0
M  V30 5790 C 542.069 -3.63261 2.19833 0
M  V30 5791 O 543.093 -3.01184 1.90176 0
M  V30 5792 O 541.952 -4.75019 2.7022 0
M  V30 5793 H 539.046 -0.735744 0.377637 0
M  V30 5794 H 541.592 -1.01696 1.35853 0
M  V30 5795 H 540.364 -2.60242 2.92215 0
M  V30 5796 H 539.987 -3.65402 1.56738 0
M  V30 5797 N 540.985 -1.06182 -1.16461 0
M  V30 5798 C 542.231 -0.779015 -1.87241 0
M  V30 5799 C 542.564 0.692715 -1.81425 0
M  V30 5800 O 541.839 1.5074 -1.22913 0
M  V30 5801 C 542.122 -1.2728 -3.36856 0
M  V30 5802 C 541.975 -2.80821 -3.51368 0
M  V30 5803 C 543.294 -0.879799 -4.31216 0
M  V30 5804 H 540.413 -0.284464 -0.679889 0
M  V30 5805 H 543.055 -1.31755 -1.36896 0
M  V30 5806 H 541.205 -0.814673 -3.79862 0
M  V30 5807 H 542.877 -3.34833 -3.17308 0
M  V30 5808 H 541.12 -3.19606 -2.93316 0
M  V30 5809 H 541.791 -3.10435 -4.56436 0
M  V30 5810 H 544.267 -1.27436 -3.96105 0
M  V30 5811 H 543.143 -1.25278 -5.34412 0
M  V30 5812 H 543.404 0.215372 -4.41575 0
M  V30 5813 N 542.463 1.3308 -0.844243 0
M  V30 5814 C 543.74 1.92178 -0.364261 0
M  V30 5815 C 544.12 1.76961 1.15101 0
M  V30 5816 O 543.468 1.16128 1.9679 0
M  V30 5817 C 543.678 3.393 -0.817106 0
M  V30 5818 C 545.026 4.16444 -0.828236 0
M  V30 5819 O 546.05 3.47975 -0.761062 0
M  V30 5820 O 544.909 5.38685 -0.920926 0
M  V30 5821 H 542.003 0.820411 -0.10419 0
M  V30 5822 H 544.549 1.41918 -0.930453 0
M  V30 5823 H 543.321 3.44272 -1.85991 0
M  V30 5824 H 542.944 3.96947 -0.227785 0
M  V30 5825 N 543.941 0.601185 1.45683 0
M  V30 5826 C 545.218 0.0261659 1.95582 0
M  V30 5827 C 545.598 -1.4399 1.5437 0
M  V30 5828 O 544.946 -2.13919 0.80318 0
M  V30 5829 C 545.156 0.217557 3.48321 0
M  V30 5830 C 546.504 0.0950076 4.24494 0
M  V30 5831 O 547.528 0.147345 3.55895 0
M  V30 5832 O 546.387 -0.025261 5.46494 0
M  V30 5833 H 543.481 -0.0393688 0.826062 0
M  V30 5834 H 546.027 0.670798 1.55879 0
M  V30 5835 H 544.799 1.23601 3.71266 0
M  V30 5836 H 544.422 -0.46264 3.94899 0
M  V30 5837 N 545.419 -1.53889 0.339982 0
M  V30 5838 C 546.696 -1.93084 -0.312719 0
M  V30 5839 C 547.076 -1.2712 -1.68534 0
M  V30 5840 O 546.424 -0.420835 -2.24591 0
M  V30 5841 C 546.634 -3.4683 -0.388558 0
M  V30 5842 C 547.982 -4.19732 -0.641088 0
M  V30 5843 O 549.006 -3.53075 -0.470818 0
M  V30 5844 O 547.865 -5.3781 -0.970685 0
M  V30 5845 H 544.959 -0.806784 -0.18174 0
M  V30 5846 H 547.505 -1.65137 0.390898 0
M  V30 5847 H 546.277 -3.87055 0.574821 0
M  V30 5848 H 545.9 -3.80933 -1.1391 0
M  V30 5849 N 546.897 -0.0685191 -1.57451 0
M  V30 5850 C 548.125 0.610462 -1.97689 0
M  V30 5851 C 548.54 1.63346 -0.946758 0
M  V30 5852 O 547.897 1.82377 0.0669868 0
M  V30 5853 C 547.948 1.28196 -3.38006 0
M  V30 5854 O 547.669 0.299906 -4.37072 0
M  V30 5855 C 549.17 2.04907 -3.931 0
M  V30 5856 H 546.39 0.165689 -0.650222 0
M  V30 5857 H 548.934 -0.139953 -2.04021 0
M  V30 5858 H 547.089 1.98348 -3.32771 0
M  V30 5859 H 547.503 0.78126 -5.18649 0
M  V30 5860 H 548.977 2.47287 -4.93511 0
M  V30 5861 H 549.454 2.9043 -3.29465 0
M  V30 5862 H 550.06 1.39629 -4.01726 0
M  V30 5863 N 548.375 1.56261 0.205012 0
M  V30 5864 C 549.305 1.96779 1.257 0
M  V30 5865 C 550.286 0.838309 1.48008 0
M  V30 5866 O 551.471 1.10189 1.59913 0
M  V30 5867 C 548.601 2.29876 2.60335 0
M  V30 5868 C 547.555 3.45469 2.52656 0
M  V30 5869 C 546.881 3.64215 3.91473 0
M  V30 5870 C 548.181 4.79954 2.06014 0
M  V30 5871 H 549.875 2.84904 0.920338 0
M  V30 5872 H 547.421 1.37072 0.441277 0
M  V30 5873 H 549.374 2.56814 3.34102 0
M  V30 5874 H 548.098 1.38622 2.95722 0
M  V30 5875 H 546.757 3.18605 1.81345 0
M  V30 5876 H 546.405 2.70309 4.24196 0
M  V30 5877 H 546.105 4.41973 3.87213 0
M  V30 5878 H 547.629 3.93519 4.66878 0
M  V30 5879 H 549.043 5.05989 2.69533 0
M  V30 5880 H 547.44 5.61111 2.12777 0
M  V30 5881 H 548.51 4.74201 1.01297 0
M  V30 5882 N 549.853 -0.472356 1.50355 0
M  V30 5883 C 550.801 -1.59126 1.69651 0
M  V30 5884 C 551.795 -1.59793 0.56237 0
M  V30 5885 O 553.001 -1.63957 0.742832 0
M  V30 5886 H 549.376 -0.528008 0.535454 0
M  V30 5887 H 551.347 -1.40013 2.63513 0
M  V30 5888 C 550.096 -2.97075 1.8067 0
M  V30 5889 H 549.419 -2.9728 2.67329 0
M  V30 5890 H 550.859 -3.74825 1.98197 0
M  V30 5891 C 549.318 -3.32247 0.558016 0
M  V30 5892 O 549.848 -4.00553 -0.303399 0
M  V30 5893 N 548.054 -2.87659 0.412415 0
M  V30 5894 H 547.601 -2.32246 1.11443 0
M  V30 5895 H 547.559 -3.11556 -0.421908 0
M  V30 5896 N 551.331 -1.39911 -0.725443 0
M  V30 5897 C 552.281 -1.35878 -1.83088 0
M  V30 5898 C 553.265 -0.237989 -1.5913 0
M  V30 5899 O 554.457 -0.476302 -1.70471 0
M  V30 5900 C 551.586 -1.21403 -3.21117 0
M  V30 5901 C 550.672 -2.38223 -3.50871 0
M  V30 5902 N 551.063 -3.63703 -3.51502 0
M  V30 5903 C 549.361 -2.31388 -3.81281 0
M  V30 5904 C 550.062 -4.4101 -3.79322 0
M  V30 5905 N 549.038 -3.7072 -3.97577 0
M  V30 5906 H 552.84 -2.3085 -1.81895 0
M  V30 5907 H 550.354 -1.33543 -0.924125 0
M  V30 5908 H 552.351 -1.16597 -4.00263 0
M  V30 5909 H 551.011 -0.273902 -3.23543 0
M  V30 5910 H 552.022 -3.96998 -3.32586 0
M  V30 5911 H 548.699 -1.45689 -3.91256 0
M  V30 5912 H 550.089 -5.49819 -3.86198 0
M  V30 5913 N 552.809 0.956637 -1.25245 0
M  V30 5914 C 554.22 1.51569 -1.09012 0
M  V30 5915 C 554.571 1.93322 0.334813 0
M  V30 5916 O 553.696 1.78421 1.22454 0
M  V30 5917 C 554.291 2.75444 -1.97271 0
M  V30 5918 C 552.85 3.27669 -1.8523 0
M  V30 5919 C 551.997 2.00517 -1.91542 0
M  V30 5920 H 554.948 0.773746 -1.3856 0
M  V30 5921 H 554.969 3.4919 -1.51151 0
M  V30 5922 H 554.481 2.45024 -3.00973 0
M  V30 5923 H 552.582 3.62914 -0.844045 0
M  V30 5924 H 552.695 3.9582 -2.69932 0
M  V30 5925 H 551.059 2.15727 -1.35404 0
M  V30 5926 H 551.842 1.72448 -2.96844 0
M  V30 5927 N 554.287 1.06798 1.15896 0
M  V30 5928 C 555.535 0.786211 1.8618 0
M  V30 5929 C 555.856 -0.689547 1.82401 0
M  V30 5930 O 555.126 -1.49913 1.26107 0
M  V30 5931 H 553.706 0.287843 0.689315 0
M  V30 5932 H 556.368 1.35055 1.40521 0
M  V30 5933 H 555.464 1.1157 2.91477 0
M  V30 5934 N 555.766 -1.3263 0.851289 0
M  V30 5935 C 556.994 -2.01563 0.466899 0
M  V30 5936 C 557.409 -1.63996 -0.935447 0
M  V30 5937 O 556.766 -0.85957 -1.6099 0
M  V30 5938 C 556.817 -3.56613 0.592433 0
M  V30 5939 O 556.538 -3.92828 1.93954 0
M  V30 5940 C 558.039 -4.42818 0.206612 0
M  V30 5941 H 555.259 -0.645307 0.183902 0
M  V30 5942 H 557.803 -1.69285 1.1473 0
M  V30 5943 H 555.958 -3.87379 -0.0401936 0
M  V30 5944 H 556.372 -4.87545 1.9339 0
M  V30 5945 H 557.846 -5.50918 0.345462 0
M  V30 5946 H 558.323 -4.30844 -0.85264 0
M  V30 5947 H 558.929 -4.17434 0.814176 0
M  V30 5948 N 557.244 -0.608902 -1.45362 0
M  V30 5949 C 558.174 0.0964526 -2.33301 0
M  V30 5950 C 559.155 0.857444 -1.46908 0
M  V30 5951 O 560.34 0.827735 -1.75676 0
M  V30 5952 C 557.47 1.09354 -3.29635 0
M  V30 5953 C 556.424 0.445676 -4.25673 0
M  V30 5954 C 555.75 1.5511 -5.11708 0
M  V30 5955 C 557.05 -0.633972 -5.18438 0
M  V30 5956 H 558.744 -0.637829 -2.92527 0
M  V30 5957 H 556.29 -0.308178 -1.40664 0
M  V30 5958 H 558.243 1.59556 -3.90025 0
M  V30 5959 H 556.967 1.85843 -2.6857 0
M  V30 5960 H 555.626 -0.0354897 -3.66583 0
M  V30 5961 H 555.274 2.30631 -4.4701 0
M  V30 5962 H 554.974 1.12311 -5.76767 0
M  V30 5963 H 556.498 2.05537 -5.74967 0
M  V30 5964 H 557.912 -0.215974 -5.72893 0
M  V30 5965 H 556.309 -0.983789 -5.91981 0
M  V30 5966 H 557.379 -1.51005 -4.60788 0
M  V30 5967 N 558.722 1.53707 -0.348139 0
M  V30 5968 C 560.133 1.86213 0.134797 0
M  V30 5969 C 560.484 1.26925 1.49614 0
M  V30 5970 O 559.609 0.584573 2.08355 0
M  V30 5971 C 560.204 3.37866 0.251371 0
M  V30 5972 C 558.763 3.70233 0.678543 0
M  V30 5973 C 557.91 2.76683 -0.184925 0
M  V30 5974 H 560.861 1.48204 -0.567571 0
M  V30 5975 H 560.882 3.64908 1.07806 0
M  V30 5976 H 560.394 3.80988 -0.739581 0
M  V30 5977 H 558.495 3.32659 1.67835 0
M  V30 5978 H 558.608 4.76836 0.465251 0
M  V30 5979 H 556.972 2.52374 0.343465 0
M  V30 5980 H 557.755 3.22635 -1.1731 0
M  V30 5981 N 560.2 0.0768682 1.57412 0
M  V30 5982 C 561.611 -0.455037 1.8107 0
M  V30 5983 C 561.962 -1.69323 0.991162 0
M  V30 5984 O 561.087 -2.15328 0.215156 0
M  V30 5985 C 561.682 -0.832316 3.28417 0
M  V30 5986 C 560.241 -1.30906 3.52903 0
M  V30 5987 C 559.388 -0.296714 2.75708 0
M  V30 5988 H 562.339 0.302514 1.5579 0
M  V30 5989 H 562.36 -1.69333 3.40744 0
M  V30 5990 H 561.872 0.0690532 3.88039 0
M  V30 5991 H 559.973 -2.22875 2.98592 0
M  V30 5992 H 560.086 -1.28348 4.61588 0
M  V30 5993 H 558.45 -0.775059 2.42621 0
M  V30 5994 H 559.233 0.597015 3.38069 0
M  V30 5995 N 561.678 -1.56367 -0.196722 0
M  V30 5996 C 563.089 -1.70462 -0.761545 0
M  V30 5997 C 563.44 -0.683161 -1.83922 0
M  V30 5998 O 562.565 0.160753 -2.15802 0
M  V30 5999 C 563.16 -3.09057 -1.38814 0
M  V30 6000 C 561.719 -3.24922 -1.90007 0
M  V30 6001 C 560.866 -2.66412 -0.769399 0
M  V30 6002 H 563.817 -1.58675 0.0283263 0
M  V30 6003 H 563.838 -3.06296 -2.2575 0
M  V30 6004 H 563.35 -3.83378 -0.603559 0
M  V30 6005 H 561.451 -2.55514 -2.71189 0
M  V30 6006 H 561.564 -4.3241 -2.06297 0
M  V30 6007 H 559.928 -2.25546 -1.18326 0
M  V30 6008 H 560.711 -3.433 0.00291773 0
M  V30 6009 N 563.156 0.464375 -1.50603 0
M  V30 6010 C 564.381 1.24372 -1.65971 0
M  V30 6011 C 564.806 1.84901 -0.345453 0
M  V30 6012 O 564.164 1.67596 0.691457 0
M  V30 6013 C 564.212 2.32331 -2.7578 0
M  V30 6014 O 563.316 3.37146 -2.375 0
M  V30 6015 H 562.657 0.365604 -0.554283 0
M  V30 6016 H 565.187 0.55183 -1.97018 0
M  V30 6017 H 565.197 2.77539 -2.99059 0
M  V30 6018 H 563.872 1.87648 -3.71162 0
M  V30 6019 H 562.449 2.97602 -2.24694 0
M  V30 6020 N 564.634 1.40294 0.718013 0
M  V30 6021 C 565.584 1.36847 1.82365 0
M  V30 6022 C 566.568 0.246424 1.59002 0
M  V30 6023 O 567.76 0.485336 1.70216 0
M  V30 6024 C 564.889 1.23105 3.20469 0
M  V30 6025 C 563.975 2.4008 3.49603 0
M  V30 6026 N 564.366 3.65562 3.49568 0
M  V30 6027 C 562.664 2.33407 3.80049 0
M  V30 6028 C 563.365 4.43015 3.76978 0
M  V30 6029 N 562.341 3.72823 3.95606 0
M  V30 6030 H 566.143 2.31811 1.80668 0
M  V30 6031 H 563.657 1.34031 0.91703 0
M  V30 6032 H 565.654 1.18718 3.9964 0
M  V30 6033 H 564.314 0.291056 3.23393 0
M  V30 6034 H 565.325 3.98756 3.30476 0
M  V30 6035 H 562.002 1.47762 3.90478 0
M  V30 6036 H 563.392 5.51859 3.83276 0
M  V30 6037 N 566.112 -0.949982 1.2575 0
M  V30 6038 C 567.36 -1.6918 1.10555 0
M  V30 6039 C 567.681 -1.91773 -0.353298 0
M  V30 6040 O 566.951 -1.50814 -1.25027 0
M  V30 6041 H 565.531 -0.626952 0.406129 0
M  V30 6042 H 568.193 -1.1419 1.57945 0
M  V30 6043 H 567.289 -2.66915 1.61749 0
M  V30 6044 N 567.59 -1.07411 -1.15328 0
M  V30 6045 C 568.553 -0.698914 -2.18284 0
M  V30 6046 C 569.553 0.261149 -1.58665 0
M  V30 6047 O 570.743 0.0420277 -1.74149 0
M  V30 6048 C 567.875 -0.0302427 -3.40887 0
M  V30 6049 H 569.068 -1.61045 -2.52991 0
M  V30 6050 H 566.621 -0.870724 -1.298 0
M  V30 6051 H 567.356 0.893505 -3.11748 0
M  V30 6052 H 567.141 -0.720759 -3.85419 0
M  V30 6053 H 568.631 0.21759 -4.17033 0
M  V30 6054 N 569.068 1.32177 -0.85831 0
M  V30 6055 C 570.315 1.97125 -0.463484 0
M  V30 6056 C 570.643 1.67907 0.981705 0
M  V30 6057 O 569.898 0.961717 1.70439 0
M  V30 6058 C 570.197 3.51372 -0.653658 0
M  V30 6059 C 569.863 4.00584 -2.06987 0
M  V30 6060 C 568.525 4.13733 -2.4572 0
M  V30 6061 C 570.877 4.26624 -2.99402 0
M  V30 6062 C 568.205 4.50268 -3.76132 0
M  V30 6063 C 570.557 4.64618 -4.29316 0
M  V30 6064 C 569.221 4.75975 -4.67979 0
M  V30 6065 H 568.491 0.72133 -0.169601 0
M  V30 6066 H 571.138 1.57517 -1.08907 0
M  V30 6067 H 569.443 3.91761 0.0551328 0
M  V30 6068 H 571.14 3.99655 -0.328163 0
M  V30 6069 H 567.73 3.90837 -1.75911 0
M  V30 6070 H 571.914 4.1597 -2.70708 0
M  V30 6071 H 567.17 4.57256 -4.05865 0
M  V30 6072 H 571.344 4.83722 -5.00985 0
M  V30 6073 H 568.971 5.04041 -5.69076 0
M  V30 6074 N 570.547 0.616602 1.45037 0
M  V30 6075 C 571.772 0.120192 2.07051 0
M  V30 6076 C 572.197 -1.19008 1.45666 0
M  V30 6077 O 571.555 -1.7267 0.552692 0
M  V30 6078 C 571.603 0.00354901 3.606 0
M  V30 6079 O 570.707 -1.04431 3.98958 0
M  V30 6080 H 570.048 0.0781599 0.659384 0
M  V30 6081 H 572.578 0.849167 1.86146 0
M  V30 6082 H 572.588 -0.191754 4.07549 0
M  V30 6083 H 571.263 0.960239 4.04663 0
M  V30 6084 H 569.84 -0.824749 3.63665 0
M  V30 6085 N 572.025 -1.5352 0.356285 0
M  V30 6086 C 573.273 -2.00719 -0.235837 0
M  V30 6087 C 573.594 -1.24551 -1.5004 0
M  V30 6088 O 572.864 -0.356185 -1.92635 0
M  V30 6089 H 571.444 -0.741542 -0.0901366 0
M  V30 6090 H 574.106 -1.88887 0.480378 0
M  V30 6091 H 573.202 -3.08551 -0.469357 0
M  V30 6092 N 573.503 -0.0852151 -1.57369 0
M  V30 6093 C 574.453 0.88767 -2.10011 0
M  V30 6094 C 575.437 1.25021 -1.01285 0
M  V30 6095 O 576.629 1.22694 -1.27574 0
M  V30 6096 C 573.758 2.15037 -2.67608 0
M  V30 6097 C 572.844 1.81371 -3.83361 0
M  V30 6098 N 573.235 1.18216 -4.91791 0
M  V30 6099 C 571.533 2.11041 -3.92909 0
M  V30 6100 C 572.234 1.02941 -5.72519 0
M  V30 6101 N 571.21 1.54351 -5.21226 0
M  V30 6102 H 575.012 0.395279 -2.9123 0
M  V30 6103 H 572.526 0.11829 -1.61969 0
M  V30 6104 H 574.523 2.85667 -3.03644 0
M  V30 6105 H 573.183 2.64851 -1.8784 0
M  V30 6106 H 574.194 0.850168 -5.10874 0
M  V30 6107 H 570.871 2.63138 -3.24136 0
M  V30 6108 H 572.261 0.536298 -6.69756 0
M  V30 6109 N 574.981 1.5647 0.188427 0
M  V30 6110 C 575.931 1.91479 1.23774 0
M  V30 6111 C 576.915 0.78119 1.40664 0
M  V30 6112 O 578.107 1.04414 1.42922 0
M  V30 6113 C 575.236 2.26354 2.58106 0
M  V30 6114 C 574.322 3.46186 2.44981 0
M  V30 6115 N 574.713 4.63911 2.01546 0
M  V30 6116 C 573.011 3.50456 2.75856 0
M  V30 6117 C 573.712 5.46064 2.00472 0
M  V30 6118 N 572.688 4.86648 2.42229 0
M  V30 6119 H 576.49 2.79994 0.893339 0
M  V30 6120 H 574.004 1.57477 0.39682 0
M  V30 6121 H 576.001 2.49622 3.33908 0
M  V30 6122 H 574.661 1.39168 2.93364 0
M  V30 6123 H 575.672 4.88451 1.7215 0
M  V30 6124 H 572.349 2.73704 3.15265 0
M  V30 6125 H 573.739 6.50368 1.68734 0
M  V30 6126 N 576.459 -0.456382 1.50847 0
M  V30 6127 C 577.389 -1.56025 1.73719 0
M  V30 6128 C 578.37 -1.5967 0.586473 0
M  V30 6129 O 579.555 -1.75702 0.827185 0
M  V30 6130 C 576.685 -2.94251 1.84483 0
M  V30 6131 C 575.639 -3.05471 2.99786 0
M  V30 6132 C 574.965 -4.45489 2.95709 0
M  V30 6133 C 576.265 -2.81318 4.40065 0
M  V30 6134 H 577.959 -1.37138 2.66146 0
M  V30 6135 H 575.505 -0.658299 1.28072 0
M  V30 6136 H 577.458 -3.71417 1.99067 0
M  V30 6137 H 576.182 -3.14328 0.886891 0
M  V30 6138 H 574.841 -2.30741 2.84876 0
M  V30 6139 H 574.489 -4.62505 1.97732 0
M  V30 6140 H 574.189 -4.53929 3.73125 0
M  V30 6141 H 575.713 -5.24655 3.12362 0
M  V30 6142 H 577.127 -3.48226 4.55425 0
M  V30 6143 H 575.524 -3.01188 5.19043 0
M  V30 6144 H 576.594 -1.7706 4.51418 0
M  V30 6145 N 577.937 -1.40673 -0.710563 0
M  V30 6146 C 579.348 -1.34975 -1.28991 0
M  V30 6147 C 579.699 -0.0256272 -1.96183 0
M  V30 6148 O 578.824 0.876339 -1.97862 0
M  V30 6149 C 579.419 -2.44467 -2.34567 0
M  V30 6150 C 577.978 -2.42213 -2.88114 0
M  V30 6151 C 577.125 -2.25085 -1.61963 0
M  V30 6152 H 580.076 -1.50406 -0.506343 0
M  V30 6153 H 580.097 -2.12663 -3.15523 0
M  V30 6154 H 579.609 -3.40825 -1.85634 0
M  V30 6155 H 577.71 -1.49568 -3.41263 0
M  V30 6156 H 577.823 -3.37983 -3.39565 0
M  V30 6157 H 576.187 -1.72691 -1.87216 0
M  V30 6158 H 576.97 -3.23449 -1.15047 0
M  V30 6159 N 579.415 0.9433 -1.26252 0
M  V30 6160 C 580.662 1.68925 -1.11672 0
M  V30 6161 C 580.99 1.91499 0.340329 0
M  V30 6162 O 580.245 1.49189 1.26653 0
M  V30 6163 C 580.544 3.07073 -1.82868 0
M  V30 6164 C 580.21 3.04262 -3.32769 0
M  V30 6165 C 578.872 3.03203 -3.7366 0
M  V30 6166 C 581.224 2.96729 -4.28487 0
M  V30 6167 C 578.552 2.92373 -5.0866 0
M  V30 6168 C 580.904 2.87442 -5.63525 0
M  V30 6169 C 579.568 2.84724 -6.03729 0
M  V30 6170 H 578.838 0.618141 -0.408635 0
M  V30 6171 H 581.485 1.10124 -1.56668 0
M  V30 6172 H 579.79 3.69486 -1.30335 0
M  V30 6173 H 581.487 3.63635 -1.69029 0
M  V30 6174 H 578.077 3.05865 -3.00241 0
M  V30 6175 H 582.261 2.96658 -3.97879 0
M  V30 6176 H 577.517 2.88645 -5.38975 0
M  V30 6177 H 581.691 2.80576 -6.37377 0
M  V30 6178 H 579.318 2.76089 -7.08293 0
M  V30 6179 N 580.893 1.08022 1.14757 0
M  V30 6180 C 582.139 0.808705 1.85978 0
M  V30 6181 C 582.472 -0.663764 1.82504 0
M  V30 6182 O 581.747 -1.48765 1.25296 0
M  V30 6183 C 582.03 1.32623 3.34788 0
M  V30 6184 C 581.883 2.86375 3.46856 0
M  V30 6185 C 583.202 0.948291 4.29762 0
M  V30 6186 H 580.321 0.295244 0.675278 0
M  V30 6187 H 582.963 1.33917 1.34783 0
M  V30 6188 H 581.113 0.875002 3.78518 0
M  V30 6189 H 582.785 3.39839 3.11941 0
M  V30 6190 H 581.028 3.24232 2.88194 0
M  V30 6191 H 581.699 3.17658 4.51439 0
M  V30 6192 H 584.175 1.33722 3.94028 0
M  V30 6193 H 583.051 1.33765 5.32352 0
M  V30 6194 H 583.312 -0.145094 4.41862 0
M  V30 6195 N 582.371 -1.3172 0.865308 0
M  V30 6196 C 583.619 -1.96487 0.472995 0
M  V30 6197 C 583.94 -1.68761 -0.976975 0
M  V30 6198 O 583.21 -1.00051 -1.68424 0
M  V30 6199 H 581.79 -0.726947 0.171922 0
M  V30 6200 H 584.452 -1.60612 1.10407 0
M  V30 6201 H 583.548 -3.0574 0.62687 0
M  V30 6202 N 583.85 -0.624285 -1.44708 0
M  V30 6203 C 585.096 -0.126051 -2.02107 0
M  V30 6204 C 585.425 1.2496 -1.49048 0
M  V30 6205 O 584.68 1.84163 -0.662005 0
M  V30 6206 C 584.979 -0.0546353 -3.57358 0
M  V30 6207 C 584.644 -1.36815 -4.29642 0
M  V30 6208 C 583.307 -1.72792 -4.49106 0
M  V30 6209 C 585.659 -2.23549 -4.70824 0
M  V30 6210 C 582.986 -2.95222 -5.07012 0
M  V30 6211 C 585.339 -3.45243 -5.30085 0
M  V30 6212 C 584.003 -3.81452 -5.47769 0
M  V30 6213 H 583.273 -0.0461252 -0.739563 0
M  V30 6214 H 585.92 -0.809236 -1.73562 0
M  V30 6215 H 584.225 0.711891 -3.85278 0
M  V30 6216 H 585.922 0.347282 -3.99493 0
M  V30 6217 H 582.512 -1.07817 -4.14817 0
M  V30 6218 H 586.696 -1.9705 -4.55505 0
M  V30 6219 H 581.952 -3.23361 -5.18891 0
M  V30 6220 H 586.125 -4.12689 -5.60946 0
M  V30 6221 H 583.753 -4.76403 -5.92405 0
M  V30 6222 N 585.328 1.53329 -0.364422 0
M  V30 6223 C 586.556 2.05657 0.226424 0
M  V30 6224 C 586.971 1.23801 1.42544 0
M  V30 6225 O 586.328 0.27839 1.80364 0
M  V30 6226 C 586.379 3.56125 0.621056 0
M  V30 6227 O 586.1 4.34879 -0.530304 0
M  V30 6228 C 587.601 4.24706 1.27041 0
M  V30 6229 H 584.821 0.669806 0.0400056 0
M  V30 6230 H 587.365 1.97714 -0.522456 0
M  V30 6231 H 585.52 3.64223 1.31985 0
M  V30 6232 H 585.934 5.24073 -0.211546 0
M  V30 6233 H 587.408 5.3131 1.49711 0
M  V30 6234 H 587.885 3.78354 2.23036 0
M  V30 6235 H 588.491 4.20858 0.613079 0
M  V30 6236 N 586.806 0.0935595 1.57322 0
M  V30 6237 C 588.036 -0.578095 1.98347 0
M  V30 6238 C 588.444 -1.62357 0.971441 0
M  V30 6239 O 587.787 -1.83639 -0.0473959 0
M  V30 6240 C 587.849 -1.28525 3.3574 0
M  V30 6241 C 587.513 -0.390714 4.55327 0
M  V30 6242 C 588.51 0.360522 5.18648 0
M  V30 6243 C 586.195 -0.309221 5.01347 0
M  V30 6244 C 588.189 1.18125 6.26359 0
M  V30 6245 C 585.876 0.515157 6.08925 0
M  V30 6246 C 586.874 1.25904 6.71295 0
M  V30 6247 O 586.562 2.06978 7.76798 0
M  V30 6248 H 586.294 -0.159767 0.656849 0
M  V30 6249 H 588.848 0.169058 2.04703 0
M  V30 6250 H 587.078 -2.07894 3.26063 0
M  V30 6251 H 588.767 -1.85128 3.61223 0
M  V30 6252 H 589.533 0.307285 4.84026 0
M  V30 6253 H 585.412 -0.877881 4.52564 0
M  V30 6254 H 588.956 1.76236 6.74971 0
M  V30 6255 H 584.853 0.56988 6.42979 0
M  V30 6256 H 585.621 1.99644 7.93779 0
M  V30 6257 N 588.284 -1.56567 -0.180126 0
M  V30 6258 C 589.512 -1.85618 -0.913972 0
M  V30 6259 C 589.927 -0.677892 -1.7621 0
M  V30 6260 O 589.284 0.353171 -1.7905 0
M  V30 6261 C 589.335 -3.13619 -1.79793 0
M  V30 6262 O 589.056 -4.26906 -0.98402 0
M  V30 6263 C 590.557 -3.55954 -2.64219 0
M  V30 6264 H 587.777 -0.616043 -0.265954 0
M  V30 6265 H 590.321 -2.03681 -0.182872 0
M  V30 6266 H 588.476 -2.97409 -2.48247 0
M  V30 6267 H 588.89 -4.9989 -1.58776 0
M  V30 6268 H 590.364 -4.48444 -3.21873 0
M  V30 6269 H 590.841 -2.79653 -3.38661 0
M  V30 6270 H 591.447 -3.74746 -2.01111 0
M  V30 6271 N 589.762 0.448376 -1.51087 0
M  V30 6272 C 590.987 1.22605 -1.6728 0
M  V30 6273 C 591.412 1.84524 -0.365045 0
M  V30 6274 O 590.77 1.6832 0.673642 0
M  V30 6275 C 590.818 2.29393 -2.78229 0
M  V30 6276 O 589.922 3.34608 -2.41063 0
M  V30 6277 H 589.263 0.359705 -0.558129 0
M  V30 6278 H 591.793 0.530903 -1.97592 0
M  V30 6279 H 591.803 2.74352 -3.01986 0
M  V30 6280 H 590.478 1.83701 -3.73131 0
M  V30 6281 H 589.055 2.95202 -2.27838 0
M  V30 6282 N 591.24 1.41047 0.703093 0
M  V30 6283 C 592.488 1.39723 1.4602 0
M  V30 6284 C 592.809 0.00461257 1.94999 0
M  V30 6285 O 592.079 -0.952292 1.71196 0
M  V30 6286 H 590.659 0.514281 0.541779 0
M  V30 6287 H 593.321 1.76217 0.832678 0
M  V30 6288 H 592.417 2.07982 2.32701 0
M  V30 6289 N 592.718 -0.936591 1.26751 0
M  V30 6290 C 593.943 -1.72288 1.15462 0
M  V30 6291 C 594.368 -1.85915 -0.285887 0
M  V30 6292 O 593.726 -1.35272 -1.20711 0
M  V30 6293 C 593.774 -3.10503 1.83359 0
M  V30 6294 O 592.878 -3.96745 1.1255 0
M  V30 6295 H 592.219 -0.52843 0.402067 0
M  V30 6296 H 594.749 -1.17271 1.67656 0
M  V30 6297 H 594.759 -3.60867 1.90365 0
M  V30 6298 H 593.434 -2.99901 2.88153 0
M  V30 6299 H 592.011 -3.55191 1.13551 0
M  V30 6300 N 594.196 -1.08629 -1.14182 0
M  V30 6301 C 595.146 -0.687882 -2.17376 0
M  V30 6302 C 596.13 0.293632 -1.58198 0
M  V30 6303 O 597.322 0.105292 -1.76687 0
M  V30 6304 C 594.451 -0.101184 -3.43151 0
M  V30 6305 C 593.537 -1.10862 -4.09354 0
M  V30 6306 N 593.928 -2.29285 -4.50846 0
M  V30 6307 C 592.226 -0.944897 -4.35876 0
M  V30 6308 C 592.927 -2.93305 -5.02342 0
M  V30 6309 N 591.903 -2.20903 -4.96692 0
M  V30 6310 H 595.705 -1.58963 -2.472 0
M  V30 6311 H 593.219 -0.961329 -1.3089 0
M  V30 6312 H 595.216 0.202209 -4.16409 0
M  V30 6313 H 593.876 0.795522 -3.14804 0
M  V30 6314 H 594.887 -2.66927 -4.43813 0
M  V30 6315 H 591.564 -0.102186 -4.17375 0
M  V30 6316 H 592.954 -3.93932 -5.44304 0
M  V30 6317 N 595.674 1.31259 -0.872281 0
M  V30 6318 C 596.899 2.0133 -0.498099 0
M  V30 6319 C 597.324 1.65031 0.902568 0
M  V30 6320 O 596.682 0.860164 1.59596 0
M  V30 6321 C 596.73 3.54411 -0.665205 0
M  V30 6322 O 595.834 4.11347 0.294473 0
M  V30 6323 H 595.175 0.633844 -0.197832 0
M  V30 6324 H 597.705 1.67402 -1.17633 0
M  V30 6325 H 597.715 4.04147 -0.559373 0
M  V30 6326 H 596.39 3.80171 -1.68651 0
M  V30 6327 H 594.967 3.72624 0.143403 0
M  V30 6328 N 597.152 0.631951 1.44375 0
M  V30 6329 C 598.563 0.219036 1.85411 0
M  V30 6330 C 598.914 -1.22974 1.52879 0
M  V30 6331 O 598.039 -1.93579 0.967266 0
M  V30 6332 C 598.634 0.39075 3.36539 0
M  V30 6333 C 597.193 0.0323351 3.76386 0
M  V30 6334 C 596.34 0.703744 2.68221 0
M  V30 6335 H 599.291 0.837056 1.3483 0
M  V30 6336 H 599.312 -0.370056 3.78696 0
M  V30 6337 H 598.824 1.44527 3.60185 0
M  V30 6338 H 596.925 -1.02042 3.58355 0
M  V30 6339 H 597.038 0.442969 4.77048 0
M  V30 6340 H 595.402 0.138974 2.54321 0
M  V30 6341 H 596.185 1.76088 2.947 0
M  V30 6342 N 598.631 -1.53133 0.372548 0
M  V30 6343 C 599.541 -2.29671 -0.478379 0
M  V30 6344 C 600.557 -1.35913 -1.08644 0
M  V30 6345 O 601.733 -1.68975 -1.09588 0
M  V30 6346 C 598.798 -3.07625 -1.599 0
M  V30 6347 C 597.859 -4.17061 -1.01776 0
M  V30 6348 C 597.092 -4.91289 -2.08497 0
M  V30 6349 O 597.315 -4.65442 -3.29727 0
M  V30 6350 O 596.249 -5.7705 -1.71164 0
M  V30 6351 H 600.075 -3.03355 0.144649 0
M  V30 6352 H 597.66 -1.48773 0.136729 0
M  V30 6353 H 599.542 -3.56281 -2.25038 0
M  V30 6354 H 598.217 -2.3677 -2.2073 0
M  V30 6355 H 597.124 -3.72641 -0.330098 0
M  V30 6356 H 598.457 -4.90102 -0.453915 0
M  V30 6357 N 600.109 -0.101901 -1.5727 0
M  V30 6358 C 601.334 0.571759 -1.99363 0
M  V30 6359 C 601.759 1.60507 -0.980768 0
M  V30 6360 O 601.117 1.81231 0.0498517 0
M  V30 6361 C 601.165 1.18996 -3.404 0
M  V30 6362 O 600.269 2.30572 -3.41922 0
M  V30 6363 H 599.61 0.144449 -0.648098 0
M  V30 6364 H 602.14 -0.185325 -2.03759 0
M  V30 6365 H 602.15 1.52962 -3.78241 0
M  V30 6366 H 600.825 0.432984 -4.1364 0
M  V30 6367 H 599.402 1.98173 -3.15883 0
M  V30 6368 N 601.587 1.56661 0.17182 0
M  V30 6369 C 602.812 1.86459 0.908165 0
M  V30 6370 C 603.237 0.688181 1.75059 0
M  V30 6371 O 602.595 -0.362753 1.77634 0
M  V30 6372 C 602.643 3.14669 1.76112 0
M  V30 6373 O 601.747 2.96858 2.86268 0
M  V30 6374 H 601.088 0.613318 0.254434 0
M  V30 6375 H 603.618 2.03892 0.170113 0
M  V30 6376 H 603.628 3.46061 2.16115 0
M  V30 6377 H 602.303 3.99905 1.14233 0
M  V30 6378 H 600.88 2.76819 2.49852 0
M  V30 6379 N 603.065 -0.440357 1.51323 0
M  V30 6380 C 604.29 -1.21716 1.67928 0
M  V30 6381 C 604.715 -1.84328 0.374826 0
M  V30 6382 O 604.073 -1.68675 -0.664706 0
M  V30 6383 C 604.121 -2.27914 2.79442 0
M  V30 6384 O 603.225 -3.33325 2.42834 0
M  V30 6385 H 602.566 -0.35674 0.560029 0
M  V30 6386 H 605.096 -0.520417 1.97871 0
M  V30 6387 H 605.106 -2.72746 3.03436 0
M  V30 6388 H 603.781 -1.8172 3.741 0
M  V30 6389 H 602.358 -2.9399 2.294 0
M  V30 6390 N 604.543 -1.41418 -0.695603 0
M  V30 6391 C 605.453 -1.45622 -1.83933 0
M  V30 6392 C 606.469 -0.346825 -1.70508 0
M  V30 6393 O 607.645 -0.59454 -1.92424 0
M  V30 6394 C 604.71 -1.33627 -3.19914 0
M  V30 6395 C 603.771 -2.54882 -3.45447 0
M  V30 6396 C 603.004 -2.43449 -4.7494 0
M  V30 6397 O 603.227 -1.45905 -5.51424 0
M  V30 6398 O 602.161 -3.33206 -5.01256 0
M  V30 6399 H 605.987 -2.42114 -1.83342 0
M  V30 6400 H 603.572 -1.22956 -0.848658 0
M  V30 6401 H 605.454 -1.29221 -4.01098 0
M  V30 6402 H 604.129 -0.402508 -3.21188 0
M  V30 6403 H 603.036 -2.64865 -2.64192 0
M  V30 6404 H 604.369 -3.47087 -3.48987 0
M  V30 6405 N 606.021 0.929856 -1.27246 0
M  V30 6406 C 606.984 2.01172 -1.09829 0
M  V30 6407 C 607.984 1.60743 -0.0429687 0
M  V30 6408 O 609.174 1.71813 -0.287373 0
M  V30 6409 C 606.306 3.34191 -0.673003 0
M  V30 6410 H 607.499 2.18054 -2.05895 0
M  V30 6411 H 605.052 1.11036 -1.10003 0
M  V30 6412 H 605.787 3.23009 0.289134 0
M  V30 6413 H 605.572 3.64892 -1.43515 0
M  V30 6414 H 607.062 4.13646 -0.573323 0
M  V30 6415 N 607.499 1.09233 1.13605 0
M  V30 6416 C 608.745 0.838255 1.85324 0
M  V30 6417 C 609.1 -0.629314 1.81817 0
M  V30 6418 O 608.393 -1.45729 1.24393 0
M  V30 6419 C 608.587 1.305 3.32723 0
M  V30 6420 C 608.416 2.81641 3.50583 0
M  V30 6421 C 607.186 3.49494 3.64941 0
M  V30 6422 C 609.384 3.79789 3.46792 0
M  V30 6423 N 607.366 4.89082 3.71042 0
M  V30 6424 C 608.737 5.05319 3.59239 0
M  V30 6425 C 610.792 3.72673 3.30181 0
M  V30 6426 C 609.495 6.24574 3.56791 0
M  V30 6427 C 611.521 4.91413 3.29039 0
M  V30 6428 C 610.883 6.15785 3.42035 0
M  V30 6429 H 606.982 0.359572 0.69443 0
M  V30 6430 H 609.566 1.39232 1.36098 0
M  V30 6431 H 607.737 0.778411 3.8052 0
M  V30 6432 H 609.469 0.996465 3.92241 0
M  V30 6433 H 606.224 2.9992 3.66531 0
M  V30 6434 H 606.648 5.61787 3.77789 0
M  V30 6435 H 611.29 2.77444 3.19037 0
M  V30 6436 H 609.008 7.20105 3.66708 0
M  V30 6437 H 612.594 4.87604 3.17386 0
M  V30 6438 H 611.474 7.06126 3.41111 0
M  V30 6439 N 608.977 -1.30795 0.87923 0
M  V30 6440 C 609.94 -2.26563 0.346676 0
M  V30 6441 C 610.94 -1.52578 -0.507597 0
M  V30 6442 O 612.13 -1.71318 -0.315575 0
M  V30 6443 C 609.262 -3.37115 -0.506611 0
M  V30 6444 H 610.455 -2.75183 1.19223 0
M  V30 6445 H 608.008 -1.41886 0.655598 0
M  V30 6446 H 608.743 -2.93802 -1.37299 0
M  V30 6447 H 608.528 -3.91959 0.105218 0
M  V30 6448 H 610.018 -4.08412 -0.871192 0
M  V30 6449 N 610.455 -0.639598 -1.44038 0
M  V30 6450 C 611.418 0.0506628 -2.29144 0
M  V30 6451 C 612.418 0.764001 -1.41491 0
M  V30 6452 O 613.608 0.607309 -1.63271 0
M  V30 6453 C 610.74 1.0824 -3.2326 0
M  V30 6454 H 611.933 -0.697987 -2.91664 0
M  V30 6455 H 609.486 -0.400146 -1.51091 0
M  V30 6456 H 610.221 1.86075 -2.65606 0
M  V30 6457 H 610.006 0.574725 -3.87865 0
M  V30 6458 H 611.496 1.56487 -3.87171 0
M  V30 6459 N 611.933 1.52934 -0.380664 0
M  V30 6460 C 612.863 2.29118 0.450268 0
M  V30 6461 C 613.844 1.32153 1.07096 0
M  V30 6462 O 615.029 1.61038 1.08537 0
M  V30 6463 C 612.159 3.09161 1.58231 0
M  V30 6464 C 611.113 4.13938 1.0881 0
M  V30 6465 C 610.439 4.82153 2.31155 0
M  V30 6466 C 611.739 5.22048 0.162146 0
M  V30 6467 H 613.433 2.98826 -0.185361 0
M  V30 6468 H 610.979 1.43715 -0.0905886 0
M  V30 6469 H 612.932 3.61211 2.17036 0
M  V30 6470 H 611.656 2.3717 2.2454 0
M  V30 6471 H 610.315 3.62855 0.522633 0
M  V30 6472 H 609.963 4.06719 2.95953 0
M  V30 6473 H 609.663 5.52966 1.98752 0
M  V30 6474 H 611.187 5.37004 2.90618 0
M  V30 6475 H 612.601 5.6951 0.658126 0
M  V30 6476 H 610.998 6.00057 -0.0717122 0
M  V30 6477 H 612.068 4.78398 -0.791438 0
M  V30 6478 N 613.412 0.11024 1.57214 0
M  V30 6479 C 614.322 -0.857077 2.18383 0
M  V30 6480 C 615.338 -1.29915 1.1575 0
M  V30 6481 O 616.514 -1.36394 1.48184 0
M  V30 6482 C 613.579 -2.09264 2.76423 0
M  V30 6483 C 612.64 -1.70333 3.94063 0
M  V30 6484 C 611.873 -2.87999 4.49324 0
M  V30 6485 O 612.096 -4.0317 4.03497 0
M  V30 6486 O 611.03 -2.6559 5.40135 0
M  V30 6487 H 614.856 -0.366561 3.0148 0
M  V30 6488 H 612.441 -0.114914 1.48957 0
M  V30 6489 H 614.323 -2.81644 3.13456 0
M  V30 6490 H 612.998 -2.57339 1.96363 0
M  V30 6491 H 611.905 -0.950864 3.61814 0
M  V30 6492 H 613.238 -1.27007 4.75531 0
M  V30 6493 N 614.89 -1.56749 -0.16351 0
M  V30 6494 C 616.306 -1.51043 -0.515567 0
M  V30 6495 C 616.506 -0.815855 -1.84245 0
M  V30 6496 O 615.562 -0.379477 -2.49632 0
M  V30 6497 C 616.875 -2.95791 -0.541114 0
M  V30 6498 C 618.423 -3.0664 -0.627776 0
M  V30 6499 C 618.898 -4.52861 -0.684141 0
M  V30 6500 N 620.389 -4.5714 -0.746818 0
M  V30 6501 C 621.124 -5.67634 -0.811137 0
M  V30 6502 N 620.62 -6.8774 -0.835811 0
M  V30 6503 N 622.413 -5.55624 -0.850756 0
M  V30 6504 H 614.564 -2.00307 0.70645 0
M  V30 6505 H 616.827 -0.912876 0.255659 0
M  V30 6506 H 616.533 -3.49797 0.365329 0
M  V30 6507 H 616.407 -3.50858 -1.38487 0
M  V30 6508 H 618.794 -2.52663 -1.52464 0
M  V30 6509 H 618.875 -2.54645 0.242805 0
M  V30 6510 H 618.519 -5.07472 0.2085 0
M  V30 6511 H 618.449 -5.02621 -1.57098 0
M  V30 6512 H 620.94 -3.70669 -0.735717 0
M  V30 6513 H 621.253 -7.67701 -0.886279 0
M  V30 6514 H 619.598 -6.90334 -0.803958 0
M  V30 6515 H 622.789 -4.60709 -0.828535 0
M  V30 6516 H 622.962 -6.41756 -0.897418 0
M  V30 6517 N 616.368 0.432326 -1.51554 0
M  V30 6518 C 617.315 1.52512 -1.7323 0
M  V30 6519 C 618.285 1.55863 -0.5741 0
M  V30 6520 O 619.47 1.72796 -0.809093 0
M  V30 6521 C 616.61 2.90183 -1.86783 0
M  V30 6522 C 615.723 2.96322 -3.14352 0
M  V30 6523 C 614.858 4.25147 -3.18471 0
M  V30 6524 C 613.897 4.25172 -4.40335 0
M  V30 6525 N 613.034 5.45529 -4.41975 0
M  V30 6526 H 617.874 1.33332 -2.66508 0
M  V30 6527 H 615.411 0.647613 -1.32077 0
M  V30 6528 H 617.369 3.70071 -1.92623 0
M  V30 6529 H 615.999 3.0791 -0.969087 0
M  V30 6530 H 615.051 2.09066 -3.17798 0
M  V30 6531 H 616.363 2.92203 -4.04251 0
M  V30 6532 H 615.517 5.13411 -3.23255 0
M  V30 6533 H 614.256 4.31929 -2.2647 0
M  V30 6534 H 613.261 3.353 -4.35723 0
M  V30 6535 H 614.486 4.20049 -5.33606 0
M  V30 6536 H 612.432 5.53024 -3.52847 0
M  V30 6537 H 612.349 5.43311 -5.25689 0
M  V30 6538 H 613.617 6.35812 -4.50958 0
M  V30 6539 N 617.846 1.41785 0.688094 0
M  V30 6540 C 618.776 1.47 1.8142 0
M  V30 6541 C 619.757 0.327881 1.6691 0
M  V30 6542 O 620.942 0.540362 1.86531 0
M  V30 6543 C 618.072 1.35876 3.19617 0
M  V30 6544 C 617.026 2.47976 3.48844 0
M  V30 6545 C 616.352 2.21915 4.86475 0
M  V30 6546 C 617.652 3.90309 3.47068 0
M  V30 6547 H 619.346 2.41247 1.77314 0
M  V30 6548 H 616.892 1.16116 0.851651 0
M  V30 6549 H 618.845 1.38134 3.98117 0
M  V30 6550 H 617.569 0.38116 3.24368 0
M  V30 6551 H 616.228 2.45013 2.72698 0
M  V30 6552 H 615.876 1.2248 4.8786 0
M  V30 6553 H 615.576 2.97037 5.06994 0
M  V30 6554 H 617.1 2.25901 5.67275 0
M  V30 6555 H 618.514 3.94947 4.1556 0
M  V30 6556 H 616.911 4.65175 3.7912 0
M  V30 6557 H 617.981 4.17927 2.45896 0
M  V30 6558 N 619.324 -0.923095 1.27737 0
M  V30 6559 C 620.256 -2.02871 1.06658 0
M  V30 6560 C 621.269 -1.62786 0.0212095 0
M  V30 6561 O 622.458 -1.76548 0.263267 0
M  V30 6562 C 619.558 -3.33603 0.59682 0
M  V30 6563 C 618.731 -4.02354 1.71551 0
M  V30 6564 C 617.79 -5.11364 1.24071 0
M  V30 6565 O 616.816 -5.35075 1.94123 0
M  V30 6566 N 618.018 -5.80416 0.0988444 0
M  V30 6567 H 620.783 -2.21515 2.01869 0
M  V30 6568 H 618.344 -1.09378 1.19365 0
M  V30 6569 H 620.336 -4.03845 0.262984 0
M  V30 6570 H 618.906 -3.11499 -0.262187 0
M  V30 6571 H 618.126 -3.25786 2.2194 0
M  V30 6572 H 619.414 -4.45035 2.46619 0
M  V30 6573 H 618.812 -5.63611 -0.485743 0
M  V30 6574 H 617.369 -6.51563 -0.17578 0
M  V30 6575 N 620.802 -1.09834 -1.13024 0
M  V30 6576 C 622.042 -0.846664 -1.8604 0
M  V30 6577 C 622.406 0.616557 -1.81831 0
M  V30 6578 O 623.607 0.984329 -2.50129 0
M  V30 6579 C 621.878 -1.37228 -3.30005 0
M  V30 6580 S 623.437 -1.25511 -4.20467 0
M  V30 6581 H 620.255 -0.30611 -0.64173 0
M  V30 6582 H 622.857 -1.40255 -1.36194 0
M  V30 6583 H 621.561 -2.43138 -3.30624 0
M  V30 6584 H 621.092 -0.81271 -3.84914 0
M  V30 6585 H 623.107 -0.208762 -4.95761 0
M  V30 6586 N 622.28 1.30327 -0.886154 0
M  V30 6587 C 623.21 2.30549 -0.370028 0
M  V30 6588 C 624.191 1.61039 0.547751 0
M  V30 6589 O 625.376 1.8864 0.461353 0
M  V30 6590 C 622.506 3.44808 0.415275 0
M  V30 6591 C 621.46 4.26024 -0.41085 0
M  V30 6592 C 620.786 5.32347 0.501128 0
M  V30 6593 C 622.086 4.95433 -1.65359 0
M  V30 6594 H 623.78 2.73969 -1.20754 0
M  V30 6595 H 621.326 1.3171 -0.582097 0
M  V30 6596 H 623.279 4.13986 0.78699 0
M  V30 6597 H 622.003 3.00197 1.28644 0
M  V30 6598 H 620.662 3.58535 -0.764719 0
M  V30 6599 H 620.31 4.83982 1.37004 0
M  V30 6600 H 620.01 5.87581 -0.0478356 0
M  V30 6601 H 621.534 6.0438 0.869333 0
M  V30 6602 H 622.948 5.5712 -1.35239 0
M  V30 6603 H 621.345 5.60537 -2.14284 0
M  V30 6604 H 622.415 4.21493 -2.39733 0
M  V30 6605 N 623.758 0.647228 1.43697 0
M  V30 6606 C 624.668 -0.0487997 2.34549 0
M  V30 6607 C 625.684 -0.818586 1.53542 0
M  V30 6608 O 626.86 -0.767195 1.86215 0
M  V30 6609 C 623.925 -1.00734 3.31743 0
M  V30 6610 C 622.986 -0.23515 4.28655 0
M  V30 6611 C 622.219 -1.14803 5.21206 0
M  V30 6612 O 622.442 -2.38717 5.18045 0
M  V30 6613 O 621.376 -0.623667 5.9866 0
M  V30 6614 H 625.202 0.698863 2.9555 0
M  V30 6615 H 622.787 0.407412 1.43738 0
M  V30 6616 H 624.669 -1.55837 3.91526 0
M  V30 6617 H 623.344 -1.73534 2.73254 0
M  V30 6618 H 622.251 0.359319 3.7237 0
M  V30 6619 H 623.584 0.453152 4.9011 0
M  V30 6620 N 625.236 -1.5273 0.388769 0
M  V30 6621 C 626.168 -2.24081 -0.481704 0
M  V30 6622 C 627.181 -1.26307 -1.02715 0
M  V30 6623 O 628.37 -1.52386 -0.929565 0
M  V30 6624 C 625.47 -2.94315 -1.68024 0
M  V30 6625 C 624.643 -4.18791 -1.26226 0
M  V30 6626 C 623.702 -4.72028 -2.32542 0
M  V30 6627 O 622.728 -5.35129 -1.93972 0
M  V30 6628 N 623.93 -4.51838 -3.64448 0
M  V30 6629 H 626.695 -2.9942 0.129591 0
M  V30 6630 H 624.256 -1.60465 0.2151 0
M  V30 6631 H 626.248 -3.26831 -2.38671 0
M  V30 6632 H 624.818 -2.22287 -2.19789 0
M  V30 6633 H 624.038 -3.92318 -0.384703 0
M  V30 6634 H 625.326 -4.99668 -0.959647 0
M  V30 6635 H 624.724 -4.01468 -3.98547 0
M  V30 6636 H 623.281 -4.88845 -4.31131 0
M  V30 6637 N 626.714 -0.118576 -1.57153 0
M  V30 6638 C 627.624 0.845484 -2.18835 0
M  V30 6639 C 628.64 1.29299 -1.16438 0
M  V30 6640 O 629.816 1.35607 -1.48905 0
M  V30 6641 C 626.881 2.07795 -2.77529 0
M  V30 6642 C 625.942 1.6824 -3.9496 0
M  V30 6643 C 625.175 2.85612 -4.50845 0
M  V30 6644 O 625.398 4.01025 -4.05629 0
M  V30 6645 O 624.332 2.62721 -5.41536 0
M  V30 6646 H 628.158 0.350568 -3.0167 0
M  V30 6647 H 625.743 0.107013 -1.49016 0
M  V30 6648 H 627.625 2.79978 -3.14945 0
M  V30 6649 H 626.3 2.56294 -1.97725 0
M  V30 6650 H 625.207 0.931663 -3.62313 0
M  V30 6651 H 626.54 1.24484 -4.76198 0
M  V30 6652 N 628.193 1.56834 0.155195 0
M  V30 6653 C 629.14 1.97646 1.19184 0
M  V30 6654 C 630.11 0.842788 1.4313 0
M  V30 6655 O 631.295 1.1042 1.55602 0
M  V30 6656 C 628.435 2.35527 2.52232 0
M  V30 6657 C 627.548 3.62147 2.35529 0
M  V30 6658 C 626.683 3.89167 3.61555 0
M  V30 6659 C 625.722 5.09084 3.39853 0
M  V30 6660 N 624.859 5.32156 4.5799 0
M  V30 6661 H 629.699 2.8601 0.836802 0
M  V30 6662 H 627.236 1.41507 0.401758 0
M  V30 6663 H 629.194 2.55516 3.29799 0
M  V30 6664 H 627.824 1.50253 2.85699 0
M  V30 6665 H 626.876 3.4998 1.49057 0
M  V30 6666 H 628.188 4.49871 2.15448 0
M  V30 6667 H 627.342 4.09611 4.47553 0
M  V30 6668 H 626.081 2.9985 3.84632 0
M  V30 6669 H 625.086 4.88522 2.52243 0
M  V30 6670 H 626.311 5.99947 3.18183 0
M  V30 6671 H 624.257 4.45791 4.81255 0
M  V30 6672 H 624.174 6.14133 4.40882 0
M  V30 6673 H 625.442 5.57091 5.45225 0
M  V30 6674 N 629.671 -0.424282 1.51781 0
M  V30 6675 C 630.917 -1.17434 1.6534 0
M  V30 6676 C 631.25 -1.90549 0.374806 0
M  V30 6677 O 630.525 -1.84145 -0.626179 0
M  V30 6678 C 630.808 -2.18093 2.86544 0
M  V30 6679 C 630.661 -1.48975 4.24413 0
M  V30 6680 C 631.98 -3.18934 3.03264 0
M  V30 6681 H 629.099 -0.425566 0.601716 0
M  V30 6682 H 631.741 -0.461921 1.84299 0
M  V30 6683 H 629.891 -2.78849 2.7051 0
M  V30 6684 H 631.563 -0.914551 4.52143 0
M  V30 6685 H 629.806 -0.791893 4.26511 0
M  V30 6686 H 630.477 -2.22347 5.05238 0
M  V30 6687 H 632.953 -2.68243 3.18096 0
M  V30 6688 H 631.829 -3.86645 3.89611 0
M  V30 6689 H 632.09 -3.85793 2.15908 0
M  V30 6690 N 631.149 -1.42148 -0.680565 0
M  V30 6691 C 632.059 -1.47565 -1.82378 0
M  V30 6692 C 633.075 -0.36489 -1.70131 0
M  V30 6693 O 634.251 -0.614916 -1.91783 0
M  V30 6694 C 631.316 -1.37013 -3.18478 0
M  V30 6695 C 630.377 -2.58532 -3.42724 0
M  V30 6696 C 629.61 -2.48473 -4.72331 0
M  V30 6697 O 629.833 -1.51745 -5.49845 0
M  V30 6698 O 628.767 -3.38503 -4.97694 0
M  V30 6699 H 632.593 -2.44045 -1.80764 0
M  V30 6700 H 630.178 -1.23849 -0.835569 0
M  V30 6701 H 632.06 -1.33468 -3.99705 0
M  V30 6702 H 630.735 -0.436552 -3.20743 0
M  V30 6703 H 629.642 -2.67652 -2.61368 0
M  V30 6704 H 630.975 -3.50769 -3.45286 0
M  V30 6705 N 632.627 0.916307 -1.28225 0
M  V30 6706 C 633.557 2.0352 -1.14464 0
M  V30 6707 C 634.538 1.70045 -0.0430844 0
M  V30 6708 O 635.723 1.92954 -0.219619 0
M  V30 6709 C 632.853 3.37889 -0.803027 0
M  V30 6710 C 631.807 3.85516 -1.85908 0
M  V30 6711 C 631.133 5.1682 -1.37116 0
M  V30 6712 C 632.433 4.07655 -3.26519 0
M  V30 6713 H 634.127 2.1529 -2.08064 0
M  V30 6714 H 631.673 1.03446 -1.00174 0
M  V30 6715 H 633.626 4.15654 -0.693537 0
M  V30 6716 H 632.35 3.26164 0.168674 0
M  V30 6717 H 631.009 3.09953 -1.95767 0
M  V30 6718 H 630.657 5.01497 -0.38859 0
M  V30 6719 H 630.357 5.49657 -2.07728 0
M  V30 6720 H 631.881 5.97143 -1.27484 0
M  V30 6721 H 633.295 4.75953 -3.19596 0
M  V30 6722 H 631.692 4.51818 -3.94943 0
M  V30 6723 H 632.762 3.12553 -3.70727 0
M  V30 6724 N 634.105 1.10431 1.1244 0
M  V30 6725 C 635.33 0.869089 1.88313 0
M  V30 6726 C 635.755 -0.574912 1.79099 0
M  V30 6727 O 635.113 -1.40496 1.14589 0
M  V30 6728 C 635.161 1.32208 3.3549 0
M  V30 6729 O 634.265 0.487092 4.09513 0
M  V30 6730 H 633.606 0.313894 0.585121 0
M  V30 6731 H 636.136 1.47111 1.42195 0
M  V30 6732 H 636.146 1.31201 3.86329 0
M  V30 6733 H 634.821 2.37364 3.41513 0
M  V30 6734 H 633.398 0.562372 3.68635 0
M  V30 6735 N 635.583 -1.29855 0.893053 0
M  V30 6736 C 636.999 -1.48366 0.588199 0
M  V30 6737 C 637.199 -1.81654 -0.872018 0
M  V30 6738 O 636.255 -1.909 -1.65268 0
M  V30 6739 C 637.568 -2.60136 1.5083 0
M  V30 6740 C 639.116 -2.74014 1.51279 0
M  V30 6741 C 639.591 -3.88905 2.41902 0
M  V30 6742 N 641.082 -3.96228 2.39911 0
M  V30 6743 C 641.817 -4.84458 3.06738 0
M  V30 6744 N 641.313 -5.77426 3.8282 0
M  V30 6745 N 643.106 -4.77894 2.95929 0
M  V30 6746 H 635.257 -1.06522 1.83757 0
M  V30 6747 H 637.52 -0.528495 0.787018 0
M  V30 6748 H 637.226 -2.42383 2.54839 0
M  V30 6749 H 637.1 -3.56793 1.22388 0
M  V30 6750 H 639.487 -2.91167 0.480179 0
M  V30 6751 H 639.568 -1.77952 1.83757 0
M  V30 6752 H 639.212 -3.72508 3.45253 0
M  V30 6753 H 639.142 -4.84322 2.06737 0
M  V30 6754 H 641.633 -3.29728 1.84629 0
M  V30 6755 H 641.946 -6.41529 4.30883 0
M  V30 6756 H 640.291 -5.77332 3.86927 0
M  V30 6757 H 643.482 -4.04248 2.36012 0
M  V30 6758 H 643.655 -5.46444 3.48286 0
M  V30 6759 N 637.061 -0.65484 -1.43351 0
M  V30 6760 C 638.008 0.0357713 -2.30772 0
M  V30 6761 C 638.978 0.813035 -1.44841 0
M  V30 6762 O 640.163 0.789314 -1.73708 0
M  V30 6763 C 637.303 0.995084 -3.30442 0
M  V30 6764 C 636.416 0.21375 -4.31471 0
M  V30 6765 C 635.551 1.16701 -5.18222 0
M  V30 6766 C 634.59 0.376201 -6.10943 0
M  V30 6767 N 633.727 1.28113 -6.90313 0
M  V30 6768 H 638.567 -0.71559 -2.89281 0
M  V30 6769 H 636.104 -0.364645 -1.42509 0
M  V30 6770 H 638.062 1.5649 -3.86739 0
M  V30 6771 H 636.692 1.7133 -2.7358 0
M  V30 6772 H 635.744 -0.472377 -3.77456 0
M  V30 6773 H 637.056 -0.401103 -4.97185 0
M  V30 6774 H 636.21 1.8074 -5.79153 0
M  V30 6775 H 634.949 1.81577 -4.52638 0
M  V30 6776 H 633.954 -0.277534 -5.49099 0
M  V30 6777 H 635.179 -0.268178 -6.7857 0
M  V30 6778 H 633.125 1.91666 -6.27376 0
M  V30 6779 H 633.042 0.720879 -7.52555 0
M  V30 6780 H 634.31 1.90962 -7.55747 0
M  V30 6781 N 638.539 1.52521 -0.396863 0
M  V30 6782 C 639.489 2.2348 0.451722 0
M  V30 6783 C 640.473 1.2415 1.0235 0
M  V30 6784 O 641.665 1.4945 0.948348 0
M  V30 6785 C 638.794 3.05067 1.57445 0
M  V30 6786 C 637.88 4.11799 1.01404 0
M  V30 6787 N 638.271 5.05482 0.179234 0
M  V30 6788 C 636.569 4.27064 1.28578 0
M  V30 6789 C 637.27 5.81552 -0.131202 0
M  V30 6790 N 636.246 5.41523 0.474735 0
M  V30 6791 H 640.048 2.93269 -0.192534 0
M  V30 6792 H 637.562 1.61081 -0.206591 0
M  V30 6793 H 639.559 3.54446 2.19485 0
M  V30 6794 H 638.219 2.36816 2.22145 0
M  V30 6795 H 639.23 5.17573 -0.18411 0
M  V30 6796 H 635.907 3.70042 1.93327 0
M  V30 6797 H 637.297 6.67023 -0.808061 0
M  V30 6798 N 640.017 0.126909 1.57088 0
M  V30 6799 C 640.949 -0.850973 2.12817 0
M  V30 6800 C 641.962 -1.22457 1.07276 0
M  V30 6801 O 643.151 -1.17215 1.34622 0
M  V30 6802 C 640.251 -2.15039 2.61938 0
M  V30 6803 C 639.424 -1.94726 3.91664 0
M  V30 6804 C 638.483 -3.0847 4.26301 0
M  V30 6805 O 637.509 -2.81038 4.94981 0
M  V30 6806 N 638.711 -4.35116 3.84259 0
M  V30 6807 H 641.476 -0.3748 2.97347 0
M  V30 6808 H 639.037 -0.0572793 1.61799 0
M  V30 6809 H 641.029 -2.90141 2.82135 0
M  V30 6810 H 639.599 -2.5398 1.82244 0
M  V30 6811 H 638.819 -1.03772 3.80296 0
M  V30 6812 H 640.107 -1.78469 4.76473 0
M  V30 6813 H 639.505 -4.60276 3.2888 0
M  V30 6814 H 638.062 -5.07064 4.09548 0
M  V30 6815 N 641.495 -1.56914 -0.146875 0
M  V30 6816 C 642.405 -2.0154 -1.20079 0
M  V30 6817 C 643.421 -0.930838 -1.47008 0
M  V30 6818 O 644.597 -1.24032 -1.58676 0
M  V30 6819 C 641.662 -2.38715 -2.51428 0
M  V30 6820 C 640.723 -3.6112 -2.32145 0
M  V30 6821 C 639.956 -3.96512 -3.57231 0
M  V30 6822 O 640.179 -3.32566 -4.63418 0
M  V30 6823 O 639.113 -4.89758 -3.49887 0
M  V30 6824 H 642.939 -2.91506 -0.851924 0
M  V30 6825 H 640.524 -1.45106 -0.355607 0
M  V30 6826 H 642.406 -2.63485 -3.28867 0
M  V30 6827 H 641.081 -1.51903 -2.85845 0
M  V30 6828 H 639.988 -3.41536 -1.52656 0
M  V30 6829 H 641.321 -4.48549 -2.02644 0
M  V30 6830 N 642.974 0.416227 -1.52004 0
M  V30 6831 C 643.937 1.48926 -1.74223 0
M  V30 6832 C 644.937 1.48693 -0.612119 0
M  V30 6833 O 646.127 1.50343 -0.879921 0
M  V30 6834 C 643.259 2.88372 -1.81809 0
M  V30 6835 H 644.452 1.3052 -2.70008 0
M  V30 6836 H 642.005 0.646271 -1.42313 0
M  V30 6837 H 642.74 3.12157 -0.879135 0
M  V30 6838 H 642.525 2.89944 -2.6396 0
M  V30 6839 H 644.015 3.66173 -2.00766 0
M  V30 6840 N 644.452 1.42507 0.673017 0
M  V30 6841 C 645.382 1.48916 1.79851 0
M  V30 6842 C 646.363 0.345566 1.66553 0
M  V30 6843 O 647.548 0.560116 1.85947 0
M  V30 6844 C 644.678 1.39258 3.18158 0
M  V30 6845 C 643.632 2.51662 3.46194 0
M  V30 6846 C 642.958 2.27062 4.84094 0
M  V30 6847 C 644.258 3.93968 3.42909 0
M  V30 6848 H 645.952 2.43114 1.74745 0
M  V30 6849 H 643.498 1.17013 0.839288 0
M  V30 6850 H 645.451 1.42349 3.96629 0
M  V30 6851 H 644.175 0.415542 3.23946 0
M  V30 6852 H 642.834 2.47891 2.70084 0
M  V30 6853 H 642.482 1.27648 4.86534 0
M  V30 6854 H 642.182 3.02398 5.03815 0
M  V30 6855 H 643.706 2.31905 5.64847 0
M  V30 6856 H 645.12 3.99332 4.11347 0
M  V30 6857 H 643.517 4.6917 3.74165 0
M  V30 6858 H 644.587 4.20512 2.41449 0
M  V30 6859 N 645.93 -0.909495 1.28709 0
M  V30 6860 C 646.88 -1.9991 1.09636 0
M  V30 6861 C 647.864 -1.60889 0.01872 0
M  V30 6862 O 649.056 -1.75374 0.239338 0
M  V30 6863 C 646.185 -3.34675 0.764702 0
M  V30 6864 C 645.271 -3.80085 1.8814 0
M  V30 6865 N 645.662 -3.97824 3.12361 0
M  V30 6866 C 643.96 -4.09278 1.77221 0
M  V30 6867 C 644.661 -4.35928 3.85151 0
M  V30 6868 N 643.637 -4.44426 3.13028 0
M  V30 6869 H 647.439 -2.11681 2.03883 0
M  V30 6870 H 644.953 -1.09763 1.1969 0
M  V30 6871 H 646.95 -4.12426 0.609132 0
M  V30 6872 H 645.61 -3.24255 -0.169952 0
M  V30 6873 H 646.621 -3.83626 3.47925 0
M  V30 6874 H 643.298 -4.0747 0.909621 0
M  V30 6875 H 644.688 -4.57581 4.92006 0
M  V30 6876 N 647.408 -1.11026 -1.11852 0
M  V30 6877 C 648.371 -0.768006 -2.1595 0
M  V30 6878 C 649.371 0.210538 -1.59416 0
M  V30 6879 O 650.561 -0.0133978 -1.74195 0
M  V30 6880 C 647.693 -0.138678 -3.40618 0
M  V30 6881 H 648.886 -1.69012 -2.4774 0
M  V30 6882 H 646.439 -0.911578 -1.26964 0
M  V30 6883 H 647.174 0.793872 -3.14433 0
M  V30 6884 H 646.959 -0.843012 -3.8293 0
M  V30 6885 H 648.449 0.0848039 -4.17514 0
M  V30 6886 N 648.886 1.2938 -0.899927 0
M  V30 6887 C 650.297 1.77644 -0.574427 0
M  V30 6888 C 650.648 1.73824 0.909928 0
M  V30 6889 O 649.773 1.32429 1.71147 0
M  V30 6890 C 650.368 3.22573 -1.03595 0
M  V30 6891 C 648.927 3.68614 -0.76161 0
M  V30 6892 C 648.074 2.49483 -1.21052 0
M  V30 6893 H 651.025 1.16038 -1.08263 0
M  V30 6894 H 651.046 3.78684 -0.371337 0
M  V30 6895 H 650.558 3.25321 -2.11631 0
M  V30 6896 H 648.659 3.7134 0.306127 0
M  V30 6897 H 648.772 4.59402 -1.35965 0
M  V30 6898 H 647.136 2.46798 -0.629515 0
M  V30 6899 H 647.919 2.54959 -2.29893 0
M  V30 6900 N 650.364 0.662433 1.43002 0
M  V30 6901 C 651.592 0.187615 2.06048 0
M  V30 6902 C 652.007 -1.15039 1.49705 0
M  V30 6903 O 651.364 -1.71209 0.631956 0
M  V30 6904 C 651.415 0.100498 3.6136 0
M  V30 6905 O 651.136 1.38562 4.15611 0
M  V30 6906 C 652.637 -0.399298 4.41498 0
M  V30 6907 H 649.857 0.0941675 0.664359 0
M  V30 6908 H 652.401 0.905681 1.83351 0
M  V30 6909 H 650.556 -0.568181 3.83211 0
M  V30 6910 H 650.97 1.25084 5.09366 0
M  V30 6911 H 652.444 -0.409187 5.50481 0
M  V30 6912 H 652.921 -1.43232 4.15188 0
M  V30 6913 H 653.527 0.23721 4.24638 0
M  V30 6914 N 651.842 -1.52309 0.404946 0
M  V30 6915 C 653.119 -1.94237 -0.230544 0
M  V30 6916 C 653.499 -1.34154 -1.6299 0
M  V30 6917 O 652.847 -0.515713 -2.22604 0
M  V30 6918 C 653.057 -3.48166 -0.241106 0
M  V30 6919 C 654.405 -4.22074 -0.462488 0
M  V30 6920 O 655.429 -3.54754 -0.320644 0
M  V30 6921 O 654.288 -5.41443 -0.741708 0
M  V30 6922 H 651.382 -0.813766 -0.147358 0
M  V30 6923 H 653.928 -1.6333 0.460587 0
M  V30 6924 H 652.7 -3.84269 0.738467 0
M  V30 6925 H 652.323 -3.85422 -0.97651 0
M  V30 6926 N 653.32 -0.135238 -1.57019 0
M  V30 6927 C 654.27 0.820408 -2.12728 0
M  V30 6928 C 655.254 1.21735 -1.05211 0
M  V30 6929 O 656.446 1.18574 -1.31413 0
M  V30 6930 C 653.575 2.06414 -2.74314 0
M  V30 6931 C 652.661 1.69083 -3.88937 0
M  V30 6932 N 653.052 1.0251 -4.95303 0
M  V30 6933 C 651.35 1.98434 -3.99425 0
M  V30 6934 C 652.051 0.846749 -5.75504 0
M  V30 6935 N 651.027 1.3769 -5.25873 0
M  V30 6936 H 654.829 0.302426 -2.9234 0
M  V30 6937 H 652.343 0.0667009 -1.62263 0
M  V30 6938 H 654.34 2.75863 -3.12579 0
M  V30 6939 H 653 2.58741 -1.96171 0
M  V30 6940 H 654.011 0.687207 -5.1332 0
M  V30 6941 H 650.688 2.52693 -3.32344 0
M  V30 6942 H 652.078 0.322949 -6.71123 0
M  V30 6943 N 654.798 1.5699 0.138552 0
M  V30 6944 C 656.214 1.51844 0.491472 0
M  V30 6945 C 656.414 0.845063 1.82923 0
M  V30 6946 O 655.47 0.419143 2.48997 0
M  V30 6947 C 656.783 2.96615 0.493987 0
M  V30 6948 C 658.331 3.076 0.578913 0
M  V30 6949 C 658.806 4.53893 0.612009 0
M  V30 6950 N 660.297 4.5827 0.673997 0
M  V30 6951 C 661.032 5.68852 0.720729 0
M  V30 6952 N 660.528 6.88982 0.726292 0
M  V30 6953 N 662.321 5.56908 0.762253 0
M  V30 6954 H 654.472 1.99158 -0.738228 0
M  V30 6955 H 656.735 0.908693 -0.270149 0
M  V30 6956 H 656.441 3.49172 -0.420933 0
M  V30 6957 H 656.315 3.53017 1.32887 0
M  V30 6958 H 658.702 2.55057 1.48425 0
M  V30 6959 H 658.783 2.54227 -0.283286 0
M  V30 6960 H 658.427 5.07076 -0.289208 0
M  V30 6961 H 658.357 5.05057 1.49082 0
M  V30 6962 H 660.848 3.71793 0.676654 0
M  V30 6963 H 661.161 7.69014 0.764032 0
M  V30 6964 H 659.506 6.91526 0.69403 0
M  V30 6965 H 662.697 4.61969 0.755135 0
M  V30 6966 H 662.87 6.43102 0.795207 0
M  V30 6967 N 656.276 -0.40816 1.52223 0
M  V30 6968 C 657.186 -1.52202 1.78526 0
M  V30 6969 C 658.202 -1.60546 0.670892 0
M  V30 6970 O 659.378 -1.77242 0.956404 0
M  V30 6971 C 656.443 -2.87928 1.93128 0
M  V30 6972 C 655.504 -2.89463 3.17033 0
M  V30 6973 C 654.737 -4.18715 3.30929 0
M  V30 6974 O 654.96 -5.12662 2.50067 0
M  V30 6975 O 653.894 -4.27125 4.24084 0
M  V30 6976 H 657.72 -1.32911 2.73072 0
M  V30 6977 H 655.305 -0.594112 1.37079 0
M  V30 6978 H 657.187 -3.68426 2.04549 0
M  V30 6979 H 655.862 -3.07285 1.01772 0
M  V30 6980 H 654.769 -2.07815 3.11069 0
M  V30 6981 H 656.102 -2.75055 4.08174 0
M  V30 6982 N 657.755 -1.42862 -0.66545 0
M  V30 6983 C 658.685 -1.49867 -1.79059 0
M  V30 6984 C 659.666 -0.354394 -1.66367 0
M  V30 6985 O 660.851 -0.569969 -1.85647 0
M  V30 6986 C 657.981 -1.40943 -3.17415 0
M  V30 6987 C 656.935 -2.53495 -3.44854 0
M  V30 6988 C 656.261 -2.29626 -4.82883 0
M  V30 6989 C 657.561 -3.95781 -3.40815 0
M  V30 6990 H 659.255 -2.44037 -1.73453 0
M  V30 6991 H 656.801 -1.17456 -0.833071 0
M  V30 6992 H 658.754 -1.4445 -3.95869 0
M  V30 6993 H 657.478 -0.432716 -3.23721 0
M  V30 6994 H 656.137 -2.4932 -2.68766 0
M  V30 6995 H 655.785 -1.30226 -4.8585 0
M  V30 6996 H 655.485 -3.05065 -5.02204 0
M  V30 6997 H 657.009 -2.34897 -5.63609 0
M  V30 6998 H 658.423 -4.01508 -4.09224 0
M  V30 6999 H 656.82 -4.71148 -3.71672 0
M  V30 7000 H 657.89 -4.21786 -2.39216 0
M  V30 7001 N 659.233 0.902656 -1.29189 0
M  V30 7002 C 660.143 2.03946 -1.15944 0
M  V30 7003 C 661.159 1.738 -0.0833803 0
M  V30 7004 O 662.335 1.9923 -0.29487 0
M  V30 7005 C 659.4 3.36519 -0.834006 0
M  V30 7006 C 658.461 3.80203 -1.9936 0
M  V30 7007 C 657.694 5.06449 -1.68359 0
M  V30 7008 O 657.917 5.67202 -0.603141 0
M  V30 7009 O 656.851 5.46114 -2.53067 0
M  V30 7010 H 660.677 2.18043 -2.11403 0
M  V30 7011 H 658.262 1.02584 -1.08613 0
M  V30 7012 H 660.144 4.16089 -0.666949 0
M  V30 7013 H 658.819 3.23573 0.0908245 0
M  V30 7014 H 657.726 3.01413 -2.21588 0
M  V30 7015 H 659.059 3.97729 -2.89952 0
M  V30 7016 N 660.711 1.11618 1.11262 0
M  V30 7017 C 661.643 0.734015 2.17129 0
M  V30 7018 C 662.656 -0.235243 1.61091 0
M  V30 7019 O 663.845 -0.0178597 1.78491 0
M  V30 7020 C 660.945 0.0643682 3.38839 0
M  V30 7021 C 660.118 1.06092 4.24339 0
M  V30 7022 C 659.177 0.420482 5.24517 0
M  V30 7023 O 658.203 1.07495 5.58957 0
M  V30 7024 N 659.405 -0.815828 5.74739 0
M  V30 7025 H 662.17 1.64492 2.50524 0
M  V30 7026 H 659.731 1.00664 1.26801 0
M  V30 7027 H 661.723 -0.375851 4.02951 0
M  V30 7028 H 660.293 -0.749147 3.03491 0
M  V30 7029 H 659.513 1.67903 3.56654 0
M  V30 7030 H 660.801 1.73507 4.78302 0
M  V30 7031 H 660.199 -1.36668 5.48943 0
M  V30 7032 H 658.756 -1.199 6.40677 0
M  V30 7033 N 662.189 -1.289 0.906776 0
M  V30 7034 C 663.119 -2.29932 0.406659 0
M  V30 7035 C 664.1 -1.6189 -0.522061 0
M  V30 7036 O 665.285 -1.8935 -0.431283 0
M  V30 7037 C 662.415 -3.45425 -0.360366 0
M  V30 7038 C 661.369 -4.25316 0.478574 0
M  V30 7039 C 660.695 -5.33076 -0.416373 0
M  V30 7040 C 661.995 -4.92739 1.7322 0
M  V30 7041 H 663.689 -2.72013 1.25097 0
M  V30 7042 H 661.235 -1.30768 0.602977 0
M  V30 7043 H 663.188 -4.15186 -0.721029 0
M  V30 7044 H 661.912 -3.02206 -1.23852 0
M  V30 7045 H 660.571 -3.57273 0.821662 0
M  V30 7046 H 660.219 -4.86101 -1.29287 0
M  V30 7047 H 659.919 -5.8743 0.141309 0
M  V30 7048 H 661.443 -6.05686 -0.773072 0
M  V30 7049 H 662.857 -5.54898 1.44086 0
M  V30 7050 H 661.254 -5.57057 2.23175 0
M  V30 7051 H 662.324 -4.17625 2.46408 0
M  V30 7052 N 663.667 -0.670007 -1.42649 0
M  V30 7053 C 665.083 -0.33911 -1.55956 0
M  V30 7054 C 665.283 1.1558 -1.65056 0
M  V30 7055 O 664.339 1.94111 -1.61485 0
M  V30 7056 C 665.652 -1.06522 -2.812 0
M  V30 7057 C 667.2 -1.04708 -2.94966 0
M  V30 7058 C 667.675 -1.75442 -4.23065 0
M  V30 7059 N 669.166 -1.72286 -4.29967 0
M  V30 7060 C 669.901 -2.23877 -5.27889 0
M  V30 7061 N 669.397 -2.83829 -6.31991 0
M  V30 7062 N 671.19 -2.14279 -5.19654 0
M  V30 7063 H 663.341 -1.6399 -1.34986 0
M  V30 7064 H 665.604 -0.690603 -0.649439 0
M  V30 7065 H 665.31 -2.12033 -2.80597 0
M  V30 7066 H 665.184 -0.627398 -3.71946 0
M  V30 7067 H 667.571 -0.000315966 -2.951 0
M  V30 7068 H 667.652 -1.52374 -2.05465 0
M  V30 7069 H 667.296 -2.80084 -4.23693 0
M  V30 7070 H 667.226 -1.25229 -5.11493 0
M  V30 7071 H 669.717 -1.28554 -3.55362 0
M  V30 7072 H 670.03 -3.20827 -7.03057 0
M  V30 7073 H 668.375 -2.87896 -6.32567 0
M  V30 7074 H 671.566 -1.67135 -4.37245 0
M  V30 7075 H 671.739 -2.54792 -5.95806 0
M  V30 7076 N 665.145 1.52092 -0.413018 0
M  V30 7077 C 666.092 2.27119 0.410558 0
M  V30 7078 C 667.062 1.29692 1.03774 0
M  V30 7079 O 668.247 1.58561 1.06128 0
M  V30 7080 C 665.387 3.09863 1.51918 0
M  V30 7081 C 664.5 4.22252 0.912528 0
M  V30 7082 C 663.635 4.92348 1.99417 0
M  V30 7083 C 662.674 5.96694 1.36466 0
M  V30 7084 N 661.811 6.60292 2.38661 0
M  V30 7085 H 666.651 2.97067 -0.235661 0
M  V30 7086 H 664.188 1.46542 -0.128055 0
M  V30 7087 H 666.146 3.56144 2.17295 0
M  V30 7088 H 664.776 2.42078 2.13537 0
M  V30 7089 H 663.828 3.80113 0.147697 0
M  V30 7090 H 665.14 4.9709 0.412717 0
M  V30 7091 H 664.294 5.42054 2.72512 0
M  V30 7092 H 663.033 4.17087 2.52764 0
M  V30 7093 H 662.038 5.46304 0.61906 0
M  V30 7094 H 663.263 6.73899 0.838827 0
M  V30 7095 H 661.209 5.87858 2.91134 0
M  V30 7096 H 661.126 7.30816 1.93503 0
M  V30 7097 H 662.394 7.14635 3.11314 0
M  V30 7098 N 666.623 0.143563 1.56945 0
M  V30 7099 C 667.533 -0.810562 2.20152 0
M  V30 7100 C 668.549 -1.27431 1.1848 0
M  V30 7101 O 669.725 -1.33221 1.51044 0
M  V30 7102 C 666.79 -2.03353 2.80799 0
M  V30 7103 C 665.851 -1.61936 3.97587 0
M  V30 7104 C 665.084 -2.78403 4.55332 0
M  V30 7105 O 665.307 -3.94521 4.11958 0
M  V30 7106 O 664.241 -2.54073 5.45647 0
M  V30 7107 H 668.067 -0.30253 3.02189 0
M  V30 7108 H 665.652 -0.0832925 1.49168 0
M  V30 7109 H 667.534 -2.74932 3.19359 0
M  V30 7110 H 666.209 -2.53116 2.01777 0
M  V30 7111 H 665.116 -0.873904 3.6375 0
M  V30 7112 H 666.449 -1.16892 4.78118 0
M  V30 7113 N 668.101 -1.57061 -0.130224 0
M  V30 7114 C 669.347 -1.8453 -0.841216 0
M  V30 7115 C 669.68 -0.727666 -1.80052 0
M  V30 7116 O 668.955 0.267419 -1.92653 0
M  V30 7117 C 669.238 -3.22553 -1.60099 0
M  V30 7118 C 669.091 -4.44901 -0.662048 0
M  V30 7119 C 670.41 -3.58003 -2.55973 0
M  V30 7120 H 667.529 -0.671215 -0.304366 0
M  V30 7121 H 670.171 -1.89705 -0.105821 0
M  V30 7122 H 668.321 -3.18272 -2.22789 0
M  V30 7123 H 669.993 -4.61278 -0.0448559 0
M  V30 7124 H 668.236 -4.33791 0.0272253 0
M  V30 7125 H 668.907 -5.3812 -1.23006 0
M  V30 7126 H 671.383 -3.63002 -2.03393 0
M  V30 7127 H 670.259 -4.55576 -3.06172 0
M  V30 7128 H 670.52 -2.84833 -3.38116 0
M  V30 7129 N 669.579 0.400081 -1.52437 0
M  V30 7130 C 670.511 1.50729 -1.72666 0
M  V30 7131 C 671.524 1.51058 -0.607075 0
M  V30 7132 O 672.713 1.5516 -0.88248 0
M  V30 7133 C 669.813 2.89604 -1.76019 0
M  V30 7134 C 668.986 3.13365 -3.05157 0
M  V30 7135 C 668.045 4.32163 -3.00203 0
M  V30 7136 O 667.071 4.29004 -3.74092 0
M  V30 7137 N 668.273 5.3776 -2.18619 0
M  V30 7138 H 671.038 1.33767 -2.68191 0
M  V30 7139 H 668.599 0.58948 -1.50787 0
M  V30 7140 H 670.591 3.67159 -1.70225 0
M  V30 7141 H 669.161 2.99979 -0.879284 0
M  V30 7142 H 668.381 2.23774 -3.24529 0
M  V30 7143 H 669.669 3.26089 -3.90568 0
M  V30 7144 H 669.067 5.43177 -1.58035 0
M  V30 7145 H 667.624 6.14023 -2.18674 0
M  V30 7146 N 671.057 1.43213 0.657864 0
M  V30 7147 C 672.285 1.48015 1.44566 0
M  V30 7148 C 672.7 0.0965951 1.88553 0
M  V30 7149 O 672.057 -0.892221 1.59203 0
M  V30 7150 C 672.108 2.42199 2.68369 0
M  V30 7151 O 671.829 3.75173 2.26223 0
M  V30 7152 C 673.33 2.56195 3.61772 0
M  V30 7153 H 670.55 0.502861 0.444266 0
M  V30 7154 H 673.094 1.87907 0.806917 0
M  V30 7155 H 671.249 2.05514 3.28394 0
M  V30 7156 H 671.663 4.25776 3.06293 0
M  V30 7157 H 673.137 3.26182 4.4532 0
M  V30 7158 H 673.614 1.60534 4.0881 0
M  V30 7159 H 674.22 2.93671 3.07632 0
M  V30 7160 N 672.536 -0.895792 1.29666 0
M  V30 7161 C 673.466 -2.01673 1.17688 0
M  V30 7162 C 674.447 -1.69955 0.0701317 0
M  V30 7163 O 675.632 -1.9258 0.250289 0
M  V30 7164 C 672.762 -3.36568 0.856681 0
M  V30 7165 C 671.716 -3.82509 1.92017 0
M  V30 7166 C 671.042 -5.14574 1.4532 0
M  V30 7167 C 672.342 -4.02409 3.32963 0
M  V30 7168 H 674.036 -2.11953 2.11463 0
M  V30 7169 H 671.582 -1.01839 1.01807 0
M  V30 7170 H 673.535 -4.14498 0.759577 0
M  V30 7171 H 672.259 -3.26391 -0.116763 0
M  V30 7172 H 670.918 -3.068 2.00673 0
M  V30 7173 H 670.566 -5.00815 0.468325 0
M  V30 7174 H 670.266 -5.46283 2.16447 0
M  V30 7175 H 671.79 -5.9504 1.36968 0
M  V30 7176 H 673.204 -4.70808 3.27127 0
M  V30 7177 H 671.601 -4.45478 4.02082 0
M  V30 7178 H 672.671 -3.06616 3.75652 0
M  V30 7179 N 674.014 -1.12206 -1.10668 0
M  V30 7180 C 675.43 -0.857619 -1.346 0
M  V30 7181 C 675.63 0.513542 -1.94846 0
M  V30 7182 O 674.686 1.26273 -2.18658 0
M  V30 7183 C 675.999 -1.97212 -2.26998 0
M  V30 7184 C 677.547 -2.00272 -2.40542 0
M  V30 7185 C 678.022 -3.10948 -3.36267 0
M  V30 7186 N 679.513 -3.10375 -3.43834 0
M  V30 7187 C 680.248 -3.92651 -4.17867 0
M  V30 7188 N 679.744 -4.84911 -4.94807 0
M  V30 7189 N 681.537 -3.80798 -4.1346 0
M  V30 7190 H 673.688 -2.00558 -0.699306 0
M  V30 7191 H 675.951 -0.872612 -0.370477 0
M  V30 7192 H 675.657 -2.96002 -1.89936 0
M  V30 7193 H 675.531 -1.87521 -3.27286 0
M  V30 7194 H 677.918 -1.02103 -2.76874 0
M  V30 7195 H 677.999 -2.14037 -1.40077 0
M  V30 7196 H 677.643 -4.09348 -3.00661 0
M  V30 7197 H 677.573 -2.94421 -4.36605 0
M  V30 7198 H 680.064 -2.43536 -2.88961 0
M  V30 7199 H 680.377 -5.44207 -5.48688 0
M  V30 7200 H 678.722 -4.88926 -4.93939 0
M  V30 7201 H 681.913 -3.08058 -3.52445 0
M  V30 7202 H 682.086 -4.4515 -4.70898 0
M  V30 7203 N 675.492 1.28418 -0.913599 0
M  V30 7204 C 676.769 1.89977 -0.465619 0
M  V30 7205 C 677.149 1.82813 1.05559 0
M  V30 7206 O 676.497 1.26397 1.90358 0
M  V30 7207 C 676.707 3.34492 -0.995813 0
M  V30 7208 C 678.055 4.11468 -1.04782 0
M  V30 7209 O 679.079 3.43451 -0.944445 0
M  V30 7210 O 677.938 5.33046 -1.20518 0
M  V30 7211 H 675.032 0.813734 -0.147532 0
M  V30 7212 H 677.578 1.36786 -1.00437 0
M  V30 7213 H 676.35 3.33929 -2.03978 0
M  V30 7214 H 675.973 3.95181 -0.437878 0
M  V30 7215 N 676.97 0.677563 1.42291 0
M  V30 7216 C 678.386 0.347376 1.55774 0
M  V30 7217 C 678.586 -1.14703 1.65667 0
M  V30 7218 O 677.642 -1.93252 1.62512 0
M  V30 7219 C 678.955 1.08011 2.80631 0
M  V30 7220 C 680.503 1.06271 2.94407 0
M  V30 7221 C 680.978 1.77683 4.22129 0
M  V30 7222 N 682.469 1.74564 4.29047 0
M  V30 7223 C 683.204 2.26673 5.26694 0
M  V30 7224 N 682.7 2.87176 6.30477 0
M  V30 7225 N 684.493 2.17032 5.18511 0
M  V30 7226 H 676.644 1.64703 1.34114 0
M  V30 7227 H 678.907 0.694038 0.645768 0
M  V30 7228 H 678.613 2.13518 2.79469 0
M  V30 7229 H 678.487 0.647115 3.71608 0
M  V30 7230 H 680.874 0.0159658 2.95096 0
M  V30 7231 H 680.955 1.53461 2.04654 0
M  V30 7232 H 680.599 2.82327 4.22201 0
M  V30 7233 H 680.529 1.2794 5.10822 0
M  V30 7234 H 683.02 1.30436 3.54676 0
M  V30 7235 H 683.333 3.24551 7.01346 0
M  V30 7236 H 681.678 2.91247 6.31031 0
M  V30 7237 H 684.869 1.69451 4.36353 0
M  V30 7238 H 685.042 2.57948 5.94446 0
M  V30 7239 N 678.448 -1.51871 0.421078 0
M  V30 7240 C 679.378 -2.30231 -0.389363 0
M  V30 7241 C 680.359 -1.34946 -1.03555 0
M  V30 7242 O 681.544 -1.63859 -1.04229 0
M  V30 7243 C 678.674 -3.13247 -1.49979 0
M  V30 7244 C 677.628 -4.16677 -0.977966 0
M  V30 7245 C 676.954 -4.88112 -2.1829 0
M  V30 7246 C 678.254 -5.22295 -0.0236775 0
M  V30 7247 H 679.948 -2.98229 0.264524 0
M  V30 7248 H 677.494 -1.43424 0.12866 0
M  V30 7249 H 679.447 -3.66838 -2.07383 0
M  V30 7250 H 678.171 -2.4304 -2.18173 0
M  V30 7251 H 676.83 -3.64114 -0.426245 0
M  V30 7252 H 676.478 -4.14423 -2.85066 0
M  V30 7253 H 676.178 -5.58041 -1.84021 0
M  V30 7254 H 677.702 -5.44521 -2.76278 0
M  V30 7255 H 679.116 -5.71055 -0.506899 0
M  V30 7256 H 677.513 -5.99656 0.230782 0
M  V30 7257 H 678.583 -4.76131 0.917999 0
M  V30 7258 N 679.926 -0.151884 -1.56866 0
M  V30 7259 C 681.337 0.368128 -1.83035 0
M  V30 7260 C 681.688 1.64402 -1.07082 0
M  V30 7261 O 680.813 2.14056 -0.317647 0
M  V30 7262 C 681.408 0.674676 -3.32014 0
M  V30 7263 C 679.967 1.13919 -3.58747 0
M  V30 7264 C 679.114 0.164833 -2.7681 0
M  V30 7265 H 682.065 -0.376499 -1.54169 0
M  V30 7266 H 682.086 1.52883 -3.48435 0
M  V30 7267 H 681.598 -0.254113 -3.87267 0
M  V30 7268 H 679.699 2.08375 -3.08886 0
M  V30 7269 H 679.812 1.06179 -4.67186 0
M  V30 7270 H 678.176 0.658419 -2.46043 0
M  V30 7271 H 678.959 -0.757633 -3.34836 0
M  V30 7272 N 681.404 1.57128 0.121893 0
M  V30 7273 C 682.314 2.03425 1.16857 0
M  V30 7274 C 683.33 0.954108 1.45509 0
M  V30 7275 O 684.506 1.26541 1.56682 0
M  V30 7276 C 681.571 2.42685 2.47599 0
M  V30 7277 C 680.632 3.64767 2.2637 0
M  V30 7278 C 679.865 4.02145 3.50878 0
M  V30 7279 O 680.088 3.39897 4.58068 0
M  V30 7280 O 679.022 4.95262 3.42051 0
M  V30 7281 H 682.848 2.92825 0.80544 0
M  V30 7282 H 680.433 1.45654 0.332477 0
M  V30 7283 H 682.315 2.68684 3.24634 0
M  V30 7284 H 680.99 1.56432 2.83392 0
M  V30 7285 H 679.897 3.43922 1.47203 0
M  V30 7286 H 681.23 4.51716 1.95482 0
M  V30 7287 N 682.882 -0.391992 1.52647 0
M  V30 7288 C 683.815 -1.50019 1.71958 0
M  V30 7289 C 684.793 -1.5238 0.567365 0
M  V30 7290 O 685.977 -1.70831 0.796806 0
M  V30 7291 C 683.104 -2.88496 1.77447 0
M  V30 7292 C 682.15 -3.03974 2.99169 0
M  V30 7293 S 682.983 -2.75487 4.59203 0
M  V30 7294 C 684.139 -4.16163 4.67503 0
M  V30 7295 H 684.372 -1.33413 2.65685 0
M  V30 7296 H 681.905 -0.584674 1.42902 0
M  V30 7297 H 683.863 -3.68296 1.81296 0
M  V30 7298 H 682.524 -3.02431 0.848188 0
M  V30 7299 H 681.717 -4.05328 2.99542 0
M  V30 7300 H 681.319 -2.32062 2.93297 0
M  V30 7301 H 683.611 -5.10048 4.45934 0
M  V30 7302 H 684.554 -4.20806 5.69498 0
M  V30 7303 H 684.962 -4.01933 3.96371 0
M  V30 7304 N 684.36 -1.4356 -0.65026 0
M  V30 7305 C 685.29 -1.51758 -1.77459 0
M  V30 7306 C 686.271 -0.372019 -1.65982 0
M  V30 7307 O 687.456 -0.589627 -1.85033 0
M  V30 7308 C 684.586 -1.44302 -3.15902 0
M  V30 7309 C 683.54 -2.57138 -3.42146 0
M  V30 7310 C 682.866 -2.34735 -4.8042 0
M  V30 7311 C 684.166 -3.99373 -3.36598 0
M  V30 7312 H 685.86 -2.45863 -1.70855 0
M  V30 7313 H 683.406 -1.18333 -0.820566 0
M  V30 7314 H 685.359 -1.48641 -3.94314 0
M  V30 7315 H 684.083 -0.467026 -3.23244 0
M  V30 7316 H 682.742 -2.52157 -2.66106 0
M  V30 7317 H 682.39 -1.35372 -4.84441 0
M  V30 7318 H 682.09 -3.10375 -4.9894 0
M  V30 7319 H 683.614 -2.40862 -5.61086 0
M  V30 7320 H 685.028 -4.05826 -4.04942 0
M  V30 7321 H 683.425 -4.75063 -3.66654 0
M  V30 7322 H 684.495 -4.243 -2.34729 0
M  V30 7323 N 685.838 0.888903 -1.30139 0
M  V30 7324 C 687.254 1.17153 -1.08385 0
M  V30 7325 C 687.454 2.0088 0.157925 0
M  V30 7326 O 686.51 2.37668 0.852652 0
M  V30 7327 C 687.823 1.882 -2.34523 0
M  V30 7328 C 689.371 2.00981 -2.39949 0
M  V30 7329 C 689.846 2.75441 -3.65918 0
M  V30 7330 N 691.337 2.82989 -3.66704 0
M  V30 7331 C 692.072 3.41167 -4.60861 0
M  V30 7332 N 691.568 4.00425 -5.6536 0
M  V30 7333 N 693.361 3.38944 -4.48412 0
M  V30 7334 H 685.512 0.33053 -2.09812 0
M  V30 7335 H 687.775 0.208964 -0.924683 0
M  V30 7336 H 687.481 1.34119 -3.25123 0
M  V30 7337 H 687.355 2.88609 -2.42868 0
M  V30 7338 H 689.742 2.54234 -1.4983 0
M  V30 7339 H 689.823 0.996725 -2.35582 0
M  V30 7340 H 689.467 2.22861 -4.56394 0
M  V30 7341 H 689.397 3.77118 -3.67546 0
M  V30 7342 H 691.888 2.40912 -2.91153 0
M  V30 7343 H 692.201 4.42871 -6.33313 0
M  V30 7344 H 690.546 3.98856 -5.69157 0
M  V30 7345 H 693.737 2.91875 -3.6596 0
M  V30 7346 H 693.91 3.83989 -5.21974 0
M  V30 7347 N 687.317 1.12792 1.10072 0
M  V30 7348 C 688.594 0.796867 1.78632 0
M  V30 7349 C 688.974 -0.712739 1.98704 0
M  V30 7350 O 688.322 -1.64773 1.5831 0
M  V30 7351 C 688.532 1.57622 3.11378 0
M  V30 7352 C 689.88 1.76463 3.86194 0
M  V30 7353 O 690.904 1.54165 3.2111 0
M  V30 7354 O 689.763 2.13623 5.03018 0
M  V30 7355 H 686.857 0.290248 0.774394 0
M  V30 7356 H 689.403 1.23215 1.16688 0
M  V30 7357 H 688.175 2.60246 2.92212 0
M  V30 7358 H 687.798 1.13543 3.81043 0
M  V30 7359 N 688.795 -1.27931 0.920396 0
M  V30 7360 C 689.742 -2.27085 0.412422 0
M  V30 7361 C 690.712 -1.57858 -0.516725 0
M  V30 7362 O 691.897 -1.85717 -0.437475 0
M  V30 7363 C 689.037 -3.43466 -0.335399 0
M  V30 7364 C 688.15 -4.27425 0.627017 0
M  V30 7365 C 687.285 -5.31016 -0.139916 0
M  V30 7366 C 686.324 -6.06641 0.815683 0
M  V30 7367 N 685.461 -7.02052 0.0818439 0
M  V30 7368 H 690.301 -2.69913 1.26298 0
M  V30 7369 H 687.838 -1.32732 0.634076 0
M  V30 7370 H 689.796 -4.09744 -0.785226 0
M  V30 7371 H 688.426 -3.01611 -1.15025 0
M  V30 7372 H 687.478 -3.6113 1.19537 0
M  V30 7373 H 688.79 -4.79969 1.35763 0
M  V30 7374 H 687.944 -6.03208 -0.649998 0
M  V30 7375 H 686.683 -4.79257 -0.903543 0
M  V30 7376 H 685.688 -5.33294 1.33708 0
M  V30 7377 H 686.913 -6.60489 1.57897 0
M  V30 7378 H 684.859 -6.52634 -0.663671 0
M  V30 7379 H 684.776 -7.52249 0.752163 0
M  V30 7380 H 686.044 -7.78432 -0.407825 0
M  V30 7381 N 690.273 -0.685099 -1.4193 0
M  V30 7382 C 691.236 -0.0222632 -2.29189 0
M  V30 7383 C 692.236 0.7186 -1.4385 0
M  V30 7384 O 693.426 0.555058 -1.6512 0
M  V30 7385 C 690.558 0.979013 -3.2654 0
M  V30 7386 H 691.751 -0.790424 -2.89296 0
M  V30 7387 H 689.304 -0.448012 -1.49742 0
M  V30 7388 H 690.039 1.77531 -2.71392 0
M  V30 7389 H 689.824 0.451037 -3.89497 0
M  V30 7390 H 691.314 1.44091 -3.91954 0
M  V30 7391 N 691.751 1.51645 -0.429126 0
M  V30 7392 C 692.976 2.06917 0.141399 0
M  V30 7393 C 693.401 1.29527 1.36398 0
M  V30 7394 O 692.759 0.33094 1.78254 0
M  V30 7395 C 692.807 3.57776 0.4504 0
M  V30 7396 O 691.911 3.82639 1.53821 0
M  V30 7397 H 691.252 0.663978 0.0054647 0
M  V30 7398 H 693.782 1.95355 -0.608093 0
M  V30 7399 H 693.792 4.01894 0.703249 0
M  V30 7400 H 692.467 4.13532 -0.443213 0
M  V30 7401 H 691.044 3.5039 1.27597 0
M  V30 7402 N 693.229 0.160201 1.56784 0
M  V30 7403 C 694.159 -0.770264 2.2043 0
M  V30 7404 C 695.14 -1.24736 1.15651 0
M  V30 7405 O 696.325 -1.30253 1.44041 0
M  V30 7406 C 693.455 -2.00427 2.83631 0
M  V30 7407 C 692.409 -1.66345 3.94352 0
M  V30 7408 C 691.735 -2.97119 4.4455 0
M  V30 7409 C 693.035 -0.899972 5.14488 0
M  V30 7410 H 694.729 -0.239783 2.98438 0
M  V30 7411 H 692.275 -0.113891 1.43549 0
M  V30 7412 H 694.228 -2.66012 3.26827 0
M  V30 7413 H 692.952 -2.5587 2.02973 0
M  V30 7414 H 691.611 -1.03133 3.51794 0
M  V30 7415 H 691.259 -3.5058 3.60698 0
M  V30 7416 H 690.959 -2.75073 5.19238 0
M  V30 7417 H 692.483 -3.63753 4.90425 0
M  V30 7418 H 693.897 -1.45818 5.54446 0
M  V30 7419 H 692.294 -0.778968 5.95023 0
M  V30 7420 H 693.364 0.105827 4.84785 0
M  V30 7421 N 694.707 -1.5719 -0.113559 0
M  V30 7422 C 695.932 -1.89702 -0.838336 0
M  V30 7423 C 696.357 -0.752679 -1.72384 0
M  V30 7424 O 695.715 0.296575 -1.78858 0
M  V30 7425 C 695.763 -3.20989 -1.64312 0
M  V30 7426 O 694.867 -3.07278 -2.75053 0
M  V30 7427 H 694.208 -0.622339 -0.231496 0
M  V30 7428 H 696.738 -2.04382 -0.0943228 0
M  V30 7429 H 696.748 -3.53843 -2.03123 0
M  V30 7430 H 695.423 -4.03869 -0.993119 0
M  V30 7431 H 694 -2.85901 -2.39406 0
M  V30 7432 N 696.185 0.383891 -1.52853 0
M  V30 7433 C 697.117 1.48889 -1.74255 0
M  V30 7434 C 698.13 1.50405 -0.623063 0
M  V30 7435 O 699.319 1.54215 -0.898887 0
M  V30 7436 C 696.419 2.87721 -1.79081 0
M  V30 7437 C 695.592 3.10111 -3.08464 0
M  V30 7438 C 694.651 4.28954 -3.0477 0
M  V30 7439 O 693.677 4.25012 -3.78621 0
M  V30 7440 N 694.879 5.35411 -2.24311 0
M  V30 7441 H 697.644 1.30915 -2.69595 0
M  V30 7442 H 695.205 0.573454 -1.51404 0
M  V30 7443 H 697.197 3.65333 -1.7411 0
M  V30 7444 H 695.767 2.99029 -0.911052 0
M  V30 7445 H 694.987 2.20319 -3.26884 0
M  V30 7446 H 696.275 3.21928 -3.94005 0
M  V30 7447 H 695.673 5.41471 -1.63787 0
M  V30 7448 H 694.23 6.1167 -2.25175 0
M  V30 7449 N 697.663 1.43903 0.642637 0
M  V30 7450 C 698.891 1.4954 1.42988 0
M  V30 7451 C 699.306 0.116588 1.8844 0
M  V30 7452 O 698.663 -0.875285 1.60141 0
M  V30 7453 C 698.714 2.45031 2.65785 0
M  V30 7454 O 698.435 3.77551 2.22232 0
M  V30 7455 C 699.936 2.60017 3.59035 0
M  V30 7456 H 697.156 0.507544 0.438907 0
M  V30 7457 H 699.7 1.88752 0.786942 0
M  V30 7458 H 697.855 2.08985 3.26196 0
M  V30 7459 H 698.269 4.29001 3.01759 0
M  V30 7460 H 699.743 3.30887 4.41835 0
M  V30 7461 H 700.22 1.64861 4.07084 0
M  V30 7462 H 700.826 2.96918 3.045 0
M  V30 7463 N 699.141 -0.881989 1.30609 0
M  V30 7464 C 700.418 -1.61563 1.10258 0
M  V30 7465 C 700.798 -2.08228 -0.347053 0
M  V30 7466 O 700.146 -1.85151 -1.33908 0
M  V30 7467 C 700.356 -2.78287 2.10612 0
M  V30 7468 C 701.704 -3.48545 2.4249 0
M  V30 7469 O 702.728 -2.88479 2.08945 0
M  V30 7470 O 701.587 -4.56873 2.99883 0
M  V30 7471 H 698.681 -0.710238 0.423663 0
M  V30 7472 H 701.227 -0.928503 1.42045 0
M  V30 7473 H 699.999 -2.41131 3.08174 0
M  V30 7474 H 699.622 -3.54695 1.79659 0
M  V30 7475 N 700.619 -1.13374 -1.09472 0
M  V30 7476 C 701.867 -0.893422 -1.8128 0
M  V30 7477 C 702.188 0.582029 -1.86111 0
M  V30 7478 O 701.458 1.42305 -1.34633 0
M  V30 7479 H 700.038 -0.327543 -0.67136 0
M  V30 7480 H 702.7 -1.43018 -1.32408 0
M  V30 7481 H 701.796 -1.28374 -2.84476 0
M  V30 7482 N 702.098 1.27442 -0.927168 0
M  V30 7483 C 703.509 1.76385 -0.611979 0
M  V30 7484 C 703.86 1.75715 0.872853 0
M  V30 7485 O 702.985 1.3603 1.683 0
M  V30 7486 C 703.58 3.20303 -1.10414 0
M  V30 7487 C 702.139 3.66916 -0.839628 0
M  V30 7488 C 701.286 2.46859 -1.26317 0
M  V30 7489 H 704.237 1.13716 -1.107 0
M  V30 7490 H 704.258 3.77811 -0.451578 0
M  V30 7491 H 703.77 3.20759 -2.18484 0
M  V30 7492 H 701.871 3.71906 0.227292 0
M  V30 7493 H 701.984 4.56415 -1.45679 0
M  V30 7494 H 700.348 2.45407 -0.681723 0
M  V30 7495 H 701.131 2.50025 -2.3525 0
M  V30 7496 N 703.576 0.692616 1.41565 0
M  V30 7497 C 704.987 0.297478 1.84315 0
M  V30 7498 C 705.338 -1.16379 1.57957 0
M  V30 7499 O 704.463 -1.89303 1.0485 0
M  V30 7500 C 705.058 0.533136 3.34579 0
M  V30 7501 C 703.617 0.191944 3.7591 0
M  V30 7502 C 702.764 0.816873 2.64995 0
M  V30 7503 H 705.715 0.893488 1.31158 0
M  V30 7504 H 705.736 -0.209105 3.79925 0
M  V30 7505 H 705.248 1.59674 3.53731 0
M  V30 7506 H 703.349 -0.867512 3.6236 0
M  V30 7507 H 703.462 0.644902 4.7474 0
M  V30 7508 H 701.826 0.246715 2.53502 0
M  V30 7509 H 702.609 1.88429 2.86966 0
M  V30 7510 N 705.054 -1.51416 0.437162 0
M  V30 7511 C 706.017 -2.26312 -0.362729 0
M  V30 7512 C 707.017 -1.29748 -0.949847 0
M  V30 7513 O 708.207 -1.53462 -0.824325 0
M  V30 7514 C 705.339 -3.05475 -1.5132 0
M  V30 7515 H 706.532 -2.98459 0.29365 0
M  V30 7516 H 704.085 -1.55137 0.190327 0
M  V30 7517 H 704.82 -2.37744 -2.20563 0
M  V30 7518 H 704.605 -3.76401 -1.09838 0
M  V30 7519 H 706.095 -3.62209 -2.07833 0
M  V30 7520 N 706.532 -0.168513 -1.56696 0
M  V30 7521 C 707.78 0.476216 -1.96409 0
M  V30 7522 C 708.101 1.63968 -1.05544 0
M  V30 7523 O 707.371 1.95525 -0.121235 0
M  V30 7524 H 705.951 0.178921 -0.725256 0
M  V30 7525 H 708.613 -0.249042 -1.93302 0
M  V30 7526 H 707.709 0.838094 -3.00637 0
M  V30 7527 N 708.01 1.57248 0.105221 0
M  V30 7528 C 709.235 1.90143 0.828264 0
M  V30 7529 C 709.66 0.761811 1.71983 0
M  V30 7530 O 709.018 -0.287086 1.79013 0
M  V30 7531 C 709.066 3.21856 1.62608 0
M  V30 7532 O 708.17 3.08732 2.7342 0
M  V30 7533 H 707.511 0.623558 0.228192 0
M  V30 7534 H 710.041 2.0443 0.0834826 0
M  V30 7535 H 710.051 3.54916 2.01243 0
M  V30 7536 H 708.726 4.0439 0.971687 0
M  V30 7537 H 707.303 2.87167 2.37886 0
M  V30 7538 N 709.488 -0.375779 1.53054 0
M  V30 7539 C 710.899 -0.95309 1.6054 0
M  V30 7540 C 711.25 -1.90575 0.466446 0
M  V30 7541 O 710.375 -2.12507 -0.408609 0
M  V30 7542 C 710.97 -1.73537 2.90982 0
M  V30 7543 C 709.529 -2.26218 3.00836 0
M  V30 7544 C 708.676 -1.07157 2.55759 0
M  V30 7545 H 711.627 -0.154895 1.57942 0
M  V30 7546 H 711.648 -2.59574 2.78211 0
M  V30 7547 H 711.16 -1.04176 3.73857 0
M  V30 7548 H 709.261 -2.98852 2.22527 0
M  V30 7549 H 709.374 -2.54799 4.05727 0
M  V30 7550 H 707.738 -1.43553 2.10391 0
M  V30 7551 H 708.521 -0.393099 3.41042 0
M  V30 7552 N 710.966 -1.44241 -0.634997 0
M  V30 7553 C 712.214 -1.46531 -1.39187 0
M  V30 7554 C 712.535 -0.0976441 -1.94755 0
M  V30 7555 O 711.805 0.869528 -1.75545 0
M  V30 7556 H 710.385 -0.539544 -0.516625 0
M  V30 7557 H 713.047 -1.79989 -0.747655 0
M  V30 7558 H 712.143 -2.18848 -2.22513 0
M  V30 7559 N 712.444 0.87505 -1.31075 0
M  V30 7560 C 713.376 1.98773 -1.14114 0
M  V30 7561 C 714.389 1.62595 -0.0816119 0
M  V30 7562 O 715.578 1.75449 -0.32861 0
M  V30 7563 C 712.678 3.31159 -0.720224 0
M  V30 7564 C 711.851 3.9571 -1.86366 0
M  V30 7565 C 710.91 5.06407 -1.42965 0
M  V30 7566 O 709.936 5.27501 -2.13848 0
M  V30 7567 N 711.138 5.79649 -0.314194 0
M  V30 7568 H 713.903 2.1387 -2.09951 0
M  V30 7569 H 711.464 1.04873 -1.23342 0
M  V30 7570 H 713.456 4.0259 -0.412687 0
M  V30 7571 H 712.026 3.12257 0.146396 0
M  V30 7572 H 711.246 3.17324 -2.33879 0
M  V30 7573 H 712.534 4.35576 -2.62966 0
M  V30 7574 H 711.932 5.65025 0.276228 0
M  V30 7575 H 710.489 6.51766 -0.0661641 0
M  V30 7576 N 713.922 1.13953 1.08869 0
M  V30 7577 C 715.199 0.815768 1.77777 0
M  V30 7578 C 715.579 -0.691624 1.99449 0
M  V30 7579 O 714.927 -1.63085 1.60049 0
M  V30 7580 C 715.137 1.60916 3.09689 0
M  V30 7581 C 716.485 1.80549 3.84301 0
M  V30 7582 O 717.509 1.57562 3.19457 0
M  V30 7583 O 716.368 2.18946 5.00724 0
M  V30 7584 H 713.462 0.298445 0.771271 0
M  V30 7585 H 716.008 1.24446 1.15374 0
M  V30 7586 H 714.78 2.6333 2.89435 0
M  V30 7587 H 714.403 1.17578 3.79817 0
M  V30 7588 N 715.4 -1.26948 0.933913 0
M  V30 7589 C 716.625 -1.98724 0.593589 0
M  V30 7590 C 717.05 -1.6915 -0.822801 0
M  V30 7591 O 716.408 -0.93533 -1.5531 0
M  V30 7592 C 716.456 -3.50834 0.833542 0
M  V30 7593 O 715.56 -4.12284 -0.0978788 0
M  V30 7594 H 714.901 -0.623683 0.227849 0
M  V30 7595 H 717.431 -1.61599 1.25486 0
M  V30 7596 H 717.441 -4.01018 0.75156 0
M  V30 7597 H 716.116 -3.71691 1.86597 0
M  V30 7598 H 714.693 -3.72884 0.0345443 0
M  V30 7599 N 716.879 -0.700114 -1.41195 0
M  V30 7600 C 718.156 -0.160836 -1.94938 0
M  V30 7601 C 718.536 1.33014 -1.63922 0
M  V30 7602 O 717.884 2.07878 -0.948636 0
M  V30 7603 C 718.094 -0.456991 -3.45995 0
M  V30 7604 C 719.442 -0.387207 -4.22831 0
M  V30 7605 O 720.466 -0.392164 -3.54035 0
M  V30 7606 O 719.325 -0.351267 -5.4537 0
M  V30 7607 H 716.419 -0.0176304 -0.826812 0
M  V30 7608 H 718.965 -0.776586 -1.50888 0
M  V30 7609 H 717.737 -1.48884 -3.61869 0
M  V30 7610 H 717.36 0.189503 -3.97148 0
M  V30 7611 N 718.357 1.51182 -0.445186 0
M  V30 7612 C 719.287 2.30821 0.352686 0
M  V30 7613 C 720.268 1.36576 1.01395 0
M  V30 7614 O 721.453 1.65497 1.01609 0
M  V30 7615 C 718.583 3.15593 1.44976 0
M  V30 7616 C 717.537 4.1818 0.911553 0
M  V30 7617 C 716.863 4.91523 2.10497 0
M  V30 7618 C 718.163 5.22266 -0.059418 0
M  V30 7619 H 719.857 2.97771 -0.311936 0
M  V30 7620 H 717.403 1.43201 -0.151461 0
M  V30 7621 H 719.356 3.70091 2.01521 0
M  V30 7622 H 718.08 2.4648 2.14278 0
M  V30 7623 H 716.739 3.64746 0.368264 0
M  V30 7624 H 716.387 4.18906 2.78437 0
M  V30 7625 H 716.087 5.60898 1.7512 0
M  V30 7626 H 717.611 5.48847 2.6758 0
M  V30 7627 H 719.025 5.71789 0.415985 0
M  V30 7628 H 717.422 5.99213 -0.326152 0
M  V30 7629 H 718.492 4.7461 -0.993631 0
M  V30 7630 N 719.835 0.176821 1.56605 0
M  V30 7631 C 721.251 -0.179278 1.5859 0
M  V30 7632 C 721.451 -1.62433 1.19238 0
M  V30 7633 O 720.507 -2.35665 0.906552 0
M  V30 7634 C 721.82 0.106524 3.00511 0
M  V30 7635 C 723.368 0.0451731 3.12967 0
M  V30 7636 C 723.843 0.304038 4.5699 0
M  V30 7637 N 725.334 0.252008 4.62514 0
M  V30 7638 C 726.069 0.426404 5.71812 0
M  V30 7639 N 725.565 0.660155 6.89648 0
M  V30 7640 N 727.358 0.361926 5.60934 0
M  V30 7641 H 719.509 1.12001 1.8047 0
M  V30 7642 H 721.772 0.445679 0.836704 0
M  V30 7643 H 721.478 1.10778 3.33798 0
M  V30 7644 H 721.352 -0.599337 3.72408 0
M  V30 7645 H 723.739 -0.946662 2.79504 0
M  V30 7646 H 723.82 0.78383 2.43495 0
M  V30 7647 H 723.464 1.29311 4.91163 0
M  V30 7648 H 723.394 -0.455294 5.24628 0
M  V30 7649 H 725.885 0.0772102 3.77821 0
M  V30 7650 H 726.198 0.782529 7.68828 0
M  V30 7651 H 724.543 0.696835 6.91498 0
M  V30 7652 H 727.734 0.17986 4.67754 0
M  V30 7653 H 727.907 0.501263 6.46058 0
M  V30 7654 N 721.313 -1.57302 -0.09688 0
M  V30 7655 C 722.245 -1.98618 -1.14384 0
M  V30 7656 C 723.258 -0.888483 -1.36418 0
M  V30 7657 O 724.447 -1.16661 -1.35101 0
M  V30 7658 C 721.547 -2.28838 -2.49973 0
M  V30 7659 C 720.72 -3.60132 -2.48241 0
M  V30 7660 C 719.779 -3.7831 -3.65743 0
M  V30 7661 O 718.805 -4.50183 -3.48316 0
M  V30 7662 N 720.007 -3.18752 -4.85157 0
M  V30 7663 H 722.772 -2.8904 -0.792202 0
M  V30 7664 H 720.333 -1.59356 -0.285883 0
M  V30 7665 H 722.325 -2.38193 -3.27179 0
M  V30 7666 H 720.895 -1.44431 -2.77233 0
M  V30 7667 H 720.115 -3.61763 -1.56593 0
M  V30 7668 H 721.403 -4.46389 -2.4416 0
M  V30 7669 H 720.801 -2.60368 -5.0222 0
M  V30 7670 H 719.358 -3.33595 -5.59962 0
M  V30 7671 N 722.791 0.367657 -1.53252 0
M  V30 7672 C 723.701 1.47415 -1.82499 0
M  V30 7673 C 724.717 1.58711 -0.713222 0
M  V30 7674 O 725.893 1.74644 -1.00306 0
M  V30 7675 C 722.958 2.82706 -2.00694 0
M  V30 7676 C 722.019 2.80955 -3.24596 0
M  V30 7677 C 721.252 4.09793 -3.41914 0
M  V30 7678 O 721.475 5.05852 -2.63572 0
M  V30 7679 O 720.409 4.15731 -4.3526 0
M  V30 7680 H 724.235 1.25624 -2.765 0
M  V30 7681 H 721.82 0.557559 -1.38606 0
M  V30 7682 H 723.702 3.62873 -2.14246 0
M  V30 7683 H 722.377 3.04479 -1.09883 0
M  V30 7684 H 721.284 1.99494 -3.16469 0
M  V30 7685 H 722.617 2.64136 -4.15323 0
M  V30 7686 N 724.269 1.44576 0.627338 0
M  V30 7687 C 725.199 1.54562 1.75022 0
M  V30 7688 C 726.18 0.398378 1.65369 0
M  V30 7689 O 727.365 0.61899 1.84071 0
M  V30 7690 C 724.495 1.49309 3.13567 0
M  V30 7691 C 723.449 2.62549 3.38012 0
M  V30 7692 C 722.775 2.42348 4.76625 0
M  V30 7693 C 724.075 4.04678 3.30202 0
M  V30 7694 H 725.769 2.4855 1.66922 0
M  V30 7695 H 723.315 1.19624 0.801636 0
M  V30 7696 H 725.268 1.54895 3.919 0
M  V30 7697 H 723.992 0.518392 3.2246 0
M  V30 7698 H 722.651 2.56358 2.62061 0
M  V30 7699 H 722.299 1.43062 4.82226 0
M  V30 7700 H 721.999 3.18273 4.93939 0
M  V30 7701 H 723.523 2.49758 5.57183 0
M  V30 7702 H 724.937 4.12217 3.98435 0
M  V30 7703 H 723.334 4.80836 3.5905 0
M  V30 7704 H 724.404 4.2798 2.27949 0
M  V30 7705 N 725.747 -0.868086 1.31537 0
M  V30 7706 C 727.024 -1.60384 1.11965 0
M  V30 7707 C 727.404 -2.08584 -0.324949 0
M  V30 7708 O 726.752 -1.86561 -1.31937 0
M  V30 7709 C 726.962 -2.76038 2.13551 0
M  V30 7710 C 728.31 -3.45954 2.46173 0
M  V30 7711 O 729.334 -2.86247 2.11993 0
M  V30 7712 O 728.193 -4.53666 3.04711 0
M  V30 7713 H 725.287 -0.705705 0.431172 0
M  V30 7714 H 727.833 -0.913385 1.43022 0
M  V30 7715 H 726.605 -2.37849 3.10714 0
M  V30 7716 H 726.228 -3.52769 1.83411 0
M  V30 7717 N 727.225 -1.14528 -1.08264 0
M  V30 7718 C 728.641 -0.885976 -1.3275 0
M  V30 7719 C 728.841 0.472096 -1.95892 0
M  V30 7720 O 727.897 1.21606 -2.21288 0
M  V30 7721 C 729.21 -2.01982 -2.22764 0
M  V30 7722 C 730.758 -2.05329 -2.36239 0
M  V30 7723 C 731.233 -3.1801 -3.29596 0
M  V30 7724 N 732.724 -3.17598 -3.37173 0
M  V30 7725 C 733.459 -4.01426 -4.09444 0
M  V30 7726 N 732.955 -4.95297 -4.8441 0
M  V30 7727 N 734.748 -3.89482 -4.0529 0
M  V30 7728 H 726.899 -2.01996 -0.656607 0
M  V30 7729 H 729.162 -0.880274 -0.351884 0
M  V30 7730 H 728.868 -2.99964 -1.83615 0
M  V30 7731 H 728.742 -1.94421 -3.23234 0
M  V30 7732 H 731.129 -1.07953 -2.74646 0
M  V30 7733 H 731.21 -2.1696 -1.35506 0
M  V30 7734 H 730.854 -4.15633 -2.9191 0
M  V30 7735 H 730.784 -3.03616 -4.30261 0
M  V30 7736 H 733.275 -2.4961 -2.83731 0
M  V30 7737 H 733.588 -5.55723 -5.37021 0
M  V30 7738 H 731.933 -4.99293 -4.83457 0
M  V30 7739 H 735.124 -3.15465 -3.45832 0
M  V30 7740 H 735.297 -4.55039 -4.6135 0
M  V30 7741 N 728.703 1.26451 -0.940633 0
M  V30 7742 C 729.633 2.28773 -0.467479 0
M  V30 7743 C 730.614 1.63218 0.478955 0
M  V30 7744 O 731.799 1.90427 0.380929 0
M  V30 7745 C 728.929 3.46259 0.268656 0
M  V30 7746 C 727.883 4.23898 -0.591171 0
M  V30 7747 C 727.209 5.33993 0.274891 0
M  V30 7748 C 728.509 4.87974 -1.86223 0
M  V30 7749 H 730.203 2.68601 -1.32265 0
M  V30 7750 H 727.749 1.29123 -0.637436 0
M  V30 7751 H 729.702 4.16951 0.610696 0
M  V30 7752 H 728.426 3.05383 1.15796 0
M  V30 7753 H 727.085 3.54969 -0.916098 0
M  V30 7754 H 726.733 4.89358 1.16353 0
M  V30 7755 H 726.433 5.86849 -0.297006 0
M  V30 7756 H 727.957 6.07523 0.612213 0
M  V30 7757 H 729.371 5.50883 -1.58747 0
M  V30 7758 H 727.768 5.50945 -2.37866 0
M  V30 7759 H 728.838 4.10945 -2.57394 0
M  V30 7760 N 730.181 0.707592 1.40822 0
M  V30 7761 C 731.131 0.0265008 2.27985 0
M  V30 7762 C 732.115 -0.740685 1.42838 0
M  V30 7763 O 733.307 -0.6142 1.66002 0
M  V30 7764 C 730.436 -0.900382 3.31282 0
M  V30 7765 C 729.522 -0.128807 4.23904 0
M  V30 7766 N 729.913 0.883744 4.9802 0
M  V30 7767 C 728.211 -0.362539 4.44524 0
M  V30 7768 C 728.912 1.34666 5.65898 0
M  V30 7769 N 727.888 0.670306 5.39451 0
M  V30 7770 H 731.69 0.802667 2.82727 0
M  V30 7771 H 729.204 0.539475 1.53178 0
M  V30 7772 H 731.201 -1.40357 3.92563 0
M  V30 7773 H 729.861 -1.67601 2.781 0
M  V30 7774 H 730.872 1.26435 5.0223 0
M  V30 7775 H 727.549 -1.11512 4.02332 0
M  V30 7776 H 728.939 2.18756 6.35292 0
M  V30 7777 N 731.66 -1.50943 0.453197 0
M  V30 7778 C 733.076 -1.59245 0.106342 0
M  V30 7779 C 733.276 -1.46287 -1.38572 0
M  V30 7780 O 732.332 -1.31219 -2.15726 0
M  V30 7781 C 733.645 -2.93797 0.640595 0
M  V30 7782 C 735.193 -3.07148 0.602435 0
M  V30 7783 C 735.668 -4.44247 1.11393 0
M  V30 7784 N 737.159 -4.50611 1.07258 0
M  V30 7785 C 737.894 -5.55049 1.43905 0
M  V30 7786 N 737.39 -6.66828 1.87914 0
M  V30 7787 N 739.183 -5.45494 1.35621 0
M  V30 7788 H 731.334 -1.5761 1.42382 0
M  V30 7789 H 733.597 -0.74384 0.587713 0
M  V30 7790 H 733.303 -3.087 1.68515 0
M  V30 7791 H 733.177 -3.77127 0.0742272 0
M  V30 7792 H 735.564 -2.91903 -0.433171 0
M  V30 7793 H 735.645 -2.25619 1.20539 0
M  V30 7794 H 735.289 -4.60239 2.14808 0
M  V30 7795 H 735.219 -5.2434 0.487353 0
M  V30 7796 H 737.71 -3.70391 0.749585 0
M  V30 7797 H 738.023 -7.42558 2.14072 0
M  V30 7798 H 736.368 -6.67995 1.91853 0
M  V30 7799 H 739.559 -4.57053 1.01093 0
M  V30 7800 H 739.732 -6.2677 1.64508 0
M  V30 7801 N 733.138 -0.185124 -1.56509 0
M  V30 7802 C 734.048 0.751908 -2.22224 0
M  V30 7803 C 735.064 1.24244 -1.21817 0
M  V30 7804 O 736.24 1.29169 -1.54523 0
M  V30 7805 C 733.305 1.95837 -2.86092 0
M  V30 7806 C 732.366 1.51337 -4.01741 0
M  V30 7807 C 731.599 2.66233 -4.62554 0
M  V30 7808 O 731.822 3.8346 -4.22273 0
M  V30 7809 O 730.756 2.39517 -5.52191 0
M  V30 7810 H 734.582 0.222304 -3.02885 0
M  V30 7811 H 732.167 0.0437141 -1.49336 0
M  V30 7812 H 734.049 2.66368 -3.26536 0
M  V30 7813 H 732.724 2.47677 -2.08417 0
M  V30 7814 H 731.631 0.777155 -3.65939 0
M  V30 7815 H 732.964 1.04175 -4.81049 0
M  V30 7816 N 734.616 1.57351 0.0885366 0
M  V30 7817 C 735.546 2.05561 1.10757 0
M  V30 7818 C 736.527 0.945789 1.41382 0
M  V30 7819 O 737.712 1.21747 1.51299 0
M  V30 7820 C 734.842 2.48554 2.42566 0
M  V30 7821 C 733.796 3.63259 2.26334 0
M  V30 7822 C 733.122 3.9225 3.63378 0
M  V30 7823 C 734.422 4.93913 1.69844 0
M  V30 7824 H 736.116 2.90946 0.706468 0
M  V30 7825 H 733.662 1.39968 0.338385 0
M  V30 7826 H 735.615 2.8089 3.14132 0
M  V30 7827 H 734.339 1.60176 2.84625 0
M  V30 7828 H 732.998 3.31179 1.57213 0
M  V30 7829 H 732.646 3.0103 4.02976 0
M  V30 7830 H 732.346 4.69478 3.53362 0
M  V30 7831 H 733.87 4.27067 4.36401 0
M  V30 7832 H 735.284 5.24588 2.31258 0
M  V30 7833 H 733.681 5.75349 1.70569 0
M  V30 7834 H 734.751 4.80409 0.65843 0
M  V30 7835 N 736.094 -0.359525 1.53444 0
M  V30 7836 C 737.057 -1.42357 1.7963 0
M  V30 7837 C 738.057 -1.46319 0.666884 0
M  V30 7838 O 739.247 -1.46974 0.935113 0
M  V30 7839 C 736.379 -2.81425 1.92387 0
M  V30 7840 H 737.572 -1.20409 2.74666 0
M  V30 7841 H 735.125 -0.593007 1.44614 0
M  V30 7842 H 735.86 -3.08679 0.994384 0
M  V30 7843 H 735.645 -2.79947 2.74539 0
M  V30 7844 H 737.135 -3.5847 2.14218 0
M  V30 7845 N 737.572 -1.44907 -0.619662 0
M  V30 7846 C 738.482 -1.55168 -1.75955 0
M  V30 7847 C 739.498 -0.43672 -1.6843 0
M  V30 7848 O 740.674 -0.695704 -1.89002 0
M  V30 7849 C 737.739 -1.50397 -3.12381 0
M  V30 7850 C 736.8 -2.72835 -3.31451 0
M  V30 7851 C 736.033 -2.68283 -4.61368 0
M  V30 7852 O 736.256 -1.74929 -5.42914 0
M  V30 7853 O 735.19 -3.59308 -4.82889 0
M  V30 7854 H 739.016 -2.51493 -1.7025 0
M  V30 7855 H 736.601 -1.27282 -0.782289 0
M  V30 7856 H 738.483 -1.50301 -3.93685 0
M  V30 7857 H 737.158 -0.572197 -3.18603 0
M  V30 7858 H 736.065 -2.78496 -2.49781 0
M  V30 7859 H 737.398 -3.65098 -3.30098 0
M  V30 7860 N 739.05 0.861098 -1.31996 0
M  V30 7861 C 740.298 1.61162 -1.21947 0
M  V30 7862 C 740.619 1.93751 0.220351 0
M  V30 7863 O 739.889 1.59069 1.14341 0
M  V30 7864 H 738.469 0.597485 -0.448353 0
M  V30 7865 H 741.131 1.03039 -1.65436 0
M  V30 7866 H 740.227 2.55138 -1.79752 0
M  V30 7867 N 740.528 1.15101 1.07655 0
M  V30 7868 C 741.944 0.893004 1.32279 0
M  V30 7869 C 742.144 -0.461701 1.96139 0
M  V30 7870 O 741.2 -1.20431 2.21929 0
M  V30 7871 C 742.513 2.03161 2.21689 0
M  V30 7872 C 744.061 2.06579 2.35147 0
M  V30 7873 C 744.536 3.19754 3.27905 0
M  V30 7874 N 746.027 3.19382 3.35484 0
M  V30 7875 C 746.762 4.03592 4.07309 0
M  V30 7876 N 746.258 4.97859 4.81776 0
M  V30 7877 N 748.051 3.91626 4.03219 0
M  V30 7878 H 740.202 2.02341 0.645886 0
M  V30 7879 H 742.465 0.882127 0.347211 0
M  V30 7880 H 742.171 3.00934 1.82021 0
M  V30 7881 H 742.045 1.96132 3.22199 0
M  V30 7882 H 744.432 1.09408 2.74069 0
M  V30 7883 H 744.513 2.17676 1.34353 0
M  V30 7884 H 744.157 4.17175 2.89702 0
M  V30 7885 H 744.087 3.05893 4.28645 0
M  V30 7886 H 746.578 2.51112 2.82403 0
M  V30 7887 H 746.891 5.58563 5.34067 0
M  V30 7888 H 745.236 5.0185 4.80803 0
M  V30 7889 H 748.427 3.17295 3.44154 0
M  V30 7890 H 748.6 4.57479 4.5893 0
M  V30 7891 N 742.006 -1.2595 0.947325 0
M  V30 7892 C 742.969 -2.24407 0.466285 0
M  V30 7893 C 743.969 -1.55054 -0.426005 0
M  V30 7894 O 745.159 -1.7275 -0.224319 0
M  V30 7895 C 742.291 -3.39326 -0.327201 0
M  V30 7896 H 743.484 -2.68477 1.33642 0
M  V30 7897 H 741.037 -1.38211 0.729887 0
M  V30 7898 H 741.772 -3.00667 -1.21532 0
M  V30 7899 H 741.557 -3.9085 0.312839 0
M  V30 7900 H 743.047 -4.12455 -0.653477 0
M  V30 7901 N 743.484 -0.715051 -1.40445 0
M  V30 7902 C 744.732 -0.253826 -2.005 0
M  V30 7903 C 745.053 1.15681 -1.5698 0
M  V30 7904 O 744.323 1.78414 -0.809027 0
M  V30 7905 H 742.903 -0.0908537 -0.741454 0
M  V30 7906 H 745.565 -0.920561 -1.7179 0
M  V30 7907 H 744.661 -0.286499 -3.10782 0
M  V30 7908 N 744.962 1.50701 -0.461195 0
M  V30 7909 C 745.892 2.31182 0.328184 0
M  V30 7910 C 746.873 1.37644 0.999408 0
M  V30 7911 O 748.058 1.66565 0.99848 0
M  V30 7912 C 745.188 3.17113 1.41621 0
M  V30 7913 C 744.142 4.19124 0.867148 0
M  V30 7914 C 743.468 4.93728 2.05272 0
M  V30 7915 C 744.768 5.22174 -0.114808 0
M  V30 7916 H 746.462 2.97423 -0.343501 0
M  V30 7917 H 744.008 1.43033 -0.166641 0
M  V30 7918 H 745.961 3.72208 1.97584 0
M  V30 7919 H 744.685 2.48739 2.11652 0
M  V30 7920 H 743.344 3.65116 0.329557 0
M  V30 7921 H 742.992 4.21835 2.73978 0
M  V30 7922 H 742.692 5.62724 1.69161 0
M  V30 7923 H 744.216 5.51654 2.61744 0
M  V30 7924 H 745.63 5.72198 0.355316 0
M  V30 7925 H 744.027 5.98833 -0.389689 0
M  V30 7926 H 745.097 4.7353 -1.04391 0
M  V30 7927 N 746.441 0.193421 1.56409 0
M  V30 7928 C 747.373 -0.759944 2.16235 0
M  V30 7929 C 748.386 -1.17797 1.12373 0
M  V30 7930 O 749.575 -1.11399 1.39472 0
M  V30 7931 C 746.675 -2.03735 2.70823 0
M  V30 7932 C 745.848 -1.77939 3.9957 0
M  V30 7933 C 744.907 -2.90111 4.39001 0
M  V30 7934 O 743.933 -2.59791 5.06456 0
M  V30 7935 N 745.135 -4.18426 4.02368 0
M  V30 7936 H 747.9 -0.248348 2.98669 0
M  V30 7937 H 745.461 0.0113966 1.61896 0
M  V30 7938 H 747.453 -2.77914 2.94187 0
M  V30 7939 H 746.023 -2.46022 1.92852 0
M  V30 7940 H 745.243 -0.875491 3.84355 0
M  V30 7941 H 746.531 -1.58099 4.83614 0
M  V30 7942 H 745.929 -4.45913 3.48106 0
M  V30 7943 H 744.486 -4.89237 4.30686 0
M  V30 7944 N 747.919 -1.57396 -0.0801906 0
M  V30 7945 C 748.882 -2.02133 -1.0805 0
M  V30 7946 C 749.882 -0.91707 -1.32085 0
M  V30 7947 O 751.072 -1.18217 -1.27947 0
M  V30 7948 C 748.204 -2.39479 -2.42616 0
M  V30 7949 H 749.397 -2.91733 -0.6951 0
M  V30 7950 H 746.95 -1.52869 -0.325677 0
M  V30 7951 H 747.685 -1.52879 -2.86004 0
M  V30 7952 H 747.47 -3.20052 -2.26515 0
M  V30 7953 H 748.96 -2.74697 -3.14534 0
M  V30 7954 N 749.397 0.351382 -1.53633 0
M  V30 7955 C 750.329 1.45159 -1.77374 0
M  V30 7956 C 751.342 1.4905 -0.654826 0
M  V30 7957 O 752.531 1.52274 -0.931396 0
M  V30 7958 C 749.631 2.83858 -1.85143 0
M  V30 7959 C 748.804 3.03498 -3.14972 0
M  V30 7960 C 747.863 4.22393 -3.138 0
M  V30 7961 O 746.889 4.16885 -3.87551 0
M  V30 7962 N 748.091 5.30533 -2.35617 0
M  V30 7963 H 750.856 1.25167 -2.72311 0
M  V30 7964 H 748.417 0.54121 -1.52586 0
M  V30 7965 H 750.409 3.61557 -1.8182 0
M  V30 7966 H 748.979 2.9703 -0.974275 0
M  V30 7967 H 748.199 2.13336 -3.31484 0
M  V30 7968 H 749.487 3.13498 -4.00745 0
M  V30 7969 H 748.885 5.37875 -1.75235 0
M  V30 7970 H 747.442 6.06756 -2.38098 0
M  V30 7971 N 750.875 1.45233 0.611969 0
M  V30 7972 C 751.785 1.56098 1.7513 0
M  V30 7973 C 752.801 0.445646 1.68196 0
M  V30 7974 O 753.977 0.705718 1.88631 0
M  V30 7975 C 751.042 1.52052 3.11579 0
M  V30 7976 C 750.103 2.74589 3.29999 0
M  V30 7977 C 749.336 2.70726 4.59938 0
M  V30 7978 O 749.559 1.77806 5.41979 0
M  V30 7979 O 748.493 3.61864 4.80976 0
M  V30 7980 H 752.319 2.52392 1.68914 0
M  V30 7981 H 749.904 1.27695 0.775528 0
M  V30 7982 H 751.786 1.52387 3.92882 0
M  V30 7983 H 750.461 0.589085 3.18295 0
M  V30 7984 H 749.368 2.79817 2.48301 0
M  V30 7985 H 750.701 3.66843 3.28157 0
M  V30 7986 N 752.353 -0.854086 1.3245 0
M  V30 7987 C 753.285 -1.96932 1.17262 0
M  V30 7988 C 754.298 -1.62445 0.107469 0
M  V30 7989 O 755.487 -1.74904 0.356481 0
M  V30 7990 C 752.587 -3.29971 0.772817 0
M  V30 7991 C 751.76 -3.92695 1.92638 0
M  V30 7992 C 750.819 -5.04068 1.51003 0
M  V30 7993 O 749.845 -5.24032 2.22213 0
M  V30 7994 N 751.047 -5.79076 0.406371 0
M  V30 7995 H 753.812 -2.10503 2.13327 0
M  V30 7996 H 751.373 -1.02897 1.24995 0
M  V30 7997 H 753.365 -4.01883 0.476684 0
M  V30 7998 H 751.935 -3.1245 -0.0967 0
M  V30 7999 H 751.155 -3.13563 2.38897 0
M  V30 8000 H 752.443 -4.31337 2.69863 0
M  V30 8001 H 751.841 -5.65393 -0.186302 0
M  V30 8002 H 750.398 -6.51579 0.169846 0
M  V30 8003 N 753.831 -1.1567 -1.07043 0
M  V30 8004 C 754.741 -0.870435 -2.17855 0
M  V30 8005 C 755.757 0.154452 -1.73313 0
M  V30 8006 O 756.933 -0.0203759 -2.0139 0
M  V30 8007 C 753.998 -0.367219 -3.4475 0
M  V30 8008 C 753.059 -1.45639 -4.03841 0
M  V30 8009 C 752.292 -0.977092 -5.2468 0
M  V30 8010 O 752.515 0.176127 -5.70128 0
M  V30 8011 O 751.449 -1.76215 -5.75527 0
M  V30 8012 H 755.275 -1.79687 -2.44839 0
M  V30 8013 H 752.86 -0.936064 -1.1644 0
M  V30 8014 H 754.742 -0.0931947 -4.21297 0
M  V30 8015 H 753.417 0.53131 -3.1931 0
M  V30 8016 H 752.324 -1.78406 -3.28819 0
M  V30 8017 H 753.657 -2.32995 -4.3356 0
M  V30 8018 N 755.309 1.25446 -0.953992 0
M  V30 8019 C 756.239 2.28264 -0.491717 0
M  V30 8020 C 757.22 1.63717 0.461617 0
M  V30 8021 O 758.405 1.90821 0.36071 0
M  V30 8022 C 755.535 3.46525 0.231915 0
M  V30 8023 C 754.489 4.23247 -0.636098 0
M  V30 8024 C 753.815 5.34254 0.218238 0
M  V30 8025 C 755.115 4.85971 -1.91389 0
M  V30 8026 H 756.809 2.67183 -1.35106 0
M  V30 8027 H 754.355 1.2844 -0.651095 0
M  V30 8028 H 756.308 4.17576 0.566439 0
M  V30 8029 H 755.032 3.06594 1.12551 0
M  V30 8030 H 753.691 3.53978 -0.953696 0
M  V30 8031 H 753.339 4.90564 1.11156 0
M  V30 8032 H 753.039 5.86501 -0.359232 0
M  V30 8033 H 754.563 6.08138 0.547743 0
M  V30 8034 H 755.977 5.49168 -1.64581 0
M  V30 8035 H 754.374 5.48391 -2.43696 0
M  V30 8036 H 755.444 4.08192 -2.61738 0
M  V30 8037 N 756.787 0.722489 1.40064 0
M  V30 8038 C 758.027 0.269491 2.02616 0
M  V30 8039 C 758.391 -1.11835 1.56067 0
M  V30 8040 O 759.592 -1.66873 2.1073 0
M  V30 8041 C 757.863 0.354066 3.55642 0
M  V30 8042 S 759.422 -0.0209309 4.38795 0
M  V30 8043 H 756.24 0.106412 0.702992 0
M  V30 8044 H 758.842 0.946237 1.71075 0
M  V30 8045 H 757.546 1.36565 3.87012 0
M  V30 8046 H 757.077 -0.340925 3.9192 0
M  V30 8047 H 759.092 -1.24093 4.80432 0
M  V30 8048 N 758.265 -1.50454 0.469181 0
M  V30 8049 C 759.681 -1.59124 0.123226 0
M  V30 8050 C 759.881 -1.47749 -1.37013 0
M  V30 8051 O 758.937 -1.335 -2.14322 0
M  V30 8052 C 760.25 -2.93101 0.67172 0
M  V30 8053 C 761.798 -3.06491 0.634978 0
M  V30 8054 C 762.273 -4.43041 1.16098 0
M  V30 8055 N 763.764 -4.49448 1.12031 0
M  V30 8056 C 764.499 -5.53491 1.49784 0
M  V30 8057 N 763.995 -6.64798 1.94976 0
M  V30 8058 N 765.788 -5.44025 1.41399 0
M  V30 8059 H 757.939 -1.56091 1.44046 0
M  V30 8060 H 760.202 -0.737564 0.59557 0
M  V30 8061 H 759.908 -3.06895 1.7178 0
M  V30 8062 H 759.782 -3.77027 0.114222 0
M  V30 8063 H 762.169 -2.92346 -0.402187 0
M  V30 8064 H 762.25 -2.24328 1.22926 0
M  V30 8065 H 761.894 -4.57935 2.19677 0
M  V30 8066 H 761.824 -5.23794 0.542939 0
M  V30 8067 H 764.315 -3.69575 0.788828 0
M  V30 8068 H 764.628 -7.40246 2.21936 0
M  V30 8069 H 762.973 -6.65923 1.98927 0
M  V30 8070 H 766.164 -4.55955 1.05935 0
M  V30 8071 H 766.337 -6.2499 1.71147 0
M  V30 8072 N 759.743 -0.201713 -1.56304 0
M  V30 8073 C 760.706 0.702811 -2.18159 0
M  V30 8074 C 761.706 1.13619 -1.13787 0
M  V30 8075 O 762.896 1.0482 -1.39134 0
M  V30 8076 C 760.028 1.96032 -2.78898 0
M  V30 8077 H 761.221 0.163836 -2.99452 0
M  V30 8078 H 758.774 0.04791 -1.56227 0
M  V30 8079 H 759.509 2.54165 -2.01421 0
M  V30 8080 H 759.294 1.65824 -3.55309 0
M  V30 8081 H 760.784 2.60519 -3.26373 0
M  V30 8082 N 761.222 1.57436 0.0718424 0
M  V30 8083 C 762.154 2.00412 1.1121 0
M  V30 8084 C 763.167 0.910074 1.34987 0
M  V30 8085 O 764.356 1.18796 1.33228 0
M  V30 8086 C 761.456 2.32786 2.46301 0
M  V30 8087 C 760.629 3.64036 2.4248 0
M  V30 8088 C 759.688 3.8408 3.59679 0
M  V30 8089 O 758.714 4.55667 3.4111 0
M  V30 8090 N 759.916 3.2643 4.80025 0
M  V30 8091 H 762.681 2.90264 0.746118 0
M  V30 8092 H 760.242 1.59791 0.260495 0
M  V30 8093 H 762.234 2.43368 3.23348 0
M  V30 8094 H 760.804 1.48824 2.74901 0
M  V30 8095 H 760.024 3.64208 1.50818 0
M  V30 8096 H 761.312 4.50217 2.37027 0
M  V30 8097 H 760.71 2.68325 4.98014 0
M  V30 8098 H 759.267 3.42461 5.54584 0
M  V30 8099 N 762.7 -0.34323 1.53817 0
M  V30 8100 C 763.948 -1.0813 1.70741 0
M  V30 8101 C 764.269 -1.89165 0.473461 0
M  V30 8102 O 763.539 -1.89075 -0.512605 0
M  V30 8103 H 762.119 -0.40219 0.629486 0
M  V30 8104 H 764.781 -0.384426 1.91071 0
M  V30 8105 H 763.877 -1.7585 2.57843 0
M  V30 8106 N 764.178 -1.45556 -0.604258 0
M  V30 8107 C 765.11 -1.50494 -1.72871 0
M  V30 8108 C 766.123 -0.395368 -1.57926 0
M  V30 8109 O 767.312 -0.662603 -1.65746 0
M  V30 8110 C 764.412 -1.34874 -3.10906 0
M  V30 8111 C 763.585 -2.59564 -3.52058 0
M  V30 8112 C 762.644 -2.38453 -4.6907 0
M  V30 8113 O 761.67 -3.12082 -4.76018 0
M  V30 8114 N 762.872 -1.43229 -5.62553 0
M  V30 8115 H 765.637 -2.4744 -1.69097 0
M  V30 8116 H 763.198 -1.41338 -0.789636 0
M  V30 8117 H 765.19 -1.18556 -3.86945 0
M  V30 8118 H 763.76 -0.461913 -3.09168 0
M  V30 8119 H 762.98 -2.90974 -2.65946 0
M  V30 8120 H 764.268 -3.42441 -3.76313 0
M  V30 8121 H 763.666 -0.824714 -5.59656 0
M  V30 8122 H 762.223 -1.32882 -6.38111 0
M  V30 8123 N 765.656 0.84705 -1.32902 0
M  V30 8124 C 766.588 1.96308 -1.18304 0
M  V30 8125 C 767.601 1.62386 -0.116082 0
M  V30 8126 O 768.79 1.74713 -0.365751 0
M  V30 8127 C 765.89 3.29556 -0.790305 0
M  V30 8128 C 765.063 3.91668 -1.94717 0
M  V30 8129 C 764.122 5.0326 -1.53674 0
M  V30 8130 O 763.148 5.22847 -2.24989 0
M  V30 8131 N 764.35 5.78852 -0.437075 0
M  V30 8132 H 767.115 2.09369 -2.14441 0
M  V30 8133 H 764.676 1.02233 -1.25539 0
M  V30 8134 H 766.668 4.01624 -0.49799 0
M  V30 8135 H 765.238 3.12497 0.0801286 0
M  V30 8136 H 764.458 3.12292 -2.40557 0
M  V30 8137 H 765.746 4.299 -2.72146 0
M  V30 8138 H 765.144 5.65484 0.156316 0
M  V30 8139 H 763.701 6.51479 -0.204399 0
M  V30 8140 N 767.134 1.16236 1.06428 0
M  V30 8141 C 768.044 0.881976 2.1739 0
M  V30 8142 C 769.06 -0.145259 1.73393 0
M  V30 8143 O 770.236 0.0310558 2.01376 0
M  V30 8144 C 767.301 0.385496 3.4455 0
M  V30 8145 C 766.362 1.47779 4.03063 0
M  V30 8146 C 765.595 1.0049 5.24154 0
M  V30 8147 O 765.818 -0.145889 5.70213 0
M  V30 8148 O 764.752 1.79265 5.74585 0
M  V30 8149 H 768.578 1.80983 2.43883 0
M  V30 8150 H 766.163 0.942226 1.15942 0
M  V30 8151 H 768.045 0.115536 4.21242 0
M  V30 8152 H 766.72 -0.514369 3.19587 0
M  V30 8153 H 765.627 1.80147 3.27869 0
M  V30 8154 H 766.96 2.35291 4.32318 0
M  V30 8155 N 768.612 -1.24939 0.960631 0
M  V30 8156 C 769.522 -2.29374 0.492435 0
M  V30 8157 C 770.538 -1.68262 -0.443154 0
M  V30 8158 O 771.714 -1.98875 -0.31793 0
M  V30 8159 C 768.779 -3.46023 -0.216626 0
M  V30 8160 C 767.84 -4.22557 0.757915 0
M  V30 8161 C 767.073 -5.33636 0.0825969 0
M  V30 8162 O 767.296 -5.59084 -1.13054 0
M  V30 8163 O 766.23 -5.96939 0.771177 0
M  V30 8164 H 770.056 -2.71525 1.36044 0
M  V30 8165 H 767.641 -1.30499 0.72735 0
M  V30 8166 H 769.523 -4.16885 -0.615241 0
M  V30 8167 H 768.198 -3.05862 -1.05971 0
M  V30 8168 H 767.105 -3.54099 1.20685 0
M  V30 8169 H 768.438 -4.66516 1.5692 0
M  V30 8170 N 770.09 -0.729906 -1.39679 0
M  V30 8171 C 771.02 -0.101618 -2.33279 0
M  V30 8172 C 772.001 0.729854 -1.53646 0
M  V30 8173 O 773.186 0.67587 -1.82059 0
M  V30 8174 C 770.316 0.81024 -3.37716 0
M  V30 8175 C 769.27 0.0833126 -4.27919 0
M  V30 8176 C 768.596 1.11185 -5.23012 0
M  V30 8177 C 769.896 -1.07107 -5.112 0
M  V30 8178 H 771.59 -0.883452 -2.86069 0
M  V30 8179 H 769.136 -0.426283 -1.37546 0
M  V30 8180 H 771.089 1.25927 -4.02145 0
M  V30 8181 H 769.813 1.62413 -2.83354 0
M  V30 8182 H 768.472 -0.346043 -3.64963 0
M  V30 8183 H 768.12 1.91917 -4.64948 0
M  V30 8184 H 767.82 0.63026 -5.8421 0
M  V30 8185 H 769.344 1.56068 -5.90318 0
M  V30 8186 H 770.758 -0.700726 -5.69002 0
M  V30 8187 H 769.155 -1.48196 -5.81514 0
M  V30 8188 H 770.225 -1.89513 -4.46332 0
M  V30 8189 N 771.568 1.50203 -0.477153 0
M  V30 8190 C 772.498 2.31517 0.303646 0
M  V30 8191 C 773.479 1.38696 0.984753 0
M  V30 8192 O 774.664 1.67615 0.980758 0
M  V30 8193 C 771.794 3.18598 1.38249 0
M  V30 8194 C 770.748 4.2002 0.822645 0
M  V30 8195 C 770.074 4.95878 2.00024 0
M  V30 8196 C 771.374 5.22023 -0.170185 0
M  V30 8197 H 773.068 2.97042 -0.375027 0
M  V30 8198 H 770.614 1.42848 -0.181802 0
M  V30 8199 H 772.567 3.74282 1.93625 0
M  V30 8200 H 771.291 2.5097 2.09002 0
M  V30 8201 H 769.95 3.65445 0.290813 0
M  V30 8202 H 769.598 4.24717 2.69489 0
M  V30 8203 H 769.298 5.64487 1.63183 0
M  V30 8204 H 770.822 5.54399 2.55878 0
M  V30 8205 H 772.236 5.72543 0.294606 0
M  V30 8206 H 770.633 5.98386 -0.453181 0
M  V30 8207 H 771.703 4.72396 -1.09408 0
M  V30 8208 N 773.046 0.209999 1.56195 0
M  V30 8209 C 773.978 -0.736967 2.17029 0
M  V30 8210 C 774.991 -1.16599 1.13616 0
M  V30 8211 O 776.18 -1.09914 1.40646 0
M  V30 8212 C 773.28 -2.00852 2.72969 0
M  V30 8213 C 772.453 -1.73691 4.01435 0
M  V30 8214 C 771.512 -2.85439 4.42053 0
M  V30 8215 O 770.538 -2.54405 5.09183 0
M  V30 8216 N 771.74 -4.14135 4.06783 0
M  V30 8217 H 774.505 -0.216656 2.98916 0
M  V30 8218 H 772.066 0.0285672 1.61875 0
M  V30 8219 H 774.058 -2.74778 2.97118 0
M  V30 8220 H 772.628 -2.43963 1.95451 0
M  V30 8221 H 771.848 -0.834676 3.85262 0
M  V30 8222 H 773.136 -1.52961 4.85263 0
M  V30 8223 H 772.534 -4.42196 3.52816 0
M  V30 8224 H 771.091 -4.84642 4.35851 0
M  V30 8225 N 774.524 -1.57472 -0.0634922 0
M  V30 8226 C 775.94 -1.54016 -0.418466 0
M  V30 8227 C 776.14 -0.931376 -1.78683 0
M  V30 8228 O 775.196 -0.537465 -2.46714 0
M  V30 8229 C 776.509 -2.98634 -0.351906 0
M  V30 8230 C 778.057 -3.10012 -0.431494 0
M  V30 8231 C 778.532 -4.56296 -0.394754 0
M  V30 8232 N 780.023 -4.60964 -0.454583 0
M  V30 8233 C 780.758 -5.71643 -0.448501 0
M  V30 8234 N 780.254 -6.91663 -0.396742 0
M  V30 8235 N 782.047 -5.5991 -0.495677 0
M  V30 8236 H 774.198 -1.95409 0.832408 0
M  V30 8237 H 776.461 -0.894769 0.313197 0
M  V30 8238 H 776.167 -3.46766 0.587048 0
M  V30 8239 H 776.041 -3.58955 -1.15893 0
M  V30 8240 H 778.428 -2.61848 -1.36087 0
M  V30 8241 H 778.509 -2.52585 0.404258 0
M  V30 8242 H 778.153 -5.05119 0.530811 0
M  V30 8243 H 778.083 -5.11594 -1.24815 0
M  V30 8244 H 780.574 -3.74598 -0.498496 0
M  V30 8245 H 780.887 -7.71783 -0.396256 0
M  V30 8246 H 779.232 -6.9405 -0.363304 0
M  V30 8247 H 782.423 -4.65046 -0.533864 0
M  V30 8248 H 782.596 -6.46164 -0.487469 0
M  V30 8249 N 776.003 0.335068 -1.53997 0
M  V30 8250 C 776.933 1.41727 -1.85568 0
M  V30 8251 C 777.914 1.54505 -0.7115 0
M  V30 8252 O 779.099 1.68573 -0.964191 0
M  V30 8253 C 776.229 2.7866 -2.07282 0
M  V30 8254 C 775.183 2.80682 -3.23112 0
M  V30 8255 C 774.509 4.20581 -3.30175 0
M  V30 8256 C 775.809 2.45458 -4.61029 0
M  V30 8257 H 777.503 1.15555 -2.76202 0
M  V30 8258 H 775.049 0.554445 -1.32898 0
M  V30 8259 H 777.002 3.54423 -2.27952 0
M  V30 8260 H 775.726 3.06286 -1.13387 0
M  V30 8261 H 774.385 2.07373 -3.02311 0
M  V30 8262 H 774.033 4.4533 -2.33859 0
M  V30 8263 H 773.733 4.22843 -4.08016 0
M  V30 8264 H 775.257 4.98174 -3.53066 0
M  V30 8265 H 776.671 3.10934 -4.81656 0
M  V30 8266 H 775.068 2.5899 -5.41336 0
M  V30 8267 H 776.138 1.40628 -4.6406 0
M  V30 8268 N 777.481 1.45874 0.596531 0
M  V30 8269 C 778.413 1.51408 1.7207 0
M  V30 8270 C 779.426 0.403738 1.57714 0
M  V30 8271 O 780.615 0.671384 1.65393 0
M  V30 8272 C 777.715 1.3652 3.10186 0
M  V30 8273 C 776.888 2.61428 3.50677 0
M  V30 8274 C 775.947 2.40937 4.67799 0
M  V30 8275 O 774.973 3.14602 4.74357 0
M  V30 8276 N 776.175 1.4621 5.61785 0
M  V30 8277 H 778.94 2.48333 1.67782 0
M  V30 8278 H 776.501 1.41755 0.782129 0
M  V30 8279 H 778.493 1.20606 3.86311 0
M  V30 8280 H 777.063 0.478302 3.08919 0
M  V30 8281 H 776.283 2.92381 2.644 0
M  V30 8282 H 777.571 3.44432 3.74491 0
M  V30 8283 H 776.969 0.854382 5.59211 0
M  V30 8284 H 775.526 1.36264 6.37397 0
M  V30 8285 N 778.959 -0.83999 1.33349 0
M  V30 8286 C 779.869 -1.98182 1.25543 0
M  V30 8287 C 780.885 -1.73204 0.166208 0
M  V30 8288 O 782.061 -1.97596 0.389589 0
M  V30 8289 C 779.126 -3.32157 0.993614 0
M  V30 8290 C 778.187 -3.70258 2.17273 0
M  V30 8291 C 777.42 -4.9784 1.92331 0
M  V30 8292 O 777.643 -5.63679 0.873074 0
M  V30 8293 O 776.577 -5.33418 2.78835 0
M  V30 8294 H 780.403 -2.07708 2.21565 0
M  V30 8295 H 777.988 -0.972852 1.13384 0
M  V30 8296 H 779.87 -4.12433 0.864711 0
M  V30 8297 H 778.545 -3.23637 0.0636596 0
M  V30 8298 H 777.452 -2.90497 2.35716 0
M  V30 8299 H 778.785 -3.83442 3.08598 0
M  V30 8300 N 780.437 -1.16799 -1.0581 0
M  V30 8301 C 781.4 -0.881396 -2.11575 0
M  V30 8302 C 782.4 0.12574 -1.60308 0
M  V30 8303 O 783.59 -0.105716 -1.73879 0
M  V30 8304 C 780.722 -0.319037 -3.39404 0
M  V30 8305 H 781.915 -1.81907 -2.38432 0
M  V30 8306 H 779.468 -0.977597 -1.21954 0
M  V30 8307 H 780.203 0.626082 -3.18199 0
M  V30 8308 H 779.988 -1.04481 -3.77923 0
M  V30 8309 H 781.478 -0.13663 -4.17376 0
M  V30 8310 N 781.915 1.24427 -0.967243 0
M  V30 8311 C 782.847 2.24641 -0.454856 0
M  V30 8312 C 783.86 1.56849 0.436152 0
M  V30 8313 O 785.049 1.76846 0.242401 0
M  V30 8314 C 782.149 3.36954 0.362672 0
M  V30 8315 C 781.322 4.34318 -0.518324 0
M  V30 8316 C 780.381 5.25638 0.243122 0
M  V30 8317 O 779.407 5.68043 -0.362791 0
M  V30 8318 N 780.609 5.59897 1.53282 0
M  V30 8319 H 783.374 2.69238 -1.31648 0
M  V30 8320 H 780.935 1.38464 -0.839015 0
M  V30 8321 H 782.927 3.95014 0.880094 0
M  V30 8322 H 781.497 2.91646 1.12522 0
M  V30 8323 H 780.717 3.74953 -1.21672 0
M  V30 8324 H 782.005 4.96338 -1.11919 0
M  V30 8325 H 781.403 5.27373 2.04682 0
M  V30 8326 H 779.96 6.20488 1.99594 0
M  V30 8327 N 783.393 0.737304 1.3929 0
M  V30 8328 C 784.303 0.100464 2.34385 0
M  V30 8329 C 785.319 -0.719282 1.58437 0
M  V30 8330 O 786.495 -0.647216 1.90717 0
M  V30 8331 C 783.56 -0.794325 3.37478 0
M  V30 8332 C 782.621 0.0379345 4.29283 0
M  V30 8333 C 781.854 -0.814241 5.27452 0
M  V30 8334 O 782.077 -2.05288 5.32177 0
M  V30 8335 O 781.011 -0.241679 6.01415 0
M  V30 8336 H 784.837 0.885407 2.90507 0
M  V30 8337 H 782.422 0.497999 1.40856 0
M  V30 8338 H 784.304 -1.30622 4.00644 0
M  V30 8339 H 782.979 -1.55804 2.83737 0
M  V30 8340 H 781.886 0.595405 3.69331 0
M  V30 8341 H 783.219 0.763926 4.86236 0
M  V30 8342 N 784.871 -1.49948 0.485112 0
M  V30 8343 C 786.287 -1.58984 0.140096 0
M  V30 8344 C 786.487 -1.49194 -1.35438 0
M  V30 8345 O 785.543 -1.35765 -2.12894 0
M  V30 8346 C 786.856 -2.92372 0.702769 0
M  V30 8347 C 788.404 -3.05801 0.66745 0
M  V30 8348 C 788.879 -4.41785 1.20791 0
M  V30 8349 N 790.37 -4.48234 1.16792 0
M  V30 8350 C 791.105 -5.51871 1.55646 0
M  V30 8351 N 790.601 -6.62692 2.02016 0
M  V30 8352 N 792.394 -5.42494 1.47161 0
M  V30 8353 H 784.545 -1.54555 1.45693 0
M  V30 8354 H 786.808 -0.731206 0.603359 0
M  V30 8355 H 786.514 -3.05056 1.75025 0
M  V30 8356 H 786.388 -3.76885 0.154205 0
M  V30 8357 H 788.775 -2.92757 -0.371157 0
M  V30 8358 H 788.856 -2.23011 1.25298 0
M  V30 8359 H 788.5 -4.55579 2.24522 0
M  V30 8360 H 788.43 -5.23188 0.598464 0
M  V30 8361 H 790.921 -3.68718 0.827982 0
M  V30 8362 H 791.234 -7.3785 2.29775 0
M  V30 8363 H 789.579 -6.63775 2.05979 0
M  V30 8364 H 792.77 -4.54806 1.10765 0
M  V30 8365 H 792.943 -6.2314 1.77766 0
M  V30 8366 N 786.349 -0.21828 -1.56081 0
M  V30 8367 C 787.259 0.704602 -2.23769 0
M  V30 8368 C 788.275 1.21633 -1.24425 0
M  V30 8369 O 789.451 1.25862 -1.57228 0
M  V30 8370 C 786.516 1.89725 -2.90182 0
M  V30 8371 C 785.577 1.42782 -4.0486 0
M  V30 8372 C 784.81 2.56361 -4.68097 0
M  V30 8373 O 785.033 3.74417 -4.30312 0
M  V30 8374 O 783.967 2.2775 -5.57148 0
M  V30 8375 H 787.793 0.158007 -3.03289 0
M  V30 8376 H 785.378 0.0120279 -1.49395 0
M  V30 8377 H 787.26 2.59382 -3.32113 0
M  V30 8378 H 785.935 2.432 -2.13624 0
M  V30 8379 H 784.842 0.699359 -3.67505 0
M  V30 8380 H 786.175 0.939474 -4.83151 0
M  V30 8381 N 787.827 1.57504 0.0551401 0
M  V30 8382 C 788.79 2.03826 1.04821 0
M  V30 8383 C 789.79 0.937968 1.30609 0
M  V30 8384 O 790.98 1.20237 1.2605 0
M  V30 8385 C 788.112 2.43309 2.38775 0
M  V30 8386 H 789.305 2.92802 0.6486 0
M  V30 8387 H 786.858 1.53368 0.301315 0
M  V30 8388 H 787.593 1.5741 2.83536 0
M  V30 8389 H 787.378 3.23615 2.21395 0
M  V30 8390 H 788.868 2.79666 3.10124 0
M  V30 8391 N 789.305 -0.326896 1.54172 0
M  V30 8392 C 790.268 -1.38515 1.8261 0
M  V30 8393 C 791.268 -1.44872 0.697771 0
M  V30 8394 O 792.458 -1.44957 0.966078 0
M  V30 8395 C 789.59 -2.77281 1.98313 0
M  V30 8396 H 790.783 -1.14556 2.77159 0
M  V30 8397 H 788.336 -0.562199 1.45839 0
M  V30 8398 H 789.071 -3.065 1.05964 0
M  V30 8399 H 788.856 -2.74061 2.80416 0
M  V30 8400 H 790.346 -3.53845 2.21773 0
M  V30 8401 N 790.784 -1.46188 -0.588786 0
M  V30 8402 C 792.012 -1.54743 -1.37339 0
M  V30 8403 C 792.427 -0.186446 -1.87877 0
M  V30 8404 O 791.784 0.815247 -1.63279 0
M  V30 8405 C 791.835 -2.54727 -2.56508 0
M  V30 8406 O 791.556 -3.85539 -2.08066 0
M  V30 8407 C 793.057 -2.73163 -3.49137 0
M  V30 8408 H 790.277 -0.523484 -0.419768 0
M  V30 8409 H 792.821 -1.91543 -0.716345 0
M  V30 8410 H 790.976 -2.20948 -3.18215 0
M  V30 8411 H 791.39 -4.39905 -2.85629 0
M  V30 8412 H 792.864 -3.47057 -4.2925 0
M  V30 8413 H 793.341 -1.79856 -4.00685 0
M  V30 8414 H 793.947 -3.08014 -2.9327 0
M  V30 8415 N 792.262 0.832906 -1.33792 0
M  V30 8416 C 793.225 1.92471 -1.24449 0
M  V30 8417 C 794.225 1.59981 -0.162085 0
M  V30 8418 O 795.415 1.69208 -0.414029 0
M  V30 8419 C 792.547 3.28278 -0.919044 0
M  V30 8420 H 793.74 2.0218 -2.21502 0
M  V30 8421 H 791.293 1.0257 -1.17936 0
M  V30 8422 H 792.028 3.24263 0.048738 0
M  V30 8423 H 791.813 3.53241 -1.70187 0
M  V30 8424 H 793.303 4.08253 -0.878576 0
M  V30 8425 N 793.74 1.17359 1.05189 0
M  V30 8426 C 794.965 0.98709 1.82404 0
M  V30 8427 C 795.39 -0.459848 1.82392 0
M  V30 8428 O 794.748 -1.32924 1.23292 0
M  V30 8429 C 794.796 1.53276 3.26403 0
M  V30 8430 O 793.9 0.746541 4.05587 0
M  V30 8431 H 793.241 0.35047 0.563974 0
M  V30 8432 H 795.771 1.55856 1.32552 0
M  V30 8433 H 795.781 1.55504 3.77203 0
M  V30 8434 H 794.456 2.58603 3.25726 0
M  V30 8435 H 793.033 0.795671 3.64312 0
M  V30 8436 N 795.218 -1.23913 0.973828 0
M  V30 8437 C 796.15 -2.24397 0.466763 0
M  V30 8438 C 797.163 -1.57078 -0.427828 0
M  V30 8439 O 798.352 -1.76973 -0.233019 0
M  V30 8440 C 795.452 -3.37141 -0.344798 0
M  V30 8441 C 794.625 -4.34037 0.541349 0
M  V30 8442 C 793.684 -5.2576 -0.215243 0
M  V30 8443 O 792.71 -5.67842 0.39291 0
M  V30 8444 N 793.912 -5.60702 -1.5031 0
M  V30 8445 H 796.677 -2.68536 1.33074 0
M  V30 8446 H 794.238 -1.38017 0.846346 0
M  V30 8447 H 796.23 -3.95476 -0.859133 0
M  V30 8448 H 794.8 -2.92239 -1.10974 0
M  V30 8449 H 794.02 -3.74302 1.23659 0
M  V30 8450 H 795.308 -4.95738 1.1455 0
M  V30 8451 H 794.706 -5.28451 -2.01882 0
M  V30 8452 H 793.263 -6.21538 -1.96301 0
M  V30 8453 N 796.696 -0.74468 -1.38897 0
M  V30 8454 C 797.924 -0.307428 -2.04603 0
M  V30 8455 C 798.339 1.06115 -1.56157 0
M  V30 8456 O 797.696 1.67233 -0.730701 0
M  V30 8457 C 797.747 -0.31101 -3.6016 0
M  V30 8458 O 797.468 -1.62557 -4.06825 0
M  V30 8459 C 798.969 0.141213 -4.43075 0
M  V30 8460 H 796.189 -0.132741 -0.657739 0
M  V30 8461 H 798.733 -1.01104 -1.77759 0
M  V30 8462 H 796.888 0.343792 -3.85872 0
M  V30 8463 H 797.302 -1.54569 -5.01207 0
M  V30 8464 H 798.776 0.0875449 -5.51931 0
M  V30 8465 H 799.253 1.18782 -4.22833 0
M  V30 8466 H 799.859 -0.484383 -4.22533 0
M  V30 8467 N 798.174 1.49689 -0.493057 0
M  V30 8468 C 799.59 1.58907 -0.148526 0
M  V30 8469 C 799.79 1.4991 1.34645 0
M  V30 8470 O 798.846 1.36893 2.12171 0
M  V30 8471 C 800.159 2.91996 -0.718265 0
M  V30 8472 C 801.707 3.05443 -0.683658 0
M  V30 8473 C 802.182 4.41138 -1.23132 0
M  V30 8474 N 803.673 4.47608 -1.19167 0
M  V30 8475 C 804.408 5.51038 -1.5857 0
M  V30 8476 N 803.904 6.61612 -2.05528 0
M  V30 8477 N 805.697 5.41706 -1.50036 0
M  V30 8478 H 797.848 1.5378 -1.46511 0
M  V30 8479 H 800.111 0.727996 -0.607228 0
M  V30 8480 H 799.817 3.04123 -1.7664 0
M  V30 8481 H 799.691 3.76798 -0.17419 0
M  V30 8482 H 802.078 2.92949 0.355626 0
M  V30 8483 H 802.159 2.22344 -1.26479 0
M  V30 8484 H 801.803 4.54382 -2.26935 0
M  V30 8485 H 801.733 5.22864 -0.626201 0
M  V30 8486 H 804.224 3.68274 -0.847524 0
M  V30 8487 H 804.537 7.36622 -2.33685 0
M  V30 8488 H 802.882 6.62674 -2.09497 0
M  V30 8489 H 806.073 4.54212 -1.13176 0
M  V30 8490 H 806.246 6.22188 -1.81068 0
M  V30 8491 N 799.652 0.226554 1.55963 0
M  V30 8492 C 800.615 -0.668015 2.19249 0
M  V30 8493 C 801.615 -1.11794 1.1558 0
M  V30 8494 O 802.805 -1.02593 1.40784 0
M  V30 8495 C 799.937 -1.91571 2.81981 0
M  V30 8496 H 801.13 -0.116175 2.99675 0
M  V30 8497 H 798.683 -0.0230497 1.56283 0
M  V30 8498 H 799.418 -2.50929 2.05439 0
M  V30 8499 H 799.203 -1.6015 3.57903 0
M  V30 8500 H 800.693 -2.55294 3.30477 0
M  V30 8501 N 801.13 -1.57531 -0.0467866 0
M  V30 8502 C 802.06 -2.08425 -1.05268 0
M  V30 8503 C 803.041 -0.982941 -1.38825 0
M  V30 8504 O 804.226 -1.25716 -1.48018 0
M  V30 8505 C 801.356 -2.54897 -2.35891 0
M  V30 8506 C 800.31 -3.69132 -2.16623 0
M  V30 8507 C 799.636 -4.01747 -3.52851 0
M  V30 8508 C 800.936 -4.98243 -1.56689 0
M  V30 8509 H 802.63 -2.92716 -0.62908 0
M  V30 8510 H 800.176 -1.40816 -0.301156 0
M  V30 8511 H 802.129 -2.8912 -3.06574 0
M  V30 8512 H 800.853 -1.67666 -2.80278 0
M  V30 8513 H 799.512 -3.35231 -1.48377 0
M  V30 8514 H 799.16 -3.11608 -3.94853 0
M  V30 8515 H 798.86 -4.78681 -3.4079 0
M  V30 8516 H 800.384 -4.38487 -4.24925 0
M  V30 8517 H 801.798 -5.30535 -2.17268 0
M  V30 8518 H 800.195 -5.79669 -1.55255 0
M  V30 8519 H 801.265 -4.81986 -0.530827 0
M  V30 8520 N 802.608 0.318715 -1.54344 0
M  V30 8521 C 803.833 1.07987 -1.77069 0
M  V30 8522 C 804.258 1.80766 -0.520117 0
M  V30 8523 O 803.616 1.73424 0.528566 0
M  V30 8524 C 803.664 2.04987 -2.96669 0
M  V30 8525 O 802.768 3.12974 -2.68554 0
M  V30 8526 H 802.109 0.311109 -0.586606 0
M  V30 8527 H 804.639 0.361533 -2.0138 0
M  V30 8528 H 804.649 2.47771 -3.2415 0
M  V30 8529 H 803.324 1.51417 -3.87357 0
M  V30 8530 H 801.901 2.74831 -2.52037 0
M  V30 8531 N 804.086 1.46499 0.581025 0
M  V30 8532 C 805.311 1.55708 1.37002 0
M  V30 8533 C 805.736 0.19942 1.8704 0
M  V30 8534 O 805.094 -0.820731 1.61659 0
M  V30 8535 C 805.142 2.56716 2.53238 0
M  V30 8536 O 804.246 2.10336 3.54729 0
M  V30 8537 H 803.587 0.523912 0.407937 0
M  V30 8538 H 806.117 1.92085 0.704602 0
M  V30 8539 H 806.127 2.76378 3.00132 0
M  V30 8540 H 804.802 3.55307 2.16171 0
M  V30 8541 H 803.379 2.00669 3.14303 0
M  V30 8542 N 805.565 -0.825799 1.34232 0
M  V30 8543 C 806.497 -1.94401 1.21413 0
M  V30 8544 C 807.51 -1.6218 0.141902 0
M  V30 8545 O 808.699 -1.74109 0.3935 0
M  V30 8546 C 805.799 -3.28257 0.842635 0
M  V30 8547 C 804.972 -3.88521 2.00924 0
M  V30 8548 C 804.031 -5.00752 1.61661 0
M  V30 8549 O 803.057 -5.19201 2.33279 0
M  V30 8550 N 804.259 -5.78084 0.52911 0
M  V30 8551 H 807.024 -2.05931 2.17744 0
M  V30 8552 H 804.585 -1.00223 1.27149 0
M  V30 8553 H 806.577 -4.00781 0.561822 0
M  V30 8554 H 805.147 -3.12585 -0.0304029 0
M  V30 8555 H 804.367 -3.08425 2.45495 0
M  V30 8556 H 805.655 -4.25516 2.78951 0
M  V30 8557 H 805.053 -5.65661 -0.0663322 0
M  V30 8558 H 803.61 -6.51072 0.308017 0
M  V30 8559 N 807.043 -1.17915 -1.04565 0
M  V30 8560 C 807.973 -0.925033 -2.14395 0
M  V30 8561 C 808.954 0.135375 -1.6956 0
M  V30 8562 O 810.139 -0.0161774 -1.94193 0
M  V30 8563 C 807.269 -0.444469 -3.44444 0
M  V30 8564 C 806.223 -1.44478 -4.02877 0
M  V30 8565 C 805.549 -0.821933 -5.28345 0
M  V30 8566 C 806.849 -2.81995 -4.39632 0
M  V30 8567 H 808.543 -1.84354 -2.35911 0
M  V30 8568 H 806.089 -0.887806 -1.13375 0
M  V30 8569 H 808.042 -0.254078 -4.20633 0
M  V30 8570 H 806.766 0.509592 -3.226 0
M  V30 8571 H 805.425 -1.62203 -3.28764 0
M  V30 8572 H 805.073 0.139161 -5.02807 0
M  V30 8573 H 804.773 -1.48976 -5.68401 0
M  V30 8574 H 806.297 -0.641959 -6.07216 0
M  V30 8575 H 807.711 -2.67952 -5.06828 0
M  V30 8576 H 806.108 -3.45414 -4.90723 0
M  V30 8577 H 807.178 -3.35927 -3.49687 0
M  V30 8578 N 808.521 1.23394 -0.980386 0
M  V30 8579 C 809.431 2.28561 -0.528864 0
M  V30 8580 C 810.447 1.68946 0.416329 0
M  V30 8581 O 811.623 1.99355 0.286251 0
M  V30 8582 C 808.688 3.46323 0.16155 0
M  V30 8583 C 807.749 4.21297 -0.825044 0
M  V30 8584 C 806.982 5.33437 -0.167483 0
M  V30 8585 O 807.205 5.60812 1.04146 0
M  V30 8586 O 806.139 5.95637 -0.866047 0
M  V30 8587 H 809.965 2.69326 -1.40346 0
M  V30 8588 H 807.55 1.29325 -0.748019 0
M  V30 8589 H 809.432 4.17811 0.548841 0
M  V30 8590 H 808.107 3.0751 1.01092 0
M  V30 8591 H 807.014 3.52134 -1.26303 0
M  V30 8592 H 808.347 4.6396 -1.64322 0
M  V30 8593 N 809.999 0.752036 1.385 0
M  V30 8594 C 810.909 0.125318 2.34265 0
M  V30 8595 C 811.925 -0.702437 1.59191 0
M  V30 8596 O 813.101 -0.626951 1.91393 0
M  V30 8597 C 810.166 -0.758486 3.38301 0
M  V30 8598 C 809.227 0.0834636 4.29219 0
M  V30 8599 C 808.46 -0.758252 5.28286 0
M  V30 8600 O 808.683 -1.99632 5.34325 0
M  V30 8601 O 807.617 -0.177878 6.01637 0
M  V30 8602 H 811.443 0.91617 2.89551 0
M  V30 8603 H 809.028 0.512911 1.4032 0
M  V30 8604 H 810.91 -1.26365 4.02007 0
M  V30 8605 H 809.585 -1.52786 2.85374 0
M  V30 8606 H 808.492 0.634545 3.68679 0
M  V30 8607 H 809.825 0.815455 4.85398 0
M  V30 8608 N 811.477 -1.49425 0.500989 0
M  V30 8609 C 812.44 -2.27646 -0.266416 0
M  V30 8610 C 813.44 -1.3366 -0.893961 0
M  V30 8611 O 814.63 -1.5682 -0.758495 0
M  V30 8612 C 811.762 -3.11618 -1.38227 0
M  V30 8613 H 812.955 -2.96945 0.419973 0
M  V30 8614 H 810.508 -1.5419 0.255954 0
M  V30 8615 H 811.243 -2.46885 -2.10281 0
M  V30 8616 H 811.028 -3.80721 -0.937746 0
M  V30 8617 H 812.518 -3.70698 -1.92283 0
M  V30 8618 N 812.955 -0.234822 -1.55841 0
M  V30 8619 C 814.371 0.120295 -1.59146 0
M  V30 8620 C 814.571 1.57896 -1.25184 0
M  V30 8621 O 813.627 2.32138 -0.993393 0
M  V30 8622 C 814.94 -0.217984 -2.99909 0
M  V30 8623 C 816.488 -0.161298 -3.12584 0
M  V30 8624 C 816.963 -0.473438 -4.55546 0
M  V30 8625 N 818.454 -0.423494 -4.6126 0
M  V30 8626 C 819.189 -0.638334 -5.69836 0
M  V30 8627 N 818.685 -0.915659 -6.86722 0
M  V30 8628 N 820.478 -0.569864 -5.59204 0
M  V30 8629 H 812.629 -1.18622 -1.76189 0
M  V30 8630 H 814.892 -0.476426 -0.819587 0
M  V30 8631 H 814.598 -1.2309 -3.29457 0
M  V30 8632 H 814.472 0.460707 -3.74376 0
M  V30 8633 H 816.859 0.842274 -2.82825 0
M  V30 8634 H 816.94 -0.873661 -2.40418 0
M  V30 8635 H 816.584 -1.47451 -4.86025 0
M  V30 8636 H 816.514 0.260268 -5.25956 0
M  V30 8637 H 819.005 -0.217383 -3.77274 0
M  V30 8638 H 819.318 -1.06734 -7.65394 0
M  V30 8639 H 817.663 -0.953 -6.88435 0
M  V30 8640 H 820.854 -0.35334 -4.66765 0
M  V30 8641 H 821.027 -0.740698 -6.43753 0
M  V30 8642 N 814.433 1.57553 0.0384317 0
M  V30 8643 C 815.396 2.04927 1.02653 0
M  V30 8644 C 816.396 0.951768 1.29607 0
M  V30 8645 O 817.586 1.21568 1.24768 0
M  V30 8646 C 814.718 2.45828 2.36181 0
M  V30 8647 H 815.911 2.93474 0.617508 0
M  V30 8648 H 813.464 1.53679 0.285031 0
M  V30 8649 H 814.199 1.60408 2.8185 0
M  V30 8650 H 813.984 3.25945 2.1795 0
M  V30 8651 H 815.474 2.82939 3.0714 0
M  V30 8652 N 815.911 -0.310526 1.54511 0
M  V30 8653 C 816.874 -1.3657 1.84068 0
M  V30 8654 C 817.874 -1.44123 0.713097 0
M  V30 8655 O 819.064 -1.43924 0.981399 0
M  V30 8656 C 816.196 -2.75162 2.01243 0
M  V30 8657 H 817.389 -1.1161 2.78358 0
M  V30 8658 H 814.942 -0.546699 1.46427 0
M  V30 8659 H 815.677 -3.05359 1.09208 0
M  V30 8660 H 815.462 -2.71071 2.83307 0
M  V30 8661 H 816.952 -3.51473 2.25514 0
M  V30 8662 N 817.389 -1.46805 -0.573248 0
M  V30 8663 C 818.321 -1.54127 -1.6964 0
M  V30 8664 C 819.334 -0.428778 -1.57052 0
M  V30 8665 O 820.523 -0.697612 -1.64303 0
M  V30 8666 C 817.623 -1.41438 -3.07975 0
M  V30 8667 C 816.796 -2.66974 -3.46474 0
M  V30 8668 C 815.855 -2.48349 -4.63906 0
M  V30 8669 O 814.881 -3.22109 -4.69292 0
M  V30 8670 N 816.083 -1.55129 -5.59388 0
M  V30 8671 H 818.848 -2.50971 -1.6381 0
M  V30 8672 H 816.409 -1.42981 -0.759479 0
M  V30 8673 H 818.401 -1.26737 -3.84343 0
M  V30 8674 H 816.971 -0.527388 -3.08119 0
M  V30 8675 H 816.191 -2.9655 -2.59715 0
M  V30 8676 H 817.479 -3.50347 -3.68964 0
M  V30 8677 H 816.877 -0.94324 -5.57781 0
M  V30 8678 H 815.434 -1.46387 -6.35149 0
M  V30 8679 N 818.867 0.818669 -1.34668 0
M  V30 8680 C 820.283 1.11243 -1.14443 0
M  V30 8681 C 820.483 2.01435 0.0512212 0
M  V30 8682 O 819.539 2.41854 0.725471 0
M  V30 8683 C 820.852 1.75504 -2.4417 0
M  V30 8684 C 822.4 1.8798 -2.50265 0
M  V30 8685 C 822.875 2.55657 -3.80004 0
M  V30 8686 N 824.366 2.63153 -3.81189 0
M  V30 8687 C 825.101 3.16258 -4.78298 0
M  V30 8688 N 824.597 3.69893 -5.85791 0
M  V30 8689 N 826.39 3.14698 -4.65748 0
M  V30 8690 H 818.541 0.218848 -2.1127 0
M  V30 8691 H 820.804 0.159655 -0.934459 0
M  V30 8692 H 820.51 1.16697 -3.31775 0
M  V30 8693 H 820.384 2.75329 -2.57825 0
M  V30 8694 H 822.771 2.45934 -1.63096 0
M  V30 8695 H 822.852 0.870447 -2.40535 0
M  V30 8696 H 822.496 1.98356 -4.67565 0
M  V30 8697 H 822.426 3.57105 -3.87019 0
M  V30 8698 H 824.917 2.2514 -3.03513 0
M  V30 8699 H 825.23 4.08678 -6.55898 0
M  V30 8700 H 823.575 3.68125 -5.89499 0
M  V30 8701 H 826.766 2.72066 -3.80917 0
M  V30 8702 H 826.939 3.5578 -5.41594 0
M  V30 8703 N 820.346 1.18468 1.03938 0
M  V30 8704 C 821.256 0.927889 2.1547 0
M  V30 8705 C 822.272 -0.108447 1.73662 0
M  V30 8706 O 823.448 0.0737636 2.01265 0
M  V30 8707 C 820.513 0.458494 3.43655 0
M  V30 8708 C 819.574 1.56295 3.99838 0
M  V30 8709 C 818.807 1.11586 5.21904 0
M  V30 8710 O 819.03 -0.0249057 5.70395 0
M  V30 8711 O 817.964 1.91412 5.70653 0
M  V30 8712 H 821.79 1.86116 2.39989 0
M  V30 8713 H 819.375 0.966607 1.13917 0
M  V30 8714 H 821.257 0.204861 4.20902 0
M  V30 8715 H 819.932 -0.446464 3.20606 0
M  V30 8716 H 818.839 1.87061 3.23974 0
M  V30 8717 H 820.172 2.44408 4.2723 0
M  V30 8718 N 821.824 -1.22873 0.986916 0
M  V30 8719 C 822.754 -2.2688 0.552064 0
M  V30 8720 C 823.735 -1.64883 -0.418048 0
M  V30 8721 O 824.92 -1.9171 -0.30999 0
M  V30 8722 C 822.05 -3.47018 -0.139959 0
M  V30 8723 C 821.004 -4.21411 0.748091 0
M  V30 8724 C 820.33 -5.34645 -0.0765132 0
M  V30 8725 C 821.63 -4.80726 2.04206 0
M  V30 8726 H 823.324 -2.63507 1.42143 0
M  V30 8727 H 820.87 -1.26668 0.68492 0
M  V30 8728 H 822.823 -4.18931 -0.455527 0
M  V30 8729 H 821.547 -3.0947 -1.04382 0
M  V30 8730 H 820.206 -3.51325 1.04721 0
M  V30 8731 H 819.854 -4.93339 -0.981109 0
M  V30 8732 H 819.554 -5.85342 0.514606 0
M  V30 8733 H 821.078 -6.09377 -0.386313 0
M  V30 8734 H 822.492 -5.44612 1.79083 0
M  V30 8735 H 820.889 -5.41737 2.5815 0
M  V30 8736 H 821.959 -4.01109 2.72469 0
M  V30 8737 N 823.302 -0.75937 -1.38099 0
M  V30 8738 C 824.212 -0.13774 -2.34195 0
M  V30 8739 C 825.228 0.693985 -1.59561 0
M  V30 8740 O 826.404 0.616792 -1.91723 0
M  V30 8741 C 823.469 0.740535 -3.38699 0
M  V30 8742 C 822.53 -0.106225 -4.29169 0
M  V30 8743 C 821.763 0.730225 -5.28681 0
M  V30 8744 O 821.986 1.96796 -5.35376 0
M  V30 8745 O 820.92 0.145969 -6.01723 0
M  V30 8746 H 824.746 -0.931512 -2.89061 0
M  V30 8747 H 822.331 -0.520345 -1.40046 0
M  V30 8748 H 824.213 1.24232 -4.02672 0
M  V30 8749 H 822.888 1.51271 -2.8618 0
M  V30 8750 H 821.795 -0.654088 -3.68337 0
M  V30 8751 H 823.128 -0.841186 -4.84959 0
M  V30 8752 N 824.78 1.49157 -0.508906 0
M  V30 8753 C 825.743 2.27784 0.25434 0
M  V30 8754 C 826.743 1.34132 0.88686 0
M  V30 8755 O 827.933 1.5722 0.750168 0
M  V30 8756 C 825.065 3.12347 1.36573 0
M  V30 8757 H 826.258 2.96718 -0.435714 0
M  V30 8758 H 823.811 1.54052 -0.264128 0
M  V30 8759 H 824.546 2.47997 2.08969 0
M  V30 8760 H 824.331 3.81213 0.917543 0
M  V30 8761 H 825.821 3.71712 1.90315 0
M  V30 8762 N 826.258 0.243083 1.55714 0
M  V30 8763 C 827.19 -0.690766 2.18543 0
M  V30 8764 C 828.203 -1.14163 1.16064 0
M  V30 8765 O 829.392 -1.06906 1.42946 0
M  V30 8766 C 826.492 -1.95016 2.77168 0
M  V30 8767 C 825.665 -1.65137 4.05029 0
M  V30 8768 C 824.724 -2.75998 4.48009 0
M  V30 8769 O 823.75 -2.43547 5.14464 0
M  V30 8770 N 824.952 -4.05414 4.15476 0
M  V30 8771 H 827.717 -0.153203 2.99308 0
M  V30 8772 H 825.278 0.0628968 1.61778 0
M  V30 8773 H 827.27 -2.68414 3.0288 0
M  V30 8774 H 825.84 -2.39762 2.00582 0
M  V30 8775 H 825.06 -0.752768 3.86946 0
M  V30 8776 H 826.348 -1.42633 4.88399 0
M  V30 8777 H 825.746 -4.34613 3.62116 0
M  V30 8778 H 824.303 -4.75288 4.46032 0
M  V30 8779 N 827.736 -1.57571 -0.0300757 0
M  V30 8780 C 828.982 -1.89506 -0.722159 0
M  V30 8781 C 829.315 -0.840699 -1.7506 0
M  V30 8782 O 828.59 0.144358 -1.93964 0
M  V30 8783 C 828.873 -3.32081 -1.39262 0
M  V30 8784 C 828.726 -4.48211 -0.377768 0
M  V30 8785 C 830.045 -3.73557 -2.32687 0
M  V30 8786 H 827.164 -0.689213 -0.261064 0
M  V30 8787 H 829.806 -1.89994 0.0150388 0
M  V30 8788 H 827.956 -3.31796 -2.02098 0
M  V30 8789 H 829.628 -4.6063 0.248591 0
M  V30 8790 H 827.871 -4.3274 0.303045 0
M  V30 8791 H 828.542 -5.44854 -0.885347 0
M  V30 8792 H 831.018 -3.75202 -1.79896 0
M  V30 8793 H 829.894 -4.74125 -2.7658 0
M  V30 8794 H 830.155 -3.05759 -3.19317 0
M  V30 8795 N 829.214 0.302327 -1.54673 0
M  V30 8796 C 830.439 1.06103 -1.78205 0
M  V30 8797 C 830.864 1.80204 -0.53926 0
M  V30 8798 O 830.222 1.73975 0.510142 0
M  V30 8799 C 830.27 2.01829 -2.98827 0
M  V30 8800 O 829.374 3.10108 -2.71858 0
M  V30 8801 H 828.715 0.30487 -0.589873 0
M  V30 8802 H 831.245 0.340153 -2.01753 0
M  V30 8803 H 831.255 2.44319 -3.2676 0
M  V30 8804 H 829.93 1.473 -3.88942 0
M  V30 8805 H 828.507 2.72142 -2.54937 0
M  V30 8806 N 830.692 1.47107 0.565454 0
M  V30 8807 C 831.917 1.57153 1.35343 0
M  V30 8808 C 832.342 0.219247 1.86818 0
M  V30 8809 O 831.7 -0.803539 1.62521 0
M  V30 8810 C 831.748 2.59387 2.50501 0
M  V30 8811 O 830.852 2.14086 3.52478 0
M  V30 8812 H 830.193 0.528209 0.402357 0
M  V30 8813 H 832.723 1.92821 0.684189 0
M  V30 8814 H 832.733 2.79546 2.97184 0
M  V30 8815 H 831.408 3.57579 2.12391 0
M  V30 8816 H 829.985 2.03991 3.12157 0
M  V30 8817 N 832.17 -0.811516 1.35101 0
M  V30 8818 C 833.1 -1.9378 1.30275 0
M  V30 8819 C 834.081 -1.69165 0.178075 0
M  V30 8820 O 835.266 -1.90599 0.372256 0
M  V30 8821 C 832.396 -3.30439 1.06899 0
M  V30 8822 C 831.35 -3.69523 2.15955 0
M  V30 8823 C 830.676 -5.0429 1.77751 0
M  V30 8824 C 831.976 -3.80419 3.57881 0
M  V30 8825 H 833.67 -1.98075 2.24514 0
M  V30 8826 H 831.216 -0.951586 1.08078 0
M  V30 8827 H 833.169 -4.08828 1.02164 0
M  V30 8828 H 831.893 -3.26473 0.0910462 0
M  V30 8829 H 830.552 -2.93416 2.19778 0
M  V30 8830 H 830.2 -4.96823 0.785876 0
M  V30 8831 H 829.9 -5.31411 2.5075 0
M  V30 8832 H 831.424 -5.85125 1.74533 0
M  V30 8833 H 832.838 -4.49051 3.56407 0
M  V30 8834 H 831.235 -4.19005 4.29598 0
M  V30 8835 H 832.305 -2.82105 3.94391 0
M  V30 8836 N 833.648 -1.19017 -1.03309 0
M  V30 8837 C 834.873 -1.01598 -1.80811 0
M  V30 8838 C 835.298 0.430773 -1.83101 0
M  V30 8839 O 834.656 1.30946 -1.25391 0
M  V30 8840 C 834.704 -1.5845 -3.23923 0
M  V30 8841 O 833.808 -0.810972 -4.04348 0
M  V30 8842 H 833.149 -0.359398 -0.558327 0
M  V30 8843 H 835.679 -1.57945 -1.30055 0
M  V30 8844 H 835.689 -1.61486 -3.74682 0
M  V30 8845 H 834.364 -2.63752 -3.21571 0
M  V30 8846 H 832.941 -0.85353 -3.63 0
M  V30 8847 N 835.127 1.22348 -0.993418 0
M  V30 8848 C 836.543 1.43222 -0.704238 0
M  V30 8849 C 836.743 1.88009 0.724909 0
M  V30 8850 O 835.799 2.03429 1.49575 0
M  V30 8851 C 837.112 2.47328 -1.71025 0
M  V30 8852 C 838.66 2.61126 -1.72576 0
M  V30 8853 C 839.135 3.68453 -2.72041 0
M  V30 8854 N 840.626 3.75911 -2.70639 0
M  V30 8855 C 841.361 4.58551 -3.44266 0
M  V30 8856 N 840.857 5.45179 -4.27495 0
M  V30 8857 N 842.65 4.52866 -3.32969 0
M  V30 8858 H 834.801 0.915832 -1.91641 0
M  V30 8859 H 837.064 0.464283 -0.826526 0
M  V30 8860 H 836.77 2.21366 -2.73295 0
M  V30 8861 H 836.644 3.45939 -1.50353 0
M  V30 8862 H 839.031 2.86431 -0.710037 0
M  V30 8863 H 839.112 1.62787 -1.97317 0
M  V30 8864 H 838.756 3.43895 -3.73763 0
M  V30 8865 H 838.686 4.66362 -2.4457 0
M  V30 8866 H 841.177 3.14014 -2.10247 0
M  V30 8867 H 841.49 6.0526 -4.80499 0
M  V30 8868 H 839.835 5.44759 -4.31582 0
M  V30 8869 H 843.026 3.84215 -2.67389 0
M  V30 8870 H 843.199 5.17039 -3.90608 0
M  V30 8871 N 836.605 0.766683 1.37694 0
M  V30 8872 C 837.537 0.107798 2.28946 0
M  V30 8873 C 838.55 -0.669701 1.48387 0
M  V30 8874 O 839.739 -0.508629 1.711 0
M  V30 8875 C 836.839 -0.871084 3.27514 0
M  V30 8876 C 836.012 -0.148471 4.37148 0
M  V30 8877 C 835.071 -1.03998 5.1582 0
M  V30 8878 O 834.097 -0.505639 5.6695 0
M  V30 8879 N 835.299 -2.36679 5.3006 0
M  V30 8880 H 838.064 0.89154 2.86132 0
M  V30 8881 H 835.625 0.618593 1.49616 0
M  V30 8882 H 837.617 -1.47081 3.77027 0
M  V30 8883 H 836.187 -1.55582 2.71133 0
M  V30 8884 H 835.407 0.632117 3.89099 0
M  V30 8885 H 836.695 0.351045 5.07588 0
M  V30 8886 H 836.093 -2.82532 4.90094 0
M  V30 8887 H 834.65 -2.9167 5.82899 0
M  V30 8888 N 838.083 -1.48885 0.516809 0
M  V30 8889 C 839.329 -2.02788 -0.0220928 0
M  V30 8890 C 839.662 -1.39433 -1.35175 0
M  V30 8891 O 838.937 -0.535459 -1.86984 0
M  V30 8892 C 839.22 -3.59753 -0.158012 0
M  V30 8893 C 839.073 -4.33611 1.19588 0
M  V30 8894 C 840.392 -4.30984 -0.891133 0
M  V30 8895 H 837.511 -0.736971 -0.00655488 0
M  V30 8896 H 840.153 -1.77746 0.671287 0
M  V30 8897 H 838.303 -3.8122 -0.748568 0
M  V30 8898 H 839.975 -4.23598 1.82653 0
M  V30 8899 H 838.218 -3.95547 1.78116 0
M  V30 8900 H 838.889 -5.41846 1.05391 0
M  V30 8901 H 841.365 -4.14267 -0.39012 0
M  V30 8902 H 840.241 -5.40527 -0.955107 0
M  V30 8903 H 840.502 -3.97336 -1.93847 0
M  V30 8904 N 839.561 -0.251338 -1.55583 0
M  V30 8905 C 840.789 0.376187 -2.03451 0
M  V30 8906 C 841.204 1.51215 -1.13047 0
M  V30 8907 O 840.561 1.81917 -0.145769 0
M  V30 8908 C 840.612 0.879779 -3.50631 0
M  V30 8909 O 840.333 -0.210917 -4.37592 0
M  V30 8910 C 841.834 1.57754 -4.14281 0
M  V30 8911 H 839.054 0.0888722 -0.665089 0
M  V30 8912 H 841.598 -0.376497 -2.01004 0
M  V30 8913 H 839.753 1.58263 -3.53598 0
M  V30 8914 H 840.167 0.172203 -5.24217 0
M  V30 8915 H 841.641 1.88158 -5.18942 0
M  V30 8916 H 842.118 2.50103 -3.61034 0
M  V30 8917 H 842.724 0.919154 -4.15249 0
M  V30 8918 N 841.039 1.57585 0.0217189 0
M  V30 8919 C 841.971 2.03849 1.04777 0
M  V30 8920 C 842.984 0.952558 1.32023 0
M  V30 8921 O 844.173 1.22974 1.29381 0
M  V30 8922 C 841.273 2.40504 2.3877 0
M  V30 8923 C 840.446 3.71566 2.30775 0
M  V30 8924 C 839.505 3.95329 3.47277 0
M  V30 8925 O 838.531 4.66289 3.26441 0
M  V30 8926 N 839.733 3.41536 4.69397 0
M  V30 8927 H 842.498 2.92491 0.653395 0
M  V30 8928 H 840.059 1.60538 0.209527 0
M  V30 8929 H 842.051 2.53532 3.15442 0
M  V30 8930 H 840.621 1.57494 2.70027 0
M  V30 8931 H 839.841 3.68822 1.39155 0
M  V30 8932 H 841.129 4.5753 2.22584 0
M  V30 8933 H 840.527 2.84033 4.89226 0
M  V30 8934 H 839.084 3.59932 5.43408 0
M  V30 8935 N 842.517 -0.29412 1.54831 0
M  V30 8936 C 843.447 -1.36757 1.89261 0
M  V30 8937 C 844.428 -1.52564 0.752214 0
M  V30 8938 O 845.613 -1.65958 1.00855 0
M  V30 8939 C 842.743 -2.73066 2.14597 0
M  V30 8940 C 841.697 -2.72017 3.3044 0
M  V30 8941 C 841.023 -4.11679 3.4121 0
M  V30 8942 C 842.323 -2.33149 4.67375 0
M  V30 8943 H 844.017 -1.08191 2.79169 0
M  V30 8944 H 841.563 -0.519014 1.34321 0
M  V30 8945 H 843.516 -3.48255 2.37269 0
M  V30 8946 H 842.24 -3.03172 1.21467 0
M  V30 8947 H 840.899 -1.99285 3.07703 0
M  V30 8948 H 840.547 -4.38973 2.45584 0
M  V30 8949 H 840.247 -4.11877 4.19084 0
M  V30 8950 H 841.771 -4.88637 3.6615 0
M  V30 8951 H 843.185 -2.98054 4.89731 0
M  V30 8952 H 841.582 -2.44546 5.48012 0
M  V30 8953 H 842.652 -1.28275 4.67626 0
M  V30 8954 N 843.995 -1.47404 -0.557645 0
M  V30 8955 C 844.927 -1.55917 -1.67995 0
M  V30 8956 C 845.94 -0.445411 -1.56588 0
M  V30 8957 O 847.129 -0.714999 -1.63554 0
M  V30 8958 C 844.229 -1.44697 -3.06457 0
M  V30 8959 C 843.402 -2.70633 -3.43622 0
M  V30 8960 C 842.461 -2.53256 -4.61246 0
M  V30 8961 O 841.487 -3.27068 -4.65849 0
M  V30 8962 N 842.689 -1.61053 -5.57711 0
M  V30 8963 H 845.454 -2.52694 -1.61139 0
M  V30 8964 H 843.015 -1.43778 -0.744271 0
M  V30 8965 H 845.007 -1.30806 -3.82978 0
M  V30 8966 H 843.577 -0.560039 -3.07542 0
M  V30 8967 H 842.797 -2.99288 -2.56555 0
M  V30 8968 H 844.085 -3.5424 -3.65228 0
M  V30 8969 H 843.483 -1.00235 -5.56749 0
M  V30 8970 H 842.04 -1.53115 -6.33561 0
M  V30 8971 N 845.473 0.80434 -1.35529 0
M  V30 8972 C 846.721 1.55845 -1.28673 0
M  V30 8973 C 847.042 1.94511 0.137976 0
M  V30 8974 O 846.312 1.63775 1.07492 0
M  V30 8975 H 844.892 0.577931 -0.473291 0
M  V30 8976 H 847.554 0.959293 -1.69657 0
M  V30 8977 H 846.65 2.47285 -1.90411 0
M  V30 8978 N 846.951 1.19563 1.02676 0
M  V30 8979 C 847.883 0.893054 2.11086 0
M  V30 8980 C 848.896 -0.115101 1.62393 0
M  V30 8981 O 850.085 0.11459 1.78132 0
M  V30 8982 C 847.185 0.315533 3.37428 0
M  V30 8983 C 846.358 1.37276 4.153 0
M  V30 8984 C 845.417 0.808398 5.19953 0
M  V30 8985 O 844.443 1.48661 5.49444 0
M  V30 8986 N 845.645 -0.387253 5.79207 0
M  V30 8987 H 848.41 1.82622 2.37633 0
M  V30 8988 H 845.971 1.09792 1.18984 0
M  V30 8989 H 847.963 -0.0759166 4.04629 0
M  V30 8990 H 846.533 -0.521961 3.08211 0
M  V30 8991 H 845.753 1.93897 3.43217 0
M  V30 8992 H 847.041 2.08509 4.64114 0
M  V30 8993 H 846.439 -0.955725 5.57568 0
M  V30 8994 H 844.996 -0.720457 6.47806 0
M  V30 8995 N 848.429 -1.21819 0.999893 0
M  V30 8996 C 849.675 -1.91325 0.690373 0
M  V30 8997 C 850.03 -1.76323 -0.769929 0
M  V30 8998 O 849.323 -1.12585 -1.55033 0
M  V30 8999 C 849.517 -3.4193 1.04012 0
M  V30 9000 C 849.346 -3.71585 2.53287 0
M  V30 9001 C 848.116 -3.91219 3.19806 0
M  V30 9002 C 850.314 -3.75502 3.5143 0
M  V30 9003 N 848.296 -4.08246 4.58485 0
M  V30 9004 C 849.667 -3.97753 4.75597 0
M  V30 9005 C 851.722 -3.58383 3.45638 0
M  V30 9006 C 850.425 -4.04662 5.94677 0
M  V30 9007 C 852.451 -3.66555 4.64103 0
M  V30 9008 C 851.813 -3.89263 5.87072 0
M  V30 9009 H 847.912 -0.720484 0.304018 0
M  V30 9010 H 850.496 -1.46595 1.28133 0
M  V30 9011 H 848.667 -3.85452 0.477671 0
M  V30 9012 H 850.399 -3.98846 0.685864 0
M  V30 9013 H 847.154 -3.88917 2.7026 0
M  V30 9014 H 847.578 -4.20673 5.30437 0
M  V30 9015 H 852.22 -3.39807 2.51576 0
M  V30 9016 H 849.938 -4.22039 6.89136 0
M  V30 9017 H 853.524 -3.54639 4.61218 0
M  V30 9018 H 852.404 -3.95424 6.77207 0
M  V30 9019 N 849.908 -0.773975 -1.37286 0
M  V30 9020 C 850.818 -0.162571 -2.34036 0
M  V30 9021 C 851.834 0.677022 -1.60289 0
M  V30 9022 O 853.01 0.596423 -1.92366 0
M  V30 9023 C 850.075 0.70457 -3.39465 0
M  V30 9024 C 849.136 -0.151738 -4.29032 0
M  V30 9025 C 848.369 0.674111 -5.29426 0
M  V30 9026 O 848.592 1.91107 -5.37433 0
M  V30 9027 O 847.526 0.0821398 -6.01844 0
M  V30 9028 H 851.352 -0.962119 -2.88057 0
M  V30 9029 H 848.937 -0.53517 -1.39486 0
M  V30 9030 H 850.819 1.19954 -4.03967 0
M  V30 9031 H 849.494 1.48227 -2.87768 0
M  V30 9032 H 848.401 -0.693118 -3.67623 0
M  V30 9033 H 849.734 -0.892575 -4.84039 0
M  V30 9034 N 851.386 1.48609 -0.524698 0
M  V30 9035 C 852.318 2.27508 0.278 0
M  V30 9036 C 853.331 1.35042 0.909258 0
M  V30 9037 O 854.52 1.60136 0.788592 0
M  V30 9038 C 851.62 3.08247 1.40843 0
M  V30 9039 C 850.793 4.28455 0.880083 0
M  V30 9040 C 849.852 4.91048 1.891 0
M  V30 9041 O 848.878 5.5042 1.45005 0
M  V30 9042 N 850.08 4.82816 3.22288 0
M  V30 9043 H 852.845 2.97037 -0.398642 0
M  V30 9044 H 850.406 1.57876 -0.358698 0
M  V30 9045 H 852.398 3.46992 2.08276 0
M  V30 9046 H 850.968 2.41173 1.98883 0
M  V30 9047 H 850.188 3.94189 0.0299228 0
M  V30 9048 H 851.476 5.06279 0.505881 0
M  V30 9049 H 850.874 4.3572 3.60783 0
M  V30 9050 H 849.431 5.25676 3.85368 0
M  V30 9051 N 852.864 0.259585 1.55447 0
M  V30 9052 C 854.28 -0.094961 1.59317 0
M  V30 9053 C 854.48 -1.55884 1.2768 0
M  V30 9054 O 853.536 -2.30528 1.0302 0
M  V30 9055 C 854.849 0.265669 2.99524 0
M  V30 9056 C 856.397 0.211007 3.12288 0
M  V30 9057 C 856.872 0.545851 4.54736 0
M  V30 9058 N 858.363 0.496823 4.60528 0
M  V30 9059 C 859.098 0.728909 5.68748 0
M  V30 9060 N 858.594 1.02479 6.85179 0
M  V30 9061 N 860.387 0.658756 5.58226 0
M  V30 9062 H 852.538 1.2141 1.7428 0
M  V30 9063 H 854.801 0.489404 0.811904 0
M  V30 9064 H 854.507 1.28316 3.27457 0
M  V30 9065 H 854.381 -0.401089 3.75061 0
M  V30 9066 H 856.768 -0.797172 2.84129 0
M  V30 9067 H 856.849 0.911799 2.38998 0
M  V30 9068 H 856.493 1.55164 4.83618 0
M  V30 9069 H 856.423 -0.17656 5.26304 0
M  V30 9070 H 858.914 0.277376 3.76881 0
M  V30 9071 H 859.227 1.18897 7.63599 0
M  V30 9072 H 857.572 1.0624 6.86832 0
M  V30 9073 H 860.763 0.427553 4.66143 0
M  V30 9074 H 860.936 0.84302 6.42493 0
M  V30 9075 N 854.342 -1.57594 -0.0133615 0
M  V30 9076 C 855.272 -2.10611 -1.00823 0
M  V30 9077 C 856.253 -1.01217 -1.36708 0
M  V30 9078 O 857.438 -1.28827 -1.45318 0
M  V30 9079 C 854.568 -2.59844 -2.30431 0
M  V30 9080 C 853.522 -3.73644 -2.08745 0
M  V30 9081 C 852.848 -4.09141 -3.4425 0
M  V30 9082 C 854.148 -5.01454 -1.46086 0
M  V30 9083 H 855.842 -2.93985 -0.566849 0
M  V30 9084 H 853.388 -1.41423 -0.271219 0
M  V30 9085 H 855.341 -2.95557 -3.00373 0
M  V30 9086 H 854.065 -1.73573 -2.76658 0
M  V30 9087 H 852.724 -3.38303 -1.41232 0
M  V30 9088 H 852.372 -3.19914 -3.88155 0
M  V30 9089 H 852.072 -4.85802 -3.3056 0
M  V30 9090 H 853.596 -4.47402 -4.15528 0
M  V30 9091 H 855.01 -5.35024 -2.05966 0
M  V30 9092 H 853.407 -5.82832 -1.42924 0
M  V30 9093 H 854.477 -4.83003 -0.428471 0
M  V30 9094 N 855.82 0.285905 -1.54985 0
M  V30 9095 C 856.73 1.37534 -1.90057 0
M  V30 9096 C 857.746 1.54707 -0.796348 0
M  V30 9097 O 858.922 1.69082 -1.09423 0
M  V30 9098 C 855.987 2.7167 -2.15398 0
M  V30 9099 C 855.048 2.63354 -3.39033 0
M  V30 9100 C 854.281 3.91093 -3.63155 0
M  V30 9101 O 854.504 4.91169 -2.90015 0
M  V30 9102 O 853.438 3.92075 -4.56685 0
M  V30 9103 H 857.264 1.10791 -2.8277 0
M  V30 9104 H 854.849 0.483303 -1.41367 0
M  V30 9105 H 856.731 3.51006 -2.33179 0
M  V30 9106 H 855.406 2.98226 -1.25868 0
M  V30 9107 H 854.313 1.82438 -3.26599 0
M  V30 9108 H 855.646 2.41749 -4.2874 0
M  V30 9109 N 857.298 1.47698 0.54982 0
M  V30 9110 C 858.208 1.63386 1.68351 0
M  V30 9111 C 859.224 0.516583 1.66155 0
M  V30 9112 O 860.4 0.785088 1.85468 0
M  V30 9113 C 857.465 1.6513 3.04849 0
M  V30 9114 C 856.526 2.88338 3.18056 0
M  V30 9115 C 855.759 2.8999 4.48042 0
M  V30 9116 O 855.982 2.00633 5.3395 0
M  V30 9117 O 854.916 3.81938 4.65196 0
M  V30 9118 H 858.742 2.59329 1.58057 0
M  V30 9119 H 856.327 1.30869 0.72067 0
M  V30 9120 H 858.209 1.68913 3.86065 0
M  V30 9121 H 856.884 0.723555 3.1551 0
M  V30 9122 H 855.791 2.90097 2.36209 0
M  V30 9123 H 857.124 3.80431 3.12302 0
M  V30 9124 N 858.776 -0.797141 1.35954 0
M  V30 9125 C 860.001 -1.59097 1.33053 0
M  V30 9126 C 860.426 -1.87897 -0.0874592 0
M  V30 9127 O 859.784 -1.47291 -1.05712 0
M  V30 9128 C 859.832 -2.89346 2.152 0
M  V30 9129 O 858.936 -3.826 1.5392 0
M  V30 9130 H 858.277 -0.482895 0.45575 0
M  V30 9131 H 860.807 -0.988633 1.79129 0
M  V30 9132 H 860.817 -3.38686 2.27499 0
M  V30 9133 H 859.492 -2.6771 3.18283 0
M  V30 9134 H 858.069 -3.41174 1.50516 0
M  V30 9135 N 860.254 -1.20106 -1.0204 0
M  V30 9136 C 861.479 -1.0351 -1.79723 0
M  V30 9137 C 861.904 0.411328 -1.83548 0
M  V30 9138 O 861.262 1.29608 -1.26773 0
M  V30 9139 C 861.31 -1.61876 -3.22224 0
M  V30 9140 O 860.414 -0.853813 -4.03465 0
M  V30 9141 H 859.755 -0.365299 -0.554484 0
M  V30 9142 H 862.285 -1.59316 -1.28373 0
M  V30 9143 H 862.295 -1.65451 -3.72948 0
M  V30 9144 H 860.97 -2.67148 -3.18755 0
M  V30 9145 H 859.547 -0.891983 -3.62075 0
M  V30 9146 N 861.732 1.21287 -1.00634 0
M  V30 9147 C 862.664 2.2308 -0.526094 0
M  V30 9148 C 863.677 1.58157 0.386031 0
M  V30 9149 O 864.866 1.77528 0.186016 0
M  V30 9150 C 861.966 3.37937 0.255289 0
M  V30 9151 C 861.139 4.32449 -0.656236 0
M  V30 9152 C 860.198 5.26145 0.0757714 0
M  V30 9153 O 859.224 5.66601 -0.543325 0
M  V30 9154 N 860.426 5.6449 1.35391 0
M  V30 9155 H 863.191 2.64913 -1.40147 0
M  V30 9156 H 860.752 1.35724 -0.882641 0
M  V30 9157 H 862.744 3.97614 0.753977 0
M  V30 9158 H 861.314 2.95078 1.03187 0
M  V30 9159 H 860.534 3.70892 -1.3354 0
M  V30 9160 H 861.822 4.92526 -1.27653 0
M  V30 9161 H 861.22 5.33617 1.878 0
M  V30 9162 H 859.777 6.26524 1.79753 0
M  V30 9163 N 863.21 0.781244 1.36873 0
M  V30 9164 C 864.173 0.180094 2.28491 0
M  V30 9165 C 865.173 -0.617798 1.48458 0
M  V30 9166 O 866.363 -0.439991 1.68552 0
M  V30 9167 C 863.495 -0.751741 3.32508 0
M  V30 9168 H 864.688 0.987837 2.83164 0
M  V30 9169 H 862.241 0.550102 1.463 0
M  V30 9170 H 862.976 -1.58413 2.82977 0
M  V30 9171 H 862.761 -0.181649 3.91679 0
M  V30 9172 H 864.251 -1.16748 4.00949 0
M  V30 9173 N 864.689 -1.48329 0.532571 0
M  V30 9174 C 865.636 -2.29663 -0.228779 0
M  V30 9175 C 866.606 -1.37529 -0.931401 0
M  V30 9176 O 867.791 -1.66493 -0.931921 0
M  V30 9177 C 864.931 -3.20955 -1.26814 0
M  V30 9178 C 864.044 -4.28168 -0.574099 0
M  V30 9179 C 863.179 -5.06638 -1.59661 0
M  V30 9180 C 862.218 -6.05651 -0.88618 0
M  V30 9181 N 861.355 -6.77169 -1.85436 0
M  V30 9182 H 866.195 -2.94255 0.47098 0
M  V30 9183 H 863.732 -1.45061 0.2441 0
M  V30 9184 H 865.69 -3.72285 -1.88307 0
M  V30 9185 H 864.32 -2.58281 -1.93625 0
M  V30 9186 H 863.372 -3.80085 0.154827 0
M  V30 9187 H 864.684 -4.98797 -0.0163984 0
M  V30 9188 H 863.838 -5.61995 -2.28576 0
M  V30 9189 H 862.577 -4.35854 -2.18821 0
M  V30 9190 H 861.582 -5.49495 -0.182981 0
M  V30 9191 H 862.807 -6.78434 -0.300659 0
M  V30 9192 H 860.753 -6.09134 -2.43499 0
M  V30 9193 H 860.67 -7.43882 -1.34816 0
M  V30 9194 H 861.938 -7.37114 -2.53541 0
M  V30 9195 N 866.167 -0.267825 -1.55308 0
M  V30 9196 C 867.395 0.354587 -2.03839 0
M  V30 9197 C 867.81 1.50007 -1.14644 0
M  V30 9198 O 867.167 1.81752 -0.165055 0
M  V30 9199 C 867.218 0.84254 -3.51544 0
M  V30 9200 O 866.939 -0.257318 -4.37344 0
M  V30 9201 C 868.44 1.53351 -4.15931 0
M  V30 9202 H 865.66 0.0818131 -0.665994 0
M  V30 9203 H 868.204 -0.397795 -2.00594 0
M  V30 9204 H 866.359 1.54503 -3.55257 0
M  V30 9205 H 866.773 0.116593 -5.2437 0
M  V30 9206 H 868.247 1.82643 -5.20908 0
M  V30 9207 H 868.724 2.4626 -3.63666 0
M  V30 9208 H 869.33 0.87506 -4.162 0
M  V30 9209 N 867.645 1.57599 0.00500368 0
M  V30 9210 C 868.894 1.89528 0.690061 0
M  V30 9211 C 869.207 0.869451 1.75214 0
M  V30 9212 O 870.413 1.07879 2.49147 0
M  V30 9213 C 868.869 3.36425 1.27852 0
M  V30 9214 C 868.477 4.47293 0.251531 0
M  V30 9215 C 870.221 3.77471 1.94206 0
M  V30 9216 C 868.128 5.85264 0.8497 0
M  V30 9217 H 867.058 0.707201 0.2615 0
M  V30 9218 H 869.709 1.83418 -0.0547209 0
M  V30 9219 H 868.091 3.37356 2.07381 0
M  V30 9220 H 869.265 4.5787 -0.518796 0
M  V30 9221 H 867.58 4.15235 -0.311281 0
M  V30 9222 H 870.177 4.77884 2.39855 0
M  V30 9223 H 870.52 3.10722 2.77051 0
M  V30 9224 H 871.053 3.78817 1.21419 0
M  V30 9225 H 867.792 6.55472 0.0601408 0
M  V30 9226 H 867.312 5.78361 1.5893 0
M  V30 9227 H 868.991 6.32762 1.34984 0
M  V30 9228 N 869.123 -0.277682 1.55134 0
M  V30 9229 C 870.073 -1.34531 1.8408 0
M  V30 9230 C 871.057 -1.44904 0.699393 0
M  V30 9231 O 872.249 -1.48664 0.960623 0
M  V30 9232 C 869.378 -2.7064 2.11208 0
M  V30 9233 C 868.464 -2.64396 3.31596 0
M  V30 9234 N 868.855 -2.2777 4.51613 0
M  V30 9235 C 867.153 -2.95464 3.34091 0
M  V30 9236 C 867.854 -2.31401 5.33693 0
M  V30 9237 N 866.83 -2.69688 4.71984 0
M  V30 9238 H 870.632 -1.05214 2.74421 0
M  V30 9239 H 868.146 -0.486311 1.54948 0
M  V30 9240 H 870.143 -3.47649 2.301 0
M  V30 9241 H 868.803 -3.00849 1.22148 0
M  V30 9242 H 869.814 -1.99827 4.77797 0
M  V30 9243 H 866.491 -3.30415 2.5521 0
M  V30 9244 H 867.881 -2.05685 6.39643 0
M  V30 9245 N 870.601 -1.47988 -0.541979 0
M  V30 9246 C 871.829 -1.59034 -1.32347 0
M  V30 9247 C 872.244 -0.246123 -1.87189 0
M  V30 9248 O 871.601 0.762889 -1.6579 0
M  V30 9249 C 871.652 -2.62759 -2.48274 0
M  V30 9250 O 871.373 -3.91963 -1.95695 0
M  V30 9251 C 872.874 -2.84133 -3.4027 0
M  V30 9252 H 870.094 -0.536574 -0.402901 0
M  V30 9253 H 872.638 -1.93725 -0.655045 0
M  V30 9254 H 870.793 -2.3096 -3.11025 0
M  V30 9255 H 871.207 -4.48769 -2.7149 0
M  V30 9256 H 872.681 -3.60538 -4.17991 0
M  V30 9257 H 873.158 -1.92512 -3.9476 0
M  V30 9258 H 873.764 -3.17188 -2.83322 0
M  V30 9259 N 872.079 0.78992 -1.36375 0
M  V30 9260 C 873.042 1.88414 -1.30509 0
M  V30 9261 C 874.042 1.59384 -0.2129 0
M  V30 9262 O 875.232 1.67805 -0.467651 0
M  V30 9263 C 872.364 3.25188 -1.02302 0
M  V30 9264 H 873.557 1.95031 -2.27822 0
M  V30 9265 H 871.11 0.987664 -1.2114 0
M  V30 9266 H 871.845 3.24254 -0.0544486 0
M  V30 9267 H 871.63 3.47647 -1.81338 0
M  V30 9268 H 873.12 4.05252 -1.00801 0
M  V30 9269 N 873.557 1.20646 1.01402 0
M  V30 9270 C 874.782 1.04462 1.79172 0
M  V30 9271 C 875.207 -0.401588 1.83763 0
M  V30 9272 O 874.565 -1.28934 1.27459 0
M  V30 9273 C 874.613 1.63583 3.21361 0
M  V30 9274 O 873.717 0.875198 4.03006 0
M  V30 9275 H 873.058 0.368235 0.552539 0
M  V30 9276 H 875.588 1.59994 1.27526 0
M  V30 9277 H 875.598 1.67426 3.72065 0
M  V30 9278 H 874.273 2.68835 3.17334 0
M  V30 9279 H 872.85 0.911172 3.61597 0
M  V30 9280 N 875.035 -1.20752 1.01276 0
M  V30 9281 C 875.945 -2.27079 0.589277 0
M  V30 9282 C 876.961 -1.6999 -0.371389 0
M  V30 9283 O 878.137 -2.00044 -0.233294 0
M  V30 9284 C 875.202 -3.4663 -0.0696715 0
M  V30 9285 C 874.263 -4.18962 0.936454 0
M  V30 9286 C 873.496 -5.32806 0.308856 0
M  V30 9287 O 873.719 -5.63376 -0.8924 0
M  V30 9288 O 872.653 -5.93131 1.02367 0
M  V30 9289 H 876.479 -2.6551 1.47438 0
M  V30 9290 H 874.064 -1.27297 0.782045 0
M  V30 9291 H 875.946 -4.19119 -0.437873 0
M  V30 9292 H 874.621 -3.10082 -0.929029 0
M  V30 9293 H 873.528 -3.48661 1.35595 0
M  V30 9294 H 874.861 -4.59441 1.76565 0
M  V30 9295 N 876.513 -0.788492 -1.36457 0
M  V30 9296 C 877.741 -0.372365 -2.03522 0
M  V30 9297 C 878.156 1.01093 -1.59454 0
M  V30 9298 O 877.513 1.64824 -0.783535 0
M  V30 9299 C 877.564 -0.425435 -3.58988 0
M  V30 9300 O 877.285 -1.75418 -4.01448 0
M  V30 9301 C 878.786 0.000180167 -4.433 0
M  V30 9302 H 876.006 -0.1536 -0.653183 0
M  V30 9303 H 878.55 -1.06708 -1.74452 0
M  V30 9304 H 876.705 0.220856 -3.8677 0
M  V30 9305 H 877.119 -1.70437 -4.96036 0
M  V30 9306 H 878.593 -0.0880919 -5.5193 0
M  V30 9307 H 879.07 1.05269 -4.26398 0
M  V30 9308 H 879.676 -0.618563 -4.20778 0
M  V30 9309 N 877.991 1.48044 -0.54043 0
M  V30 9310 C 878.939 2.31461 0.229862 0
M  V30 9311 C 879.933 1.41884 0.925495 0
M  V30 9312 O 881.139 1.58736 0.848689 0
M  V30 9313 H 877.514 0.746227 0.0929975 0
M  V30 9314 H 879.485 2.94297 -0.493118 0
M  V30 9315 C 878.234 3.24172 1.25729 0
M  V30 9316 H 877.557 3.93052 0.731426 0
M  V30 9317 H 878.997 3.85404 1.76747 0
M  V30 9318 C 877.456 2.4651 2.2964 0
M  V30 9319 O 877.986 2.19742 3.36268 0
M  V30 9320 N 876.192 2.07817 2.03127 0
M  V30 9321 H 875.739 2.29786 1.1643 0
M  V30 9322 H 875.697 1.56168 2.72872 0
M  V30 9323 N 879.47 0.276058 1.55163 0
M  V30 9324 C 880.718 -0.339782 1.99223 0
M  V30 9325 C 881.039 -1.56307 1.16589 0
M  V30 9326 O 880.309 -1.94225 0.25564 0
M  V30 9327 H 878.889 -0.128534 0.735859 0
M  V30 9328 H 881.551 0.381612 1.91128 0
M  V30 9329 H 880.647 -0.629 3.05696 0
M  V30 9330 N 880.948 -1.576 0.00335426 0
M  V30 9331 C 881.881 -2.04085 -1.021 0
M  V30 9332 C 882.859 -0.931382 -1.33282 0
M  V30 9333 O 884.043 -1.19976 -1.45389 0
M  V30 9334 C 881.17 -2.44128 -2.34775 0
M  V30 9335 C 880.216 -3.65841 -2.19232 0
M  V30 9336 S 881.049 -5.13616 -1.51521 0
M  V30 9337 C 882.205 -5.56931 -2.8562 0
M  V30 9338 H 882.438 -2.90652 -0.625192 0
M  V30 9339 H 879.971 -1.52998 -0.207611 0
M  V30 9340 H 881.929 -2.67866 -3.1106 0
M  V30 9341 H 880.59 -1.57954 -2.71495 0
M  V30 9342 H 879.783 -3.9162 -3.17253 0
M  V30 9343 H 879.385 -3.42122 -1.51091 0
M  V30 9344 H 881.677 -5.59596 -3.81914 0
M  V30 9345 H 882.62 -6.5683 -2.64536 0
M  V30 9346 H 883.028 -4.84504 -2.89683 0
M  V30 9347 N 882.426 0.269451 -1.5528 0
M  V30 9348 C 883.674 0.998604 -1.75705 0
M  V30 9349 C 883.995 1.86691 -0.563175 0
M  V30 9350 O 883.265 1.91305 0.421811 0
M  V30 9351 H 881.845 0.371698 -0.647958 0
M  V30 9352 H 884.507 0.292826 -1.92688 0
M  V30 9353 H 883.603 1.63348 -2.6594 0
M  V30 9354 N 883.904 1.48273 0.534124 0
M  V30 9355 C 885.315 1.49667 1.1161 0
M  V30 9356 C 885.666 0.264139 1.94414 0
M  V30 9357 O 884.791 -0.629084 2.07054 0
M  V30 9358 C 885.386 2.71191 2.03079 0
M  V30 9359 C 883.945 2.7547 2.56502 0
M  V30 9360 C 883.092 2.43119 1.33373 0
M  V30 9361 H 886.043 1.55449 0.319578 0
M  V30 9362 H 886.064 2.49473 2.87304 0
M  V30 9363 H 885.576 3.60879 1.42785 0
M  V30 9364 H 883.677 1.89979 3.20529 0
M  V30 9365 H 883.79 3.76787 2.95919 0
M  V30 9366 H 882.154 1.94187 1.64813 0
M  V30 9367 H 882.937 3.35044 0.748375 0
M  V30 9368 N 885.382 -0.782676 1.36792 0
M  V30 9369 C 886.793 -1.35828 1.28092 0
M  V30 9370 C 887.144 -1.96052 -0.076315 0
M  V30 9371 O 886.269 -1.93042 -0.977935 0
M  V30 9372 C 886.864 -2.46949 2.31952 0
M  V30 9373 C 885.423 -3.00307 2.2692 0
M  V30 9374 C 884.57 -1.73436 2.16368 0
M  V30 9375 H 887.521 -0.583788 1.47572 0
M  V30 9376 H 887.542 -3.26144 1.95986 0
M  V30 9377 H 887.054 -2.03087 3.30722 0
M  V30 9378 H 885.155 -3.48571 1.31639 0
M  V30 9379 H 885.268 -3.56663 3.19887 0
M  V30 9380 H 883.632 -1.95934 1.62733 0
M  V30 9381 H 884.415 -1.31693 3.17036 0
M  V30 9382 N 886.86 -1.21182 -1.00761 0
M  V30 9383 C 887.77 -0.984691 -2.12934 0
M  V30 9384 C 888.786 0.0623657 -1.73888 0
M  V30 9385 O 889.962 -0.1271 -2.00999 0
M  V30 9386 C 887.027 -0.549447 -3.42319 0
M  V30 9387 C 886.088 -1.66841 -3.95553 0
M  V30 9388 C 885.321 -1.25384 -5.18763 0
M  V30 9389 O 885.544 -0.126333 -5.7026 0
M  V30 9390 O 884.478 -2.06475 -5.65377 0
M  V30 9391 H 888.304 -1.92413 -2.3497 0
M  V30 9392 H 885.889 -0.99647 -1.11314 0
M  V30 9393 H 887.771 -0.316384 -4.20211 0
M  V30 9394 H 886.446 0.361304 -3.21677 0
M  V30 9395 H 885.353 -1.95585 -3.189 0
M  V30 9396 H 886.686 -2.55649 -4.206 0
M  V30 9397 N 888.338 1.20213 -1.01915 0
M  V30 9398 C 889.586 1.89272 -0.708552 0
M  V30 9399 C 889.907 1.79394 0.76438 0
M  V30 9400 O 889.177 1.198 1.54999 0
M  V30 9401 H 887.757 0.700628 -0.259094 0
M  V30 9402 H 890.419 1.45985 -1.29129 0
M  V30 9403 H 889.515 2.95841 -0.994215 0
M  V30 9404 N 889.816 0.795718 1.36037 0
M  V30 9405 C 891.064 0.370291 1.98679 0
M  V30 9406 C 891.385 -1.06332 1.63458 0
M  V30 9407 O 890.655 -1.73394 0.911671 0
M  V30 9408 H 889.235 0.133928 0.734896 0
M  V30 9409 H 891.897 1.01915 1.6613 0
M  V30 9410 H 890.993 0.467207 3.08583 0
M  V30 9411 N 891.294 -1.47756 0.548274 0
M  V30 9412 C 892.705 -1.8636 0.112547 0
M  V30 9413 C 893.056 -1.45589 -1.31523 0
M  V30 9414 O 892.181 -0.854874 -1.98799 0
M  V30 9415 C 892.776 -3.38224 0.197473 0
M  V30 9416 C 891.335 -3.75954 -0.183163 0
M  V30 9417 C 890.482 -2.7181 0.549059 0
M  V30 9418 H 893.433 -1.394 0.758506 0
M  V30 9419 H 893.454 -3.75957 -0.586217 0
M  V30 9420 H 892.966 -3.67868 1.23673 0
M  V30 9421 H 891.067 -3.51926 -1.22387 0
M  V30 9422 H 891.18 -4.78801 0.169178 0
M  V30 9423 H 889.544 -2.54699 -0.00682862 0
M  V30 9424 H 890.327 -3.04296 1.5893 0
M  V30 9425 N 892.772 -0.284283 -1.55015 0
M  V30 9426 C 893.704 0.63258 -2.20298 0
M  V30 9427 C 894.717 1.11045 -1.1905 0
M  V30 9428 O 895.906 1.03078 -1.4573 0
M  V30 9429 C 893.006 1.87599 -2.82241 0
M  V30 9430 C 892.179 1.5434 -4.09265 0
M  V30 9431 C 891.238 2.64023 -4.55169 0
M  V30 9432 O 890.264 2.29821 -5.20741 0
M  V30 9433 N 891.466 3.94255 -4.26079 0
M  V30 9434 H 894.231 0.0737928 -2.99609 0
M  V30 9435 H 891.792 -0.105767 -1.61554 0
M  V30 9436 H 893.784 2.60289 -3.0989 0
M  V30 9437 H 892.354 2.3436 -2.06868 0
M  V30 9438 H 891.574 0.649912 -3.88806 0
M  V30 9439 H 892.862 1.29634 -4.92009 0
M  V30 9440 H 892.26 4.24859 -3.73512 0
M  V30 9441 H 890.817 4.63295 -4.58477 0
M  V30 9442 N 894.251 1.57596 -0.0117121 0
M  V30 9443 C 895.161 2.12596 0.991964 0
M  V30 9444 C 896.177 1.07399 1.36899 0
M  V30 9445 O 897.353 1.39365 1.45394 0
M  V30 9446 C 894.418 2.62796 2.2614 0
M  V30 9447 C 893.479 3.8264 1.94642 0
M  V30 9448 C 892.712 4.30435 3.15533 0
M  V30 9449 O 892.935 3.77495 4.27614 0
M  V30 9450 O 891.869 5.22469 2.98847 0
M  V30 9451 H 895.695 2.98597 0.554371 0
M  V30 9452 H 893.28 1.47947 0.207839 0
M  V30 9453 H 895.162 2.9523 3.00695 0
M  V30 9454 H 893.837 1.79886 2.69114 0
M  V30 9455 H 892.744 3.5516 1.17526 0
M  V30 9456 H 894.077 4.66658 1.56496 0
M  V30 9457 N 895.729 -0.261212 1.5542 0
M  V30 9458 C 896.692 -1.30645 1.8832 0
M  V30 9459 C 897.692 -1.41782 0.758588 0
M  V30 9460 O 898.882 -1.40729 1.02669 0
M  V30 9461 C 896.014 -2.6862 2.09895 0
M  V30 9462 H 897.207 -1.02698 2.81768 0
M  V30 9463 H 894.76 -0.499838 1.48092 0
M  V30 9464 H 895.495 -3.0173 1.18868 0
M  V30 9465 H 895.28 -2.61921 2.91787 0
M  V30 9466 H 896.77 -3.44121 2.36581 0
M  V30 9467 N 897.207 -1.48554 -0.526253 0
M  V30 9468 C 898.139 -1.59446 -1.6465 0
M  V30 9469 C 899.152 -0.478525 -1.55608 0
M  V30 9470 O 900.341 -0.74953 -1.62001 0
M  V30 9471 C 897.441 -1.51164 -3.03319 0
M  V30 9472 C 896.614 -2.77861 -3.37805 0
M  V30 9473 C 895.673 -2.62982 -4.5577 0
M  V30 9474 O 894.699 -3.36876 -4.58806 0
M  V30 9475 N 895.901 -1.72847 -5.5417 0
M  V30 9476 H 898.666 -2.56055 -1.55743 0
M  V30 9477 H 896.227 -1.45325 -0.713606 0
M  V30 9478 H 898.219 -1.389 -3.80117 0
M  V30 9479 H 896.789 -0.625147 -3.06285 0
M  V30 9480 H 896.009 -3.04663 -2.50149 0
M  V30 9481 H 897.297 -3.61908 -3.57632 0
M  V30 9482 H 896.695 -1.12022 -5.54498 0
M  V30 9483 H 895.252 -1.6652 -6.3017 0
M  V30 9484 N 898.685 0.775411 -1.37205 0
M  V30 9485 C 899.615 1.90258 -1.35367 0
M  V30 9486 C 900.596 1.68634 -0.222864 0
M  V30 9487 O 901.781 1.89545 -0.422659 0
M  V30 9488 C 898.911 3.27488 -1.15623 0
M  V30 9489 C 897.865 3.63668 -2.25676 0
M  V30 9490 C 897.191 4.994 -1.91059 0
M  V30 9491 C 898.491 3.70797 -3.67841 0
M  V30 9492 H 900.185 1.92053 -2.29687 0
M  V30 9493 H 897.731 0.922597 -1.10563 0
M  V30 9494 H 899.684 4.05976 -1.12968 0
M  V30 9495 H 898.408 3.26117 -0.177573 0
M  V30 9496 H 897.067 2.87486 -2.2748 0
M  V30 9497 H 896.715 4.94565 -0.917324 0
M  V30 9498 H 896.415 5.24576 -2.64751 0
M  V30 9499 H 897.939 5.80291 -1.89985 0
M  V30 9500 H 899.353 4.39444 -3.68187 0
M  V30 9501 H 897.75 4.07468 -4.40556 0
M  V30 9502 H 898.82 2.71549 -4.01732 0
M  V30 9503 N 900.163 1.21714 1.00117 0
M  V30 9504 C 901.579 0.97532 1.26332 0
M  V30 9505 C 901.779 -0.336029 1.98678 0
M  V30 9506 O 900.835 -1.06073 2.29139 0
M  V30 9507 C 902.148 2.16848 2.0832 0
M  V30 9508 C 903.696 2.21115 2.21533 0
M  V30 9509 C 904.171 3.3996 3.06906 0
M  V30 9510 N 905.662 3.40071 3.14494 0
M  V30 9511 C 906.397 4.28678 3.80818 0
M  V30 9512 N 905.893 5.2749 4.49139 0
M  V30 9513 N 907.686 4.16476 3.77497 0
M  V30 9514 H 899.837 2.06039 0.515897 0
M  V30 9515 H 902.1 0.902423 0.290408 0
M  V30 9516 H 901.806 3.119 1.62515 0
M  V30 9517 H 901.68 2.16226 3.09073 0
M  V30 9518 H 904.067 1.26616 2.66557 0
M  V30 9519 H 904.148 2.2578 1.20238 0
M  V30 9520 H 903.792 4.34755 2.62585 0
M  V30 9521 H 903.722 3.32534 4.08324 0
M  V30 9522 H 906.213 2.68563 2.65861 0
M  V30 9523 H 906.526 5.91397 4.97463 0
M  V30 9524 H 904.871 5.31412 4.47914 0
M  V30 9525 H 908.062 3.38539 3.23278 0
M  V30 9526 H 908.235 4.85739 4.28908 0
M  V30 9527 N 901.641 -1.19671 1.02551 0
M  V30 9528 C 902.588 -2.22773 0.603394 0
M  V30 9529 C 903.558 -1.61669 -0.381081 0
M  V30 9530 O 904.743 -1.88756 -0.278505 0
M  V30 9531 C 901.883 -3.45073 -0.0431034 0
M  V30 9532 C 900.996 -4.20574 0.987006 0
M  V30 9533 C 900.131 -5.30291 0.310626 0
M  V30 9534 C 899.17 -5.97545 1.32688 0
M  V30 9535 N 898.307 -6.98833 0.676542 0
M  V30 9536 H 903.147 -2.58238 1.48719 0
M  V30 9537 H 900.684 -1.26881 0.744286 0
M  V30 9538 H 902.642 -4.14925 -0.435141 0
M  V30 9539 H 901.272 -3.10274 -0.890495 0
M  V30 9540 H 900.324 -3.497 1.49713 0
M  V30 9541 H 901.636 -4.66736 1.75952 0
M  V30 9542 H 900.79 -6.06547 -0.136438 0
M  V30 9543 H 899.529 -4.8519 -0.49412 0
M  V30 9544 H 898.534 -5.20043 1.78424 0
M  V30 9545 H 899.759 -6.4473 2.13306 0
M  V30 9546 H 897.705 -6.55911 -0.108172 0
M  V30 9547 H 897.622 -7.43168 1.38699 0
M  V30 9548 H 898.89 -7.79088 0.253367 0
M  V30 9549 N 903.119 -0.802921 -1.35613 0
M  V30 9550 C 904.029 -0.212177 -2.33639 0
M  V30 9551 C 905.045 0.642871 -1.61689 0
M  V30 9552 O 906.221 0.555485 -1.93588 0
M  V30 9553 C 903.286 0.632406 -3.40883 0
M  V30 9554 C 902.347 -0.242708 -4.28613 0
M  V30 9555 C 901.58 0.56166 -5.30736 0
M  V30 9556 O 901.803 1.79664 -5.41366 0
M  V30 9557 O 900.737 -0.0455387 -6.01883 0
M  V30 9558 H 904.563 -1.023 -2.85952 0
M  V30 9559 H 902.148 -0.564636 -1.38319 0
M  V30 9560 H 904.03 1.11358 -4.0642 0
M  V30 9561 H 902.705 1.42089 -2.90848 0
M  V30 9562 H 901.612 -0.77094 -3.6607 0
M  V30 9563 H 902.945 -0.995046 -4.82037 0
M  V30 9564 N 904.597 1.47463 -0.556102 0
M  V30 9565 C 905.843 2.02775 -0.0316806 0
M  V30 9566 C 906.176 1.42967 1.3143 0
M  V30 9567 O 905.451 0.584847 1.85499 0
M  V30 9568 C 905.734 3.60046 0.0625742 0
M  V30 9569 C 905.587 4.30288 -1.31043 0
M  V30 9570 C 906.906 4.33195 0.776553 0
M  V30 9571 H 904.025 0.736886 -0.0129869 0
M  V30 9572 H 906.667 1.75904 -0.718177 0
M  V30 9573 H 904.817 3.83071 0.647231 0
M  V30 9574 H 906.489 4.18607 -1.9382 0
M  V30 9575 H 904.732 3.90685 -1.8854 0
M  V30 9576 H 905.403 5.38861 -1.1972 0
M  V30 9577 H 907.879 4.15156 0.280147 0
M  V30 9578 H 906.755 5.42869 0.81146 0
M  V30 9579 H 907.016 4.02336 1.83244 0
M  V30 9580 N 906.075 0.2925 1.54862 0
M  V30 9581 C 907.038 -0.574423 2.21885 0
M  V30 9582 C 908.038 -1.06791 1.20218 0
M  V30 9583 O 909.228 -0.9653 1.45009 0
M  V30 9584 C 906.36 -1.79438 2.89853 0
M  V30 9585 H 907.553 0.0110319 2.99898 0
M  V30 9586 H 905.106 0.043256 1.5624 0
M  V30 9587 H 905.841 -2.4199 2.15897 0
M  V30 9588 H 905.626 -1.44827 3.64373 0
M  V30 9589 H 907.116 -2.41048 3.41007 0
M  V30 9590 N 907.553 -1.57587 0.0200696 0
M  V30 9591 C 908.516 -2.08595 -0.949767 0
M  V30 9592 C 909.516 -0.999215 -1.25985 0
M  V30 9593 O 910.706 -1.26115 -1.2017 0
M  V30 9594 C 907.838 -2.54424 -2.26895 0
M  V30 9595 H 909.031 -2.95563 -0.508161 0
M  V30 9596 H 906.584 -1.54631 -0.227798 0
M  V30 9597 H 907.319 -1.70758 -2.75703 0
M  V30 9598 H 907.104 -3.3381 -2.05702 0
M  V30 9599 H 908.594 -2.94144 -2.96427 0
M  V30 9600 N 909.032 0.252966 -1.55557 0
M  V30 9601 C 909.962 1.31691 -1.9282 0
M  V30 9602 C 910.943 1.50516 -0.7924 0
M  V30 9603 O 912.128 1.63225 -1.05219 0
M  V30 9604 C 909.258 2.67281 -2.21762 0
M  V30 9605 C 908.212 2.6316 -3.37536 0
M  V30 9606 C 907.538 4.02488 -3.52005 0
M  V30 9607 C 908.838 2.20675 -4.73392 0
M  V30 9608 H 910.532 1.00751 -2.81939 0
M  V30 9609 H 908.078 0.483219 -1.3565 0
M  V30 9610 H 910.031 3.41842 -2.46419 0
M  V30 9611 H 908.755 2.99845 -1.29463 0
M  V30 9612 H 907.414 1.91057 -3.12878 0
M  V30 9613 H 907.062 4.32307 -2.57137 0
M  V30 9614 H 906.762 4.00621 -4.29857 0
M  V30 9615 H 908.286 4.78758 -3.78977 0
M  V30 9616 H 909.7 2.84965 -4.97461 0
M  V30 9617 H 908.097 2.29931 -5.54303 0
M  V30 9618 H 909.167 1.15831 -4.70862 0
M  V30 9619 N 910.51 1.48831 0.518367 0
M  V30 9620 C 911.926 1.35209 0.847979 0
M  V30 9621 C 912.126 0.371927 1.98038 0
M  V30 9622 O 911.182 -0.202681 2.51685 0
M  V30 9623 C 912.495 2.7552 1.20455 0
M  V30 9624 C 914.043 2.84094 1.31377 0
M  V30 9625 C 914.518 4.25132 1.70372 0
M  V30 9626 N 916.009 4.27861 1.77453 0
M  V30 9627 C 916.744 5.3394 2.09035 0
M  V30 9628 N 916.24 6.50285 2.3896 0
M  V30 9629 N 918.033 5.21343 2.10139 0
M  V30 9630 H 910.184 2.11166 -0.228624 0
M  V30 9631 H 912.447 0.94717 -0.0396599 0
M  V30 9632 H 912.153 3.48861 0.445991 0
M  V30 9633 H 912.027 3.09785 2.15204 0
M  V30 9634 H 914.414 2.11001 2.06307 0
M  V30 9635 H 914.495 2.53433 0.347203 0
M  V30 9636 H 914.139 4.98745 0.959975 0
M  V30 9637 H 914.069 4.53245 2.68098 0
M  V30 9638 H 916.56 3.43945 1.56557 0
M  V30 9639 H 916.873 7.26961 2.62196 0
M  V30 9640 H 915.218 6.5354 2.36454 0
M  V30 9641 H 918.409 4.29462 1.86225 0
M  V30 9642 H 918.582 6.04112 2.34419 0
M  V30 9643 N 911.988 -0.768124 1.37614 0
M  V30 9644 C 912.898 -1.91249 1.35871 0
M  V30 9645 C 913.914 -1.7208 0.257786 0
M  V30 9646 O 915.09 -1.95253 0.493782 0
M  V30 9647 C 912.155 -3.26423 1.16829 0
M  V30 9648 C 911.216 -3.5822 2.36594 0
M  V30 9649 C 910.449 -4.86945 2.1845 0
M  V30 9650 O 910.672 -5.58258 1.17064 0
M  V30 9651 O 909.606 -5.17888 3.06718 0
M  V30 9652 H 913.432 -1.95671 2.32264 0
M  V30 9653 H 911.017 -0.911382 1.18382 0
M  V30 9654 H 912.899 -4.07269 1.08212 0
M  V30 9655 H 911.574 -3.22845 0.235123 0
M  V30 9656 H 910.481 -2.77594 2.50783 0
M  V30 9657 H 911.814 -3.66545 3.2849 0
M  V30 9658 N 913.466 -1.22244 -0.994698 0
M  V30 9659 C 914.398 -0.948706 -2.08644 0
M  V30 9660 C 915.411 0.0720049 -1.62641 0
M  V30 9661 O 916.6 -0.161778 -1.77765 0
M  V30 9662 C 913.7 -0.404885 -3.36473 0
M  V30 9663 C 912.873 -1.48239 -4.11514 0
M  V30 9664 C 911.932 -0.94597 -5.17627 0
M  V30 9665 O 910.958 -1.63177 -5.45309 0
M  V30 9666 N 912.16 0.23355 -5.8003 0
M  V30 9667 H 914.925 -1.88858 -2.32707 0
M  V30 9668 H 912.486 -1.12908 -1.16032 0
M  V30 9669 H 914.478 -0.0313903 -4.04688 0
M  V30 9670 H 913.048 0.440061 -3.09487 0
M  V30 9671 H 912.268 -2.02928 -3.37955 0
M  V30 9672 H 913.556 -2.20741 -4.58422 0
M  V30 9673 H 912.954 0.80756 -5.59906 0
M  V30 9674 H 911.511 0.54845 -6.49488 0
M  V30 9675 N 914.944 1.19125 -1.03184 0
M  V30 9676 C 915.874 2.24675 -0.635889 0
M  V30 9677 C 916.855 1.66321 0.356565 0
M  V30 9678 O 918.04 1.92728 0.238625 0
M  V30 9679 C 915.17 3.47298 0.011069 0
M  V30 9680 C 914.124 4.18345 -0.903979 0
M  V30 9681 C 913.45 5.34561 -0.12197 0
M  V30 9682 C 914.75 4.72816 -2.21907 0
M  V30 9683 H 916.444 2.5805 -1.51825 0
M  V30 9684 H 913.99 1.24039 -0.73146 0
M  V30 9685 H 915.943 4.20333 0.299729 0
M  V30 9686 H 914.667 3.13131 0.928245 0
M  V30 9687 H 913.326 3.47196 -1.17688 0
M  V30 9688 H 912.974 4.9664 0.797334 0
M  V30 9689 H 912.674 5.83029 -0.731498 0
M  V30 9690 H 914.198 6.10391 0.159881 0
M  V30 9691 H 915.612 5.3759 -1.99173 0
M  V30 9692 H 914.009 5.31782 -2.78078 0
M  V30 9693 H 915.079 3.9072 -2.87168 0
M  V30 9694 N 916.422 0.810101 1.35185 0
M  V30 9695 C 917.332 0.224565 2.33523 0
M  V30 9696 C 918.348 -0.634287 1.62027 0
M  V30 9697 O 919.524 -0.545211 1.9388 0
M  V30 9698 C 916.589 -0.614319 3.41214 0
M  V30 9699 C 915.65 0.265435 4.28479 0
M  V30 9700 C 914.883 -0.533506 5.31027 0
M  V30 9701 O 915.106 -1.7679 5.42311 0
M  V30 9702 O 914.04 0.0774573 6.0185 0
M  V30 9703 H 917.866 1.03815 2.85405 0
M  V30 9704 H 915.451 0.571964 1.38018 0
M  V30 9705 H 917.333 -1.09201 4.07005 0
M  V30 9706 H 916.008 -1.40545 2.91597 0
M  V30 9707 H 914.915 0.790343 3.65656 0
M  V30 9708 H 916.248 1.0206 4.81503 0
M  V30 9709 N 917.9 -1.47166 0.563914 0
M  V30 9710 C 918.832 -2.28165 -0.217583 0
M  V30 9711 C 919.845 -1.37405 -0.873134 0
M  V30 9712 O 921.034 -1.6217 -0.745857 0
M  V30 9713 C 918.134 -3.11873 -1.32621 0
M  V30 9714 C 917.307 -4.30637 -0.766177 0
M  V30 9715 C 916.366 -4.95889 -1.76014 0
M  V30 9716 O 915.392 -5.54071 -1.3036 0
M  V30 9717 N 916.594 -4.91191 -3.09373 0
M  V30 9718 H 919.359 -2.95876 0.477256 0
M  V30 9719 H 916.92 -1.5687 0.40043 0
M  V30 9720 H 918.912 -3.52392 -1.99003 0
M  V30 9721 H 917.482 -2.46361 -1.92419 0
M  V30 9722 H 916.702 -3.94129 0.0745998 0
M  V30 9723 H 917.99 -5.07442 -0.371472 0
M  V30 9724 H 917.388 -4.45133 -3.49104 0
M  V30 9725 H 915.945 -5.35708 -3.71295 0
M  V30 9726 N 919.378 -0.300708 -1.54705 0
M  V30 9727 C 920.341 0.562648 -2.22187 0
M  V30 9728 C 921.341 1.06152 -1.20782 0
M  V30 9729 O 922.531 0.957596 -1.45519 0
M  V30 9730 C 919.663 1.77899 -2.908 0
M  V30 9731 H 920.856 -0.0269361 -2.99888 0
M  V30 9732 H 918.409 -0.0515412 -1.56215 0
M  V30 9733 H 919.144 2.40841 -2.17177 0
M  V30 9734 H 918.929 1.42892 -3.65136 0
M  V30 9735 H 920.419 2.39236 -3.42281 0
M  V30 9736 N 920.856 1.57574 -0.0284266 0
M  V30 9737 C 921.806 2.06674 0.962804 0
M  V30 9738 C 922.79 0.967115 1.28591 0
M  V30 9739 O 923.982 1.23068 1.27214 0
M  V30 9740 C 921.111 2.59682 2.24545 0
M  V30 9741 C 920.197 3.76573 1.95073 0
M  V30 9742 N 920.588 4.8721 1.35869 0
M  V30 9743 C 918.886 3.85046 2.25068 0
M  V30 9744 C 919.587 5.68436 1.23514 0
M  V30 9745 N 918.563 5.15323 1.73041 0
M  V30 9746 H 922.365 2.89615 0.500013 0
M  V30 9747 H 919.879 1.61437 0.176604 0
M  V30 9748 H 921.876 2.93148 2.96428 0
M  V30 9749 H 920.536 1.7817 2.71451 0
M  V30 9750 H 921.547 5.07477 1.03379 0
M  V30 9751 H 918.224 3.14439 2.74653 0
M  V30 9752 H 919.614 6.67387 0.777403 0
M  V30 9753 N 922.334 -0.244713 1.55689 0
M  V30 9754 C 923.559 -0.994157 1.8202 0
M  V30 9755 C 923.984 -1.78079 0.60577 0
M  V30 9756 O 923.342 -1.75748 -0.445221 0
M  V30 9757 C 923.39 -1.90599 3.06111 0
M  V30 9758 O 922.494 -2.99804 2.8318 0
M  V30 9759 H 921.835 -0.282767 0.600782 0
M  V30 9760 H 924.365 -0.26504 2.02876 0
M  V30 9761 H 924.375 -2.32023 3.35603 0
M  V30 9762 H 923.05 -1.32763 3.9414 0
M  V30 9763 H 921.627 -2.62493 2.64862 0
M  V30 9764 N 923.813 -1.49104 -0.510467 0
M  V30 9765 C 924.763 -1.6147 -1.6097 0
M  V30 9766 C 925.747 -0.470797 -1.53858 0
M  V30 9767 O 926.939 -0.723266 -1.61548 0
M  V30 9768 C 924.068 -1.67575 -2.99622 0
M  V30 9769 C 923.154 -2.87511 -3.11766 0
M  V30 9770 N 923.545 -4.11704 -2.93826 0
M  V30 9771 C 921.843 -2.85251 -3.42852 0
M  V30 9772 C 922.544 -4.92276 -3.09902 0
M  V30 9773 N 921.52 -4.2546 -3.38355 0
M  V30 9774 H 925.322 -2.5522 -1.45739 0
M  V30 9775 H 922.836 -1.45745 -0.716383 0
M  V30 9776 H 924.833 -1.74531 -3.78609 0
M  V30 9777 H 923.493 -0.749557 -3.1593 0
M  V30 9778 H 924.504 -4.41834 -2.70191 0
M  V30 9779 H 921.181 -2.0197 -3.65396 0
M  V30 9780 H 922.571 -6.00905 -3.00604 0
M  V30 9781 N 925.291 0.760815 -1.38019 0
M  V30 9782 C 926.707 1.06289 -1.19058 0
M  V30 9783 C 926.907 2.01471 -0.0342603 0
M  V30 9784 O 925.963 2.44713 0.62224 0
M  V30 9785 C 927.276 1.6499 -2.51394 0
M  V30 9786 C 928.824 1.77196 -2.58013 0
M  V30 9787 C 929.299 2.3931 -3.90506 0
M  V30 9788 N 930.79 2.46749 -3.92007 0
M  V30 9789 C 931.525 2.95687 -4.91281 0
M  V30 9790 N 931.021 3.44715 -6.00952 0
M  V30 9791 N 932.814 2.94661 -4.78677 0
M  V30 9792 H 924.965 0.129045 -2.12008 0
M  V30 9793 H 927.228 0.119878 -0.94039 0
M  V30 9794 H 926.934 1.0252 -3.36426 0
M  V30 9795 H 926.808 2.64146 -2.6927 0
M  V30 9796 H 929.195 2.38796 -1.7338 0
M  V30 9797 H 929.276 0.767645 -2.4401 0
M  V30 9798 H 928.92 1.78346 -4.75558 0
M  V30 9799 H 928.85 3.40369 -4.01817 0
M  V30 9800 H 931.341 2.12064 -3.12789 0
M  V30 9801 H 931.654 3.80492 -6.72641 0
M  V30 9802 H 929.999 3.42791 -6.04582 0
M  V30 9803 H 933.19 2.55665 -3.92113 0
M  V30 9804 H 933.363 3.32489 -5.56197 0
M  V30 9805 N 926.769 1.22769 0.988202 0
M  V30 9806 C 928.18 1.0512 1.54294 0
M  V30 9807 C 928.531 -0.383904 1.92407 0
M  V30 9808 O 927.656 -1.26955 1.75246 0
M  V30 9809 C 928.251 1.90198 2.80375 0
M  V30 9810 C 926.81 1.76831 3.32276 0
M  V30 9811 C 925.957 1.86377 2.05326 0
M  V30 9812 H 928.908 1.36546 0.808758 0
M  V30 9813 H 928.929 1.42216 3.52923 0
M  V30 9814 H 928.441 2.9464 2.52605 0
M  V30 9815 H 926.542 0.751412 3.64945 0
M  V30 9816 H 926.655 2.59771 4.02562 0
M  V30 9817 H 925.019 1.2987 2.19103 0
M  V30 9818 H 925.802 2.9236 1.79946 0
M  V30 9819 N 928.247 -1.18576 1.03814 0
M  V30 9820 C 929.472 -1.92978 0.759873 0
M  V30 9821 C 929.897 -1.75514 -0.676486 0
M  V30 9822 O 929.255 -1.06359 -1.46824 0
M  V30 9823 C 929.303 -3.42507 1.12788 0
M  V30 9824 O 928.407 -4.1163 0.251886 0
M  V30 9825 H 927.748 -0.602129 0.279886 0
M  V30 9826 H 930.278 -1.50383 1.3873 0
M  V30 9827 H 930.288 -3.93206 1.08872 0
M  V30 9828 H 928.963 -3.5454 2.17427 0
M  V30 9829 H 927.54 -3.7125 0.350441 0
M  V30 9830 N 929.725 -0.817259 -1.34754 0
M  V30 9831 C 930.973 -0.401852 -1.98065 0
M  V30 9832 C 931.294 1.03718 -1.65129 0
M  V30 9833 O 930.564 1.71921 -0.939141 0
M  V30 9834 H 929.144 -0.145603 -0.732672 0
M  V30 9835 H 931.806 -1.04545 -1.64488 0
M  V30 9836 H 930.902 -0.516241 -3.07801 0
M  V30 9837 N 931.203 1.46865 -0.571711 0
M  V30 9838 C 932.15 2.30189 0.167808 0
M  V30 9839 C 933.12 1.3995 0.89461 0
M  V30 9840 O 934.305 1.68905 0.887451 0
M  V30 9841 C 931.445 3.24205 1.1826 0
M  V30 9842 C 930.558 4.2954 0.460376 0
M  V30 9843 C 929.693 5.10693 1.46173 0
M  V30 9844 C 928.732 6.07788 0.725291 0
M  V30 9845 N 927.869 6.81847 1.67417 0
M  V30 9846 H 932.709 2.92902 -0.548831 0
M  V30 9847 H 930.246 1.44362 -0.282474 0
M  V30 9848 H 932.204 3.77147 1.7837 0
M  V30 9849 H 930.834 2.63324 1.86709 0
M  V30 9850 H 929.886 3.79541 -0.255546 0
M  V30 9851 H 931.198 4.98665 -0.115855 0
M  V30 9852 H 930.352 5.67857 2.13595 0
M  V30 9853 H 929.091 4.41502 2.07188 0
M  V30 9854 H 928.096 5.49787 0.037228 0
M  V30 9855 H 929.321 6.78993 0.120678 0
M  V30 9856 H 927.267 6.15376 2.27263 0
M  V30 9857 H 927.184 7.47195 1.15046 0
M  V30 9858 H 928.452 7.43577 2.33908 0
M  V30 9859 N 932.681 0.308908 1.54543 0
M  V30 9860 C 933.591 -0.572939 2.27496 0
M  V30 9861 C 934.607 -1.14171 1.31305 0
M  V30 9862 O 935.783 -1.16481 1.64299 0
M  V30 9863 C 932.848 -1.72483 3.0075 0
M  V30 9864 C 931.909 -1.18934 4.12496 0
M  V30 9865 C 931.142 -2.28634 4.82247 0
M  V30 9866 O 931.365 -3.48691 4.5141 0
M  V30 9867 O 930.299 -1.94879 5.69478 0
M  V30 9868 H 934.125 0.0190877 3.03694 0
M  V30 9869 H 931.71 0.0750943 1.49211 0
M  V30 9870 H 933.592 -2.39578 3.46671 0
M  V30 9871 H 932.267 -2.30332 2.2744 0
M  V30 9872 H 931.174 -0.483904 3.70957 0
M  V30 9873 H 932.507 -0.656185 4.87806 0
M  V30 9874 N 934.159 -1.57557 0.0367827 0
M  V30 9875 C 935.069 -2.14148 -0.958017 0
M  V30 9876 C 936.085 -1.09564 -1.35173 0
M  V30 9877 O 937.261 -1.4166 -1.43158 0
M  V30 9878 C 934.326 -2.6636 -2.21931 0
M  V30 9879 C 933.387 -3.85688 -1.8853 0
M  V30 9880 C 932.62 -4.35401 -3.08645 0
M  V30 9881 O 932.843 -3.8425 -4.21554 0
M  V30 9882 O 931.777 -5.27158 -2.90497 0
M  V30 9883 H 935.603 -2.99442 -0.506797 0
M  V30 9884 H 933.188 -1.48259 -0.184275 0
M  V30 9885 H 935.07 -2.99976 -2.9596 0
M  V30 9886 H 933.745 -1.84145 -2.66219 0
M  V30 9887 H 932.652 -3.56985 -1.11861 0
M  V30 9888 H 933.985 -4.69089 -1.49052 0
M  V30 9889 N 935.637 0.236453 -1.55816 0
M  V30 9890 C 936.6 1.27633 -1.90375 0
M  V30 9891 C 937.6 1.40557 -0.781048 0
M  V30 9892 O 938.79 1.39078 -1.04895 0
M  V30 9893 C 935.922 2.65247 -2.14142 0
M  V30 9894 H 937.115 0.982019 -2.83366 0
M  V30 9895 H 934.668 0.476215 -1.48869 0
M  V30 9896 H 935.403 2.99801 -1.23653 0
M  V30 9897 H 935.188 2.57246 -2.95917 0
M  V30 9898 H 936.678 3.40313 -2.42026 0
M  V30 9899 N 937.115 1.49373 0.502552 0
M  V30 9900 C 938.045 1.68839 1.61294 0
M  V30 9901 C 939.026 0.537096 1.61398 0
M  V30 9902 O 940.211 0.772764 1.78163 0
M  V30 9903 C 937.341 1.75347 2.99784 0
M  V30 9904 C 936.295 2.90251 3.14545 0
M  V30 9905 C 935.621 2.8187 4.54371 0
M  V30 9906 C 936.921 4.31207 2.94717 0
M  V30 9907 H 938.615 2.61803 1.45257 0
M  V30 9908 H 936.161 1.25987 0.697371 0
M  V30 9909 H 938.114 1.87552 3.77362 0
M  V30 9910 H 936.838 0.789814 3.16906 0
M  V30 9911 H 935.497 2.77646 2.39392 0
M  V30 9912 H 935.145 1.83416 4.68367 0
M  V30 9913 H 934.845 3.5899 4.65188 0
M  V30 9914 H 936.369 2.96081 5.34012 0
M  V30 9915 H 937.783 4.44501 3.62065 0
M  V30 9916 H 936.18 5.09536 3.17007 0
M  V30 9917 H 937.25 4.45759 1.90857 0
M  V30 9918 N 938.594 -0.753485 1.38421 0
M  V30 9919 C 939.834 -1.52544 1.3605 0
M  V30 9920 C 940.198 -1.91937 -0.0493257 0
M  V30 9921 O 941.399 -2.6807 -0.197908 0
M  V30 9922 C 939.67 -2.74432 2.28958 0
M  V30 9923 S 941.229 -3.64297 2.44607 0
M  V30 9924 H 938.047 -0.522017 0.48272 0
M  V30 9925 H 940.649 -0.884503 1.74347 0
M  V30 9926 H 939.353 -2.43602 3.30282 0
M  V30 9927 H 938.884 -3.43471 1.91811 0
M  V30 9928 H 940.899 -4.67245 1.67022 0
M  V30 9929 N 940.072 -1.23292 -0.981677 0
M  V30 9930 C 941.004 -0.970782 -2.07626 0
M  V30 9931 C 942.017 0.0547506 -1.62708 0
M  V30 9932 O 943.206 -0.180623 -1.77584 0
M  V30 9933 C 940.306 -0.44055 -3.36024 0
M  V30 9934 C 939.479 -1.52595 -4.09919 0
M  V30 9935 C 938.538 -1.00082 -5.16595 0
M  V30 9936 O 937.564 -1.68951 -5.43548 0
M  V30 9937 N 938.766 0.172017 -5.80245 0
M  V30 9938 H 941.531 -1.91316 -2.30691 0
M  V30 9939 H 939.092 -1.14133 -1.14828 0
M  V30 9940 H 941.084 -0.0743111 -4.04632 0
M  V30 9941 H 939.654 0.407211 -3.09936 0
M  V30 9942 H 938.874 -2.06501 -3.35784 0
M  V30 9943 H 940.162 -2.2559 -4.56055 0
M  V30 9944 H 939.56 0.748129 -5.60731 0
M  V30 9945 H 938.117 0.479532 -6.50034 0
M  V30 9946 N 941.55 1.18024 -1.04442 0
M  V30 9947 C 942.48 2.23988 -0.659683 0
M  V30 9948 C 943.461 1.6669 0.338904 0
M  V30 9949 O 944.646 1.92971 0.21817 0
M  V30 9950 C 941.776 3.4729 -0.0257672 0
M  V30 9951 C 940.73 4.17362 -0.948299 0
M  V30 9952 C 940.056 5.34401 -0.17866 0
M  V30 9953 C 941.356 4.70435 -2.26909 0
M  V30 9954 H 943.05 2.56425 -1.54553 0
M  V30 9955 H 940.596 1.23256 -0.744575 0
M  V30 9956 H 942.549 4.20627 0.255131 0
M  V30 9957 H 941.273 3.14098 0.894981 0
M  V30 9958 H 939.932 3.45928 -1.21364 0
M  V30 9959 H 939.58 4.97458 0.744614 0
M  V30 9960 H 939.28 5.8222 -0.793294 0
M  V30 9961 H 940.804 6.10526 0.0951315 0
M  V30 9962 H 942.218 5.35447 -2.04864 0
M  V30 9963 H 940.615 5.28803 -2.83703 0
M  V30 9964 H 941.685 3.87653 -2.91296 0
M  V30 9965 N 943.028 0.824394 1.34319 0
M  V30 9966 C 943.96 0.204805 2.28283 0
M  V30 9967 C 944.973 -0.606162 1.51094 0
M  V30 9968 O 946.162 -0.435602 1.73103 0
M  V30 9969 C 943.262 -0.73139 3.30914 0
M  V30 9970 C 942.435 0.0370723 4.37384 0
M  V30 9971 C 941.494 -0.820272 5.19767 0
M  V30 9972 O 940.52 -0.264721 5.68584 0
M  V30 9973 N 941.722 -2.13984 5.39621 0
M  V30 9974 H 944.487 1.0121 2.82093 0
M  V30 9975 H 942.048 0.681494 1.46858 0
M  V30 9976 H 944.04 -1.30958 3.82926 0
M  V30 9977 H 942.61 -1.43943 2.77487 0
M  V30 9978 H 941.83 0.796578 3.86068 0
M  V30 9979 H 943.118 0.566014 5.05642 0
M  V30 9980 H 942.516 -2.61492 5.01636 0
M  V30 9981 H 941.073 -2.66685 5.94746 0
M  V30 9982 N 944.506 -1.46559 0.579492 0
M  V30 9983 C 945.416 -2.34066 -0.15816 0
M  V30 9984 C 946.432 -1.49556 -0.88932 0
M  V30 9985 O 947.608 -1.82434 -0.853226 0
M  V30 9986 C 944.673 -3.26683 -1.161 0
M  V30 9987 C 943.734 -4.27092 -0.434855 0
M  V30 9988 C 942.967 -5.15283 -1.38992 0
M  V30 9989 O 943.19 -5.06345 -2.62623 0
M  V30 9990 O 942.124 -5.95099 -0.902253 0
M  V30 9991 H 945.95 -2.98488 0.560234 0
M  V30 9992 H 943.535 -1.45482 0.339918 0
M  V30 9993 H 945.417 -3.8383 -1.73932 0
M  V30 9994 H 944.092 -2.64862 -1.86091 0
M  V30 9995 H 942.999 -3.73641 0.185224 0
M  V30 9996 H 944.332 -4.9169 0.224031 0
M  V30 9997 N 945.984 -0.3171 -1.54377 0
M  V30 9998 C 946.894 0.560867 -2.27797 0
M  V30 9999 C 947.91 1.13473 -1.31908 0
M  V30 10000 O 949.086 1.15608 -1.64914 0
M  V30 10001 C 946.151 1.70886 -3.0166 0
M  V30 10002 C 945.212 1.16745 -4.13121 0
M  V30 10003 C 944.445 2.26073 -4.83453 0
M  V30 10004 O 944.668 3.46292 -4.53252 0
M  V30 10005 O 943.602 1.91856 -5.70504 0
M  V30 10006 H 947.428 -0.035193 -3.0368 0
M  V30 10007 H 945.013 -0.0830062 -1.49169 0
M  V30 10008 H 946.895 2.37736 -3.47936 0
M  V30 10009 H 945.57 2.29122 -2.28658 0
M  V30 10010 H 944.477 0.464224 -3.71209 0
M  V30 10011 H 945.81 0.630307 -4.88147 0
M  V30 10012 N 947.462 1.57535 -0.0451378 0
M  V30 10013 C 948.41 2.12351 0.949205 0
M  V30 10014 C 949.404 1.05386 1.32628 0
M  V30 10015 O 950.61 1.23802 1.30664 0
M  V30 10016 H 946.985 0.678648 0.323945 0
M  V30 10017 H 948.956 2.94806 0.461718 0
M  V30 10018 C 947.705 2.67862 2.21687 0
M  V30 10019 H 947.028 3.49826 1.93551 0
M  V30 10020 H 948.468 3.09844 2.89435 0
M  V30 10021 C 946.927 1.61353 2.95748 0
M  V30 10022 O 947.457 1.02276 3.88462 0
M  V30 10023 N 945.663 1.33017 2.5837 0
M  V30 10024 H 945.21 1.81246 1.83051 0
M  V30 10025 H 945.168 0.619812 3.0823 0
M  V30 10026 N 948.94 -0.228186 1.55939 0
M  V30 10027 C 950.356 -0.577583 1.48782 0
M  V30 10028 C 950.556 -1.87461 0.738972 0
M  V30 10029 O 949.612 -2.50988 0.275929 0
M  V30 10030 C 950.925 -0.662961 2.93301 0
M  V30 10031 C 952.473 -0.754035 3.03782 0
M  V30 10032 C 952.948 -0.870815 4.49645 0
M  V30 10033 N 954.439 -0.935208 4.53661 0
M  V30 10034 C 955.174 -1.04516 5.63794 0
M  V30 10035 N 954.67 -1.11948 6.83696 0
M  V30 10036 N 956.463 -1.07978 5.51631 0
M  V30 10037 H 948.614 0.623018 2.03057 0
M  V30 10038 H 950.877 0.217692 0.922667 0
M  V30 10039 H 950.583 0.220375 3.51009 0
M  V30 10040 H 950.457 -1.52876 3.44831 0
M  V30 10041 H 952.844 -1.62782 2.46143 0
M  V30 10042 H 952.925 0.137301 2.55431 0
M  V30 10043 H 952.569 -0.0015186 5.079 0
M  V30 10044 H 952.499 -1.77747 4.95695 0
M  V30 10045 H 954.99 -0.88836 3.6731 0
M  V30 10046 H 955.303 -1.20297 7.6338 0
M  V30 10047 H 953.648 -1.08873 6.8642 0
M  V30 10048 H 956.839 -1.01833 4.56889 0
M  V30 10049 H 957.012 -1.16202 6.37496 0
M  V30 10050 N 950.418 -1.49637 -0.494624 0
M  V30 10051 C 951.834 -1.36541 -0.826361 0
M  V30 10052 C 952.034 -0.403386 -1.97421 0
M  V30 10053 O 951.09 0.162614 -2.51976 0
M  V30 10054 C 952.403 -2.77401 -1.16057 0
M  V30 10055 C 953.951 -2.86148 -1.26841 0
M  V30 10056 C 954.426 -4.27789 -1.63587 0
M  V30 10057 N 955.917 -4.3063 -1.70624 0
M  V30 10058 C 956.652 -5.37198 -2.00514 0
M  V30 10059 N 956.148 -6.54004 -2.28584 0
M  V30 10060 N 957.941 -5.2462 -2.01818 0
M  V30 10061 H 950.092 -2.10776 0.26219 0
M  V30 10062 H 952.355 -0.946419 0.0547235 0
M  V30 10063 H 952.061 -3.49526 -0.390434 0
M  V30 10064 H 951.935 -3.1317 -2.10249 0
M  V30 10065 H 954.322 -2.14256 -2.02925 0
M  V30 10066 H 954.403 -2.53953 -0.30684 0
M  V30 10067 H 954.047 -5.00209 -0.880507 0
M  V30 10068 H 953.977 -4.57453 -2.60854 0
M  V30 10069 H 956.468 -3.46393 -1.51065 0
M  V30 10070 H 956.781 -7.31041 -2.50598 0
M  V30 10071 H 955.126 -6.57219 -2.26027 0
M  V30 10072 H 958.317 -4.32371 -1.79369 0
M  V30 10073 H 958.49 -6.07765 -2.24778 0
M  V30 10074 N 951.896 0.746133 -1.38819 0
M  V30 10075 C 952.826 1.87344 -1.39372 0
M  V30 10076 C 953.807 1.68123 -0.258583 0
M  V30 10077 O 954.992 1.88606 -0.462769 0
M  V30 10078 C 952.122 3.24962 -1.22543 0
M  V30 10079 C 951.076 3.58799 -2.33339 0
M  V30 10080 C 950.402 4.95235 -2.01609 0
M  V30 10081 C 951.702 3.62911 -3.75624 0
M  V30 10082 H 953.396 1.87138 -2.33709 0
M  V30 10083 H 950.942 0.898937 -1.12495 0
M  V30 10084 H 952.895 4.03488 -1.21554 0
M  V30 10085 H 951.619 3.25667 -0.246707 0
M  V30 10086 H 950.278 2.82596 -2.33527 0
M  V30 10087 H 949.926 4.92508 -1.02202 0
M  V30 10088 H 949.626 5.18843 -2.75819 0
M  V30 10089 H 951.15 5.76131 -2.02251 0
M  V30 10090 H 952.564 4.31535 -3.77426 0
M  V30 10091 H 950.961 3.98031 -4.491 0
M  V30 10092 H 952.031 2.62967 -4.07402 0
M  V30 10093 N 953.375 1.23811 0.975125 0
M  V30 10094 C 954.6 1.10109 1.75757 0
M  V30 10095 C 955.025 -0.342922 1.84948 0
M  V30 10096 O 954.383 -1.24814 1.31496 0
M  V30 10097 C 954.431 1.73724 3.15994 0
M  V30 10098 O 953.535 1.00297 4.00018 0
M  V30 10099 H 952.876 0.385627 0.540544 0
M  V30 10100 H 955.406 1.63971 1.22372 0
M  V30 10101 H 955.416 1.79178 3.6655 0
M  V30 10102 H 954.091 2.78794 3.0862 0
M  V30 10103 H 952.668 1.02575 3.58515 0
M  V30 10104 N 954.853 -1.17469 1.05066 0
M  V30 10105 C 956.269 -1.39699 0.771769 0
M  V30 10106 C 956.469 -1.91253 -0.634382 0
M  V30 10107 O 955.525 -2.10334 -1.39699 0
M  V30 10108 C 956.838 -2.38886 1.82631 0
M  V30 10109 C 958.386 -2.52595 1.84838 0
M  V30 10110 C 958.861 -3.55054 2.89311 0
M  V30 10111 N 960.352 -3.6257 2.88266 0
M  V30 10112 C 961.087 -4.41603 3.65752 0
M  V30 10113 N 960.583 -5.24162 4.53019 0
M  V30 10114 N 962.376 -4.36464 3.54197 0
M  V30 10115 H 954.527 -0.823355 1.95792 0
M  V30 10116 H 956.79 -0.42432 0.847736 0
M  V30 10117 H 956.496 -2.08075 2.83545 0
M  V30 10118 H 956.37 -3.38371 1.66687 0
M  V30 10119 H 958.757 -2.82717 0.845888 0
M  V30 10120 H 958.838 -1.53188 2.04859 0
M  V30 10121 H 958.482 -3.2567 3.89745 0
M  V30 10122 H 958.412 -4.54162 2.66542 0
M  V30 10123 H 960.903 -3.03625 2.24989 0
M  V30 10124 H 961.216 -5.81646 5.0883 0
M  V30 10125 H 959.561 -5.23547 4.57081 0
M  V30 10126 H 962.752 -3.7102 2.85416 0
M  V30 10127 H 962.925 -4.97814 4.14832 0
M  V30 10128 N 956.331 -0.831506 -1.3388 0
M  V30 10129 C 957.241 -0.261688 -2.33136 0
M  V30 10130 C 958.257 0.608429 -1.63016 0
M  V30 10131 O 959.433 0.514297 -1.94723 0
M  V30 10132 C 956.498 0.559957 -3.42148 0
M  V30 10133 C 955.559 -0.333569 -4.28002 0
M  V30 10134 C 954.792 0.448956 -5.31808 0
M  V30 10135 O 955.015 1.6814 -5.45055 0
M  V30 10136 O 953.949 -0.173197 -6.01651 0
M  V30 10137 H 957.775 -1.08343 -2.83717 0
M  V30 10138 H 955.36 -0.593849 -1.3709 0
M  V30 10139 H 957.242 1.02712 -4.08691 0
M  V30 10140 H 955.917 1.35888 -2.93796 0
M  V30 10141 H 954.824 -0.848416 -3.64352 0
M  V30 10142 H 956.157 -1.09707 -4.79818 0
M  V30 10143 N 957.809 1.4625 -0.587256 0
M  V30 10144 C 958.741 2.28482 0.181256 0
M  V30 10145 C 959.754 1.38777 0.851163 0
M  V30 10146 O 960.943 1.63336 0.719963 0
M  V30 10147 C 958.043 3.13944 1.27643 0
M  V30 10148 C 957.216 4.31802 0.697569 0
M  V30 10149 C 956.275 4.98626 1.68102 0
M  V30 10150 O 955.301 5.56075 1.21529 0
M  V30 10151 N 956.503 4.96051 3.0152 0
M  V30 10152 H 959.268 2.95079 -0.524267 0
M  V30 10153 H 956.829 1.56213 -0.425336 0
M  V30 10154 H 958.821 3.55513 1.93371 0
M  V30 10155 H 957.391 2.49391 1.88475 0
M  V30 10156 H 956.611 3.93961 -0.137293 0
M  V30 10157 H 957.899 5.07969 0.290696 0
M  V30 10158 H 957.297 4.5063 3.41978 0
M  V30 10159 H 955.854 5.41547 3.62725 0
M  V30 10160 N 959.287 0.325282 1.54207 0
M  V30 10161 C 960.197 -0.548778 2.28091 0
M  V30 10162 C 961.213 -1.12772 1.32508 0
M  V30 10163 O 962.389 -1.14732 1.65525 0
M  V30 10164 C 959.454 -1.69284 3.02562 0
M  V30 10165 C 958.515 -1.14553 4.13734 0
M  V30 10166 C 957.748 -2.23506 4.84645 0
M  V30 10167 O 957.971 -3.43884 4.55082 0
M  V30 10168 O 956.905 -1.88828 5.71513 0
M  V30 10169 H 960.731 0.0512974 3.03657 0
M  V30 10170 H 958.316 0.0909159 1.49123 0
M  V30 10171 H 960.198 -2.35887 3.49192 0
M  V30 10172 H 958.873 -2.27906 2.2987 0
M  V30 10173 H 957.78 -0.444532 3.71449 0
M  V30 10174 H 959.113 -0.60441 4.88475 0
M  V30 10175 N 960.765 -1.57509 0.0534917 0
M  V30 10176 C 962.181 -1.56696 -0.303067 0
M  V30 10177 C 962.381 -1.06135 -1.71282 0
M  V30 10178 O 961.437 -0.71899 -2.42047 0
M  V30 10179 C 962.75 -3.00421 -0.129418 0
M  V30 10180 C 964.298 -3.12358 -0.200346 0
M  V30 10181 C 964.773 -4.57967 -0.0551971 0
M  V30 10182 N 966.264 -4.63066 -0.111398 0
M  V30 10183 C 966.999 -5.73395 -0.0232344 0
M  V30 10184 N 966.495 -6.92701 0.11741 0
M  V30 10185 N 968.288 -5.62045 -0.078984 0
M  V30 10186 H 960.439 -1.88696 0.975064 0
M  V30 10187 H 962.702 -0.869072 0.378706 0
M  V30 10188 H 962.408 -3.41456 0.842653 0
M  V30 10189 H 962.282 -3.66563 -0.889476 0
M  V30 10190 H 964.669 -2.71221 -1.16289 0
M  V30 10191 H 964.75 -2.48891 0.590506 0
M  V30 10192 H 964.394 -4.9979 0.904034 0
M  V30 10193 H 964.324 -5.19443 -0.865223 0
M  V30 10194 H 966.815 -3.77263 -0.219256 0
M  V30 10195 H 967.128 -7.72597 0.177326 0
M  V30 10196 H 965.473 -6.94833 0.152526 0
M  V30 10197 H 968.664 -4.67725 -0.187434 0
M  V30 10198 H 968.837 -6.48 -0.00681731 0
M  V30 10199 N 962.243 0.219913 -1.56058 0
M  V30 10200 C 963.173 1.27572 -1.9557 0
M  V30 10201 C 964.154 1.48801 -0.824148 0
M  V30 10202 O 965.339 1.60957 -1.08658 0
M  V30 10203 C 962.469 2.62517 -2.27381 0
M  V30 10204 C 961.423 2.55941 -3.43042 0
M  V30 10205 C 960.749 3.94931 -3.60463 0
M  V30 10206 C 962.049 2.10584 -4.77966 0
M  V30 10207 H 963.743 0.947482 -2.84013 0
M  V30 10208 H 961.289 0.454337 -1.36645 0
M  V30 10209 H 963.242 3.36538 -2.53615 0
M  V30 10210 H 961.966 2.97031 -1.35794 0
M  V30 10211 H 960.625 1.84377 -3.1686 0
M  V30 10212 H 960.273 4.26756 -2.66249 0
M  V30 10213 H 959.973 3.91413 -4.38258 0
M  V30 10214 H 961.497 4.70611 -3.89046 0
M  V30 10215 H 962.911 2.74349 -5.03394 0
M  V30 10216 H 961.308 2.18122 -5.59055 0
M  V30 10217 H 962.378 1.05818 -4.73213 0
M  V30 10218 N 963.721 1.49897 0.486681 0
M  V30 10219 C 964.631 1.70379 1.6127 0
M  V30 10220 C 965.647 0.58659 1.63814 0
M  V30 10221 O 966.823 0.863044 1.81971 0
M  V30 10222 C 963.888 1.77911 2.97571 0
M  V30 10223 C 962.949 3.01569 3.0554 0
M  V30 10224 C 962.182 3.08732 4.35339 0
M  V30 10225 O 962.405 2.23099 5.2496 0
M  V30 10226 O 961.339 4.01325 4.48578 0
M  V30 10227 H 965.165 2.65799 1.46916 0
M  V30 10228 H 962.75 1.33808 0.664516 0
M  V30 10229 H 964.632 1.85135 3.78554 0
M  V30 10230 H 963.307 0.856722 3.12157 0
M  V30 10231 H 962.214 2.99854 2.23693 0
M  V30 10232 H 963.547 3.93335 2.95886 0
M  V30 10233 N 965.199 -0.738761 1.39212 0
M  V30 10234 C 966.162 -1.83441 1.37412 0
M  V30 10235 C 967.162 -1.58484 0.271908 0
M  V30 10236 O 968.352 -1.65954 0.529609 0
M  V30 10237 C 965.484 -3.21167 1.143 0
M  V30 10238 H 966.677 -1.86441 2.34904 0
M  V30 10239 H 964.23 -0.942023 1.24722 0
M  V30 10240 H 964.965 -3.23829 0.174756 0
M  V30 10241 H 964.75 -3.40678 1.94116 0
M  V30 10242 H 966.24 -4.01231 1.15773 0
M  V30 10243 N 966.677 -1.24326 -0.968545 0
M  V30 10244 C 967.587 -1.05194 -2.09694 0
M  V30 10245 C 968.603 0.00701291 -1.73999 0
M  V30 10246 O 969.779 -0.190981 -2.00492 0
M  V30 10247 C 966.844 -0.658075 -3.40397 0
M  V30 10248 C 965.905 -1.79341 -3.90045 0
M  V30 10249 C 965.138 -1.41824 -5.14511 0
M  V30 10250 O 965.361 -0.307693 -5.69569 0
M  V30 10251 O 964.295 -2.24358 -5.58522 0
M  V30 10252 H 968.121 -1.99791 -2.2873 0
M  V30 10253 H 965.706 -1.03138 -1.08088 0
M  V30 10254 H 967.588 -0.449911 -4.18991 0
M  V30 10255 H 966.263 0.258782 -3.22664 0
M  V30 10256 H 965.17 -2.05632 -3.12516 0
M  V30 10257 H 966.503 -2.68901 -4.12254 0
M  V30 10258 N 968.156 1.1691 -1.05688 0
M  V30 10259 C 969.086 2.23275 -0.683402 0
M  V30 10260 C 970.067 1.6704 0.321206 0
M  V30 10261 O 971.252 1.93191 0.197691 0
M  V30 10262 C 968.382 3.47244 -0.0626006 0
M  V30 10263 C 967.336 4.16333 -0.992513 0
M  V30 10264 C 966.662 5.34182 -0.23533 0
M  V30 10265 C 967.962 4.68002 -2.31886 0
M  V30 10266 H 969.656 2.54771 -1.57264 0
M  V30 10267 H 967.202 1.2246 -0.757606 0
M  V30 10268 H 969.155 4.20874 0.210503 0
M  V30 10269 H 967.879 3.1503 0.861616 0
M  V30 10270 H 966.538 3.44622 -1.25026 0
M  V30 10271 H 966.186 4.9822 0.69181 0
M  V30 10272 H 965.886 5.81346 -0.855002 0
M  V30 10273 H 967.41 6.10592 0.0303717 0
M  V30 10274 H 968.824 5.33244 -2.10531 0
M  V30 10275 H 967.221 5.25764 -2.89296 0
M  V30 10276 H 968.291 3.84541 -2.95391 0
M  V30 10277 N 969.634 0.838594 1.33437 0
M  V30 10278 C 970.597 0.276843 2.27522 0
M  V30 10279 C 971.597 -0.554275 1.50945 0
M  V30 10280 O 972.787 -0.368107 1.70266 0
M  V30 10281 C 969.919 -0.610036 3.35397 0
M  V30 10282 H 971.112 1.10705 2.78719 0
M  V30 10283 H 968.665 0.611657 1.43835 0
M  V30 10284 H 969.4 -1.46269 2.89441 0
M  V30 10285 H 969.185 -0.0153615 3.92097 0
M  V30 10286 H 970.675 -0.996368 4.05539 0
M  V30 10287 N 971.112 -1.45937 0.595003 0
M  V30 10288 C 972.044 -2.28575 -0.169137 0
M  V30 10289 C 973.057 -1.39226 -0.843792 0
M  V30 10290 O 974.246 -1.63716 -0.711291 0
M  V30 10291 C 971.346 -3.14616 -1.25976 0
M  V30 10292 C 970.519 -4.32166 -0.67466 0
M  V30 10293 C 969.578 -4.99511 -1.65456 0
M  V30 10294 O 968.604 -5.56712 -1.18578 0
M  V30 10295 N 969.806 -4.97643 -2.98885 0
M  V30 10296 H 972.571 -2.94797 0.539908 0
M  V30 10297 H 970.132 -1.55985 0.433614 0
M  V30 10298 H 972.124 -3.56534 -1.91483 0
M  V30 10299 H 970.694 -2.50387 -1.8715 0
M  V30 10300 H 969.914 -3.93882 0.158184 0
M  V30 10301 H 971.202 -5.08116 -0.263753 0
M  V30 10302 H 970.6 -4.52438 -3.39583 0
M  V30 10303 H 969.157 -5.43463 -3.59848 0
M  V30 10304 N 972.59 -0.333456 -1.54032 0
M  V30 10305 C 973.5 0.536674 -2.28379 0
M  V30 10306 C 974.516 1.12068 -1.33104 0
M  V30 10307 O 975.692 1.13853 -1.66131 0
M  V30 10308 C 972.757 1.67677 -3.03456 0
M  V30 10309 C 971.818 1.12357 -4.14336 0
M  V30 10310 C 971.051 2.20933 -4.85823 0
M  V30 10311 O 971.274 3.41466 -4.569 0
M  V30 10312 O 970.208 1.85795 -5.72507 0
M  V30 10313 H 974.034 -0.0674003 -3.03625 0
M  V30 10314 H 971.619 -0.098823 -1.49073 0
M  V30 10315 H 973.501 2.34032 -3.50438 0
M  V30 10316 H 972.176 2.26684 -2.31076 0
M  V30 10317 H 971.083 0.424827 -3.7168 0
M  V30 10318 H 972.416 0.578497 -4.88789 0
M  V30 10319 N 974.068 1.57479 -0.061844 0
M  V30 10320 C 975 2.09116 0.938245 0
M  V30 10321 C 976.013 1.0212 1.26788 0
M  V30 10322 O 977.202 1.2966 1.22681 0
M  V30 10323 C 974.302 2.52822 2.25686 0
M  V30 10324 C 973.475 3.83277 2.10755 0
M  V30 10325 C 972.534 4.13182 3.25833 0
M  V30 10326 O 971.56 4.82937 3.01265 0
M  V30 10327 N 972.762 3.65938 4.50633 0
M  V30 10328 H 975.527 2.95543 0.497433 0
M  V30 10329 H 973.088 1.61423 0.124134 0
M  V30 10330 H 975.08 2.69896 3.01559 0
M  V30 10331 H 973.65 1.71586 2.61299 0
M  V30 10332 H 972.87 3.7568 1.19409 0
M  V30 10333 H 974.158 4.68686 1.98018 0
M  V30 10334 H 973.556 3.09566 4.73482 0
M  V30 10335 H 972.113 3.8823 5.23565 0
M  V30 10336 N 975.546 -0.211634 1.56173 0
M  V30 10337 C 976.456 -1.2831 1.96402 0
M  V30 10338 C 977.472 -1.50731 0.869254 0
M  V30 10339 O 978.648 -1.63669 1.17365 0
M  V30 10340 C 975.713 -2.61084 2.28114 0
M  V30 10341 C 974.774 -2.46879 3.51211 0
M  V30 10342 C 974.007 -3.73321 3.81401 0
M  V30 10343 O 974.23 -4.76773 3.13119 0
M  V30 10344 O 973.164 -3.69839 4.74871 0
M  V30 10345 H 976.99 -0.971733 2.87734 0
M  V30 10346 H 974.575 -0.415305 1.43512 0
M  V30 10347 H 976.457 -3.39481 2.49661 0
M  V30 10348 H 975.132 -2.91881 1.39954 0
M  V30 10349 H 974.039 -1.66648 3.34932 0
M  V30 10350 H 975.372 -2.21018 4.39786 0
M  V30 10351 N 977.024 -1.50153 -0.478725 0
M  V30 10352 C 978.249 -1.64776 -1.2595 0
M  V30 10353 C 978.674 -0.327794 -1.85222 0
M  V30 10354 O 978.032 0.707418 -1.66929 0
M  V30 10355 C 978.08 -2.73551 -2.34952 0
M  V30 10356 O 977.184 -2.34273 -3.39397 0
M  V30 10357 H 976.525 -0.550769 -0.370877 0
M  V30 10358 H 979.055 -1.96482 -0.570605 0
M  V30 10359 H 979.065 -2.96397 -2.8038 0
M  V30 10360 H 977.74 -3.69354 -1.91181 0
M  V30 10361 H 976.317 -2.21844 -2.99733 0
M  V30 10362 N 978.502 0.731368 -1.39602 0
M  V30 10363 C 979.449 1.84541 -1.38612 0
M  V30 10364 C 980.419 1.64279 -0.245287 0
M  V30 10365 O 981.604 1.85635 -0.440954 0
M  V30 10366 C 978.744 3.22092 -1.23897 0
M  V30 10367 C 977.857 3.54034 -2.47555 0
M  V30 10368 C 976.992 4.81007 -2.25402 0
M  V30 10369 C 976.031 5.05804 -3.44716 0
M  V30 10370 N 975.168 6.23981 -3.21857 0
M  V30 10371 H 980.008 1.84722 -2.33841 0
M  V30 10372 H 977.545 0.902569 -1.16156 0
M  V30 10373 H 979.503 4.01499 -1.13376 0
M  V30 10374 H 978.133 3.2118 -0.322958 0
M  V30 10375 H 977.185 2.69301 -2.68665 0
M  V30 10376 H 978.497 3.68275 -3.36415 0
M  V30 10377 H 977.651 5.68401 -2.12143 0
M  V30 10378 H 976.39 4.68946 -1.33943 0
M  V30 10379 H 975.395 4.1687 -3.58468 0
M  V30 10380 H 976.62 5.19747 -4.37081 0
M  V30 10381 H 974.566 6.13202 -2.33065 0
M  V30 10382 H 974.483 6.38826 -4.04274 0
M  V30 10383 H 975.751 7.14205 -3.123 0
M  V30 10384 N 979.98 1.24838 0.961938 0
M  V30 10385 C 980.912 1.00369 2.06055 0
M  V30 10386 C 981.925 -0.0288583 1.62774 0
M  V30 10387 O 983.114 0.208853 1.77274 0
M  V30 10388 C 980.214 0.493953 3.35281 0
M  V30 10389 C 979.387 1.59097 4.07439 0
M  V30 10390 C 978.446 1.08288 5.14937 0
M  V30 10391 O 977.472 1.77577 5.40791 0
M  V30 10392 N 978.674 -0.0796836 5.80445 0
M  V30 10393 H 981.439 1.94962 2.27618 0
M  V30 10394 H 979 1.15945 1.12997 0
M  V30 10395 H 980.992 0.138675 4.04462 0
M  V30 10396 H 979.562 -0.357851 3.10545 0
M  V30 10397 H 978.782 2.11817 3.32456 0
M  V30 10398 H 980.07 2.32817 4.52409 0
M  V30 10399 H 979.468 -0.658827 5.6185 0
M  V30 10400 H 978.025 -0.376057 6.50714 0
M  V30 10401 N 981.458 -1.16348 1.06306 0
M  V30 10402 C 982.874 -1.38873 0.786543 0
M  V30 10403 C 983.074 -1.91915 -0.614061 0
M  V30 10404 O 982.13 -2.11804 -1.3746 0
M  V30 10405 C 983.443 -2.36936 1.85154 0
M  V30 10406 C 984.991 -2.5062 1.87506 0
M  V30 10407 C 985.466 -3.51965 2.9306 0
M  V30 10408 N 986.957 -3.59492 2.92095 0
M  V30 10409 C 987.692 -4.37699 3.70415 0
M  V30 10410 N 987.188 -5.19327 4.58553 0
M  V30 10411 N 988.981 -4.32683 3.58806 0
M  V30 10412 H 981.132 -0.802542 1.96655 0
M  V30 10413 H 983.395 -0.415304 0.852189 0
M  V30 10414 H 983.101 -2.05056 2.85736 0
M  V30 10415 H 982.975 -3.36585 1.70267 0
M  V30 10416 H 985.362 -2.81804 0.875827 0
M  V30 10417 H 985.443 -1.51006 2.06472 0
M  V30 10418 H 985.087 -3.21518 3.93177 0
M  V30 10419 H 985.017 -4.51309 2.71344 0
M  V30 10420 H 987.508 -3.01222 2.28197 0
M  V30 10421 H 987.821 -5.76216 5.1497 0
M  V30 10422 H 986.166 -5.1867 4.62608 0
M  V30 10423 H 989.357 -3.67971 2.89335 0
M  V30 10424 H 989.53 -4.93386 4.20088 0
M  V30 10425 N 982.937 -0.845659 -1.3299 0
M  V30 10426 C 983.867 -0.298957 -2.31578 0
M  V30 10427 C 984.848 0.597012 -1.59279 0
M  V30 10428 O 986.033 0.519142 -1.87132 0
M  V30 10429 C 983.163 0.521109 -3.43368 0
M  V30 10430 C 982.117 -0.279651 -4.27085 0
M  V30 10431 C 981.443 0.664591 -5.30554 0
M  V30 10432 C 982.743 -1.50046 -5.00283 0
M  V30 10433 H 984.437 -1.12272 -2.77552 0
M  V30 10434 H 981.983 -0.54132 -1.33438 0
M  V30 10435 H 983.936 0.913921 -4.1137 0
M  V30 10436 H 982.66 1.37815 -2.96099 0
M  V30 10437 H 981.319 -0.654106 -3.60717 0
M  V30 10438 H 980.967 1.51822 -4.79541 0
M  V30 10439 H 980.667 0.132871 -5.8745 0
M  V30 10440 H 982.191 1.05477 -6.01421 0
M  V30 10441 H 983.605 -1.18044 -5.61016 0
M  V30 10442 H 982.002 -1.96946 -5.66862 0
M  V30 10443 H 983.072 -2.26659 -4.28665 0
M  V30 10444 N 984.415 1.45619 -0.602734 0
M  V30 10445 C 985.325 2.34288 0.120902 0
M  V30 10446 C 986.341 1.50952 0.865414 0
M  V30 10447 O 987.517 1.83768 0.824094 0
M  V30 10448 C 984.582 3.28489 1.10888 0
M  V30 10449 C 983.643 4.2773 0.366853 0
M  V30 10450 C 982.876 5.17429 1.30776 0
M  V30 10451 O 983.099 5.10459 2.54535 0
M  V30 10452 O 982.033 5.96459 0.807464 0
M  V30 10453 H 985.859 2.97559 -0.60765 0
M  V30 10454 H 983.444 1.44922 -0.363019 0
M  V30 10455 H 985.326 3.86549 1.67803 0
M  V30 10456 H 984.001 2.67789 1.81854 0
M  V30 10457 H 982.908 3.73299 -0.244643 0
M  V30 10458 H 984.241 4.91271 -0.302226 0
M  V30 10459 N 985.893 0.34162 1.53853 0
M  V30 10460 C 987.141 -0.254979 2.00485 0
M  V30 10461 C 987.462 -1.51222 1.23114 0
M  V30 10462 O 986.732 -1.92966 0.337787 0
M  V30 10463 H 985.312 -0.0972084 0.740648 0
M  V30 10464 H 987.974 0.462332 1.89337 0
M  V30 10465 H 987.07 -0.498778 3.08089 0
M  V30 10466 N 987.371 -1.57444 0.0701946 0
M  V30 10467 C 988.281 -2.16132 -0.912377 0
M  V30 10468 C 989.297 -1.12406 -1.32819 0
M  V30 10469 O 990.473 -1.44665 -1.40121 0
M  V30 10470 C 987.538 -2.71008 -2.16231 0
M  V30 10471 C 986.599 -3.896 -1.80306 0
M  V30 10472 C 985.832 -4.4185 -2.9934 0
M  V30 10473 O 986.055 -3.93106 -4.13309 0
M  V30 10474 O 984.989 -5.33201 -2.7925 0
M  V30 10475 H 988.815 -3.00449 -0.443167 0
M  V30 10476 H 986.4 -1.48617 -0.152786 0
M  V30 10477 H 988.282 -3.06186 -2.8953 0
M  V30 10478 H 986.957 -1.8975 -2.62253 0
M  V30 10479 H 985.864 -3.59277 -1.04264 0
M  V30 10480 H 987.197 -4.72145 -1.39068 0
M  V30 10481 N 988.849 0.203349 -1.56283 0
M  V30 10482 C 990.265 0.55384 -1.49682 0
M  V30 10483 C 990.465 1.86261 -0.768701 0
M  V30 10484 O 989.521 2.50517 -0.315824 0
M  V30 10485 C 990.834 0.616216 -2.94318 0
M  V30 10486 C 992.382 0.705611 -3.04943 0
M  V30 10487 C 992.857 0.79917 -4.50974 0
M  V30 10488 N 994.348 0.862916 -4.55091 0
M  V30 10489 C 995.083 0.955334 -5.65386 0
M  V30 10490 N 994.579 1.01057 -6.8539 0
M  V30 10491 N 996.372 0.991884 -5.53279 0
M  V30 10492 H 988.523 -0.655244 -2.0204 0
M  V30 10493 H 990.786 -0.232344 -0.919087 0
M  V30 10494 H 990.492 -0.27619 -3.50614 0
M  V30 10495 H 990.366 1.47371 -3.4722 0
M  V30 10496 H 992.753 1.58845 -2.48701 0
M  V30 10497 H 992.834 -0.177921 -2.5518 0
M  V30 10498 H 992.478 -0.0792841 -5.07838 0
M  V30 10499 H 992.408 1.69838 -4.9846 0
M  V30 10500 H 994.899 0.829812 -3.68677 0
M  V30 10501 H 995.212 1.08137 -7.65197 0
M  V30 10502 H 993.557 0.979384 -6.88065 0
M  V30 10503 H 996.748 0.945514 -4.58451 0
M  V30 10504 H 996.921 1.06045 -6.39264 0
M  V30 10505 N 990.327 1.50405 0.470755 0
M  V30 10506 C 991.743 1.37838 0.804534 0
M  V30 10507 C 991.943 0.434743 1.96754 0
M  V30 10508 O 990.999 -0.122507 2.52203 0
M  V30 10509 C 992.312 2.79212 1.11629 0
M  V30 10510 C 993.86 2.88129 1.22272 0
M  V30 10511 C 994.335 4.30337 1.5676 0
M  V30 10512 N 995.826 4.3329 1.63751 0
M  V30 10513 C 996.561 5.4032 1.91942 0
M  V30 10514 N 996.057 6.57558 2.18151 0
M  V30 10515 N 997.85 5.27764 1.93446 0
M  V30 10516 H 990.001 2.10332 -0.295689 0
M  V30 10517 H 992.264 0.945429 -0.0697733 0
M  V30 10518 H 991.97 3.50103 0.334778 0
M  V30 10519 H 991.844 3.16475 2.0524 0
M  V30 10520 H 994.231 2.17457 1.9949 0
M  V30 10521 H 994.312 2.54409 0.2664 0
M  V30 10522 H 993.956 5.01547 0.800817 0
M  V30 10523 H 993.886 4.61545 2.53543 0
M  V30 10524 H 996.377 3.48752 1.45535 0
M  V30 10525 H 996.69 7.34935 2.38936 0
M  V30 10526 H 995.035 6.60732 2.15542 0
M  V30 10527 H 998.226 4.35169 1.72468 0
M  V30 10528 H 998.399 6.11264 2.15081 0
M  V30 10529 N 991.805 -0.723954 1.39988 0
M  V30 10530 C 992.715 -1.86829 1.41887 0
M  V30 10531 C 993.731 -1.71173 0.312401 0
M  V30 10532 O 994.907 -1.93583 0.555651 0
M  V30 10533 C 991.972 -3.22541 1.27154 0
M  V30 10534 C 991.033 -3.50512 2.47871 0
M  V30 10535 C 990.266 -4.79749 2.33831 0
M  V30 10536 O 990.489 -5.54251 1.34765 0
M  V30 10537 O 989.423 -5.07868 3.23039 0
M  V30 10538 H 993.249 -1.88183 2.38371 0
M  V30 10539 H 990.834 -0.873259 1.21221 0
M  V30 10540 H 992.716 -4.0362 1.21114 0
M  V30 10541 H 991.391 -3.21933 0.337715 0
M  V30 10542 H 990.298 -2.69475 2.59488 0
M  V30 10543 H 991.631 -3.55909 3.39985 0
M  V30 10544 N 993.283 -1.25346 -0.955304 0
M  V30 10545 C 994.511 -1.12793 -1.73451 0
M  V30 10546 C 994.926 0.318344 -1.86097 0
M  V30 10547 O 994.283 1.21897 -1.35821 0
M  V30 10548 C 994.334 -1.77603 -3.14864 0
M  V30 10549 O 994.055 -3.16577 -3.02837 0
M  V30 10550 C 995.556 -1.70821 -4.09066 0
M  V30 10551 H 992.776 -0.393457 -0.543537 0
M  V30 10552 H 995.32 -1.65696 -1.19855 0
M  V30 10553 H 993.475 -1.28673 -3.65407 0
M  V30 10554 H 993.889 -3.48433 -3.92039 0
M  V30 10555 H 995.363 -2.2083 -5.05903 0
M  V30 10556 H 995.84 -0.671858 -4.34031 0
M  V30 10557 H 996.446 -2.19237 -3.64438 0
M  V30 10558 N 994.761 1.15782 -1.06922 0
M  V30 10559 C 995.671 2.24008 -0.696948 0
M  V30 10560 C 996.687 1.71569 0.289862 0
M  V30 10561 O 997.863 2.00929 0.137585 0
M  V30 10562 C 994.928 3.46568 -0.0957895 0
M  V30 10563 C 993.989 4.14017 -1.13528 0
M  V30 10564 C 993.222 5.30725 -0.562713 0
M  V30 10565 O 993.445 5.66992 0.62259 0
M  V30 10566 O 992.379 5.87572 -1.30549 0
M  V30 10567 H 996.205 2.58174 -1.59938 0
M  V30 10568 H 993.79 1.2342 -0.841889 0
M  V30 10569 H 995.672 4.20731 0.237407 0
M  V30 10570 H 994.347 3.14161 0.780027 0
M  V30 10571 H 993.254 3.41795 -1.52076 0
M  V30 10572 H 994.587 4.50493 -1.98285 0
M  V30 10573 N 996.239 0.8527 1.3254 0
M  V30 10574 C 997.464 0.468157 2.02047 0
M  V30 10575 C 997.889 -0.926967 1.63673 0
M  V30 10576 O 997.247 -1.60855 0.836378 0
M  V30 10577 C 997.295 0.612519 3.5536 0
M  V30 10578 O 996.399 -0.355506 4.10865 0
M  V30 10579 H 995.74 0.188401 0.636711 0
M  V30 10580 H 998.27 1.15135 1.6913 0
M  V30 10581 H 998.28 0.499315 4.04933 0
M  V30 10582 H 996.955 1.62988 3.82632 0
M  V30 10583 H 995.532 -0.198703 3.7237 0
M  V30 10584 N 997.718 -1.45297 0.610449 0
M  V30 10585 C 998.666 -2.32295 -0.119167 0
M  V30 10586 C 999.66 -1.46138 -0.856746 0
M  V30 10587 O 1000.87 -1.62605 -0.771988 0
M  V30 10588 H 997.241 -0.749815 -0.0572881 0
M  V30 10589 H 999.212 -2.91609 0.63297 0
M  V30 10590 C 997.961 -3.29802 -1.10119 0
M  V30 10591 H 997.284 -3.96095 -0.543063 0
M  V30 10592 H 998.724 -3.93398 -1.58158 0
M  V30 10593 C 997.183 -2.57185 -2.17617 0
M  V30 10594 O 997.713 -2.35535 -3.25401 0
M  V30 10595 N 995.919 -2.17272 -1.9298 0
M  V30 10596 H 995.466 -2.3508 -1.05334 0
M  V30 10597 H 995.424 -1.69009 -2.6511 0
M  V30 10598 N 999.196 -0.349774 -1.5367 0
M  V30 10599 C 1000.44 0.237837 -2.02005 0
M  V30 10600 C 1000.8 1.477 -1.23298 0
M  V30 10601 O 1000.09 1.8901 -0.313947 0
M  V30 10602 C 1000.28 0.598311 -3.52356 0
M  V30 10603 C 1000.11 -0.604368 -4.4562 0
M  V30 10604 C 998.883 -1.1116 -4.92922 0
M  V30 10605 C 1001.08 -1.46474 -4.93001 0
M  V30 10606 N 999.063 -2.27595 -5.70152 0
M  V30 10607 C 1000.43 -2.47593 -5.68417 0
M  V30 10608 C 1002.49 -1.48947 -4.75099 0
M  V30 10609 C 1001.19 -3.51021 -6.27835 0
M  V30 10610 C 1003.22 -2.51259 -5.35372 0
M  V30 10611 C 1002.58 -3.51103 -6.1066 0
M  V30 10612 H 998.679 0.0501688 -0.780389 0
M  V30 10613 H 1001.26 -0.490748 -1.88414 0
M  V30 10614 H 999.434 1.29599 -3.6614 0
M  V30 10615 H 1001.17 1.16965 -3.87429 0
M  V30 10616 H 997.921 -0.678699 -4.68712 0
M  V30 10617 H 998.345 -2.864 -6.13436 0
M  V30 10618 H 1002.99 -0.731138 -4.1643 0
M  V30 10619 H 1000.7 -4.27745 -6.85609 0
M  V30 10620 H 1004.29 -2.54006 -5.23423 0
M  V30 10621 H 1003.17 -4.28974 -6.56469 0
M  V30 10622 N 1000.67 1.57404 -0.0785433 0
M  V30 10623 C 1001.58 2.16612 0.900902 0
M  V30 10624 C 1002.6 1.13109 1.32221 0
M  V30 10625 O 1003.78 1.45406 1.39352 0
M  V30 10626 C 1000.84 2.7215 2.14791 0
M  V30 10627 C 999.902 3.90551 1.78237 0
M  V30 10628 C 999.135 4.43431 2.96993 0
M  V30 10629 O 999.358 3.95292 4.11218 0
M  V30 10630 O 998.292 5.34674 2.76418 0
M  V30 10631 H 1002.12 3.0068 0.427227 0
M  V30 10632 H 999.703 1.48696 0.144902 0
M  V30 10633 H 1001.58 3.07718 2.87902 0
M  V30 10634 H 1000.26 1.91139 2.61243 0
M  V30 10635 H 999.167 3.59825 1.02357 0
M  V30 10636 H 1000.5 4.72876 1.36562 0
M  V30 10637 N 1002.15 -0.195058 1.56388 0
M  V30 10638 C 1003.11 -1.2254 1.93692 0
M  V30 10639 C 1004.11 -1.38437 0.81804 0
M  V30 10640 O 1005.3 -1.36248 1.08545 0
M  V30 10641 C 1002.44 -2.59476 2.21099 0
M  V30 10642 H 1003.63 -0.906544 2.8587 0
M  V30 10643 H 1001.18 -0.436577 1.50079 0
M  V30 10644 H 1001.92 -2.96417 1.31558 0
M  V30 10645 H 1001.7 -2.4931 3.02634 0
M  V30 10646 H 1003.19 -3.33777 2.50964 0
M  V30 10647 N 1003.63 -1.50653 -0.462772 0
M  V30 10648 C 1004.56 -1.66286 -1.5774 0
M  V30 10649 C 1005.57 -0.544094 -1.53439 0
M  V30 10650 O 1006.76 -0.817566 -1.58676 0
M  V30 10651 C 1003.86 -1.63893 -2.96635 0
M  V30 10652 C 1003.04 -2.91939 -3.25716 0
M  V30 10653 C 1002.1 -2.82076 -4.44206 0
M  V30 10654 O 1001.12 -3.56032 -4.44106 0
M  V30 10655 N 1002.32 -1.96196 -5.4634 0
M  V30 10656 H 1005.09 -2.6243 -1.44742 0
M  V30 10657 H 1002.65 -1.48221 -0.651326 0
M  V30 10658 H 1004.64 -1.54897 -3.73884 0
M  V30 10659 H 1003.21 -0.75449 -3.03358 0
M  V30 10660 H 1002.43 -3.14998 -2.37002 0
M  V30 10661 H 1003.72 -3.7675 -3.4196 0
M  V30 10662 H 1003.12 -1.35439 -5.49247 0
M  V30 10663 H 1001.67 -1.93097 -6.2254 0
M  V30 10664 N 1005.11 0.71652 -1.4037 0
M  V30 10665 C 1006.04 1.84345 -1.43315 0
M  V30 10666 C 1007.02 1.67537 -0.294186 0
M  V30 10667 O 1008.2 1.87582 -0.502671 0
M  V30 10668 C 1005.33 3.2229 -1.29408 0
M  V30 10669 C 1004.29 3.53769 -2.40897 0
M  V30 10670 C 1003.61 4.90847 -2.12068 0
M  V30 10671 C 1004.91 3.54862 -3.83237 0
M  V30 10672 H 1006.61 1.82138 -2.37626 0
M  V30 10673 H 1004.15 0.874873 -1.14376 0
M  V30 10674 H 1006.11 4.00819 -1.30085 0
M  V30 10675 H 1004.83 3.2507 -0.31573 0
M  V30 10676 H 1003.49 2.77579 -2.39469 0
M  V30 10677 H 1003.14 4.90229 -1.12626 0
M  V30 10678 H 1002.84 5.12875 -2.86762 0
M  V30 10679 H 1004.36 5.71711 -2.14426 0
M  V30 10680 H 1005.78 4.23432 -3.86494 0
M  V30 10681 H 1004.17 3.88416 -4.57442 0
M  V30 10682 H 1005.24 2.54266 -4.12888 0
M  V30 10683 N 1006.59 1.25851 0.948643 0
M  V30 10684 C 1007.55 1.0683 2.0278 0
M  V30 10685 C 1008.55 0.0191016 1.60789 0
M  V30 10686 O 1009.74 0.261836 1.72221 0
M  V30 10687 C 1006.87 0.623318 3.35153 0
M  V30 10688 H 1008.06 2.02635 2.21086 0
M  V30 10689 H 1005.62 1.08343 1.12657 0
M  V30 10690 H 1006.35 -0.337053 3.22544 0
M  V30 10691 H 1006.14 1.38082 3.66982 0
M  V30 10692 H 1007.63 0.511854 4.14451 0
M  V30 10693 N 1008.06 -1.15214 1.07534 0
M  V30 10694 C 1009.34 -1.82155 0.71267 0
M  V30 10695 C 1009.72 -1.95163 -0.804655 0
M  V30 10696 O 1009.07 -1.50451 -1.71979 0
M  V30 10697 C 1009.28 -3.18392 1.42925 0
M  V30 10698 C 1010.63 -3.94005 1.58256 0
M  V30 10699 O 1011.65 -3.27952 1.39018 0
M  V30 10700 O 1010.51 -5.12436 1.89925 0
M  V30 10701 H 1007.6 -0.78709 0.253808 0
M  V30 10702 H 1010.15 -1.22309 1.17638 0
M  V30 10703 H 1008.92 -3.04034 2.46331 0
M  V30 10704 H 1008.55 -3.85925 0.956439 0
M  V30 10705 N 1009.54 -0.859717 -1.32086 0
M  V30 10706 C 1010.79 -0.461779 -1.96343 0
M  V30 10707 C 1011.1 0.988837 -1.68764 0
M  V30 10708 O 1012.31 1.49244 -2.268 0
M  V30 10709 C 1010.77 -0.77484 -3.5146 0
M  V30 10710 C 1010.37 -2.24153 -3.87891 0
M  V30 10711 C 1012.12 -0.444873 -4.22162 0
M  V30 10712 C 1010.03 -2.49754 -5.36075 0
M  V30 10713 H 1008.96 -0.168951 -0.734828 0
M  V30 10714 H 1011.61 -1.0512 -1.50406 0
M  V30 10715 H 1009.99 -0.114792 -3.95834 0
M  V30 10716 H 1011.16 -2.94378 -3.54511 0
M  V30 10717 H 1009.48 -2.53651 -3.30227 0
M  V30 10718 H 1012.07 -0.613508 -5.31169 0
M  V30 10719 H 1012.42 0.61391 -4.11749 0
M  V30 10720 H 1012.95 -1.06103 -3.83389 0
M  V30 10721 H 1009.69 -3.54276 -5.51515 0
M  V30 10722 H 1009.21 -1.84112 -5.70844 0
M  V30 10723 H 1010.89 -2.3396 -6.03218 0
M  V30 10724 N 1011.02 1.44971 -0.618145 0
M  V30 10725 C 1011.95 2.33357 0.0815955 0
M  V30 10726 C 1012.93 1.47451 0.848072 0
M  V30 10727 O 1014.12 1.762 0.816532 0
M  V30 10728 C 1011.25 3.30324 1.07253 0
M  V30 10729 C 1010.2 4.25948 0.418563 0
M  V30 10730 C 1009.53 5.12685 1.51849 0
M  V30 10731 C 1010.83 5.18024 -0.66697 0
M  V30 10732 H 1012.52 2.92115 -0.656442 0
M  V30 10733 H 1010.07 1.40465 -0.317129 0
M  V30 10734 H 1012.02 3.91033 1.57069 0
M  V30 10735 H 1010.74 2.69748 1.8413 0
M  V30 10736 H 1009.4 3.66553 -0.0588308 0
M  V30 10737 H 1009.05 4.4847 2.2778 0
M  V30 10738 H 1008.75 5.7747 1.08637 0
M  V30 10739 H 1010.27 5.76264 2.01871 0
M  V30 10740 H 1011.69 5.72744 -0.252448 0
M  V30 10741 H 1010.09 5.91343 -1.02146 0
M  V30 10742 H 1011.16 4.59817 -1.53936 0
M  V30 10743 N 1012.5 0.357919 1.53482 0
M  V30 10744 C 1013.72 -0.237769 2.06033 0
M  V30 10745 C 1014.15 -1.42292 1.23023 0
M  V30 10746 O 1013.51 -1.79604 0.247427 0
M  V30 10747 C 1013.55 -0.616806 3.55286 0
M  V30 10748 O 1012.66 -1.71503 3.75047 0
M  V30 10749 H 1012 -0.0364322 0.663 0
M  V30 10750 H 1014.53 0.516301 1.97979 0
M  V30 10751 H 1014.54 -0.88996 3.98175 0
M  V30 10752 H 1013.21 0.249825 4.15149 0
M  V30 10753 H 1011.79 -1.43803 3.44057 0
M  V30 10754 N 1013.98 -1.5736 0.0868897 0
M  V30 10755 C 1015.22 -1.95147 -0.573512 0
M  V30 10756 C 1015.58 -0.967591 -1.66299 0
M  V30 10757 O 1014.87 0.00774571 -1.91598 0
M  V30 10758 C 1015.06 -3.37316 -1.18123 0
M  V30 10759 C 1014.89 -4.49443 -0.152145 0
M  V30 10760 C 1013.66 -5.04586 0.268496 0
M  V30 10761 C 1015.86 -5.10592 0.616502 0
M  V30 10762 N 1013.84 -6.00264 1.28671 0
M  V30 10763 C 1015.21 -6.0191 1.48677 0
M  V30 10764 C 1017.27 -4.93359 0.67092 0
M  V30 10765 C 1015.97 -6.77844 2.40664 0
M  V30 10766 C 1018 -5.69949 1.57837 0
M  V30 10767 C 1017.36 -6.60927 2.43628 0
M  V30 10768 H 1013.46 -0.760898 -0.180439 0
M  V30 10769 H 1016.04 -1.93978 0.167548 0
M  V30 10770 H 1014.21 -3.39194 -1.89214 0
M  V30 10771 H 1015.95 -3.62301 -1.80332 0
M  V30 10772 H 1012.7 -4.73454 -0.117625 0
M  V30 10773 H 1013.13 -6.52804 1.79377 0
M  V30 10774 H 1017.77 -4.22794 0.0218207 0
M  V30 10775 H 1015.49 -7.47677 3.06603 0
M  V30 10776 H 1019.07 -5.58631 1.6255 0
M  V30 10777 H 1017.95 -7.19156 3.12705 0
M  V30 10778 N 1015.45 0.186762 -1.56489 0
M  V30 10779 C 1016.7 0.907194 -1.81378 0
M  V30 10780 C 1017.03 1.82558 -0.662283 0
M  V30 10781 O 1016.31 1.91564 0.336699 0
M  V30 10782 C 1016.59 1.71624 -3.16571 0
M  V30 10783 C 1016.44 0.822009 -4.42225 0
M  V30 10784 C 1017.76 2.68713 -3.48542 0
M  V30 10785 H 1014.88 0.328366 -0.659806 0
M  V30 10786 H 1017.52 0.174142 -1.892 0
M  V30 10787 H 1015.67 2.34119 -3.10033 0
M  V30 10788 H 1017.35 0.211122 -4.60817 0
M  V30 10789 H 1015.59 0.129178 -4.33608 0
M  V30 10790 H 1016.26 1.42326 -5.33336 0
M  V30 10791 H 1018.74 2.16348 -3.55433 0
M  V30 10792 H 1017.61 3.22397 -4.44242 0
M  V30 10793 H 1017.87 3.48165 -2.72459 0
M  V30 10794 N 1016.93 1.50896 0.454776 0
M  V30 10795 C 1017.88 1.71497 1.57136 0
M  V30 10796 C 1018.87 0.58098 1.59126 0
M  V30 10797 O 1020.08 0.761916 1.63079 0
M  V30 10798 H 1016.46 0.54158 0.521724 0
M  V30 10799 H 1018.43 2.65129 1.36928 0
M  V30 10800 C 1017.18 1.84125 2.94947 0
M  V30 10801 H 1016.5 2.7078 2.9414 0
M  V30 10802 H 1017.94 2.02558 3.72487 0
M  V30 10803 C 1016.4 0.596752 3.31573 0
M  V30 10804 O 1016.93 -0.256632 4.00879 0
M  V30 10805 N 1015.13 0.445958 2.87158 0
M  V30 10806 H 1014.68 1.14146 2.30929 0
M  V30 10807 H 1014.64 -0.385519 3.12027 0
M  V30 10808 N 1018.41 -0.709066 1.40748 0
M  V30 10809 C 1019.69 -1.4626 1.29874 0
M  V30 10810 C 1020.07 -2.10949 -0.0799322 0
M  V30 10811 O 1019.42 -2.00651 -1.09323 0
M  V30 10812 C 1019.63 -2.49302 2.44232 0
M  V30 10813 C 1020.97 -3.14945 2.84771 0
M  V30 10814 O 1022 -2.59623 2.43873 0
M  V30 10815 O 1020.86 -4.15111 3.5545 0
M  V30 10816 H 1017.95 -0.650716 0.51039 0
M  V30 10817 H 1020.5 -0.740687 1.52682 0
M  V30 10818 H 1019.27 -2.00063 3.36289 0
M  V30 10819 H 1018.89 -3.29021 2.23229 0
M  V30 10820 N 1019.89 -1.26353 -0.941956 0
M  V30 10821 C 1020.8 -1.09618 -2.07415 0
M  V30 10822 C 1021.82 -0.0298963 -1.73974 0
M  V30 10823 O 1022.99 -0.233466 -2.00042 0
M  V30 10824 C 1020.06 -0.73013 -3.38925 0
M  V30 10825 C 1019.12 -1.87574 -3.86153 0
M  V30 10826 C 1018.35 -1.52706 -5.11387 0
M  V30 10827 O 1018.57 -0.428438 -5.68789 0
M  V30 10828 O 1017.51 -2.36154 -5.53638 0
M  V30 10829 H 1021.33 -2.04598 -2.2444 0
M  V30 10830 H 1018.92 -1.05407 -1.05876 0
M  V30 10831 H 1020.8 -0.538684 -4.17943 0
M  V30 10832 H 1019.48 0.190282 -3.2314 0
M  V30 10833 H 1018.38 -2.12214 -3.08084 0
M  V30 10834 H 1019.72 -2.77585 -4.06457 0
M  V30 10835 N 1021.37 1.14642 -1.08144 0
M  V30 10836 C 1022.31 2.1964 -0.708995 0
M  V30 10837 C 1023.28 1.63303 0.303512 0
M  V30 10838 O 1024.47 1.8987 0.18813 0
M  V30 10839 C 1021.61 3.44886 -0.121585 0
M  V30 10840 C 1020.72 4.15386 -1.18654 0
M  V30 10841 C 1019.86 5.28205 -0.56328 0
M  V30 10842 C 1018.9 5.90534 -1.61046 0
M  V30 10843 N 1018.03 6.94809 -1.00919 0
M  V30 10844 H 1022.87 2.50848 -1.6087 0
M  V30 10845 H 1020.41 1.23185 -0.803975 0
M  V30 10846 H 1022.37 4.16528 0.23668 0
M  V30 10847 H 1021 3.14169 0.741445 0
M  V30 10848 H 1020.05 3.42159 -1.66227 0
M  V30 10849 H 1021.36 4.57809 -1.9802 0
M  V30 10850 H 1020.52 6.06507 -0.153109 0
M  V30 10851 H 1019.26 4.86995 0.262066 0
M  V30 10852 H 1018.26 5.10938 -2.03033 0
M  V30 10853 H 1019.49 6.33819 -2.43824 0
M  V30 10854 H 1017.43 6.5568 -0.204894 0
M  V30 10855 H 1017.35 7.35704 -1.73999 0
M  V30 10856 H 1018.62 7.76992 -0.624792 0
M  V30 10857 N 1022.85 0.866709 1.31628 0
M  V30 10858 C 1024.09 0.476731 1.97117 0
M  V30 10859 C 1024.42 -0.967813 1.68366 0
M  V30 10860 O 1023.7 -1.68101 0.978377 0
M  V30 10861 C 1023.98 0.730561 3.52611 0
M  V30 10862 C 1023.84 2.2244 3.90948 0
M  V30 10863 C 1025.15 0.19488 4.39668 0
M  V30 10864 H 1022.27 0.174682 0.715999 0
M  V30 10865 H 1024.92 1.08735 1.5581 0
M  V30 10866 H 1023.07 0.210834 3.87927 0
M  V30 10867 H 1024.74 2.81113 3.6575 0
M  V30 10868 H 1022.98 2.69824 3.39673 0
M  V30 10869 H 1023.65 2.35266 4.99353 0
M  V30 10870 H 1026.13 0.639478 4.11157 0
M  V30 10871 H 1025 0.401958 5.47426 0
M  V30 10872 H 1025.26 -0.90302 4.32779 0
M  V30 10873 N 1024.32 -1.44642 0.625825 0
M  V30 10874 C 1025.55 -2.06971 0.133373 0
M  V30 10875 C 1025.97 -1.46421 -1.18078 0
M  V30 10876 O 1025.33 -0.563676 -1.72315 0
M  V30 10877 C 1025.38 -3.6059 0.0265097 0
M  V30 10878 O 1024.48 -3.99615 -1.01889 0
M  V30 10879 H 1023.82 -0.658873 0.0823568 0
M  V30 10880 H 1026.35 -1.85601 0.861002 0
M  V30 10881 H 1026.36 -4.07663 -0.1658 0
M  V30 10882 H 1025.04 -4.04043 0.985986 0
M  V30 10883 H 1023.62 -3.64183 -0.801577 0
M  V30 10884 N 1025.8 -0.366053 -1.5329 0
M  V30 10885 C 1027.22 -0.0150149 -1.59593 0
M  V30 10886 C 1027.42 1.46719 -1.38116 0
M  V30 10887 O 1026.47 2.22884 -1.18656 0
M  V30 10888 C 1027.79 -0.471374 -2.96982 0
M  V30 10889 C 1029.33 -0.425634 -3.10092 0
M  V30 10890 C 1029.81 -0.857812 -4.49895 0
M  V30 10891 N 1031.3 -0.81289 -4.56011 0
M  V30 10892 C 1032.04 -1.11898 -5.62376 0
M  V30 10893 N 1031.53 -1.49436 -6.76491 0
M  V30 10894 N 1033.32 -1.04174 -5.52362 0
M  V30 10895 H 1025.48 -1.33127 -1.65502 0
M  V30 10896 H 1027.74 -0.544172 -0.776261 0
M  V30 10897 H 1027.44 -1.50569 -3.1784 0
M  V30 10898 H 1027.32 0.141764 -3.76934 0
M  V30 10899 H 1029.71 0.599548 -2.88945 0
M  V30 10900 H 1029.79 -1.07427 -2.32149 0
M  V30 10901 H 1029.43 -1.88111 -4.7178 0
M  V30 10902 H 1029.36 -0.186419 -5.2627 0
M  V30 10903 H 1031.85 -0.536343 -3.74075 0
M  V30 10904 H 1032.16 -1.71217 -7.53594 0
M  V30 10905 H 1030.51 -1.53302 -6.77882 0
M  V30 10906 H 1033.7 -0.747654 -4.62091 0
M  V30 10907 H 1033.87 -1.28362 -6.35159 0
M  V30 10908 N 1027.28 1.57312 -0.0952337 0
M  V30 10909 C 1028.53 1.93974 0.567319 0
M  V30 10910 C 1028.85 0.977805 1.68713 0
M  V30 10911 O 1028.12 0.0298944 1.95877 0
M  V30 10912 H 1026.7 0.71612 0.212558 0
M  V30 10913 H 1029.36 1.94254 -0.158598 0
M  V30 10914 H 1028.46 2.964 0.977423 0
M  V30 10915 N 1028.76 -0.17846 1.56586 0
M  V30 10916 C 1029.99 -0.910674 1.85446 0
M  V30 10917 C 1030.4 -1.76647 0.677675 0
M  V30 10918 O 1029.74 -1.80086 -0.362584 0
M  V30 10919 C 1029.8 -1.84363 3.08627 0
M  V30 10920 C 1029.46 -1.16814 4.41818 0
M  V30 10921 C 1030.46 -0.53703 5.17119 0
M  V30 10922 C 1028.15 -1.16703 4.88555 0
M  V30 10923 C 1030.14 0.0861778 6.37342 0
M  V30 10924 C 1027.83 -0.539992 6.0871 0
M  V30 10925 C 1028.83 0.0855135 6.82946 0
M  V30 10926 O 1028.51 0.70268 8.00823 0
M  V30 10927 H 1028.25 -0.270377 0.619574 0
M  V30 10928 H 1030.8 -0.185591 2.0456 0
M  V30 10929 H 1029.03 -2.60884 2.85441 0
M  V30 10930 H 1030.72 -2.44506 3.23993 0
M  V30 10931 H 1031.48 -0.529915 4.82096 0
M  V30 10932 H 1027.36 -1.64329 4.30717 0
M  V30 10933 H 1030.91 0.575011 6.95226 0
M  V30 10934 H 1026.8 -0.544666 6.43198 0
M  V30 10935 H 1027.57 0.601224 8.16289 0
M  V30 10936 N 1030.24 -1.51135 -0.446768 0
M  V30 10937 C 1031.17 -1.74709 -1.54916 0
M  V30 10938 C 1032.15 -0.596628 -1.59293 0
M  V30 10939 O 1033.33 -0.838356 -1.75172 0
M  V30 10940 C 1030.46 -1.86353 -2.9307 0
M  V30 10941 C 1029.42 -3.01725 -3.03556 0
M  V30 10942 C 1028.74 -2.9854 -4.43597 0
M  V30 10943 C 1030.04 -4.41848 -2.7851 0
M  V30 10944 H 1031.74 -2.67014 -1.3544 0
M  V30 10945 H 1029.28 -1.28489 -0.650131 0
M  V30 10946 H 1031.23 -2.01428 -3.70141 0
M  V30 10947 H 1029.96 -0.906887 -3.13756 0
M  V30 10948 H 1028.62 -2.86339 -2.28922 0
M  V30 10949 H 1028.27 -2.00673 -4.61237 0
M  V30 10950 H 1027.97 -3.76008 -4.51544 0
M  V30 10951 H 1029.49 -3.15696 -5.22655 0
M  V30 10952 H 1030.9 -4.57633 -3.45319 0
M  V30 10953 H 1029.3 -5.2095 -2.97877 0
M  V30 10954 H 1030.37 -4.52536 -1.74182 0
M  V30 10955 N 1031.71 0.701592 -1.41122 0
M  V30 10956 C 1032.65 1.8268 -1.38422 0
M  V30 10957 C 1033.66 1.60244 -0.287342 0
M  V30 10958 O 1034.85 1.69859 -0.548658 0
M  V30 10959 C 1031.95 3.19338 -1.13475 0
M  V30 10960 C 1031.12 3.68853 -2.35088 0
M  V30 10961 C 1030.18 4.84163 -2.06089 0
M  V30 10962 O 1029.21 4.9609 -2.79077 0
M  V30 10963 N 1030.41 5.70972 -1.04743 0
M  V30 10964 H 1033.17 1.8549 -2.35401 0
M  V30 10965 H 1030.73 0.883682 -1.35656 0
M  V30 10966 H 1032.73 3.94095 -0.920377 0
M  V30 10967 H 1031.3 3.11589 -0.251152 0
M  V30 10968 H 1030.52 2.8507 -2.72266 0
M  V30 10969 H 1031.8 3.98673 -3.16129 0
M  V30 10970 H 1031.2 5.63961 -0.443221 0
M  V30 10971 H 1029.76 6.45654 -0.892949 0
M  V30 10972 N 1033.19 1.2685 0.935242 0
M  V30 10973 C 1034.15 1.08975 2.01636 0
M  V30 10974 C 1035.15 0.0361543 1.60759 0
M  V30 10975 O 1036.34 0.280087 1.71934 0
M  V30 10976 C 1033.48 0.658831 3.34473 0
M  V30 10977 H 1034.67 2.04968 2.18925 0
M  V30 10978 H 1032.22 1.09531 1.11501 0
M  V30 10979 H 1032.96 -0.302824 3.22883 0
M  V30 10980 H 1032.74 1.41967 3.65497 0
M  V30 10981 H 1034.23 0.555783 4.13885 0
M  V30 10982 N 1034.67 -1.14067 1.0875 0
M  V30 10983 C 1035.6 -2.21385 0.74236 0
M  V30 10984 C 1036.58 -1.67833 -0.276805 0
M  V30 10985 O 1037.77 -1.93647 -0.1464 0
M  V30 10986 C 1034.9 -3.46956 0.154644 0
M  V30 10987 C 1033.85 -4.13555 1.10255 0
M  V30 10988 C 1033.18 -5.3337 0.376877 0
M  V30 10989 C 1034.48 -4.6169 2.44213 0
M  V30 10990 H 1036.17 -2.50512 1.63964 0
M  V30 10991 H 1033.72 -1.20408 0.789807 0
M  V30 10992 H 1035.67 -4.21284 -0.0988419 0
M  V30 10993 H 1034.39 -3.17203 -0.777789 0
M  V30 10994 H 1033.05 -3.41186 1.34119 0
M  V30 10995 H 1032.7 -4.99879 -0.559472 0
M  V30 10996 H 1032.4 -5.78875 1.00884 0
M  V30 10997 H 1033.92 -6.10458 0.131527 0
M  V30 10998 H 1035.34 -5.27475 2.24595 0
M  V30 10999 H 1033.74 -5.17909 3.03134 0
M  V30 11000 H 1034.81 -3.76574 3.05483 0
M  V30 11001 N 1036.15 -0.873678 -1.31166 0
M  V30 11002 C 1037.11 -0.337069 -2.26708 0
M  V30 11003 C 1038.11 0.51406 -1.52362 0
M  V30 11004 O 1039.3 0.322834 -1.71182 0
M  V30 11005 C 1036.43 0.520897 -3.36897 0
M  V30 11006 H 1037.63 -1.18056 -2.75686 0
M  V30 11007 H 1035.18 -0.649577 -1.42163 0
M  V30 11008 H 1035.91 1.38543 -2.93217 0
M  V30 11009 H 1035.7 -0.0886015 -3.92 0
M  V30 11010 H 1037.19 0.888497 -4.08039 0
M  V30 11011 N 1037.63 1.44308 -0.633487 0
M  V30 11012 C 1038.85 2.06384 -0.146063 0
M  V30 11013 C 1039.27 1.47357 1.18031 0
M  V30 11014 O 1038.63 0.597334 1.72448 0
M  V30 11015 C 1038.68 3.61489 -0.0276722 0
M  V30 11016 O 1038.4 4.18318 -1.3016 0
M  V30 11017 C 1039.9 4.40604 0.488168 0
M  V30 11018 H 1037.12 0.666122 -0.0807632 0
M  V30 11019 H 1039.66 1.85139 -0.868557 0
M  V30 11020 H 1037.82 3.81988 0.645273 0
M  V30 11021 H 1038.23 5.11783 -1.14797 0
M  V30 11022 H 1039.71 5.49545 0.520013 0
M  V30 11023 H 1040.18 4.12218 1.51568 0
M  V30 11024 H 1040.79 4.2503 -0.151608 0
M  V30 11025 N 1039.1 0.374177 1.53094 0
M  V30 11026 C 1040.05 -0.468226 2.26001 0
M  V30 11027 C 1041.02 -1.07041 1.27009 0
M  V30 11028 O 1042.21 -1.10129 1.55809 0
M  V30 11029 C 1039.35 -1.59754 3.05896 0
M  V30 11030 C 1038.46 -1.01969 4.19793 0
M  V30 11031 C 1037.59 -2.11882 4.87113 0
M  V30 11032 C 1036.63 -1.51607 5.93028 0
M  V30 11033 N 1035.77 -2.55388 6.54004 0
M  V30 11034 H 1040.61 0.159983 2.9757 0
M  V30 11035 H 1038.15 0.0907196 1.4682 0
M  V30 11036 H 1040.11 -2.26288 3.50499 0
M  V30 11037 H 1038.74 -2.19628 2.36565 0
M  V30 11038 H 1037.79 -0.244386 3.79614 0
M  V30 11039 H 1039.1 -0.539089 4.95878 0
M  V30 11040 H 1038.25 -2.86218 5.34943 0
M  V30 11041 H 1036.99 -2.63297 4.10519 0
M  V30 11042 H 1036 -0.757891 5.44551 0
M  V30 11043 H 1037.22 -1.01006 6.71546 0
M  V30 11044 H 1035.17 -3.06 5.80258 0
M  V30 11045 H 1035.09 -2.12039 7.25655 0
M  V30 11046 H 1036.35 -3.294 7.06481 0
M  V30 11047 N 1040.58 -1.57259 0.103575 0
M  V30 11048 C 1041.52 -2.10165 -0.889141 0
M  V30 11049 C 1042.49 -1.01426 -1.27089 0
M  V30 11050 O 1043.68 -1.2898 -1.37465 0
M  V30 11051 C 1040.8 -2.58564 -2.18774 0
M  V30 11052 C 1039.85 -3.79043 -1.95522 0
M  V30 11053 S 1040.68 -5.22213 -1.18551 0
M  V30 11054 C 1041.84 -5.73968 -2.49623 0
M  V30 11055 H 1042.07 -2.9404 -0.439083 0
M  V30 11056 H 1039.61 -1.54008 -0.10989 0
M  V30 11057 H 1041.56 -2.87106 -2.93395 0
M  V30 11058 H 1040.22 -1.749 -2.609 0
M  V30 11059 H 1039.42 -4.11004 -2.91705 0
M  V30 11060 H 1039.02 -3.51038 -1.29028 0
M  V30 11061 H 1041.31 -5.82752 -3.45553 0
M  V30 11062 H 1042.25 -6.72324 -2.22229 0
M  V30 11063 H 1042.66 -5.01946 -2.58284 0
M  V30 11064 N 1042.06 0.170153 -1.56679 0
M  V30 11065 C 1043.02 1.19443 -1.95617 0
M  V30 11066 C 1044.02 1.37118 -0.83996 0
M  V30 11067 O 1045.21 1.34504 -1.10699 0
M  V30 11068 C 1042.35 2.55926 -2.25199 0
M  V30 11069 H 1043.54 0.86095 -2.87276 0
M  V30 11070 H 1041.09 0.412646 -1.50755 0
M  V30 11071 H 1041.83 2.94286 -1.36257 0
M  V30 11072 H 1041.61 2.44464 -3.06562 0
M  V30 11073 H 1043.1 3.29742 -2.56242 0
M  V30 11074 N 1043.54 1.5137 0.438746 0
M  V30 11075 C 1044.45 1.75424 1.55768 0
M  V30 11076 C 1045.46 0.638409 1.61865 0
M  V30 11077 O 1046.64 0.9205 1.79133 0
M  V30 11078 C 1043.71 1.87288 2.9176 0
M  V30 11079 C 1042.77 3.11137 2.95791 0
M  V30 11080 C 1042 3.22425 4.25297 0
M  V30 11081 O 1042.22 2.39688 5.17596 0
M  V30 11082 O 1041.16 4.15393 4.35583 0
M  V30 11083 H 1044.98 2.70339 1.38386 0
M  V30 11084 H 1042.57 1.35854 0.621609 0
M  V30 11085 H 1044.45 1.97085 3.72472 0
M  V30 11086 H 1043.12 0.955599 3.09273 0
M  V30 11087 H 1042.03 3.06819 2.1404 0
M  V30 11088 H 1043.36 4.02549 2.83223 0
M  V30 11089 N 1045.02 -0.694098 1.41492 0
M  V30 11090 C 1045.93 -1.83778 1.45818 0
M  V30 11091 C 1046.94 -1.70471 0.348639 0
M  V30 11092 O 1048.12 -1.92361 0.596588 0
M  V30 11093 C 1045.18 -3.19771 1.33967 0
M  V30 11094 C 1044.24 -3.45175 2.5525 0
M  V30 11095 C 1043.48 -4.74681 2.43955 0
M  V30 11096 O 1043.7 -5.51268 1.46491 0
M  V30 11097 O 1042.63 -5.00901 3.33739 0
M  V30 11098 H 1046.46 -1.83084 2.42309 0
M  V30 11099 H 1044.05 -0.847349 1.23046 0
M  V30 11100 H 1045.93 -4.00961 1.29648 0
M  V30 11101 H 1044.6 -3.21145 0.405926 0
M  V30 11102 H 1043.51 -2.6391 2.65146 0
M  V30 11103 H 1044.84 -3.48617 3.47458 0
M  V30 11104 N 1046.49 -1.27344 -0.928501 0
M  V30 11105 C 1047.42 -1.12517 -2.04602 0
M  V30 11106 C 1048.41 -0.0268563 -1.70079 0
M  V30 11107 O 1049.59 -0.201197 -1.93155 0
M  V30 11108 C 1046.72 -0.770749 -3.3864 0
M  V30 11109 C 1045.67 -1.8222 -3.87272 0
M  V30 11110 C 1045 -1.32178 -5.18105 0
M  V30 11111 C 1046.3 -3.22614 -4.10752 0
M  V30 11112 H 1047.99 -2.06 -2.17265 0
M  V30 11113 H 1045.54 -0.991827 -1.04397 0
M  V30 11114 H 1047.49 -0.653843 -4.16297 0
M  V30 11115 H 1046.22 0.19979 -3.25988 0
M  V30 11116 H 1044.88 -1.928 -3.11807 0
M  V30 11117 H 1044.52 -0.340719 -5.01845 0
M  V30 11118 H 1044.22 -2.02474 -5.51614 0
M  V30 11119 H 1045.75 -1.2178 -5.98333 0
M  V30 11120 H 1047.16 -3.1504 -4.78981 0
M  V30 11121 H 1045.56 -3.90614 -4.55566 0
M  V30 11122 H 1046.63 -3.67727 -3.16077 0
M  V30 11123 N 1047.97 1.13488 -1.09353 0
M  V30 11124 C 1048.88 2.2248 -0.744307 0
M  V30 11125 C 1049.9 1.72145 0.253404 0
M  V30 11126 O 1051.07 2.01176 0.0949339 0
M  V30 11127 C 1048.14 3.46286 -0.16928 0
M  V30 11128 C 1047.2 4.11516 -1.22284 0
M  V30 11129 C 1046.43 5.29412 -0.675161 0
M  V30 11130 O 1046.66 5.68185 0.502182 0
M  V30 11131 O 1045.59 5.8467 -1.42983 0
M  V30 11132 H 1049.42 2.54723 -1.65378 0
M  V30 11133 H 1047 1.21607 -0.867879 0
M  V30 11134 H 1048.88 4.2114 0.14811 0
M  V30 11135 H 1047.56 3.15745 0.713214 0
M  V30 11136 H 1046.47 3.38492 -1.59292 0
M  V30 11137 H 1047.8 4.46186 -2.07796 0
M  V30 11138 N 1049.45 0.880621 1.30701 0
M  V30 11139 C 1050.68 0.510909 2.01009 0
M  V30 11140 C 1051.1 -0.892041 1.65603 0
M  V30 11141 O 1050.46 -1.59045 0.870309 0
M  V30 11142 C 1050.51 0.687759 3.53981 0
M  V30 11143 O 1049.61 -0.268275 4.11526 0
M  V30 11144 H 1048.95 0.201864 0.632572 0
M  V30 11145 H 1051.48 1.18697 1.6665 0
M  V30 11146 H 1051.49 0.585095 4.03783 0
M  V30 11147 H 1050.17 1.71068 3.79089 0
M  V30 11148 H 1048.74 -0.119673 3.72708 0
M  V30 11149 N 1050.93 -1.4397 0.641131 0
M  V30 11150 C 1051.86 -2.33458 -0.04446 0
M  V30 11151 C 1052.84 -1.48781 -0.824507 0
M  V30 11152 O 1054.03 -1.77477 -0.788397 0
M  V30 11153 C 1051.16 -3.31989 -1.01984 0
M  V30 11154 C 1050.11 -4.2656 -0.350745 0
M  V30 11155 C 1049.44 -5.15036 -1.43673 0
M  V30 11156 C 1050.74 -5.16897 0.749299 0
M  V30 11157 H 1052.43 -2.91034 0.702832 0
M  V30 11158 H 1049.98 -1.39942 0.339435 0
M  V30 11159 H 1051.93 -3.93483 -1.50828 0
M  V30 11160 H 1050.65 -2.72643 -1.79815 0
M  V30 11161 H 1049.31 -3.66413 0.117139 0
M  V30 11162 H 1048.96 -4.52037 -2.20617 0
M  V30 11163 H 1048.66 -5.79125 -0.994358 0
M  V30 11164 H 1050.18 -5.79403 -1.92678 0
M  V30 11165 H 1051.6 -5.7227 0.343534 0
M  V30 11166 H 1049.99 -5.89643 1.11541 0
M  V30 11167 H 1051.06 -4.5731 1.61232 0
M  V30 11168 N 1052.41 -0.382291 -1.52893 0
M  V30 11169 C 1053.82 -0.031941 -1.59568 0
M  V30 11170 C 1054.02 1.45245 -1.39664 0
M  V30 11171 O 1053.08 2.21612 -1.21013 0
M  V30 11172 C 1054.39 -0.502846 -2.96466 0
M  V30 11173 C 1055.94 -0.4585 -3.09624 0
M  V30 11174 C 1056.42 -0.905481 -4.4896 0
M  V30 11175 N 1057.91 -0.861211 -4.55124 0
M  V30 11176 C 1058.64 -1.17856 -5.61157 0
M  V30 11177 N 1058.14 -1.56603 -6.74868 0
M  V30 11178 N 1059.93 -1.10027 -5.51226 0
M  V30 11179 H 1052.08 -1.34875 -1.64081 0
M  V30 11180 H 1054.34 -0.552375 -0.770446 0
M  V30 11181 H 1054.05 -1.53931 -3.16225 0
M  V30 11182 H 1053.92 0.101777 -3.77063 0
M  V30 11183 H 1056.31 0.568868 -2.89565 0
M  V30 11184 H 1056.39 -1.09884 -2.30996 0
M  V30 11185 H 1056.04 -1.93105 -4.69759 0
M  V30 11186 H 1055.97 -0.242227 -5.26043 0
M  V30 11187 H 1058.46 -0.575988 -3.73485 0
M  V30 11188 H 1058.77 -1.792 -7.51736 0
M  V30 11189 H 1057.12 -1.60484 -6.76217 0
M  V30 11190 H 1060.31 -0.796623 -4.61272 0
M  V30 11191 H 1060.48 -1.35091 -6.33762 0
M  V30 11192 N 1053.89 1.57202 -0.111913 0
M  V30 11193 C 1054.83 2.16186 0.858286 0
M  V30 11194 C 1055.83 1.10917 1.28039 0
M  V30 11195 O 1057.03 1.29233 1.25295 0
M  V30 11196 H 1053.41 0.691777 0.29487 0
M  V30 11197 H 1055.38 2.96499 0.336265 0
M  V30 11198 C 1054.13 2.77024 2.10127 0
M  V30 11199 H 1053.45 3.5772 1.78539 0
M  V30 11200 H 1054.89 3.21841 2.76033 0
M  V30 11201 C 1053.35 1.73752 2.88638 0
M  V30 11202 O 1053.88 1.18659 3.83774 0
M  V30 11203 N 1052.09 1.43855 2.52496 0
M  V30 11204 H 1051.63 1.88846 1.75199 0
M  V30 11205 H 1051.59 0.749985 3.05324 0
M  V30 11206 N 1055.36 -0.161842 1.56767 0
M  V30 11207 C 1056.61 -0.878224 1.82798 0
M  V30 11208 C 1056.94 -1.81481 0.691242 0
M  V30 11209 O 1056.22 -1.92075 -0.30618 0
M  V30 11210 C 1056.5 -1.66565 3.19262 0
M  V30 11211 C 1056.35 -0.751551 4.43477 0
M  V30 11212 C 1057.67 -2.63134 3.52773 0
M  V30 11213 H 1054.79 -0.317828 0.664947 0
M  V30 11214 H 1057.43 -0.14402 1.89453 0
M  V30 11215 H 1055.58 -2.29157 3.13719 0
M  V30 11216 H 1057.26 -0.137783 4.61094 0
M  V30 11217 H 1055.5 -0.0601785 4.33758 0
M  V30 11218 H 1056.17 -1.33823 5.35533 0
M  V30 11219 H 1058.65 -2.10666 3.5883 0
M  V30 11220 H 1057.52 -3.15289 4.49315 0
M  V30 11221 H 1057.78 -3.43786 2.77963 0
M  V30 11222 N 1056.84 -1.516 -0.430713 0
M  V30 11223 C 1058.09 -1.64271 -1.17726 0
M  V30 11224 C 1058.41 -0.364406 -1.91565 0
M  V30 11225 O 1057.68 0.619991 -1.8583 0
M  V30 11226 H 1056.26 -0.605432 -0.437562 0
M  V30 11227 H 1058.92 -1.88557 -0.493166 0
M  V30 11228 H 1058.02 -2.47355 -1.90321 0
M  V30 11229 N 1058.32 0.686584 -1.41858 0
M  V30 11230 C 1059.55 1.47519 -1.45072 0
M  V30 11231 C 1059.96 1.88709 -0.0585868 0
M  V30 11232 O 1059.32 1.57373 0.924116 0
M  V30 11233 C 1059.37 2.73195 -2.36742 0
M  V30 11234 O 1059.09 2.33736 -3.70539 0
M  V30 11235 C 1060.59 3.66861 -2.48854 0
M  V30 11236 H 1057.81 0.454307 -0.493808 0
M  V30 11237 H 1060.36 0.844612 -1.86243 0
M  V30 11238 H 1058.51 3.32468 -1.98856 0
M  V30 11239 H 1058.93 3.14809 -4.19518 0
M  V30 11240 H 1060.4 4.51801 -3.17143 0
M  V30 11241 H 1060.88 4.11961 -1.52265 0
M  V30 11242 H 1061.48 3.13486 -2.87414 0
M  V30 11243 N 1059.8 1.27835 0.921735 0
M  V30 11244 C 1060.73 1.06874 2.02758 0
M  V30 11245 C 1061.74 0.0229418 1.62784 0
M  V30 11246 O 1062.93 0.265145 1.7652 0
M  V30 11247 C 1060.03 0.60037 3.3354 0
M  V30 11248 C 1059.2 1.71979 4.02172 0
M  V30 11249 C 1058.26 1.24615 5.11231 0
M  V30 11250 O 1057.29 1.94692 5.34868 0
M  V30 11251 N 1058.49 0.105021 5.80405 0
M  V30 11252 H 1061.26 2.02105 2.213 0
M  V30 11253 H 1058.82 1.19481 1.09251 0
M  V30 11254 H 1060.81 0.267281 4.03816 0
M  V30 11255 H 1059.38 -0.258872 3.11526 0
M  V30 11256 H 1058.6 2.22287 3.25549 0
M  V30 11257 H 1059.89 2.47092 4.44773 0
M  V30 11258 H 1059.29 -0.479745 5.63662 0
M  V30 11259 H 1057.84 -0.168846 6.51581 0
M  V30 11260 N 1061.28 -1.12907 1.09954 0
M  V30 11261 C 1062.5 -1.88138 0.860905 0
M  V30 11262 C 1062.92 -1.79402 -0.588256 0
M  V30 11263 O 1062.28 -1.16442 -1.40526 0
M  V30 11264 C 1062.33 -3.37537 1.29425 0
M  V30 11265 O 1062.05 -3.46056 2.68658 0
M  V30 11266 C 1063.55 -4.29721 1.08879 0
M  V30 11267 H 1060.77 -0.595437 0.309347 0
M  V30 11268 H 1063.31 -1.42894 1.46292 0
M  V30 11269 H 1061.47 -3.80344 0.736009 0
M  V30 11270 H 1061.88 -4.38969 2.87065 0
M  V30 11271 H 1063.36 -5.32854 1.4412 0
M  V30 11272 H 1063.83 -4.39192 0.0270053 0
M  V30 11273 H 1064.44 -3.9269 1.63325 0
M  V30 11274 N 1062.75 -0.88754 -1.30232 0
M  V30 11275 C 1063.68 -0.372481 -2.3051 0
M  V30 11276 C 1064.66 0.546037 -1.61098 0
M  V30 11277 O 1065.85 0.459345 -1.88689 0
M  V30 11278 C 1062.98 0.411605 -3.44852 0
M  V30 11279 C 1061.93 -0.415383 -4.2598 0
M  V30 11280 C 1061.26 0.495463 -5.324 0
M  V30 11281 C 1062.56 -1.65886 -4.95257 0
M  V30 11282 H 1064.25 -1.21045 -2.7384 0
M  V30 11283 H 1061.8 -0.583498 -1.31648 0
M  V30 11284 H 1063.75 0.782584 -4.1407 0
M  V30 11285 H 1062.48 1.28325 -3.00334 0
M  V30 11286 H 1061.14 -0.768534 -3.58454 0
M  V30 11287 H 1060.78 1.36489 -4.84128 0
M  V30 11288 H 1060.48 -0.0540885 -5.87575 0
M  V30 11289 H 1062.01 0.862901 -6.04472 0
M  V30 11290 H 1063.42 -1.35832 -5.56976 0
M  V30 11291 H 1061.82 -2.14881 -5.60309 0
M  V30 11292 H 1062.89 -2.40181 -4.21237 0
M  V30 11293 N 1064.23 1.43628 -0.648757 0
M  V30 11294 C 1065.64 1.85142 -0.24066 0
M  V30 11295 C 1065.99 1.54304 1.21181 0
M  V30 11296 O 1065.12 0.989792 1.92437 0
M  V30 11297 C 1065.71 3.3606 -0.429999 0
M  V30 11298 C 1064.27 3.76323 -0.0762588 0
M  V30 11299 C 1063.42 2.67382 -0.734999 0
M  V30 11300 H 1066.37 1.33844 -0.852734 0
M  V30 11301 H 1066.39 3.79102 0.325836 0
M  V30 11302 H 1065.9 3.58474 -1.48721 0
M  V30 11303 H 1064.01 3.59521 0.978529 0
M  V30 11304 H 1064.12 4.76498 -0.498612 0
M  V30 11305 H 1062.48 2.54141 -0.168644 0
M  V30 11306 H 1063.27 2.92625 -1.79515 0
M  V30 11307 N 1065.71 0.390394 1.52688 0
M  V30 11308 C 1066.67 -0.432149 2.25089 0
M  V30 11309 C 1067.67 -0.989296 1.26766 0
M  V30 11310 O 1068.86 -0.871126 1.50854 0
M  V30 11311 C 1066 -1.60642 3.00678 0
M  V30 11312 H 1067.19 0.201734 2.99221 0
M  V30 11313 H 1064.74 0.142531 1.55649 0
M  V30 11314 H 1065.48 -2.2777 2.3085 0
M  V30 11315 H 1065.26 -1.21361 3.72846 0
M  V30 11316 H 1066.75 -2.18873 3.55647 0
M  V30 11317 N 1067.19 -1.57141 0.120249 0
M  V30 11318 C 1068.6 -1.5784 -0.236335 0
M  V30 11319 C 1068.8 -1.13304 -1.66626 0
M  V30 11320 O 1067.86 -0.821004 -2.3878 0
M  V30 11321 C 1069.17 -3.007 -0.00188211 0
M  V30 11322 C 1070.72 -3.12927 -0.0676838 0
M  V30 11323 C 1071.2 -4.57789 0.139092 0
M  V30 11324 N 1072.69 -4.63122 0.085104 0
M  V30 11325 C 1073.42 -5.72978 0.219983 0
M  V30 11326 N 1072.92 -6.91579 0.411102 0
M  V30 11327 N 1074.71 -5.61874 0.159469 0
M  V30 11328 H 1066.86 -1.84391 1.05422 0
M  V30 11329 H 1069.13 -0.852228 0.415225 0
M  V30 11330 H 1068.83 -3.37575 0.986718 0
M  V30 11331 H 1068.71 -3.70005 -0.733203 0
M  V30 11332 H 1071.09 -2.75909 -1.04681 0
M  V30 11333 H 1071.17 -2.46162 0.695538 0
M  V30 11334 H 1070.82 -4.95506 1.1152 0
M  V30 11335 H 1070.75 -5.22646 -0.644131 0
M  V30 11336 H 1073.24 -3.77854 -0.0590479 0
M  V30 11337 H 1073.55 -7.71149 0.504851 0
M  V30 11338 H 1071.9 -6.9356 0.447091 0
M  V30 11339 H 1075.09 -4.68099 0.0111131 0
M  V30 11340 H 1075.26 -6.47445 0.268028 0
M  V30 11341 N 1068.67 0.153526 -1.5685 0
M  V30 11342 C 1070.08 0.714247 -1.72498 0
M  V30 11343 C 1070.43 1.81968 -0.733621 0
M  V30 11344 O 1069.55 2.16163 0.10118 0
M  V30 11345 C 1070.15 1.30238 -3.12767 0
M  V30 11346 C 1068.71 1.80974 -3.30038 0
M  V30 11347 C 1067.85 0.695638 -2.68433 0
M  V30 11348 H 1070.81 -0.0720733 -1.58536 0
M  V30 11349 H 1070.83 2.17217 -3.12405 0
M  V30 11350 H 1070.34 0.497605 -3.84897 0
M  V30 11351 H 1068.44 2.64039 -2.62895 0
M  V30 11352 H 1068.55 1.94294 -4.37934 0
M  V30 11353 H 1066.92 1.12061 -2.28723 0
M  V30 11354 H 1067.7 -0.0975885 -3.43161 0
M  V30 11355 N 1070.14 1.51827 0.422667 0
M  V30 11356 C 1071.07 1.77152 1.52117 0
M  V30 11357 C 1072.06 0.621895 1.58324 0
M  V30 11358 O 1073.24 0.866118 1.73816 0
M  V30 11359 C 1070.37 1.90991 2.90068 0
M  V30 11360 C 1069.32 3.06516 2.98717 0
M  V30 11361 C 1068.65 3.05559 4.38791 0
M  V30 11362 C 1069.95 4.46223 2.71445 0
M  V30 11363 H 1071.64 2.69135 1.31175 0
M  V30 11364 H 1069.19 1.29507 0.629607 0
M  V30 11365 H 1071.14 2.07291 3.6689 0
M  V30 11366 H 1069.87 0.956688 3.12274 0
M  V30 11367 H 1068.53 2.89945 2.24338 0
M  V30 11368 H 1068.17 2.07985 4.57986 0
M  V30 11369 H 1067.87 3.83144 4.45505 0
M  V30 11370 H 1069.4 3.23971 5.17566 0
M  V30 11371 H 1070.81 4.63069 3.37994 0
M  V30 11372 H 1069.21 5.25623 2.89552 0
M  V30 11373 H 1070.28 4.5525 1.6696 0
M  V30 11374 N 1071.62 -0.679052 1.4222 0
M  V30 11375 C 1072.9 -1.43473 1.32947 0
M  V30 11376 C 1073.28 -2.11071 -0.0351689 0
M  V30 11377 O 1072.63 -2.02925 -1.05042 0
M  V30 11378 C 1072.84 -2.44065 2.49466 0
M  V30 11379 C 1074.19 -3.08834 2.91387 0
M  V30 11380 O 1075.21 -2.54392 2.49325 0
M  V30 11381 O 1074.07 -4.07478 3.64175 0
M  V30 11382 H 1071.16 -0.639743 0.524078 0
M  V30 11383 H 1073.71 -0.708134 1.54219 0
M  V30 11384 H 1072.48 -1.92884 3.40457 0
M  V30 11385 H 1072.1 -3.24212 2.30158 0
M  V30 11386 N 1073.1 -1.28322 -0.914942 0
M  V30 11387 C 1074.05 -1.08788 -2.00373 0
M  V30 11388 C 1075.03 -0.0118996 -1.60896 0
M  V30 11389 O 1076.23 -0.231902 -1.75474 0
M  V30 11390 C 1073.36 -0.750508 -3.34996 0
M  V30 11391 C 1072.44 -1.86527 -3.80879 0
M  V30 11392 N 1072.83 -3.10672 -3.99145 0
M  V30 11393 C 1071.13 -1.75485 -4.10026 0
M  V30 11394 C 1071.83 -3.833 -4.37557 0
M  V30 11395 N 1070.81 -3.11141 -4.45749 0
M  V30 11396 H 1074.61 -2.02984 -2.12544 0
M  V30 11397 H 1072.12 -1.19224 -1.1027 0
M  V30 11398 H 1074.12 -0.591644 -4.1268 0
M  V30 11399 H 1072.78 0.183696 -3.2418 0
M  V30 11400 H 1073.79 -3.46295 -3.85097 0
M  V30 11401 H 1070.47 -0.89234 -4.07852 0
M  V30 11402 H 1071.86 -4.90061 -4.59662 0
M  V30 11403 N 1074.58 1.12322 -1.10551 0
M  V30 11404 C 1075.51 2.17819 -0.713263 0
M  V30 11405 C 1076.52 1.6086 0.250604 0
M  V30 11406 O 1077.71 1.78466 0.0348909 0
M  V30 11407 C 1074.81 3.38885 -0.0320325 0
M  V30 11408 C 1073.99 4.25332 -1.02038 0
M  V30 11409 C 1073.04 5.24895 -0.370412 0
M  V30 11410 O 1072.07 5.59958 -1.02157 0
M  V30 11411 N 1073.27 5.73934 0.870633 0
M  V30 11412 H 1076.04 2.52083 -1.62094 0
M  V30 11413 H 1073.6 1.27755 -0.994492 0
M  V30 11414 H 1075.59 4.02574 0.414285 0
M  V30 11415 H 1074.16 3.02762 0.778072 0
M  V30 11416 H 1073.38 3.5824 -1.64492 0
M  V30 11417 H 1074.67 4.79936 -1.68936 0
M  V30 11418 H 1074.07 5.47614 1.419 0
M  V30 11419 H 1072.62 6.39504 1.26008 0
M  V30 11420 N 1076.06 0.894434 1.2976 0
M  V30 11421 C 1077.3 0.527831 1.96432 0
M  V30 11422 C 1077.66 -0.914793 1.69261 0
M  V30 11423 O 1076.95 -1.63911 0.99215 0
M  V30 11424 C 1077.14 0.750307 3.49435 0
M  V30 11425 C 1076.97 2.213 3.91479 0
M  V30 11426 C 1075.74 2.85943 4.16611 0
M  V30 11427 C 1077.94 3.18771 4.03595 0
M  V30 11428 N 1075.92 4.2271 4.45185 0
M  V30 11429 C 1077.29 4.40641 4.3616 0
M  V30 11430 C 1079.35 3.14432 3.86053 0
M  V30 11431 C 1078.05 5.58725 4.53011 0
M  V30 11432 C 1080.08 4.31797 4.0411 0
M  V30 11433 C 1079.44 5.52435 4.37029 0
M  V30 11434 H 1075.54 0.242654 0.7434 0
M  V30 11435 H 1078.12 1.15415 1.56804 0
M  V30 11436 H 1076.29 0.153411 3.88097 0
M  V30 11437 H 1078.03 0.349663 4.03187 0
M  V30 11438 H 1074.78 2.36763 4.10171 0
M  V30 11439 H 1075.21 4.9337 4.63589 0
M  V30 11440 H 1079.85 2.22255 3.5967 0
M  V30 11441 H 1077.57 6.51398 4.78232 0
M  V30 11442 H 1081.15 4.2992 3.91995 0
M  V30 11443 H 1080.03 6.41738 4.50712 0
M  V30 11444 N 1077.53 -1.43282 0.656365 0
M  V30 11445 C 1078.48 -2.30776 -0.0333155 0
M  V30 11446 C 1079.45 -1.44928 -0.811493 0
M  V30 11447 O 1080.64 -1.73792 -0.787465 0
M  V30 11448 C 1077.78 -3.30548 -0.991566 0
M  V30 11449 C 1076.89 -4.31493 -0.209159 0
M  V30 11450 C 1076.02 -5.18346 -1.16149 0
M  V30 11451 C 1075.06 -6.10983 -0.369699 0
M  V30 11452 N 1074.2 -6.90449 -1.27378 0
M  V30 11453 H 1079.04 -2.89204 0.718668 0
M  V30 11454 H 1076.58 -1.4247 0.366161 0
M  V30 11455 H 1078.54 -3.86905 -1.56078 0
M  V30 11456 H 1077.17 -2.73762 -1.71039 0
M  V30 11457 H 1076.22 -3.77405 0.476394 0
M  V30 11458 H 1077.53 -4.97142 0.406394 0
M  V30 11459 H 1076.68 -5.79345 -1.80124 0
M  V30 11460 H 1075.42 -4.52831 -1.81095 0
M  V30 11461 H 1074.43 -5.49069 0.283377 0
M  V30 11462 H 1075.65 -6.78541 0.275399 0
M  V30 11463 H 1073.6 -6.27579 -1.90999 0
M  V30 11464 H 1073.52 -7.52631 -0.71287 0
M  V30 11465 H 1074.78 -7.5595 -1.90158 0
M  V30 11466 N 1079.01 -0.398486 -1.52479 0
M  V30 11467 C 1079.98 0.420206 -2.25315 0
M  V30 11468 C 1080.98 0.982559 -1.27289 0
M  V30 11469 O 1082.17 0.863113 -1.51314 0
M  V30 11470 C 1079.3 1.59045 -3.01525 0
M  V30 11471 H 1080.49 -0.217599 -2.9911 0
M  V30 11472 H 1078.04 -0.150784 -1.55571 0
M  V30 11473 H 1078.78 2.26542 -2.32054 0
M  V30 11474 H 1078.56 1.19382 -3.73484 0
M  V30 11475 H 1080.05 2.16984 -3.56802 0
M  V30 11476 N 1080.49 1.57075 -0.12858 0
M  V30 11477 C 1081.91 1.57964 0.227961 0
M  V30 11478 C 1082.11 1.14186 1.66023 0
M  V30 11479 O 1081.16 0.833655 2.38341 0
M  V30 11480 C 1082.48 3.00697 -0.0140648 0
M  V30 11481 C 1084.02 3.12958 0.0510876 0
M  V30 11482 C 1084.5 4.57709 -0.163368 0
M  V30 11483 N 1085.99 4.6307 -0.109663 0
M  V30 11484 C 1086.73 5.72853 -0.250366 0
M  V30 11485 N 1086.22 6.91351 -0.447772 0
M  V30 11486 N 1088.01 5.61781 -0.189265 0
M  V30 11487 H 1080.17 1.83829 -1.06398 0
M  V30 11488 H 1082.43 0.850014 -0.419739 0
M  V30 11489 H 1082.13 3.37047 -1.00461 0
M  V30 11490 H 1082.01 3.70389 0.713571 0
M  V30 11491 H 1084.4 2.7646 1.03216 0
M  V30 11492 H 1084.48 2.4579 -0.708583 0
M  V30 11493 H 1084.12 4.94907 -1.14146 0
M  V30 11494 H 1084.05 5.2298 0.616405 0
M  V30 11495 H 1086.54 3.7788 0.0390086 0
M  V30 11496 H 1086.85 7.70871 -0.54574 0
M  V30 11497 H 1085.2 6.93314 -0.483866 0
M  V30 11498 H 1088.39 4.68086 -0.0359374 0
M  V30 11499 H 1088.56 6.47294 -0.302359 0
M  V30 11500 N 1081.97 -0.145205 1.5693 0
M  V30 11501 C 1083.39 -0.497905 1.51635 0
M  V30 11502 C 1083.59 -1.8328 0.837301 0
M  V30 11503 O 1082.64 -2.49172 0.408584 0
M  V30 11504 C 1083.95 -0.506557 2.96403 0
M  V30 11505 C 1085.5 -0.591947 3.07352 0
M  V30 11506 C 1085.98 -0.631244 4.53629 0
M  V30 11507 N 1087.47 -0.693417 4.5798 0
M  V30 11508 C 1088.2 -0.744836 5.68542 0
M  V30 11509 N 1087.7 -0.755492 6.88668 0
M  V30 11510 N 1089.49 -0.785854 5.5658 0
M  V30 11511 H 1081.64 0.729779 1.99469 0
M  V30 11512 H 1083.91 0.266295 0.90983 0
M  V30 11513 H 1083.61 0.406127 3.49347 0
M  V30 11514 H 1083.49 -1.34383 3.5245 0
M  V30 11515 H 1085.87 -1.49505 2.54425 0
M  V30 11516 H 1085.95 0.272507 2.54344 0
M  V30 11517 H 1085.6 0.26771 5.07194 0
M  V30 11518 H 1085.53 -1.51221 5.0442 0
M  V30 11519 H 1088.02 -0.692408 3.71503 0
M  V30 11520 H 1088.33 -0.796624 7.68683 0
M  V30 11521 H 1086.68 -0.723339 6.91226 0
M  V30 11522 H 1089.87 -0.774712 4.61645 0
M  V30 11523 H 1090.04 -0.822461 6.42759 0
M  V30 11524 N 1083.45 -1.52049 -0.414609 0
M  V30 11525 C 1084.38 -1.77956 -1.51175 0
M  V30 11526 C 1085.36 -0.630282 -1.57992 0
M  V30 11527 O 1086.54 -0.875324 -1.73354 0
M  V30 11528 C 1083.67 -1.92527 -2.89051 0
M  V30 11529 C 1082.63 -3.08096 -2.97087 0
M  V30 11530 C 1081.95 -3.07882 -4.37164 0
M  V30 11531 C 1083.25 -4.47656 -2.69075 0
M  V30 11532 H 1084.95 -2.69827 -1.29746 0
M  V30 11533 H 1082.49 -1.29839 -0.62273 0
M  V30 11534 H 1084.45 -2.09234 -3.65786 0
M  V30 11535 H 1083.17 -0.973235 -3.11762 0
M  V30 11536 H 1081.83 -2.91131 -2.22797 0
M  V30 11537 H 1081.48 -2.10411 -4.56877 0
M  V30 11538 H 1081.18 -3.85501 -4.43467 0
M  V30 11539 H 1082.7 -3.26712 -5.15841 0
M  V30 11540 H 1084.12 -4.64855 -3.35534 0
M  V30 11541 H 1082.51 -5.27151 -2.8676 0
M  V30 11542 H 1083.58 -4.56129 -1.64544 0
M  V30 11543 N 1084.93 0.6715 -1.42579 0
M  V30 11544 C 1085.86 1.79703 -1.42266 0
M  V30 11545 C 1086.87 1.59599 -0.321268 0
M  V30 11546 O 1088.06 1.68657 -0.584564 0
M  V30 11547 C 1085.16 3.16859 -1.20224 0
M  V30 11548 C 1084.33 3.63783 -2.42859 0
M  V30 11549 C 1083.39 4.79683 -2.16312 0
M  V30 11550 O 1082.42 4.90058 -2.89537 0
M  V30 11551 N 1083.62 5.68622 -1.16831 0
M  V30 11552 H 1086.38 1.80455 -2.39282 0
M  V30 11553 H 1083.95 0.854708 -1.375 0
M  V30 11554 H 1085.94 3.92054 -1.00376 0
M  V30 11555 H 1084.51 3.10987 -0.317188 0
M  V30 11556 H 1083.73 2.7923 -2.78252 0
M  V30 11557 H 1085.02 3.91877 -3.24514 0
M  V30 11558 H 1084.41 5.62894 -0.562746 0
M  V30 11559 H 1082.97 6.43615 -1.0297 0
M  V30 11560 N 1086.4 1.28806 0.908124 0
M  V30 11561 C 1087.35 1.13215 2.01125 0
M  V30 11562 C 1088.32 0.0277357 1.66077 0
M  V30 11563 O 1089.51 0.193707 1.89814 0
M  V30 11564 C 1086.65 0.805887 3.35558 0
M  V30 11565 C 1085.76 1.9899 3.83441 0
M  V30 11566 C 1084.89 1.60376 5.06412 0
M  V30 11567 C 1083.93 2.75409 5.46641 0
M  V30 11568 N 1083.07 2.37249 6.60801 0
M  V30 11569 H 1087.91 2.07598 2.13792 0
M  V30 11570 H 1085.45 1.03316 1.0471 0
M  V30 11571 H 1087.4 0.597451 4.129 0
M  V30 11572 H 1086.03 -0.101023 3.22642 0
M  V30 11573 H 1085.09 2.31029 3.02208 0
M  V30 11574 H 1086.4 2.85214 4.09212 0
M  V30 11575 H 1085.55 1.35772 5.91313 0
M  V30 11576 H 1084.29 0.712888 4.82462 0
M  V30 11577 H 1083.3 3.00705 4.60279 0
M  V30 11578 H 1084.52 3.65148 5.72577 0
M  V30 11579 H 1082.47 1.50638 6.3847 0
M  V30 11580 H 1082.38 3.17008 6.86325 0
M  V30 11581 H 1083.65 2.15943 7.48992 0
M  V30 11582 N 1087.88 -1.11734 1.11145 0
M  V30 11583 C 1088.81 -2.16847 0.710809 0
M  V30 11584 C 1089.79 -1.59966 -0.291494 0
M  V30 11585 O 1090.98 -1.87554 -0.188645 0
M  V30 11586 C 1088.1 -3.38663 0.0499744 0
M  V30 11587 C 1087.15 -4.14199 1.01693 0
M  V30 11588 S 1087.98 -4.7154 2.53793 0
M  V30 11589 C 1089.14 -5.96682 1.89001 0
M  V30 11590 H 1089.37 -2.50497 1.60121 0
M  V30 11591 H 1086.9 -1.23311 0.929182 0
M  V30 11592 H 1088.86 -4.09212 -0.324959 0
M  V30 11593 H 1087.52 -3.03279 -0.817335 0
M  V30 11594 H 1086.72 -5.01494 0.501933 0
M  V30 11595 H 1086.32 -3.49395 1.33414 0
M  V30 11596 H 1088.61 -6.6634 1.22462 0
M  V30 11597 H 1089.55 -6.52821 2.74282 0
M  V30 11598 H 1089.96 -5.48084 1.35145 0
M  V30 11599 N 1089.36 -0.901303 -1.29284 0
M  V30 11600 C 1090.27 -0.3849 -2.31421 0
M  V30 11601 C 1091.29 0.521163 -1.66012 0
M  V30 11602 O 1092.46 0.410356 -1.97175 0
M  V30 11603 C 1089.53 0.377804 -3.44635 0
M  V30 11604 C 1088.59 -0.559974 -4.25632 0
M  V30 11605 C 1087.82 0.166425 -5.3344 0
M  V30 11606 O 1088.04 1.39012 -5.53202 0
M  V30 11607 O 1086.98 -0.491875 -5.99887 0
M  V30 11608 H 1090.8 -1.2323 -2.77575 0
M  V30 11609 H 1088.39 -0.665683 -1.3375 0
M  V30 11610 H 1090.27 0.809041 -4.13561 0
M  V30 11611 H 1088.95 1.20124 -3.00586 0
M  V30 11612 H 1087.85 -1.04036 -3.59343 0
M  V30 11613 H 1089.19 -1.34987 -4.73328 0
M  V30 11614 N 1090.84 1.42931 -0.663954 0
M  V30 11615 C 1091.8 2.29197 0.0117626 0
M  V30 11616 C 1092.8 1.42767 0.739875 0
M  V30 11617 O 1093.99 1.64278 0.579509 0
M  V30 11618 C 1091.12 3.2505 1.02738 0
M  V30 11619 H 1092.32 2.90438 -0.747391 0
M  V30 11620 H 1089.87 1.5039 -0.425733 0
M  V30 11621 H 1090.6 2.68726 1.8154 0
M  V30 11622 H 1090.39 3.88785 0.508809 0
M  V30 11623 H 1091.88 3.89771 1.49893 0
M  V30 11624 N 1092.32 0.406567 1.52266 0
M  V30 11625 C 1093.54 -0.172101 2.06685 0
M  V30 11626 C 1093.97 -1.38306 1.27488 0
M  V30 11627 O 1093.32 -1.78726 0.304441 0
M  V30 11628 C 1093.37 -0.503463 3.57068 0
M  V30 11629 O 1092.48 -1.59485 3.80314 0
M  V30 11630 H 1091.82 -0.0153209 0.663823 0
M  V30 11631 H 1094.35 0.579025 1.96236 0
M  V30 11632 H 1094.36 -0.762833 4.00805 0
M  V30 11633 H 1093.03 0.381775 4.14144 0
M  V30 11634 H 1091.61 -1.32784 3.48458 0
M  V30 11635 N 1093.79 -1.57004 0.136909 0
M  V30 11636 C 1094.76 -2.15066 -0.792419 0
M  V30 11637 C 1095.76 -1.08991 -1.18226 0
M  V30 11638 O 1096.95 -1.34681 -1.10484 0
M  V30 11639 C 1094.08 -2.70554 -2.07397 0
M  V30 11640 H 1095.27 -2.98519 -0.28752 0
M  V30 11641 H 1092.83 -1.55895 -0.112469 0
M  V30 11642 H 1093.56 -1.90739 -2.62277 0
M  V30 11643 H 1093.35 -3.48149 -1.80374 0
M  V30 11644 H 1094.84 -3.15322 -2.73792 0
M  V30 11645 N 1095.27 0.136881 -1.57004 0
M  V30 11646 C 1096.69 0.489856 -1.51897 0
M  V30 11647 C 1096.89 1.82833 -0.847009 0
M  V30 11648 O 1095.94 2.48952 -0.421792 0
M  V30 11649 C 1097.26 0.490831 -2.96667 0
M  V30 11650 C 1098.81 0.575639 -3.07661 0
M  V30 11651 C 1099.28 0.607178 -4.53957 0
M  V30 11652 N 1100.77 0.66912 -4.58342 0
M  V30 11653 C 1101.51 0.714675 -5.68929 0
M  V30 11654 N 1101 0.718959 -6.89059 0
M  V30 11655 N 1102.8 0.756326 -5.56988 0
M  V30 11656 H 1094.95 -0.740347 -1.99079 0
M  V30 11657 H 1097.21 -0.271116 -0.908405 0
M  V30 11658 H 1096.92 -0.424648 -3.49127 0
M  V30 11659 H 1096.79 1.32512 -3.53158 0
M  V30 11660 H 1099.18 1.48154 -2.55215 0
M  V30 11661 H 1099.26 -0.285991 -2.54196 0
M  V30 11662 H 1098.9 -0.294604 -5.07045 0
M  V30 11663 H 1098.83 1.48544 -5.05215 0
M  V30 11664 H 1101.32 0.672697 -3.71864 0
M  V30 11665 H 1101.64 0.755848 -7.69095 0
M  V30 11666 H 1099.98 0.686671 -6.91599 0
M  V30 11667 H 1103.17 0.750219 -4.62049 0
M  V30 11668 H 1103.34 0.788363 -6.43186 0
M  V30 11669 N 1096.75 1.52266 0.40654 0
M  V30 11670 C 1097.68 1.78755 1.50229 0
M  V30 11671 C 1098.66 0.638652 1.57655 0
M  V30 11672 O 1099.85 0.884505 1.72888 0
M  V30 11673 C 1096.98 1.94057 2.88026 0
M  V30 11674 C 1095.93 3.09667 2.95449 0
M  V30 11675 C 1095.26 3.10196 4.35526 0
M  V30 11676 C 1096.56 4.49077 2.66697 0
M  V30 11677 H 1098.25 2.70511 1.28313 0
M  V30 11678 H 1095.8 1.30167 0.615836 0
M  V30 11679 H 1097.75 2.11171 3.64671 0
M  V30 11680 H 1096.47 0.989755 3.11242 0
M  V30 11681 H 1095.13 2.92308 2.2125 0
M  V30 11682 H 1094.78 2.12831 4.55754 0
M  V30 11683 H 1094.48 3.87847 4.41416 0
M  V30 11684 H 1096 3.29443 5.14101 0
M  V30 11685 H 1097.42 4.66628 3.33064 0
M  V30 11686 H 1095.82 5.28665 2.8396 0
M  V30 11687 H 1096.89 4.56995 1.62122 0
M  V30 11688 N 1098.23 -0.663929 1.42933 0
M  V30 11689 C 1099.14 -1.80643 1.49683 0
M  V30 11690 C 1100.15 -1.69694 0.38472 0
M  V30 11691 O 1101.33 -1.91052 0.637256 0
M  V30 11692 C 1098.4 -3.16858 1.4072 0
M  V30 11693 C 1097.46 -3.39684 2.62514 0
M  V30 11694 C 1096.69 -4.69399 2.53969 0
M  V30 11695 O 1096.91 -5.48037 1.58152 0
M  V30 11696 O 1095.85 -4.93709 3.44289 0
M  V30 11697 H 1099.67 -1.77903 2.46138 0
M  V30 11698 H 1097.26 -0.821059 1.24816 0
M  V30 11699 H 1099.14 -3.9812 1.38124 0
M  V30 11700 H 1097.81 -3.20211 0.473954 0
M  V30 11701 H 1096.72 -2.58227 2.70684 0
M  V30 11702 H 1098.05 -3.41169 3.54774 0
M  V30 11703 N 1099.71 -1.29285 -0.901281 0
M  V30 11704 C 1100.64 -1.16832 -2.0217 0
M  V30 11705 C 1101.62 -0.0629265 -1.69984 0
M  V30 11706 O 1102.8 -0.242123 -1.92685 0
M  V30 11707 C 1099.93 -0.842406 -3.36929 0
M  V30 11708 C 1098.89 -1.90394 -3.8332 0
M  V30 11709 C 1098.21 -1.43138 -5.15185 0
M  V30 11710 C 1099.51 -3.31254 -4.03817 0
M  V30 11711 H 1101.21 -2.10562 -2.12847 0
M  V30 11712 H 1098.75 -1.01375 -1.0227 0
M  V30 11713 H 1100.71 -0.741999 -4.14816 0
M  V30 11714 H 1099.43 0.130598 -3.26339 0
M  V30 11715 H 1098.09 -1.99371 -3.07647 0
M  V30 11716 H 1097.74 -0.447091 -5.01009 0
M  V30 11717 H 1097.44 -2.14129 -5.47195 0
M  V30 11718 H 1098.96 -1.34444 -5.95615 0
M  V30 11719 H 1100.37 -3.25129 -4.72191 0
M  V30 11720 H 1098.77 -4.00189 -4.47178 0
M  V30 11721 H 1099.84 -3.74349 -3.08206 0
M  V30 11722 N 1101.18 1.11143 -1.11736 0
M  V30 11723 C 1102.12 2.1705 -0.736325 0
M  V30 11724 C 1103.13 1.61116 0.233528 0
M  V30 11725 O 1104.32 1.78493 0.0159602 0
M  V30 11726 C 1101.42 3.38832 -0.067974 0
M  V30 11727 C 1100.59 4.24226 -1.06543 0
M  V30 11728 C 1099.65 5.24472 -0.426063 0
M  V30 11729 O 1098.68 5.58843 -1.0809 0
M  V30 11730 N 1099.88 5.74825 0.809711 0
M  V30 11731 H 1102.64 2.50349 -1.64758 0
M  V30 11732 H 1100.2 1.26693 -1.00799 0
M  V30 11733 H 1102.2 4.02991 0.371563 0
M  V30 11734 H 1100.77 3.0357 0.745917 0
M  V30 11735 H 1099.99 3.56475 -1.68283 0
M  V30 11736 H 1101.27 4.78117 -1.74016 0
M  V30 11737 H 1100.67 5.49088 1.36084 0
M  V30 11738 H 1099.23 6.40804 1.19218 0
M  V30 11739 N 1102.66 0.908147 1.28804 0
M  V30 11740 C 1103.89 0.553431 1.9988 0
M  V30 11741 C 1104.31 -0.856714 1.67458 0
M  V30 11742 O 1103.67 -1.57163 0.903849 0
M  V30 11743 C 1103.72 0.762688 3.52442 0
M  V30 11744 O 1102.82 -0.180924 4.12003 0
M  V30 11745 H 1102.16 0.215237 0.628147 0
M  V30 11746 H 1104.69 1.22205 1.64095 0
M  V30 11747 H 1104.7 0.670612 4.02451 0
M  V30 11748 H 1103.38 1.79071 3.75375 0
M  V30 11749 H 1101.96 -0.0405897 3.72878 0
M  V30 11750 N 1104.14 -1.42577 0.671525 0
M  V30 11751 C 1105.1 -2.292 0.000392482 0
M  V30 11752 C 1106.1 -1.43158 -0.732294 0
M  V30 11753 O 1107.29 -1.64583 -0.570789 0
M  V30 11754 C 1104.43 -3.25591 -1.01013 0
M  V30 11755 H 1105.62 -2.90037 0.762783 0
M  V30 11756 H 1103.17 -1.50162 0.433703 0
M  V30 11757 H 1103.91 -2.69685 -1.80112 0
M  V30 11758 H 1103.69 -3.89049 -0.488183 0
M  V30 11759 H 1105.18 -3.90561 -1.47824 0
M  V30 11760 N 1105.62 -0.414636 -1.52048 0
M  V30 11761 C 1106.55 0.399119 -2.30064 0
M  V30 11762 C 1107.53 1.04126 -1.34506 0
M  V30 11763 O 1108.71 1.04923 -1.63416 0
M  V30 11764 C 1105.84 1.51305 -3.12608 0
M  V30 11765 C 1104.8 0.995621 -4.16259 0
M  V30 11766 C 1104.12 2.20357 -4.87183 0
M  V30 11767 C 1105.42 0.0458178 -5.2228 0
M  V30 11768 H 1107.12 -0.251879 -2.98339 0
M  V30 11769 H 1104.66 -0.122579 -1.43477 0
M  V30 11770 H 1106.62 2.08936 -3.65956 0
M  V30 11771 H 1105.34 2.19201 -2.42113 0
M  V30 11772 H 1104 0.441676 -3.6393 0
M  V30 11773 H 1103.65 2.8682 -4.13211 0
M  V30 11774 H 1103.35 1.86385 -5.57256 0
M  V30 11775 H 1104.87 2.78584 -5.43345 0
M  V30 11776 H 1106.29 0.531102 -5.70835 0
M  V30 11777 H 1104.68 -0.20536 -5.99749 0
M  V30 11778 H 1105.75 -0.897807 -4.76516 0
M  V30 11779 N 1107.1 1.56929 -0.145233 0
M  V30 11780 C 1108.01 2.20238 0.808219 0
M  V30 11781 C 1109.02 1.18615 1.27304 0
M  V30 11782 O 1110.2 1.51186 1.3306 0
M  V30 11783 C 1107.26 2.81016 2.03055 0
M  V30 11784 C 1106.32 3.97759 1.61512 0
M  V30 11785 C 1105.56 4.55628 2.77918 0
M  V30 11786 O 1105.78 4.12378 3.94082 0
M  V30 11787 O 1104.71 5.45917 2.53492 0
M  V30 11788 H 1108.54 3.02221 0.299314 0
M  V30 11789 H 1106.13 1.49176 0.0817051 0
M  V30 11790 H 1108.01 3.19652 2.74592 0
M  V30 11791 H 1106.68 2.02047 2.52901 0
M  V30 11792 H 1105.59 3.63842 0.870033 0
M  V30 11793 H 1106.92 4.78242 1.16383 0
M  V30 11794 N 1108.58 -0.128553 1.57075 0
M  V30 11795 C 1109.54 -1.14215 1.98715 0
M  V30 11796 C 1110.54 -1.34843 0.876019 0
M  V30 11797 O 1111.73 -1.31522 1.14227 0
M  V30 11798 C 1108.86 -2.49865 2.31905 0
M  V30 11799 H 1110.05 -0.784481 2.89458 0
M  V30 11800 H 1107.61 -0.372531 1.51796 0
M  V30 11801 H 1108.34 -2.9057 1.44012 0
M  V30 11802 H 1108.13 -2.3625 3.12935 0
M  V30 11803 H 1109.62 -3.22832 2.64895 0
M  V30 11804 N 1110.05 -1.5248 -0.398459 0
M  V30 11805 C 1110.96 -1.79492 -1.51062 0
M  V30 11806 C 1111.98 -0.681101 -1.60116 0
M  V30 11807 O 1113.16 -0.967671 -1.7663 0
M  V30 11808 C 1110.22 -1.94958 -2.86692 0
M  V30 11809 C 1109.28 -3.1887 -2.87438 0
M  V30 11810 C 1108.51 -3.33588 -4.16599 0
M  V30 11811 O 1108.74 -2.53327 -5.11059 0
M  V30 11812 O 1107.67 -4.26795 -4.24416 0
M  V30 11813 H 1111.5 -2.73913 -1.31169 0
M  V30 11814 H 1109.08 -1.37455 -0.585372 0
M  V30 11815 H 1110.96 -2.06891 -3.67116 0
M  V30 11816 H 1109.64 -1.03726 -3.06631 0
M  V30 11817 H 1108.55 -3.12386 -2.0583 0
M  V30 11818 H 1109.88 -4.09917 -2.7245 0
M  V30 11819 N 1111.53 0.65634 -1.43283 0
M  V30 11820 C 1112.78 1.41212 -1.44021 0
M  V30 11821 C 1113.09 1.95485 -0.0669783 0
M  V30 11822 O 1114.3 2.71457 0.0481909 0
M  V30 11823 C 1112.76 2.55541 -2.5343 0
M  V30 11824 C 1112.36 2.07889 -3.96845 0
M  V30 11825 C 1114.11 3.3293 -2.63359 0
M  V30 11826 C 1112.01 3.19411 -4.97726 0
M  V30 11827 H 1110.94 0.530566 -0.535739 0
M  V30 11828 H 1113.6 0.708743 -1.6926 0
M  V30 11829 H 1111.98 3.28335 -2.21387 0
M  V30 11830 H 1113.15 1.42127 -4.38334 0
M  V30 11831 H 1111.47 1.43388 -3.90933 0
M  V30 11832 H 1114.06 4.1602 -3.35903 0
M  V30 11833 H 1114.41 3.80753 -1.68324 0
M  V30 11834 H 1114.94 2.67216 -2.94687 0
M  V30 11835 H 1111.68 2.7656 -5.94302 0
M  V30 11836 H 1111.2 3.83895 -4.60853 0
M  V30 11837 H 1112.88 3.84591 -5.20287 0
M  V30 11838 N 1113.01 1.29761 0.894412 0
M  V30 11839 C 1114.43 1.07888 1.17611 0
M  V30 11840 C 1114.63 -0.16644 2.00811 0
M  V30 11841 O 1113.68 -0.86272 2.37304 0
M  V30 11842 C 1114.99 2.33723 1.89193 0
M  V30 11843 C 1116.54 2.39095 2.01997 0
M  V30 11844 C 1117.02 3.64747 2.7699 0
M  V30 11845 N 1118.51 3.65501 2.84541 0
M  V30 11846 C 1119.24 4.59411 3.43117 0
M  V30 11847 N 1118.74 5.63657 4.02818 0
M  V30 11848 N 1120.53 4.46971 3.40842 0
M  V30 11849 H 1112.68 2.0967 0.339421 0
M  V30 11850 H 1114.95 0.923788 0.212882 0
M  V30 11851 H 1114.65 3.24551 1.35496 0
M  V30 11852 H 1114.53 2.41642 2.89636 0
M  V30 11853 H 1116.91 1.48751 2.54867 0
M  V30 11854 H 1116.99 2.35158 1.0067 0
M  V30 11855 H 1116.64 4.55445 2.24794 0
M  V30 11856 H 1116.57 3.65944 3.78672 0
M  V30 11857 H 1119.06 2.90129 2.42144 0
M  V30 11858 H 1119.37 6.31429 4.45552 0
M  V30 11859 H 1117.72 5.67461 4.01265 0
M  V30 11860 H 1120.91 3.64719 2.93424 0
M  V30 11861 H 1121.08 5.20341 3.86198 0
M  V30 11862 N 1114.49 -1.10549 1.12324 0
M  V30 11863 C 1115.45 -2.15039 0.793156 0
M  V30 11864 C 1116.45 -1.59651 -0.19192 0
M  V30 11865 O 1117.64 -1.74167 0.0337262 0
M  V30 11866 C 1114.77 -3.40433 0.17842 0
M  V30 11867 H 1115.97 -2.4575 1.71892 0
M  V30 11868 H 1113.52 -1.25892 0.926333 0
M  V30 11869 H 1114.25 -3.15338 -0.757122 0
M  V30 11870 H 1114.04 -3.81921 0.887645 0
M  V30 11871 H 1115.53 -4.17584 -0.0360724 0
M  V30 11872 N 1115.97 -0.914965 -1.28321 0
M  V30 11873 C 1116.91 -0.402792 -2.27258 0
M  V30 11874 C 1117.88 0.523412 -1.57638 0
M  V30 11875 O 1119.07 0.445344 -1.8553 0
M  V30 11876 C 1116.21 0.349956 -3.43321 0
M  V30 11877 C 1115.32 -0.608892 -4.27687 0
M  V30 11878 C 1114.46 0.162425 -5.30952 0
M  V30 11879 C 1113.49 -0.789959 -6.06981 0
M  V30 11880 N 1112.63 -0.0520826 -7.02081 0
M  V30 11881 H 1117.47 -1.25153 -2.70446 0
M  V30 11882 H 1115.01 -0.628444 -1.33 0
M  V30 11883 H 1116.97 0.802589 -4.09407 0
M  V30 11884 H 1115.6 1.16303 -3.01121 0
M  V30 11885 H 1114.65 -1.18005 -3.61634 0
M  V30 11886 H 1115.96 -1.33727 -4.8054 0
M  V30 11887 H 1115.11 0.675563 -6.02927 0
M  V30 11888 H 1113.85 0.923851 -4.7887 0
M  V30 11889 H 1112.86 -1.31446 -5.33856 0
M  V30 11890 H 1114.08 -1.55096 -6.61152 0
M  V30 11891 H 1112.03 0.691331 -6.52347 0
M  V30 11892 H 1111.95 -0.720267 -7.52561 0
M  V30 11893 H 1113.21 0.44082 -7.78253 0
M  V30 11894 N 1117.44 1.42219 -0.679077 0
M  V30 11895 C 1118.38 2.29172 0.035583 0
M  V30 11896 C 1119.39 1.43909 0.761183 0
M  V30 11897 O 1120.58 1.67584 0.61463 0
M  V30 11898 C 1117.68 3.21426 1.07419 0
M  V30 11899 C 1116.85 4.35364 0.421547 0
M  V30 11900 C 1115.91 5.08307 1.36051 0
M  V30 11901 O 1114.94 5.62678 0.859186 0
M  V30 11902 N 1116.14 5.14222 2.69362 0
M  V30 11903 H 1118.9 2.91147 -0.710865 0
M  V30 11904 H 1116.46 1.53192 -0.523821 0
M  V30 11905 H 1118.46 3.67091 1.70371 0
M  V30 11906 H 1117.03 2.60873 1.72233 0
M  V30 11907 H 1116.25 3.9229 -0.387559 0
M  V30 11908 H 1117.53 5.08789 -0.0329421 0
M  V30 11909 H 1116.93 4.71467 3.12627 0
M  V30 11910 H 1115.49 5.63519 3.27551 0
M  V30 11911 N 1118.92 0.422693 1.51826 0
M  V30 11912 C 1120.17 -0.148348 2.01555 0
M  V30 11913 C 1120.49 -1.44483 1.30956 0
M  V30 11914 O 1119.76 -1.90904 0.439599 0
M  V30 11915 H 1118.34 -0.0578116 0.74476 0
M  V30 11916 H 1121 0.562046 1.8662 0
M  V30 11917 H 1120.1 -0.334766 3.10299 0
M  V30 11918 N 1120.4 -1.5685 0.153553 0
M  V30 11919 C 1121.33 -2.20101 -0.779601 0
M  V30 11920 C 1122.31 -1.15121 -1.25225 0
M  V30 11921 O 1123.5 -1.43487 -1.30862 0
M  V30 11922 C 1120.63 -2.82778 -2.01628 0
M  V30 11923 C 1119.58 -3.93643 -1.68015 0
M  V30 11924 C 1118.91 -4.43286 -2.99001 0
M  V30 11925 C 1120.21 -5.14102 -0.921774 0
M  V30 11926 H 1121.9 -2.98334 -0.252432 0
M  V30 11927 H 1119.45 -1.43499 -0.119975 0
M  V30 11928 H 1121.4 -3.25696 -2.67395 0
M  V30 11929 H 1120.12 -2.01887 -2.56728 0
M  V30 11930 H 1118.78 -3.51354 -1.04624 0
M  V30 11931 H 1118.43 -3.59208 -3.52106 0
M  V30 11932 H 1118.13 -5.18068 -2.77272 0
M  V30 11933 H 1119.65 -4.88878 -3.65828 0
M  V30 11934 H 1121.07 -5.53823 -1.48167 0
M  V30 11935 H 1119.46 -5.94687 -0.804185 0
M  V30 11936 H 1120.53 -4.84825 0.0852757 0
M  V30 11937 N 1121.88 0.120221 -1.57141 0
M  V30 11938 C 1122.81 1.1732 -1.96898 0
M  V30 11939 C 1123.82 1.37722 -0.868134 0
M  V30 11940 O 1125.01 1.36818 -1.14643 0
M  V30 11941 C 1122.11 2.53343 -2.25102 0
M  V30 11942 C 1121.28 2.53559 -3.56408 0
M  V30 11943 C 1120.34 3.71319 -3.72838 0
M  V30 11944 O 1119.37 3.54961 -4.44962 0
M  V30 11945 N 1120.57 4.89836 -3.11514 0
M  V30 11946 H 1123.34 0.835023 -2.87832 0
M  V30 11947 H 1120.9 0.309508 -1.58914 0
M  V30 11948 H 1122.89 3.30679 -2.3331 0
M  V30 11949 H 1121.46 2.79347 -1.403 0
M  V30 11950 H 1120.68 1.61946 -3.59398 0
M  V30 11951 H 1121.97 2.5076 -4.42716 0
M  V30 11952 H 1121.37 5.0603 -2.52884 0
M  V30 11953 H 1119.92 5.64853 -3.25246 0
M  V30 11954 N 1123.36 1.52689 0.390367 0
M  V30 11955 C 1124.27 1.8029 1.50108 0
M  V30 11956 C 1125.28 0.689582 1.59752 0
M  V30 11957 O 1126.46 0.977024 1.76114 0
M  V30 11958 C 1123.52 1.96475 2.85654 0
M  V30 11959 C 1122.58 3.2039 2.85743 0
M  V30 11960 C 1121.82 3.35793 4.14824 0
M  V30 11961 O 1122.04 2.56033 5.09709 0
M  V30 11962 O 1120.97 4.2904 4.22147 0
M  V30 11963 H 1124.8 2.74605 1.29715 0
M  V30 11964 H 1122.39 1.37763 0.578074 0
M  V30 11965 H 1124.27 2.08835 3.66013 0
M  V30 11966 H 1122.94 1.05351 3.06077 0
M  V30 11967 H 1121.85 3.13473 2.0417 0
M  V30 11968 H 1123.18 4.11356 2.70272 0
M  V30 11969 N 1124.83 -0.648732 1.43629 0
M  V30 11970 C 1126.25 -0.964917 1.27128 0
M  V30 11971 C 1126.45 -2.00561 0.194251 0
M  V30 11972 O 1125.51 -2.48884 -0.42581 0
M  V30 11973 C 1126.82 -1.44491 2.6371 0
M  V30 11974 C 1128.37 -1.56133 2.71278 0
M  V30 11975 C 1128.84 -2.07521 4.08288 0
M  V30 11976 N 1130.33 -2.14817 4.10375 0
M  V30 11977 C 1131.07 -2.55712 5.13224 0
M  V30 11978 N 1130.56 -2.9587 6.26444 0
M  V30 11979 N 1132.36 -2.55691 5.00578 0
M  V30 11980 H 1124.51 0.0398357 2.12363 0
M  V30 11981 H 1126.77 -0.0447705 0.946942 0
M  V30 11982 H 1126.48 -0.754616 3.43509 0
M  V30 11983 H 1126.35 -2.41914 2.89409 0
M  V30 11984 H 1128.74 -2.24263 1.91808 0
M  V30 11985 H 1128.82 -0.571314 2.49338 0
M  V30 11986 H 1128.46 -1.39992 4.88226 0
M  V30 11987 H 1128.39 -3.07362 4.27594 0
M  V30 11988 H 1130.88 -1.86538 3.28652 0
M  V30 11989 H 1131.2 -3.25837 7.0075 0
M  V30 11990 H 1129.54 -2.93664 6.2991 0
M  V30 11991 H 1132.73 -2.23697 4.1119 0
M  V30 11992 H 1132.91 -2.87239 5.80859 0
M  V30 11993 N 1126.31 -1.30234 -0.887518 0
M  V30 11994 C 1127.24 -1.18969 -2.00919 0
M  V30 11995 C 1128.22 -0.080952 -1.69907 0
M  V30 11996 O 1129.41 -0.262546 -1.92417 0
M  V30 11997 C 1126.54 -0.878094 -3.36016 0
M  V30 11998 C 1125.49 -1.94449 -3.81279 0
M  V30 11999 C 1124.82 -1.48594 -5.13638 0
M  V30 12000 C 1126.12 -3.35519 -4.00281 0
M  V30 12001 H 1127.81 -2.12808 -2.10602 0
M  V30 12002 H 1125.36 -1.02454 -1.01189 0
M  V30 12003 H 1127.31 -0.785954 -4.14006 0
M  V30 12004 H 1126.04 0.0959779 -3.26459 0
M  V30 12005 H 1124.69 -2.02622 -3.05516 0
M  V30 12006 H 1124.34 -0.500204 -5.00507 0
M  V30 12007 H 1124.04 -2.19921 -5.44893 0
M  V30 12008 H 1125.57 -1.40754 -5.94156 0
M  V30 12009 H 1126.98 -3.30119 -4.68716 0
M  V30 12010 H 1125.38 -4.0491 -4.42909 0
M  V30 12011 H 1126.45 -3.77597 -3.04218 0
M  V30 12012 N 1127.79 1.09952 -1.12909 0
M  V30 12013 C 1129.02 1.8579 -0.910483 0
M  V30 12014 C 1129.43 1.80898 0.540484 0
M  V30 12015 O 1128.79 1.20126 1.3739 0
M  V30 12016 C 1128.84 3.33987 -1.38329 0
M  V30 12017 O 1128.56 3.38811 -2.77739 0
M  V30 12018 C 1130.06 4.26683 -1.20234 0
M  V30 12019 H 1127.28 0.587026 -0.325025 0
M  V30 12020 H 1129.83 1.38965 -1.5003 0
M  V30 12021 H 1127.98 3.78259 -0.836592 0
M  V30 12022 H 1128.4 4.31204 -2.98603 0
M  V30 12023 H 1129.87 5.28846 -1.58197 0
M  V30 12024 H 1130.35 4.38966 -0.14344 0
M  V30 12025 H 1130.95 3.88221 -1.73679 0
M  V30 12026 N 1129.27 0.921757 1.27833 0
M  V30 12027 C 1130.2 0.373575 2.26135 0
M  V30 12028 C 1131.21 -0.492414 1.55174 0
M  V30 12029 O 1132.4 -0.305998 1.75858 0
M  V30 12030 C 1129.5 -0.483911 3.35427 0
M  V30 12031 C 1128.68 0.361411 4.35904 0
M  V30 12032 C 1127.73 -0.432461 5.2442 0
M  V30 12033 O 1126.76 0.15777 5.68981 0
M  V30 12034 N 1127.96 -1.73367 5.54007 0
M  V30 12035 H 1130.73 1.21856 2.73809 0
M  V30 12036 H 1128.29 0.788552 1.41398 0
M  V30 12037 H 1130.28 -1.02193 3.91585 0
M  V30 12038 H 1128.85 -1.22963 2.874 0
M  V30 12039 H 1128.07 1.08076 3.79095 0
M  V30 12040 H 1129.36 0.939528 5.0005 0
M  V30 12041 H 1128.76 -2.23561 5.19651 0
M  V30 12042 H 1127.31 -2.21834 6.12889 0
M  V30 12043 N 1130.75 -1.41857 0.686609 0
M  V30 12044 C 1131.99 -2.01666 0.214118 0
M  V30 12045 C 1132.33 -1.5422 -1.18025 0
M  V30 12046 O 1131.6 -0.749482 -1.7948 0
M  V30 12047 C 1131.88 -3.59147 0.261841 0
M  V30 12048 C 1131.74 -4.16742 1.69251 0
M  V30 12049 C 1133.06 -4.38427 -0.383378 0
M  V30 12050 H 1130.17 -0.732724 0.0792785 0
M  V30 12051 H 1132.82 -1.68724 0.873633 0
M  V30 12052 H 1130.97 -3.87342 -0.29971 0
M  V30 12053 H 1132.64 -3.99456 2.30722 0
M  V30 12054 H 1130.88 -3.72124 2.2295 0
M  V30 12055 H 1131.55 -5.25894 1.6775 0
M  V30 12056 H 1134.03 -4.15992 0.0947701 0
M  V30 12057 H 1132.9 -5.4797 -0.319401 0
M  V30 12058 H 1133.17 -4.172 -1.46276 0
M  V30 12059 N 1132.22 -0.430739 -1.51599 0
M  V30 12060 C 1133.16 0.419726 -2.25324 0
M  V30 12061 C 1134.17 0.991925 -1.29092 0
M  V30 12062 O 1135.36 0.887188 -1.54891 0
M  V30 12063 C 1132.46 1.59844 -2.98836 0
M  V30 12064 C 1131.63 1.14629 -4.22112 0
M  V30 12065 C 1130.69 2.19437 -4.78261 0
M  V30 12066 O 1129.72 1.79141 -5.40275 0
M  V30 12067 N 1130.92 3.51849 -4.61717 0
M  V30 12068 H 1133.68 -0.212112 -2.98948 0
M  V30 12069 H 1131.24 -0.259269 -1.59811 0
M  V30 12070 H 1133.24 2.29567 -3.33288 0
M  V30 12071 H 1131.81 2.13575 -2.28264 0
M  V30 12072 H 1131.03 0.276367 -3.9323 0
M  V30 12073 H 1132.31 0.821488 -5.02124 0
M  V30 12074 H 1131.71 3.87324 -4.12306 0
M  V30 12075 H 1130.27 4.17486 -5.00548 0
M  V30 12076 N 1133.7 1.56767 -0.161869 0
M  V30 12077 C 1134.61 2.21083 0.784814 0
M  V30 12078 C 1135.63 1.19959 1.26039 0
M  V30 12079 O 1136.8 1.52588 1.31449 0
M  V30 12080 C 1133.87 2.83153 2.00063 0
M  V30 12081 C 1132.93 3.9945 1.57285 0
M  V30 12082 C 1132.16 4.5855 2.7307 0
M  V30 12083 O 1132.39 4.16534 3.89686 0
M  V30 12084 O 1131.32 5.48575 2.47688 0
M  V30 12085 H 1135.15 3.02522 0.267243 0
M  V30 12086 H 1132.73 1.49255 0.0658783 0
M  V30 12087 H 1134.61 3.22546 2.71186 0
M  V30 12088 H 1133.29 2.04718 2.50744 0
M  V30 12089 H 1132.2 3.64745 0.831393 0
M  V30 12090 H 1133.53 4.7945 1.11304 0
M  V30 12091 N 1135.18 -0.111886 1.57202 0
M  V30 12092 C 1136.14 -1.12101 1.99915 0
M  V30 12093 C 1137.14 -1.33906 0.890272 0
M  V30 12094 O 1138.33 -1.30303 1.15615 0
M  V30 12095 C 1135.47 -2.47392 2.34543 0
M  V30 12096 H 1136.66 -0.753736 2.90274 0
M  V30 12097 H 1134.21 -0.35641 1.52182 0
M  V30 12098 H 1134.95 -2.89026 1.47086 0
M  V30 12099 H 1134.73 -2.32917 3.15423 0
M  V30 12100 H 1136.22 -3.20004 2.68304 0
M  V30 12101 N 1136.66 -1.52894 -0.382264 0
M  V30 12102 C 1137.59 -1.74413 -1.48703 0
M  V30 12103 C 1138.6 -0.624663 -1.50339 0
M  V30 12104 O 1139.79 -0.900527 -1.54119 0
M  V30 12105 C 1136.89 -1.79387 -2.8753 0
M  V30 12106 C 1136.07 -3.08794 -3.09783 0
M  V30 12107 C 1135.12 -3.05226 -4.2863 0
M  V30 12108 O 1134.15 -3.79073 -4.24609 0
M  V30 12109 N 1135.35 -2.2488 -5.35172 0
M  V30 12110 H 1138.12 -2.69734 -1.30628 0
M  V30 12111 H 1135.68 -1.51465 -0.571842 0
M  V30 12112 H 1137.67 -1.74498 -3.65147 0
M  V30 12113 H 1136.24 -0.914233 -2.98932 0
M  V30 12114 H 1135.46 -3.27118 -2.19971 0
M  V30 12115 H 1136.75 -3.94347 -3.21509 0
M  V30 12116 H 1136.15 -1.64363 -5.41296 0
M  V30 12117 H 1134.7 -2.25825 -6.1143 0
M  V30 12118 N 1138.14 0.641106 -1.43971 0
M  V30 12119 C 1139.07 1.76489 -1.52885 0
M  V30 12120 C 1140.05 1.65742 -0.38258 0
M  V30 12121 O 1141.23 1.84653 -0.601397 0
M  V30 12122 C 1138.36 3.14977 -1.4631 0
M  V30 12123 C 1137.32 3.40502 -2.59311 0
M  V30 12124 C 1136.64 4.78916 -2.37789 0
M  V30 12125 C 1137.94 3.34048 -4.01509 0
M  V30 12126 H 1139.64 1.69286 -2.46946 0
M  V30 12127 H 1137.18 0.813015 -1.18853 0
M  V30 12128 H 1139.14 3.9336 -1.51149 0
M  V30 12129 H 1137.86 3.2294 -0.487599 0
M  V30 12130 H 1136.52 2.64495 -2.53846 0
M  V30 12131 H 1136.17 4.8357 -1.38454 0
M  V30 12132 H 1135.87 4.96954 -3.13545 0
M  V30 12133 H 1137.39 5.59541 -2.4443 0
M  V30 12134 H 1138.81 4.0235 -4.08396 0
M  V30 12135 H 1137.2 3.63622 -4.77388 0
M  V30 12136 H 1138.27 2.32022 -4.25786 0
M  V30 12137 N 1139.62 1.30703 0.880598 0
M  V30 12138 C 1140.55 1.1327 1.99255 0
M  V30 12139 C 1141.56 0.0747186 1.62628 0
M  V30 12140 O 1142.75 0.321169 1.75587 0
M  V30 12141 C 1139.85 0.706179 3.31461 0
M  V30 12142 C 1139.02 1.84687 3.96497 0
M  V30 12143 C 1138.08 1.40817 5.07008 0
M  V30 12144 O 1137.11 2.1161 5.28403 0
M  V30 12145 N 1138.31 0.289619 5.79777 0
M  V30 12146 H 1141.07 2.09043 2.14759 0
M  V30 12147 H 1138.64 1.22896 1.05395 0
M  V30 12148 H 1140.63 0.395617 4.02762 0
M  V30 12149 H 1139.2 -0.159631 3.12192 0
M  V30 12150 H 1138.42 2.32531 3.18312 0
M  V30 12151 H 1139.71 2.61117 4.36687 0
M  V30 12152 H 1139.1 -0.300177 5.64903 0
M  V30 12153 H 1137.66 0.0385346 6.51789 0
M  V30 12154 N 1141.09 -1.09351 1.1349 0
M  V30 12155 C 1142.06 -2.14185 0.815919 0
M  V30 12156 C 1143.06 -1.59845 -0.174976 0
M  V30 12157 O 1144.25 -1.74122 0.0521971 0
M  V30 12158 C 1141.38 -3.40224 0.214517 0
M  V30 12159 H 1142.57 -2.43913 1.74489 0
M  V30 12160 H 1140.12 -1.24902 0.939634 0
M  V30 12161 H 1140.86 -3.16123 -0.723634 0
M  V30 12162 H 1140.64 -3.80958 0.928102 0
M  V30 12163 H 1142.13 -4.17599 0.00821999 0
M  V30 12164 N 1142.57 -0.928524 -1.27343 0
M  V30 12165 C 1143.48 -0.433901 -2.30553 0
M  V30 12166 C 1144.5 0.485832 -1.6708 0
M  V30 12167 O 1145.67 0.36844 -1.98001 0
M  V30 12168 C 1142.74 0.304617 -3.45359 0
M  V30 12169 C 1141.8 -0.650131 -4.24349 0
M  V30 12170 C 1141.03 0.0532372 -5.33673 0
M  V30 12171 O 1141.26 1.27246 -5.56026 0
M  V30 12172 O 1140.19 -0.619009 -5.98709 0
M  V30 12173 H 1144.02 -1.2909 -2.74899 0
M  V30 12174 H 1141.6 -0.693903 -1.32308 0
M  V30 12175 H 1143.48 0.721137 -4.15184 0
M  V30 12176 H 1142.16 1.13721 -3.03066 0
M  V30 12177 H 1141.06 -1.11635 -3.57055 0
M  V30 12178 H 1142.4 -1.44996 -4.70358 0
M  V30 12179 N 1144.05 1.41491 -0.694123 0
M  V30 12180 C 1145.47 1.55358 -0.365532 0
M  V30 12181 C 1145.67 1.66994 1.12762 0
M  V30 12182 O 1144.72 1.64756 1.91342 0
M  V30 12183 C 1146.03 2.79352 -1.11279 0
M  V30 12184 C 1147.58 2.93147 -1.097 0
M  V30 12185 C 1148.06 4.20027 -1.82597 0
M  V30 12186 N 1149.55 4.26981 -1.7956 0
M  V30 12187 C 1150.28 5.24013 -2.32805 0
M  V30 12188 N 1149.78 6.27083 -2.94515 0
M  V30 12189 N 1151.57 5.15943 -2.23069 0
M  V30 12190 H 1143.72 1.32183 -1.66257 0
M  V30 12191 H 1145.99 0.637624 -0.701527 0
M  V30 12192 H 1145.69 2.76958 -2.16765 0
M  V30 12193 H 1145.57 3.70827 -0.690439 0
M  V30 12194 H 1147.95 2.95057 -0.0504037 0
M  V30 12195 H 1148.03 2.02849 -1.55839 0
M  V30 12196 H 1147.68 4.18878 -2.87235 0
M  V30 12197 H 1147.61 5.09294 -1.33893 0
M  V30 12198 H 1150.1 3.53129 -1.34567 0
M  V30 12199 H 1150.41 6.97511 -3.32714 0
M  V30 12200 H 1148.76 6.27589 -2.98592 0
M  V30 12201 H 1151.95 4.34346 -1.74532 0
M  V30 12202 H 1152.12 5.91396 -2.64868 0
M  V30 12203 N 1145.53 0.438773 1.51369 0
M  V30 12204 C 1146.94 0.0911416 1.5934 0
M  V30 12205 C 1147.14 -1.39962 1.44958 0
M  V30 12206 O 1146.2 -2.16968 1.29155 0
M  V30 12207 C 1147.51 0.612531 2.94395 0
M  V30 12208 C 1149.06 0.573098 3.07709 0
M  V30 12209 C 1149.54 1.07149 4.4529 0
M  V30 12210 N 1151.03 1.02953 4.51614 0
M  V30 12211 C 1151.76 1.38602 5.56397 0
M  V30 12212 N 1151.26 1.81543 6.68591 0
M  V30 12213 N 1153.05 1.30409 5.46763 0
M  V30 12214 H 1145.2 1.40872 1.58962 0
M  V30 12215 H 1147.46 0.580589 0.749414 0
M  V30 12216 H 1147.17 1.65562 3.10294 0
M  V30 12217 H 1147.04 0.0382375 3.77181 0
M  V30 12218 H 1149.43 -0.461006 2.91477 0
M  V30 12219 H 1149.51 1.18381 2.26759 0
M  V30 12220 H 1149.16 2.10406 4.62268 0
M  V30 12221 H 1149.09 0.437297 5.24781 0
M  V30 12222 H 1151.58 0.714208 3.7109 0
M  V30 12223 H 1151.89 2.06977 7.44567 0
M  V30 12224 H 1150.24 1.8547 6.69795 0
M  V30 12225 H 1153.43 0.967272 4.57997 0
M  V30 12226 H 1153.6 1.5852 6.28312 0
M  V30 12227 N 1147.01 -1.56678 0.170181 0
M  V30 12228 C 1147.94 -2.20916 -0.756213 0
M  V30 12229 C 1148.92 -1.16442 -1.23997 0
M  V30 12230 O 1150.1 -1.44867 -1.29333 0
M  V30 12231 C 1147.23 -2.84901 -1.98617 0
M  V30 12232 C 1146.19 -3.95403 -1.63831 0
M  V30 12233 C 1145.51 -4.46432 -2.94282 0
M  V30 12234 C 1146.81 -5.15051 -0.867195 0
M  V30 12235 H 1148.51 -2.98585 -0.220776 0
M  V30 12236 H 1146.05 -1.43619 -0.104748 0
M  V30 12237 H 1148 -3.28514 -2.63926 0
M  V30 12238 H 1146.73 -2.04598 -2.54572 0
M  V30 12239 H 1145.39 -3.52444 -1.00891 0
M  V30 12240 H 1145.04 -3.62923 -3.48276 0
M  V30 12241 H 1144.74 -5.20979 -2.71762 0
M  V30 12242 H 1146.26 -4.92731 -3.60622 0
M  V30 12243 H 1147.67 -5.55363 -1.42285 0
M  V30 12244 H 1146.07 -5.95507 -0.741065 0
M  V30 12245 H 1147.14 -4.84707 0.136693 0
M  V30 12246 N 1148.48 0.103547 -1.57259 0
M  V30 12247 C 1149.42 1.15225 -1.98131 0
M  V30 12248 C 1150.43 1.36793 -0.882692 0
M  V30 12249 O 1151.62 1.35595 -1.16088 0
M  V30 12250 C 1148.72 2.50941 -2.27776 0
M  V30 12251 C 1147.89 2.49765 -3.59077 0
M  V30 12252 C 1146.95 3.67344 -3.76756 0
M  V30 12253 O 1145.98 3.50221 -4.48702 0
M  V30 12254 N 1147.18 4.86504 -3.16692 0
M  V30 12255 H 1149.94 0.804448 -2.88702 0
M  V30 12256 H 1147.5 0.292636 -1.59233 0
M  V30 12257 H 1149.5 3.28186 -2.36804 0
M  V30 12258 H 1148.07 2.77843 -1.43255 0
M  V30 12259 H 1147.29 1.58125 -3.61096 0
M  V30 12260 H 1148.57 2.4605 -4.4535 0
M  V30 12261 H 1147.97 5.03319 -2.58236 0
M  V30 12262 H 1146.53 5.61371 -3.31218 0
M  V30 12263 N 1149.96 1.53094 0.37415 0
M  V30 12264 C 1150.87 1.81872 1.48188 0
M  V30 12265 C 1151.89 0.706487 1.59012 0
M  V30 12266 O 1153.06 0.995648 1.75068 0
M  V30 12267 C 1150.13 1.99494 2.83554 0
M  V30 12268 C 1149.19 3.23402 2.82329 0
M  V30 12269 C 1148.42 3.40174 4.11239 0
M  V30 12270 O 1148.65 2.61425 5.06965 0
M  V30 12271 O 1147.58 4.33493 4.17573 0
M  V30 12272 H 1151.41 2.75965 1.26795 0
M  V30 12273 H 1148.99 1.38368 0.56343 0
M  V30 12274 H 1150.87 2.12705 3.63778 0
M  V30 12275 H 1149.55 1.08591 3.04942 0
M  V30 12276 H 1148.45 3.15621 2.00834 0
M  V30 12277 H 1149.79 4.14199 2.65894 0
M  V30 12278 N 1151.44 -0.633461 1.44309 0
M  V30 12279 C 1152.4 -1.72743 1.50641 0
M  V30 12280 C 1153.4 -1.56031 0.388718 0
M  V30 12281 O 1154.59 -1.61568 0.651251 0
M  V30 12282 C 1151.72 -3.11804 1.37809 0
M  V30 12283 H 1152.92 -1.68503 2.48086 0
M  V30 12284 H 1150.47 -0.846912 1.31366 0
M  V30 12285 H 1151.21 -3.2164 0.414483 0
M  V30 12286 H 1150.99 -3.2534 2.18852 0
M  V30 12287 H 1152.48 -3.91538 1.45216 0
M  V30 12288 N 1152.92 -1.31168 -0.873655 0
M  V30 12289 C 1153.83 -1.20458 -2.01313 0
M  V30 12290 C 1154.84 -0.122074 -1.73571 0
M  V30 12291 O 1156.02 -0.339176 -1.98523 0
M  V30 12292 C 1153.09 -0.90876 -3.34578 0
M  V30 12293 C 1152.15 -2.07779 -3.75668 0
M  V30 12294 C 1151.38 -1.79599 -5.02573 0
M  V30 12295 O 1151.6 -0.729338 -5.65718 0
M  V30 12296 O 1150.54 -2.65169 -5.40341 0
M  V30 12297 H 1154.36 -2.16207 -2.13279 0
M  V30 12298 H 1151.95 -1.10871 -1.00139 0
M  V30 12299 H 1153.83 -0.759469 -4.145 0
M  V30 12300 H 1152.5 0.0187249 -3.23695 0
M  V30 12301 H 1151.41 -2.28247 -2.96402 0
M  V30 12302 H 1152.74 -2.9874 -3.91172 0
M  V30 12303 N 1154.4 1.08748 -1.14068 0
M  V30 12304 C 1155.34 2.15573 -0.824425 0
M  V30 12305 C 1156.31 1.64683 0.216522 0
M  V30 12306 O 1157.5 1.90601 0.0872193 0
M  V30 12307 C 1154.64 3.43756 -0.30423 0
M  V30 12308 C 1153.75 4.08512 -1.40506 0
M  V30 12309 C 1152.89 5.24477 -0.842479 0
M  V30 12310 C 1151.93 5.81167 -1.92123 0
M  V30 12311 N 1151.06 6.88483 -1.37608 0
M  V30 12312 H 1155.9 2.41968 -1.73941 0
M  V30 12313 H 1153.44 1.18751 -0.868143 0
M  V30 12314 H 1155.4 4.17197 0.0155546 0
M  V30 12315 H 1154.03 3.17658 0.573868 0
M  V30 12316 H 1153.08 3.32866 -1.84131 0
M  V30 12317 H 1154.39 4.46669 -2.2201 0
M  V30 12318 H 1153.55 6.04842 -0.474389 0
M  V30 12319 H 1152.28 4.877 0.00355212 0
M  V30 12320 H 1151.29 4.99458 -2.29831 0
M  V30 12321 H 1152.51 6.20003 -2.77079 0
M  V30 12322 H 1150.46 6.53672 -0.552168 0
M  V30 12323 H 1150.38 7.25446 -2.12752 0
M  V30 12324 H 1151.65 7.72588 -1.03578 0
M  V30 12325 N 1155.87 0.935264 1.26849 0
M  V30 12326 C 1156.81 0.397539 2.25726 0
M  V30 12327 C 1157.82 -0.475928 1.55688 0
M  V30 12328 O 1159.01 -0.287329 1.76172 0
M  V30 12329 C 1156.11 -0.448308 3.35922 0
M  V30 12330 C 1155.28 0.407624 4.35496 0
M  V30 12331 C 1154.34 -0.376815 5.24849 0
M  V30 12332 O 1153.37 0.218109 5.68782 0
M  V30 12333 N 1154.57 -1.67481 5.55815 0
M  V30 12334 H 1157.33 1.24753 2.72501 0
M  V30 12335 H 1154.89 0.803505 1.40554 0
M  V30 12336 H 1156.89 -0.980338 3.92647 0
M  V30 12337 H 1155.46 -1.19908 2.88688 0
M  V30 12338 H 1154.68 1.12091 3.77928 0
M  V30 12339 H 1155.96 0.992512 4.99026 0
M  V30 12340 H 1155.36 -2.18037 5.21993 0
M  V30 12341 H 1153.92 -2.15321 6.15207 0
M  V30 12342 N 1157.35 -1.41121 0.701616 0
M  V30 12343 C 1158.58 -2.05973 0.242896 0
M  V30 12344 C 1159 -1.52474 -1.10151 0
M  V30 12345 O 1158.36 -0.654224 -1.69085 0
M  V30 12346 C 1158.41 -3.59943 0.217614 0
M  V30 12347 O 1157.51 -4.04454 -0.805629 0
M  V30 12348 H 1156.85 -0.653581 0.117166 0
M  V30 12349 H 1159.38 -1.80777 0.958175 0
M  V30 12350 H 1159.39 -4.07969 0.0505267 0
M  V30 12351 H 1158.07 -3.98249 1.19877 0
M  V30 12352 H 1156.65 -3.6792 -0.607404 0
M  V30 12353 N 1158.83 -0.446794 -1.51134 0
M  V30 12354 C 1159.76 0.395804 -2.25757 0
M  V30 12355 C 1160.78 0.978178 -1.30137 0
M  V30 12356 O 1161.96 0.87071 -1.55823 0
M  V30 12357 C 1159.06 1.56665 -3.00515 0
M  V30 12358 C 1158.24 1.10146 -4.23305 0
M  V30 12359 C 1157.3 2.14352 -4.80562 0
M  V30 12360 O 1156.32 1.73401 -5.42145 0
M  V30 12361 N 1157.52 3.46932 -4.65423 0
M  V30 12362 H 1160.29 -0.243808 -2.98707 0
M  V30 12363 H 1157.85 -0.276205 -1.59527 0
M  V30 12364 H 1159.84 2.26019 -3.35704 0
M  V30 12365 H 1158.41 2.11142 -2.30516 0
M  V30 12366 H 1157.63 0.234644 -3.93501 0
M  V30 12367 H 1158.92 0.768185 -5.02968 0
M  V30 12368 H 1158.32 3.82929 -4.16391 0
M  V30 12369 H 1156.88 4.12154 -5.04948 0
M  V30 12370 N 1160.31 1.56586 -0.178487 0
M  V30 12371 C 1161.27 2.17091 0.73512 0
M  V30 12372 C 1162.27 1.12088 1.15295 0
M  V30 12373 O 1163.46 1.37563 1.06874 0
M  V30 12374 C 1160.59 2.75957 2.00151 0
M  V30 12375 H 1161.79 2.99176 0.208272 0
M  V30 12376 H 1159.34 1.56138 0.0710967 0
M  V30 12377 H 1160.07 1.97626 2.57127 0
M  V30 12378 H 1159.86 3.52809 1.7108 0
M  V30 12379 H 1161.35 3.2247 2.65335 0
M  V30 12380 N 1161.79 -0.095206 1.57312 0
M  V30 12381 C 1162.72 -1.11627 2.05089 0
M  V30 12382 C 1163.7 -1.41782 0.939787 0
M  V30 12383 O 1164.88 -1.51813 1.21105 0
M  V30 12384 C 1162.01 -2.43618 2.47523 0
M  V30 12385 C 1160.97 -2.27872 3.62296 0
M  V30 12386 C 1160.29 -3.65038 3.90706 0
M  V30 12387 C 1161.59 -1.71936 4.93189 0
M  V30 12388 H 1163.29 -0.718795 2.90644 0
M  V30 12389 H 1160.83 -0.344315 1.39823 0
M  V30 12390 H 1162.79 -3.1532 2.79556 0
M  V30 12391 H 1161.51 -2.85301 1.58968 0
M  V30 12392 H 1160.17 -1.58615 3.3051 0
M  V30 12393 H 1159.82 -4.04249 2.99319 0
M  V30 12394 H 1159.52 -3.55349 4.67976 0
M  V30 12395 H 1161.04 -4.38208 4.25213 0
M  V30 12396 H 1162.45 -2.33479 5.23603 0
M  V30 12397 H 1160.85 -1.73006 5.74621 0
M  V30 12398 H 1161.92 -0.678789 4.80125 0
M  V30 12399 N 1163.26 -1.53291 -0.366026 0
M  V30 12400 C 1164.2 -1.75981 -1.46845 0
M  V30 12401 C 1165.21 -0.640574 -1.49668 0
M  V30 12402 O 1166.4 -0.916823 -1.53155 0
M  V30 12403 C 1163.5 -1.82426 -2.85611 0
M  V30 12404 C 1162.67 -3.12062 -3.0649 0
M  V30 12405 C 1161.73 -3.09755 -4.25368 0
M  V30 12406 O 1160.76 -3.83555 -4.20564 0
M  V30 12407 N 1161.96 -2.30544 -5.32757 0
M  V30 12408 H 1164.72 -2.71104 -1.2776 0
M  V30 12409 H 1162.28 -1.52063 -0.555745 0
M  V30 12410 H 1164.28 -1.78361 -3.63276 0
M  V30 12411 H 1162.85 -0.945888 -2.97946 0
M  V30 12412 H 1162.07 -3.29433 -2.16489 0
M  V30 12413 H 1163.35 -3.97735 -3.17308 0
M  V30 12414 H 1162.75 -1.70095 -5.39522 0
M  V30 12415 H 1161.31 -2.32298 -6.09 0
M  V30 12416 N 1164.74 0.6258 -1.44643 0
M  V30 12417 C 1165.67 1.75086 -1.47911 0
M  V30 12418 C 1166.69 1.58496 -0.37188 0
M  V30 12419 O 1167.88 1.66712 -0.637925 0
M  V30 12420 C 1164.98 3.12874 -1.30243 0
M  V30 12421 C 1164.15 3.55873 -2.54309 0
M  V30 12422 C 1163.21 4.72558 -2.31464 0
M  V30 12423 O 1162.23 4.80599 -3.04981 0
M  V30 12424 N 1163.44 5.64617 -1.34862 0
M  V30 12425 H 1166.2 1.72751 -2.44902 0
M  V30 12426 H 1163.76 0.810531 -1.4015 0
M  V30 12427 H 1165.75 3.88663 -1.12798 0
M  V30 12428 H 1164.32 3.0982 -0.415966 0
M  V30 12429 H 1163.54 2.70237 -2.86994 0
M  V30 12430 H 1164.83 3.81355 -3.36817 0
M  V30 12431 H 1164.23 5.60819 -0.741542 0
M  V30 12432 H 1162.79 6.40013 -1.23394 0
M  V30 12433 N 1166.22 1.31629 0.866686 0
M  V30 12434 C 1167.13 1.21524 2.00671 0
M  V30 12435 C 1168.15 0.131277 1.73504 0
M  V30 12436 O 1169.32 0.349699 1.98341 0
M  V30 12437 C 1166.39 0.926491 3.34091 0
M  V30 12438 C 1165.45 2.09769 3.7456 0
M  V30 12439 C 1164.68 1.82262 5.01614 0
M  V30 12440 O 1164.9 0.759329 5.65323 0
M  V30 12441 O 1163.84 2.68031 5.38928 0
M  V30 12442 H 1167.66 2.17335 2.1213 0
M  V30 12443 H 1165.25 1.11401 0.995499 0
M  V30 12444 H 1167.13 0.78144 4.14091 0
M  V30 12445 H 1165.81 -0.00155829 3.237 0
M  V30 12446 H 1164.71 2.29816 2.95187 0
M  V30 12447 H 1166.05 3.0081 3.89582 0
M  V30 12448 N 1167.7 -1.08142 1.14644 0
M  V30 12449 C 1168.63 -2.17139 0.858667 0
M  V30 12450 C 1169.61 -1.69064 -0.187452 0
M  V30 12451 O 1170.8 -1.94151 -0.0435458 0
M  V30 12452 C 1167.93 -3.45648 0.33834 0
M  V30 12453 C 1166.88 -4.07129 1.32021 0
M  V30 12454 C 1166.21 -5.30623 0.659075 0
M  V30 12455 C 1167.51 -4.48095 2.68343 0
M  V30 12456 H 1169.2 -2.41468 1.77012 0
M  V30 12457 H 1166.75 -1.16052 0.852523 0
M  V30 12458 H 1168.7 -4.21216 0.124611 0
M  V30 12459 H 1167.42 -3.2088 -0.608553 0
M  V30 12460 H 1166.08 -3.33596 1.52016 0
M  V30 12461 H 1165.73 -5.02142 -0.293711 0
M  V30 12462 H 1165.43 -5.72714 1.31427 0
M  V30 12463 H 1166.95 -6.08903 0.454933 0
M  V30 12464 H 1168.37 -5.14828 2.5224 0
M  V30 12465 H 1166.76 -5.01113 3.30161 0
M  V30 12466 H 1167.83 -3.59852 3.25015 0
M  V30 12467 N 1169.18 -0.941978 -1.26351 0
M  V30 12468 C 1170.14 -0.456768 -2.24602 0
M  V30 12469 C 1171.14 0.432574 -1.54872 0
M  V30 12470 O 1172.33 0.23164 -1.72653 0
M  V30 12471 C 1169.46 0.341583 -3.39184 0
M  V30 12472 H 1170.66 -1.32503 -2.69041 0
M  V30 12473 H 1168.21 -0.724021 -1.38519 0
M  V30 12474 H 1168.94 1.22806 -3.00149 0
M  V30 12475 H 1168.73 -0.296268 -3.90979 0
M  V30 12476 H 1170.22 0.670955 -4.12175 0
M  V30 12477 N 1170.66 1.40747 -0.709091 0
M  V30 12478 C 1171.59 2.282 -0.00156906 0
M  V30 12479 C 1172.57 1.42981 0.774279 0
M  V30 12480 O 1173.75 1.724 0.762276 0
M  V30 12481 C 1170.88 3.23441 1.00517 0
M  V30 12482 C 1169.92 4.25291 0.320904 0
M  V30 12483 S 1170.76 5.27069 -0.946518 0
M  V30 12484 C 1171.91 6.25873 0.0582856 0
M  V30 12485 H 1172.15 2.87859 -0.743271 0
M  V30 12486 H 1169.68 1.46085 -0.499866 0
M  V30 12487 H 1171.64 3.78841 1.58082 0
M  V30 12488 H 1170.3 2.62851 1.71954 0
M  V30 12489 H 1169.49 4.92255 1.08173 0
M  V30 12490 H 1169.09 3.73557 -0.18202 0
M  V30 12491 H 1171.38 6.71398 0.907233 0
M  V30 12492 H 1172.33 7.05739 -0.577787 0
M  V30 12493 H 1172.74 5.62942 0.419108 0
M  V30 12494 N 1172.13 0.454803 1.50895 0
M  V30 12495 C 1173.06 -0.337982 2.31041 0
M  V30 12496 C 1174.04 -1.00523 1.37219 0
M  V30 12497 O 1175.23 -1.00553 1.66141 0
M  V30 12498 C 1172.36 -1.42964 3.1651 0
M  V30 12499 C 1171.31 -0.884907 4.18752 0
M  V30 12500 C 1170.64 -2.07363 4.92854 0
M  V30 12501 C 1171.94 0.0926716 5.22218 0
M  V30 12502 H 1173.63 0.33089 2.97566 0
M  V30 12503 H 1171.18 0.160577 1.43102 0
M  V30 12504 H 1173.13 -1.9916 3.71367 0
M  V30 12505 H 1171.86 -2.12705 2.47839 0
M  V30 12506 H 1170.52 -0.345031 3.64973 0
M  V30 12507 H 1170.16 -2.75764 4.2067 0
M  V30 12508 H 1169.86 -1.71545 5.62002 0
M  V30 12509 H 1171.39 -2.6408 5.5054 0
M  V30 12510 H 1172.8 -0.379568 5.72042 0
M  V30 12511 H 1171.2 0.3643 5.98993 0
M  V30 12512 H 1172.27 1.02383 4.73968 0
M  V30 12513 N 1173.61 -1.56489 0.186789 0
M  V30 12514 C 1175.03 -1.58701 -0.169176 0
M  V30 12515 C 1175.23 -1.2027 -1.61671 0
M  V30 12516 O 1174.28 -0.92154 -2.35083 0
M  V30 12517 C 1175.6 -3.00437 0.125657 0
M  V30 12518 C 1177.14 -3.12932 0.0651 0
M  V30 12519 C 1177.62 -4.56787 0.333131 0
M  V30 12520 N 1179.11 -4.62344 0.281453 0
M  V30 12521 C 1179.85 -5.71529 0.462805 0
M  V30 12522 N 1179.34 -6.89213 0.704054 0
M  V30 12523 N 1181.13 -5.60692 0.397636 0
M  V30 12524 H 1173.29 -1.79754 1.13148 0
M  V30 12525 H 1175.55 -0.83385 0.450997 0
M  V30 12526 H 1175.25 -3.33086 1.12901 0
M  V30 12527 H 1175.13 -3.72782 -0.575612 0
M  V30 12528 H 1177.52 -2.80101 -0.928845 0
M  V30 12529 H 1177.6 -2.42991 0.799318 0
M  V30 12530 H 1177.24 -4.9033 1.32436 0
M  V30 12531 H 1177.17 -5.24907 -0.421879 0
M  V30 12532 H 1179.66 -3.77764 0.101266 0
M  V30 12533 H 1179.97 -7.68314 0.831468 0
M  V30 12534 H 1178.32 -6.9104 0.740851 0
M  V30 12535 H 1181.51 -4.6763 0.20964 0
M  V30 12536 H 1181.68 -6.45726 0.54239 0
M  V30 12537 N 1175.09 0.086862 -1.5736 0
M  V30 12538 C 1176 1.12297 -2.05977 0
M  V30 12539 C 1177.02 1.43347 -0.986284 0
M  V30 12540 O 1178.19 1.53825 -1.3 0
M  V30 12541 C 1175.26 2.42131 -2.4814 0
M  V30 12542 C 1174.32 2.18189 -3.69719 0
M  V30 12543 C 1173.55 3.41833 -4.09861 0
M  V30 12544 O 1173.77 4.50383 -3.50016 0
M  V30 12545 O 1172.71 3.30934 -5.02759 0
M  V30 12546 H 1176.53 0.740012 -2.94546 0
M  V30 12547 H 1174.12 0.29995 -1.46358 0
M  V30 12548 H 1176 3.18568 -2.75848 0
M  V30 12549 H 1174.68 2.79837 -1.62705 0
M  V30 12550 H 1173.58 1.39506 -3.47115 0
M  V30 12551 H 1174.92 1.85372 -4.55959 0
M  V30 12552 N 1176.57 1.53483 0.357892 0
M  V30 12553 C 1177.48 1.83434 1.4625 0
M  V30 12554 C 1178.49 0.723313 1.58254 0
M  V30 12555 O 1179.67 1.01416 1.74002 0
M  V30 12556 C 1176.73 2.0249 2.81423 0
M  V30 12557 C 1175.8 3.26378 2.78883 0
M  V30 12558 C 1175.03 3.44516 4.07608 0
M  V30 12559 O 1175.25 2.66787 5.04163 0
M  V30 12560 O 1174.19 4.37898 4.12952 0
M  V30 12561 H 1178.01 2.77294 1.23861 0
M  V30 12562 H 1175.6 1.38958 0.548722 0
M  V30 12563 H 1177.48 2.16552 3.61501 0
M  V30 12564 H 1176.15 1.11819 3.03773 0
M  V30 12565 H 1175.06 3.17733 1.97475 0
M  V30 12566 H 1176.39 4.16996 2.61486 0
M  V30 12567 N 1178.05 -0.61812 1.44973 0
M  V30 12568 C 1178.98 -1.74035 1.55673 0
M  V30 12569 C 1179.96 -1.65112 0.4089 0
M  V30 12570 O 1181.14 -1.83673 0.630698 0
M  V30 12571 C 1178.27 -3.1261 1.51303 0
M  V30 12572 C 1177.23 -3.36334 2.64696 0
M  V30 12573 C 1176.55 -4.75072 2.45378 0
M  V30 12574 C 1177.85 -3.27618 4.06772 0
M  V30 12575 H 1179.55 -1.65336 2.49608 0
M  V30 12576 H 1177.09 -0.794003 1.20132 0
M  V30 12577 H 1179.04 -3.90906 1.57388 0
M  V30 12578 H 1177.77 -3.22123 0.538914 0
M  V30 12579 H 1176.43 -2.60423 2.58022 0
M  V30 12580 H 1176.08 -4.81306 1.46129 0
M  V30 12581 H 1175.78 -4.91903 3.21412 0
M  V30 12582 H 1177.3 -5.55582 2.53301 0
M  V30 12583 H 1178.71 -3.95802 4.14746 0
M  V30 12584 H 1177.11 -3.55981 4.83113 0
M  V30 12585 H 1178.18 -2.25219 4.29423 0
M  V30 12586 N 1179.52 -1.32087 -0.859693 0
M  V30 12587 C 1180.94 -1.10968 -1.14709 0
M  V30 12588 C 1181.14 0.113139 -2.01182 0
M  V30 12589 O 1180.2 0.799499 -2.39508 0
M  V30 12590 C 1181.51 -2.38657 -1.8293 0
M  V30 12591 C 1183.06 -2.44366 -1.95587 0
M  V30 12592 C 1183.53 -3.71963 -2.67222 0
M  V30 12593 N 1185.02 -3.72916 -2.7475 0
M  V30 12594 C 1185.76 -4.68346 -3.30816 0
M  V30 12595 N 1185.25 -5.74139 -3.87732 0
M  V30 12596 N 1187.05 -4.55851 -3.28872 0
M  V30 12597 H 1179.2 -2.10497 -0.283711 0
M  V30 12598 H 1181.46 -0.929108 -0.188315 0
M  V30 12599 H 1181.17 -3.2803 -1.26844 0
M  V30 12600 H 1181.04 -2.49236 -2.83128 0
M  V30 12601 H 1183.43 -1.55456 -2.50833 0
M  V30 12602 H 1183.51 -2.37744 -0.944001 0
M  V30 12603 H 1183.15 -4.61245 -2.1264 0
M  V30 12604 H 1183.08 -3.75855 -3.68837 0
M  V30 12605 H 1185.57 -2.96447 -2.34367 0
M  V30 12606 H 1185.89 -6.43021 -4.28654 0
M  V30 12607 H 1184.23 -5.779 -3.86078 0
M  V30 12608 H 1187.42 -3.72371 -2.83651 0
M  V30 12609 H 1187.6 -5.30398 -3.72266 0
M  V30 12610 N 1181 1.07532 -1.15215 0
M  V30 12611 C 1181.96 2.1286 -0.84989 0
M  V30 12612 C 1182.96 1.60103 0.149524 0
M  V30 12613 O 1184.15 1.74017 -0.0798918 0
M  V30 12614 C 1181.29 3.3984 -0.268617 0
M  V30 12615 H 1182.48 2.41106 -1.78347 0
M  V30 12616 H 1180.03 1.23392 -0.959386 0
M  V30 12617 H 1180.77 3.17235 0.67325 0
M  V30 12618 H 1180.55 3.79433 -0.988592 0
M  V30 12619 H 1182.04 4.17533 -0.0746554 0
M  V30 12620 N 1182.48 0.948665 1.2585 0
M  V30 12621 C 1183.9 0.652147 1.45668 0
M  V30 12622 C 1184.1 -0.792217 1.85273 0
M  V30 12623 O 1183.15 -1.56812 1.97905 0
M  V30 12624 C 1184.47 1.61998 2.53332 0
M  V30 12625 C 1186.01 1.6305 2.67178 0
M  V30 12626 C 1186.49 2.58582 3.78021 0
M  V30 12627 N 1187.98 2.56911 3.85423 0
M  V30 12628 C 1188.71 3.27511 4.70664 0
M  V30 12629 N 1188.21 4.07563 5.60236 0
M  V30 12630 N 1190 3.16427 4.64576 0
M  V30 12631 H 1182.15 1.88215 0.984325 0
M  V30 12632 H 1184.42 0.809251 0.493778 0
M  V30 12633 H 1184.12 2.65137 2.31075 0
M  V30 12634 H 1184 1.37784 3.51134 0
M  V30 12635 H 1186.38 0.606315 2.88804 0
M  V30 12636 H 1186.47 1.9132 1.69795 0
M  V30 12637 H 1186.11 3.61122 3.57146 0
M  V30 12638 H 1186.04 2.27598 4.74875 0
M  V30 12639 H 1188.53 1.9879 3.21389 0
M  V30 12640 H 1188.84 4.58367 6.22189 0
M  V30 12641 H 1187.19 4.11662 5.59964 0
M  V30 12642 H 1190.38 2.53364 3.93604 0
M  V30 12643 H 1190.55 3.71714 5.30785 0
M  V30 12644 N 1183.96 -1.40369 0.716545 0
M  V30 12645 C 1185.21 -2.00473 0.255959 0
M  V30 12646 C 1185.53 -1.57104 -1.15514 0
M  V30 12647 O 1184.8 -0.810925 -1.78328 0
M  V30 12648 H 1183.38 -0.741357 0.0916427 0
M  V30 12649 H 1186.04 -1.71692 0.922389 0
M  V30 12650 H 1185.14 -3.10752 0.289806 0
M  V30 12651 N 1185.44 -0.462799 -1.50652 0
M  V30 12652 C 1186.85 -0.00568907 -1.86699 0
M  V30 12653 C 1187.2 1.39641 -1.37822 0
M  V30 12654 O 1186.32 2.03366 -0.739679 0
M  V30 12655 C 1186.92 -0.00354783 -3.388 0
M  V30 12656 C 1185.48 0.398061 -3.74289 0
M  V30 12657 C 1184.62 -0.392574 -2.74507 0
M  V30 12658 H 1187.58 -0.677469 -1.43513 0
M  V30 12659 H 1187.6 0.800456 -3.71985 0
M  V30 12660 H 1187.11 -1.02414 -3.74344 0
M  V30 12661 H 1185.21 1.42331 -3.44344 0
M  V30 12662 H 1185.32 0.105168 -4.78985 0
M  V30 12663 H 1183.69 0.152608 -2.54242 0
M  V30 12664 H 1184.47 -1.41252 -3.12894 0
M  V30 12665 N 1186.91 1.56388 -0.195085 0
M  V30 12666 C 1188.16 1.97872 0.444344 0
M  V30 12667 C 1188.49 1.0819 1.61271 0
M  V30 12668 O 1187.77 0.133904 1.94039 0
M  V30 12669 C 1188.05 3.48556 0.90449 0
M  V30 12670 C 1187.9 4.49015 -0.265693 0
M  V30 12671 C 1189.22 4.02938 1.76999 0
M  V30 12672 H 1186.34 0.719413 0.160041 0
M  V30 12673 H 1188.98 1.87835 -0.286005 0
M  V30 12674 H 1187.13 3.5724 1.52682 0
M  V30 12675 H 1188.81 4.52368 -0.903363 0
M  V30 12676 H 1187.05 4.23987 -0.917462 0
M  V30 12677 H 1187.72 5.51912 0.0987834 0
M  V30 12678 H 1190.2 3.97033 1.24514 0
M  V30 12679 H 1189.07 5.08741 2.06092 0
M  V30 12680 H 1189.33 3.48197 2.72418 0
M  V30 12681 N 1188.39 -0.0785156 1.57404 0
M  V30 12682 C 1189.67 -0.811557 1.77969 0
M  V30 12683 C 1190.05 -1.96123 0.780966 0
M  V30 12684 O 1189.4 -2.27731 -0.18726 0
M  V30 12685 C 1189.61 -1.29075 3.24254 0
M  V30 12686 C 1190.96 -1.72685 3.87898 0
M  V30 12687 O 1191.98 -1.38658 3.28104 0
M  V30 12688 O 1190.84 -2.3566 4.93079 0
M  V30 12689 H 1187.93 -0.388361 0.73014 0
M  V30 12690 H 1190.48 -0.0591118 1.69597 0
M  V30 12691 H 1189.25 -0.467813 3.88494 0
M  V30 12692 H 1188.87 -2.10472 3.37324 0
M  V30 12693 N 1189.87 -1.5367 -0.349747 0
M  V30 12694 C 1191.1 -1.74547 -1.11089 0
M  V30 12695 C 1191.51 -0.481741 -1.82551 0
M  V30 12696 O 1190.87 0.546272 -1.74132 0
M  V30 12697 C 1190.92 -2.92148 -2.12913 0
M  V30 12698 O 1190.64 -4.13633 -1.44358 0
M  V30 12699 C 1192.14 -3.25027 -3.01451 0
M  V30 12700 H 1189.36 -0.583376 -0.331532 0
M  V30 12701 H 1191.91 -2.00473 -0.403841 0
M  V30 12702 H 1190.06 -2.68572 -2.79192 0
M  V30 12703 H 1190.48 -4.79601 -2.12329 0
M  V30 12704 H 1191.95 -4.10679 -3.68845 0
M  V30 12705 H 1192.43 -2.41064 -3.67131 0
M  V30 12706 H 1193.03 -3.50586 -2.40768 0
M  V30 12707 N 1191.35 0.610423 -1.45298 0
M  V30 12708 C 1192.3 1.7213 -1.53753 0
M  V30 12709 C 1193.27 1.61609 -0.383632 0
M  V30 12710 O 1194.45 1.8123 -0.596694 0
M  V30 12711 C 1191.59 3.10433 -1.50749 0
M  V30 12712 C 1190.7 3.3178 -2.76669 0
M  V30 12713 C 1189.84 4.60173 -2.65356 0
M  V30 12714 C 1188.88 4.74769 -3.86343 0
M  V30 12715 N 1188.01 5.94459 -3.73581 0
M  V30 12716 H 1192.85 1.64239 -2.48655 0
M  V30 12717 H 1190.39 0.800879 -1.23387 0
M  V30 12718 H 1192.35 3.90446 -1.46996 0
M  V30 12719 H 1190.98 3.17288 -0.593998 0
M  V30 12720 H 1190.03 2.45563 -2.90522 0
M  V30 12721 H 1191.34 3.38439 -3.66416 0
M  V30 12722 H 1190.5 5.48377 -2.59553 0
M  V30 12723 H 1189.24 4.55907 -1.73204 0
M  V30 12724 H 1188.24 3.8499 -3.92509 0
M  V30 12725 H 1189.47 4.80834 -4.79557 0
M  V30 12726 H 1187.41 5.91243 -2.84196 0
M  V30 12727 H 1187.33 6.02265 -4.5696 0
M  V30 12728 H 1188.6 6.85168 -3.71705 0
M  V30 12729 N 1192.83 1.32541 0.852676 0
M  V30 12730 C 1194.24 1.20863 1.42299 0
M  V30 12731 C 1194.59 -0.178051 1.9539 0
M  V30 12732 O 1193.71 -1.07689 1.87702 0
M  V30 12733 C 1194.31 2.18811 2.58664 0
M  V30 12734 C 1192.87 2.11015 3.11689 0
M  V30 12735 C 1192.01 2.07067 1.84441 0
M  V30 12736 H 1194.97 1.44341 0.659657 0
M  V30 12737 H 1194.99 1.78779 3.35884 0
M  V30 12738 H 1194.5 3.19726 2.19993 0
M  V30 12739 H 1192.6 1.13354 3.54939 0
M  V30 12740 H 1192.71 3.00929 3.72799 0
M  V30 12741 H 1191.08 1.52335 2.04123 0
M  V30 12742 H 1191.86 3.09767 1.47984 0
M  V30 12743 N 1194.3 -1.0692 1.15784 0
M  V30 12744 C 1195.53 -1.83849 0.959903 0
M  V30 12745 C 1195.95 -1.8169 -0.486873 0
M  V30 12746 O 1195.31 -1.21305 -1.34739 0
M  V30 12747 C 1195.36 -3.28642 1.48414 0
M  V30 12748 O 1194.46 -4.0665 0.686249 0
M  V30 12749 H 1193.81 -0.569115 0.342059 0
M  V30 12750 H 1196.34 -1.34851 1.53871 0
M  V30 12751 H 1196.35 -3.7947 1.49888 0
M  V30 12752 H 1195.02 -3.29529 2.53739 0
M  V30 12753 H 1193.6 -3.65453 0.741501 0
M  V30 12754 N 1195.78 -0.955326 -1.25345 0
M  V30 12755 C 1196.73 -0.467205 -2.2786 0
M  V30 12756 C 1197.72 0.462873 -1.62954 0
M  V30 12757 O 1198.93 0.339526 -1.76769 0
M  V30 12758 H 1195.31 -0.132586 -0.74022 0
M  V30 12759 H 1197.28 -1.34406 -2.66416 0
M  V30 12760 C 1196.03 0.238898 -3.46878 0
M  V30 12761 H 1195.35 -0.467644 -3.97056 0
M  V30 12762 H 1196.79 0.544444 -4.2049 0
M  V30 12763 C 1195.25 1.46164 -3.03542 0
M  V30 12764 O 1195.78 2.55933 -3.09615 0
M  V30 12765 N 1193.98 1.32324 -2.58725 0
M  V30 12766 H 1193.53 0.430131 -2.53984 0
M  V30 12767 H 1193.49 2.14253 -2.30094 0
M  V30 12768 N 1197.26 1.39987 -0.723979 0
M  V30 12769 C 1198.49 2.0556 -0.275634 0
M  V30 12770 C 1198.91 1.54207 1.07711 0
M  V30 12771 O 1198.27 0.681041 1.68022 0
M  V30 12772 C 1198.32 3.59551 -0.27485 0
M  V30 12773 O 1197.42 4.05685 0.741182 0
M  V30 12774 H 1196.76 0.651634 -0.12755 0
M  V30 12775 H 1199.29 1.79229 -0.986814 0
M  V30 12776 H 1199.3 4.07837 -0.115425 0
M  V30 12777 H 1197.98 3.96291 -1.26198 0
M  V30 12778 H 1196.55 3.6884 0.548795 0
M  V30 12779 N 1198.74 0.470782 1.50404 0
M  V30 12780 C 1199.67 -0.313458 2.31386 0
M  V30 12781 C 1200.65 -0.990623 1.38278 0
M  V30 12782 O 1201.84 -0.987854 1.67198 0
M  V30 12783 C 1198.97 -1.39599 3.18009 0
M  V30 12784 C 1197.92 -0.840443 4.19667 0
M  V30 12785 C 1197.25 -2.02124 4.95025 0
M  V30 12786 C 1198.55 0.148055 5.2209 0
M  V30 12787 H 1200.24 0.362432 2.97198 0
M  V30 12788 H 1197.79 0.175745 1.42924 0
M  V30 12789 H 1199.74 -1.9521 3.73458 0
M  V30 12790 H 1198.46 -2.10064 2.50081 0
M  V30 12791 H 1197.12 -0.306302 3.65318 0
M  V30 12792 H 1196.77 -2.71286 4.23571 0
M  V30 12793 H 1196.47 -1.65574 5.6379 0
M  V30 12794 H 1197.99 -2.58226 5.5331 0
M  V30 12795 H 1199.41 -0.318874 5.72413 0
M  V30 12796 H 1197.8 0.427811 5.98573 0
M  V30 12797 H 1198.87 1.07404 4.72855 0
M  V30 12798 N 1200.22 -1.56282 0.203376 0
M  V30 12799 C 1201.47 -1.96987 -0.433461 0
M  V30 12800 C 1201.78 -1.09344 -1.62183 0
M  V30 12801 O 1202.99 -1.39868 -2.327 0
M  V30 12802 C 1201.44 -3.50374 -0.82257 0
M  V30 12803 C 1201.05 -4.46693 0.341969 0
M  V30 12804 C 1202.79 -3.99831 -1.42603 0
M  V30 12805 C 1200.7 -5.9136 -0.0685608 0
M  V30 12806 H 1199.63 -0.735564 -0.165717 0
M  V30 12807 H 1202.28 -1.81085 0.296708 0
M  V30 12808 H 1200.66 -3.6181 -1.60964 0
M  V30 12809 H 1201.84 -4.46994 1.11952 0
M  V30 12810 H 1200.15 -4.07476 0.857463 0
M  V30 12811 H 1202.75 -5.05398 -1.74577 0
M  V30 12812 H 1203.09 -3.4462 -2.33544 0
M  V30 12813 H 1203.63 -3.91543 -0.702758 0
M  V30 12814 H 1200.36 -6.50515 0.80688 0
M  V30 12815 H 1199.88 -5.94295 -0.810798 0
M  V30 12816 H 1201.56 -6.45053 -0.501525 0
M  V30 12817 N 1201.7 0.070167 -1.57444 0
M  V30 12818 C 1203.11 0.621805 -1.76041 0
M  V30 12819 C 1203.46 1.77824 -0.829047 0
M  V30 12820 O 1202.58 2.16396 -0.0135453 0
M  V30 12821 C 1203.18 1.13476 -3.19231 0
M  V30 12822 C 1201.74 1.63225 -3.39167 0
M  V30 12823 C 1200.88 0.552369 -2.71743 0
M  V30 12824 H 1203.83 -0.156009 -1.57931 0
M  V30 12825 H 1203.86 2.00352 -3.2348 0
M  V30 12826 H 1203.37 0.29288 -3.86993 0
M  V30 12827 H 1201.47 2.49733 -2.76522 0
M  V30 12828 H 1201.58 1.70807 -4.47618 0
M  V30 12829 H 1199.95 0.997797 -2.34342 0
M  V30 12830 H 1200.73 -0.279354 -3.42162 0
M  V30 12831 N 1203.17 1.53854 0.341593 0
M  V30 12832 C 1204.42 1.71194 1.08162 0
M  V30 12833 C 1204.75 0.47614 1.88582 0
M  V30 12834 O 1204 -0.542115 1.88041 0
M  V30 12835 C 1204.3 2.92844 2.04884 0
M  V30 12836 C 1203.97 4.28366 1.40759 0
M  V30 12837 C 1202.63 4.65214 1.23 0
M  V30 12838 C 1204.98 5.12546 0.945819 0
M  V30 12839 C 1202.31 5.83857 0.576852 0
M  V30 12840 C 1204.66 6.31857 0.306568 0
M  V30 12841 C 1203.33 6.67398 0.116677 0
M  V30 12842 H 1202.6 0.626442 0.395792 0
M  V30 12843 H 1205.24 1.88073 0.360688 0
M  V30 12844 H 1203.55 2.70576 2.83365 0
M  V30 12845 H 1205.25 3.03454 2.62139 0
M  V30 12846 H 1201.84 3.99366 1.5558 0
M  V30 12847 H 1206.02 4.84609 1.07087 0
M  V30 12848 H 1201.28 6.09967 0.418363 0
M  V30 12849 H 1205.45 6.96375 -0.0593285 0
M  V30 12850 H 1203.08 7.59191 -0.391477 0
M  V30 12851 N 1204.65 -0.602709 1.4562 0
M  V30 12852 C 1205.58 -1.72374 1.5751 0
M  V30 12853 C 1206.56 -1.64669 0.426389 0
M  V30 12854 O 1207.75 -1.82994 0.650143 0
M  V30 12855 C 1204.88 -3.10987 1.5461 0
M  V30 12856 C 1203.83 -3.33507 2.68248 0
M  V30 12857 C 1203.16 -4.72443 2.50403 0
M  V30 12858 C 1204.46 -3.23285 4.10224 0
M  V30 12859 H 1206.15 -1.62679 2.51348 0
M  V30 12860 H 1203.7 -0.781217 1.20967 0
M  V30 12861 H 1205.65 -3.89214 1.61525 0
M  V30 12862 H 1204.37 -3.21533 0.573049 0
M  V30 12863 H 1203.03 -2.57672 2.60769 0
M  V30 12864 H 1202.68 -4.79729 1.51226 0
M  V30 12865 H 1202.38 -4.88466 3.26611 0
M  V30 12866 H 1203.91 -5.52864 2.59179 0
M  V30 12867 H 1205.32 -3.91381 4.1892 0
M  V30 12868 H 1203.72 -3.50837 4.86861 0
M  V30 12869 H 1204.79 -2.20652 4.31788 0
M  V30 12870 N 1206.13 -1.32992 -0.845635 0
M  V30 12871 C 1207.35 -1.27231 -1.6379 0
M  V30 12872 C 1207.78 0.155141 -1.87459 0
M  V30 12873 O 1207.14 1.10953 -1.43384 0
M  V30 12874 C 1207.19 -2.04629 -2.96916 0
M  V30 12875 O 1206.29 -1.40027 -3.879 0
M  V30 12876 H 1205.63 -0.438045 -0.499011 0
M  V30 12877 H 1208.16 -1.75448 -1.05257 0
M  V30 12878 H 1208.17 -2.15141 -3.46667 0
M  V30 12879 H 1206.85 -3.08425 -2.79011 0
M  V30 12880 H 1205.42 -1.38118 -3.46378 0
M  V30 12881 N 1207.61 1.06304 -1.1635 0
M  V30 12882 C 1208.85 1.79101 -0.94494 0
M  V30 12883 C 1209.18 1.87217 0.527251 0
M  V30 12884 O 1208.44 1.35992 1.40729 0
M  V30 12885 C 1208.74 3.23589 -1.51741 0
M  V30 12886 C 1208.4 3.35552 -3.0119 0
M  V30 12887 C 1207.06 3.38525 -3.41986 0
M  V30 12888 C 1209.42 3.37482 -3.97184 0
M  V30 12889 C 1206.74 3.41042 -4.77396 0
M  V30 12890 C 1209.1 3.41537 -5.3248 0
M  V30 12891 C 1207.76 3.42792 -5.72757 0
M  V30 12892 H 1207.03 0.655377 -0.345778 0
M  V30 12893 H 1209.68 1.25017 -1.45062 0
M  V30 12894 H 1207.98 3.80525 -0.933164 0
M  V30 12895 H 1209.68 3.78512 -1.32399 0
M  V30 12896 H 1206.27 3.33944 -2.68662 0
M  V30 12897 H 1210.45 3.34397 -3.66732 0
M  V30 12898 H 1205.71 3.40317 -5.07931 0
M  V30 12899 H 1209.88 3.41977 -6.0665 0
M  V30 12900 H 1207.51 3.44495 -6.77663 0
M  V30 12901 N 1209.09 0.96196 1.24836 0
M  V30 12902 C 1210.5 0.667561 1.44968 0
M  V30 12903 C 1210.7 -0.772521 1.86103 0
M  V30 12904 O 1209.76 -1.54704 1.99557 0
M  V30 12905 C 1211.07 1.64675 2.516 0
M  V30 12906 C 1212.62 1.65874 2.65433 0
M  V30 12907 C 1213.09 2.62576 3.75257 0
M  V30 12908 N 1214.58 2.60984 3.82677 0
M  V30 12909 C 1215.32 3.32484 4.67163 0
M  V30 12910 N 1214.82 4.13482 5.55882 0
M  V30 12911 N 1216.61 3.21336 4.61193 0
M  V30 12912 H 1208.76 1.89248 0.964307 0
M  V30 12913 H 1211.02 0.814443 0.485167 0
M  V30 12914 H 1210.73 2.67572 2.2825 0
M  V30 12915 H 1210.6 1.415 3.49653 0
M  V30 12916 H 1212.99 0.636912 2.88145 0
M  V30 12917 H 1213.07 1.9311 1.67756 0
M  V30 12918 H 1212.71 3.6489 3.53295 0
M  V30 12919 H 1212.64 2.32622 4.72435 0
M  V30 12920 H 1215.14 2.02187 3.19263 0
M  V30 12921 H 1215.45 4.6494 6.17293 0
M  V30 12922 H 1213.79 4.17578 5.55566 0
M  V30 12923 H 1216.98 2.57524 3.90895 0
M  V30 12924 H 1217.16 3.77323 5.26812 0
M  V30 12925 N 1210.56 -1.39601 0.731392 0
M  V30 12926 C 1211.79 -2.05411 0.286532 0
M  V30 12927 C 1212.21 -1.54777 -1.06892 0
M  V30 12928 O 1211.57 -0.689942 -1.67659 0
M  V30 12929 C 1211.62 -3.594 0.293914 0
M  V30 12930 O 1210.72 -4.06072 -0.719657 0
M  V30 12931 H 1210.06 -0.650949 0.131004 0
M  V30 12932 H 1212.59 -1.78703 0.996305 0
M  V30 12933 H 1212.6 -4.0777 0.137052 0
M  V30 12934 H 1211.28 -3.95617 1.28298 0
M  V30 12935 H 1209.86 -3.69125 -0.529226 0
M  V30 12936 N 1212.04 -0.478751 -1.50152 0
M  V30 12937 C 1213.27 0.0732929 -2.0727 0
M  V30 12938 C 1213.69 1.32066 -1.33941 0
M  V30 12939 O 1213.05 1.7707 -0.389367 0
M  V30 12940 C 1213.1 0.332528 -3.59064 0
M  V30 12941 O 1212.2 1.41158 -3.8749 0
M  V30 12942 H 1211.54 -0.0163684 -0.663798 0
M  V30 12943 H 1214.07 -0.671993 -1.9325 0
M  V30 12944 H 1214.08 0.570735 -4.03988 0
M  V30 12945 H 1212.76 -0.578934 -4.11851 0
M  V30 12946 H 1211.34 1.16008 -3.54396 0
M  V30 12947 N 1213.52 1.56172 -0.211661 0
M  V30 12948 C 1214.43 2.23468 0.714081 0
M  V30 12949 C 1215.45 1.23908 1.22159 0
M  V30 12950 O 1216.62 1.56693 1.26528 0
M  V30 12951 C 1213.69 2.89375 1.90953 0
M  V30 12952 C 1212.75 4.04251 1.44497 0
M  V30 12953 C 1211.98 4.67006 2.58343 0
M  V30 12954 O 1212.2 4.28721 3.76237 0
M  V30 12955 O 1211.14 5.56177 2.3011 0
M  V30 12956 H 1214.96 3.03219 0.170862 0
M  V30 12957 H 1212.55 1.49389 0.0183607 0
M  V30 12958 H 1214.43 3.3101 2.60787 0
M  V30 12959 H 1213.11 2.12591 2.44104 0
M  V30 12960 H 1212.01 3.67205 0.714932 0
M  V30 12961 H 1213.35 4.82748 0.959947 0
M  V30 12962 N 1215 -0.0618163 1.57479 0
M  V30 12963 C 1215.95 -1.0724 2.04373 0
M  V30 12964 C 1216.92 -1.37875 0.926271 0
M  V30 12965 O 1218.1 -1.48772 1.19463 0
M  V30 12966 C 1215.24 -2.37805 2.50085 0
M  V30 12967 C 1214.35 -2.13614 3.7549 0
M  V30 12968 C 1213.49 -3.37814 4.09945 0
M  V30 12969 C 1212.53 -3.09032 5.28361 0
M  V30 12970 N 1211.66 -4.25591 5.58406 0
M  V30 12971 H 1216.5 -0.665536 2.90473 0
M  V30 12972 H 1214.04 -0.317043 1.43643 0
M  V30 12973 H 1216 -3.14048 2.74644 0
M  V30 12974 H 1214.63 -2.76275 1.66948 0
M  V30 12975 H 1213.68 -1.28017 3.58212 0
M  V30 12976 H 1214.99 -1.88361 4.61867 0
M  V30 12977 H 1214.15 -4.22447 4.35458 0
M  V30 12978 H 1212.89 -3.66153 3.22154 0
M  V30 12979 H 1211.89 -2.22797 5.02635 0
M  V30 12980 H 1213.12 -2.82006 6.17778 0
M  V30 12981 H 1211.06 -4.53941 4.73575 0
M  V30 12982 H 1210.98 -4.03646 6.39223 0
M  V30 12983 H 1212.25 -5.11191 5.88476 0
M  V30 12984 N 1216.48 -1.54033 -0.333429 0
M  V30 12985 C 1217.75 -1.62404 -1.09015 0
M  V30 12986 C 1218.13 -0.451653 -2.06212 0
M  V30 12987 O 1217.48 0.555086 -2.21655 0
M  V30 12988 C 1217.69 -2.98949 -1.80085 0
M  V30 12989 C 1219.04 -3.54655 -2.33464 0
M  V30 12990 O 1220.06 -3.0119 -1.90166 0
M  V30 12991 O 1218.92 -4.48195 -3.12703 0
M  V30 12992 H 1216.02 -0.65727 -0.501921 0
M  V30 12993 H 1218.56 -1.66378 -0.33411 0
M  V30 12994 H 1217.33 -3.75716 -1.09332 0
M  V30 12995 H 1216.96 -2.98609 -2.62523 0
M  V30 12996 N 1217.95 0.594978 -1.45938 0
M  V30 12997 C 1219.18 1.38482 -1.54394 0
M  V30 12998 C 1219.6 1.87222 -0.181563 0
M  V30 12999 O 1218.96 1.60869 0.836119 0
M  V30 13000 C 1219.01 2.55676 -2.54287 0
M  V30 13001 O 1218.11 3.5672 -2.06941 0
M  V30 13002 H 1217.46 0.412918 -0.519995 0
M  V30 13003 H 1219.99 0.722899 -1.91404 0
M  V30 13004 H 1220 3.02756 -2.73501 0
M  V30 13005 H 1218.67 2.19552 -3.53228 0
M  V30 13006 H 1217.25 3.16204 -1.97661 0
M  V30 13007 N 1219.43 1.33438 0.838571 0
M  V30 13008 C 1220.4 1.23632 1.92997 0
M  V30 13009 C 1221.4 0.155302 1.60048 0
M  V30 13010 O 1222.59 0.406852 1.69382 0
M  V30 13011 C 1219.72 0.90512 3.28665 0
M  V30 13012 H 1220.91 2.20643 2.03117 0
M  V30 13013 H 1218.46 1.17501 1.03069 0
M  V30 13014 H 1219.2 -0.0624833 3.2424 0
M  V30 13015 H 1218.98 1.68688 3.53959 0
M  V30 13016 H 1220.47 0.861262 4.08622 0
M  V30 13017 N 1220.91 -1.05686 1.16912 0
M  V30 13018 C 1221.86 -2.13312 0.88129 0
M  V30 13019 C 1222.83 -1.65199 -0.172783 0
M  V30 13020 O 1224.01 -1.90765 -0.0366542 0
M  V30 13021 C 1221.15 -3.42829 0.395264 0
M  V30 13022 C 1220.27 -4.04643 1.51288 0
M  V30 13023 C 1219.4 -5.22059 0.981238 0
M  V30 13024 C 1218.44 -5.75869 2.07464 0
M  V30 13025 N 1217.58 -6.84592 1.55813 0
M  V30 13026 H 1222.42 -2.37271 1.80295 0
M  V30 13027 H 1219.95 -1.16407 0.899322 0
M  V30 13028 H 1221.91 -4.17092 0.0950633 0
M  V30 13029 H 1220.54 -3.19068 -0.489445 0
M  V30 13030 H 1219.59 -3.27867 1.92891 0
M  V30 13031 H 1220.91 -4.40626 2.33774 0
M  V30 13032 H 1220.06 -6.03372 0.634586 0
M  V30 13033 H 1218.8 -4.87538 0.125754 0
M  V30 13034 H 1217.8 -4.93188 2.42992 0
M  V30 13035 H 1219.03 -6.12439 2.93419 0
M  V30 13036 H 1216.97 -6.51978 0.725283 0
M  V30 13037 H 1216.89 -7.19551 2.31911 0
M  V30 13038 H 1218.16 -7.6957 1.24025 0
M  V30 13039 N 1222.39 -0.968567 -1.24324 0
M  V30 13040 C 1223.67 -0.547774 -1.87773 0
M  V30 13041 C 1224.05 0.975107 -1.87229 0
M  V30 13042 O 1223.39 1.84683 -1.34553 0
M  V30 13043 C 1223.6 -1.1403 -3.29846 0
M  V30 13044 C 1224.95 -1.22572 -4.06523 0
M  V30 13045 O 1225.98 -1.09287 -3.3902 0
M  V30 13046 O 1224.83 -1.43579 -5.27302 0
M  V30 13047 H 1221.93 -0.182771 -0.806551 0
M  V30 13048 H 1224.47 -1.06289 -1.3229 0
M  V30 13049 H 1223.25 -2.18303 -3.24745 0
M  V30 13050 H 1222.87 -0.609275 -3.92904 0
M  V30 13051 N 1223.87 1.39211 -0.738786 0
M  V30 13052 C 1225.28 1.83237 -0.357916 0
M  V30 13053 C 1225.63 1.61698 1.11123 0
M  V30 13054 O 1224.75 1.11017 1.85753 0
M  V30 13055 C 1225.35 3.32645 -0.64285 0
M  V30 13056 C 1223.91 3.75076 -0.315432 0
M  V30 13057 C 1223.05 2.62166 -0.903556 0
M  V30 13058 H 1226.01 1.2815 -0.936127 0
M  V30 13059 H 1226.03 3.80407 0.0840812 0
M  V30 13060 H 1225.54 3.4829 -1.71218 0
M  V30 13061 H 1223.64 3.65017 0.747907 0
M  V30 13062 H 1223.75 4.72363 -0.800638 0
M  V30 13063 H 1222.12 2.52554 -0.329927 0
M  V30 13064 H 1222.9 2.80616 -1.97761 0
M  V30 13065 N 1225.34 0.486708 1.49896 0
M  V30 13066 C 1226.59 -0.0627279 2.02003 0
M  V30 13067 C 1226.91 -1.38799 1.36967 0
M  V30 13068 O 1226.18 -1.88868 0.520173 0
M  V30 13069 H 1224.76 -0.0261718 0.746541 0
M  V30 13070 H 1227.43 0.640692 1.84068 0
M  V30 13071 H 1226.52 -0.202856 3.1144 0
M  V30 13072 N 1226.82 -1.56058 0.219941 0
M  V30 13073 C 1228.07 -1.97436 -0.412543 0
M  V30 13074 C 1228.39 -1.11058 -1.61014 0
M  V30 13075 O 1229.59 -1.42328 -2.31203 0
M  V30 13076 C 1228.05 -3.51227 -0.785362 0
M  V30 13077 C 1227.66 -4.46305 0.389328 0
M  V30 13078 C 1229.4 -4.01321 -1.38354 0
M  V30 13079 C 1227.31 -5.914 -0.00583531 0
M  V30 13080 H 1226.24 -0.73728 -0.157906 0
M  V30 13081 H 1228.89 -1.8076 0.315898 0
M  V30 13082 H 1227.27 -3.63497 -1.57118 0
M  V30 13083 H 1228.44 -4.45781 1.16686 0
M  V30 13084 H 1226.76 -4.06543 0.900633 0
M  V30 13085 H 1229.36 -5.07221 -1.69207 0
M  V30 13086 H 1229.7 -3.47077 -2.29876 0
M  V30 13087 H 1230.23 -3.92267 -0.66119 0
M  V30 13088 H 1226.97 -6.49623 0.87583 0
M  V30 13089 H 1226.49 -5.95121 -0.74772 0
M  V30 13090 H 1228.17 -6.45549 -0.43308 0
M  V30 13091 N 1228.3 0.053464 -1.57509 0
M  V30 13092 C 1229.53 0.765301 -1.92764 0
M  V30 13093 C 1229.95 1.69385 -0.817943 0
M  V30 13094 O 1229.31 1.7986 0.228075 0
M  V30 13095 C 1229.36 1.51938 -3.27028 0
M  V30 13096 O 1228.46 2.63121 -3.17555 0
M  V30 13097 H 1227.8 0.207567 -0.630723 0
M  V30 13098 H 1230.33 0.0162254 -2.04594 0
M  V30 13099 H 1230.34 1.89466 -3.6134 0
M  V30 13100 H 1229.02 0.838207 -4.07366 0
M  V30 13101 H 1227.59 2.28316 -2.94832 0
M  V30 13102 N 1229.78 1.54207 0.325255 0
M  V30 13103 C 1231.03 1.71991 1.0613 0
M  V30 13104 C 1231.35 0.495505 1.88599 0
M  V30 13105 O 1230.62 -0.490504 1.8966 0
M  V30 13106 H 1229.2 0.634137 0.394816 0
M  V30 13107 H 1231.86 1.91507 0.362101 0
M  V30 13108 H 1230.96 2.59878 1.72829 0
M  V30 13109 N 1231.26 -0.58723 1.46251 0
M  V30 13110 C 1232.17 -1.72455 1.59048 0
M  V30 13111 C 1233.18 -1.67416 0.47413 0
M  V30 13112 O 1234.36 -1.87406 0.737633 0
M  V30 13113 C 1231.42 -3.08953 1.57318 0
M  V30 13114 C 1230.49 -3.25291 2.80151 0
M  V30 13115 C 1229.72 -4.55277 2.78493 0
M  V30 13116 O 1229.94 -5.38883 1.8698 0
M  V30 13117 O 1228.88 -4.74765 3.69975 0
M  V30 13118 H 1232.7 -1.64606 2.55223 0
M  V30 13119 H 1230.29 -0.753742 1.28993 0
M  V30 13120 H 1232.17 -3.90239 1.59033 0
M  V30 13121 H 1230.84 -3.17249 0.643025 0
M  V30 13122 H 1229.75 -2.43515 2.83991 0
M  V30 13123 H 1231.08 -3.21883 3.7236 0
M  V30 13124 N 1232.74 -1.33881 -0.831482 0
M  V30 13125 C 1233.7 -1.24654 -1.92339 0
M  V30 13126 C 1234.7 -0.163788 -1.59964 0
M  V30 13127 O 1235.89 -0.415829 -1.69164 0
M  V30 13128 C 1233.02 -0.922537 -3.2818 0
M  V30 13129 H 1234.21 -2.21717 -2.01944 0
M  V30 13130 H 1231.77 -1.18046 -1.02445 0
M  V30 13131 H 1232.5 0.0452872 -3.24268 0
M  V30 13132 H 1232.29 -1.70562 -3.53059 0
M  V30 13133 H 1233.78 -0.88292 -4.0816 0
M  V30 13134 N 1234.21 1.05064 -1.1747 0
M  V30 13135 C 1235.44 1.81761 -0.988464 0
M  V30 13136 C 1235.86 1.83028 0.463272 0
M  V30 13137 O 1235.21 1.25846 1.32171 0
M  V30 13138 C 1235.26 3.2782 -1.5237 0
M  V30 13139 O 1234.99 3.26726 -2.91859 0
M  V30 13140 C 1236.49 4.212 -1.38223 0
M  V30 13141 H 1233.71 0.572712 -0.349631 0
M  V30 13142 H 1236.25 1.32477 -1.55789 0
M  V30 13143 H 1234.41 3.7437 -0.996272 0
M  V30 13144 H 1234.82 4.18151 -3.16623 0
M  V30 13145 H 1236.29 5.2166 -1.80485 0
M  V30 13146 H 1236.77 4.37962 -0.329491 0
M  V30 13147 H 1237.38 3.80506 -1.89988 0
M  V30 13148 N 1235.69 0.975146 1.23809 0
M  V30 13149 C 1237.11 0.682899 1.44252 0
M  V30 13150 C 1237.31 -0.752739 1.86912 0
M  V30 13151 O 1236.36 -1.52579 2.01186 0
M  V30 13152 C 1237.68 1.67335 2.49839 0
M  V30 13153 C 1239.22 1.6868 2.63659 0
M  V30 13154 C 1239.7 2.66542 3.72451 0
M  V30 13155 N 1241.19 2.65028 3.79887 0
M  V30 13156 C 1241.93 3.37421 4.63611 0
M  V30 13157 N 1241.42 4.19355 5.51465 0
M  V30 13158 N 1243.21 3.2621 4.57759 0
M  V30 13159 H 1235.37 1.9026 0.94418 0
M  V30 13160 H 1237.63 0.819543 0.476502 0
M  V30 13161 H 1237.33 2.69978 2.25399 0
M  V30 13162 H 1237.21 1.45201 3.48133 0
M  V30 13163 H 1239.6 0.667438 2.87453 0
M  V30 13164 H 1239.68 1.94878 1.65699 0
M  V30 13165 H 1239.32 3.68617 3.49405 0
M  V30 13166 H 1239.25 2.3762 4.69941 0
M  V30 13167 H 1241.74 2.05562 3.171 0
M  V30 13168 H 1242.05 4.71461 6.12327 0
M  V30 13169 H 1240.4 4.23447 5.51106 0
M  V30 13170 H 1243.59 2.61656 3.88142 0
M  V30 13171 H 1243.76 3.82889 5.22781 0
M  V30 13172 N 1237.17 -1.38817 0.746158 0
M  V30 13173 C 1238.12 -2.27825 0.089362 0
M  V30 13174 C 1239.1 -1.44826 -0.701013 0
M  V30 13175 O 1240.3 -1.67632 -0.568188 0
M  V30 13176 C 1237.42 -3.33639 -0.808682 0
M  V30 13177 C 1236.51 -4.24098 -0.0118582 0
M  V30 13178 N 1236.9 -4.95393 1.02075 0
M  V30 13179 C 1235.2 -4.45355 -0.239815 0
M  V30 13180 C 1235.9 -5.61969 1.5022 0
M  V30 13181 N 1234.88 -5.37398 0.818816 0
M  V30 13182 H 1238.68 -2.80406 0.88033 0
M  V30 13183 H 1236.19 -1.51632 0.581512 0
M  V30 13184 H 1238.19 -3.96284 -1.29478 0
M  V30 13185 H 1236.85 -2.82617 -1.59868 0
M  V30 13186 H 1237.86 -4.98552 1.40237 0
M  V30 13187 H 1234.54 -4.05255 -1.00374 0
M  V30 13188 H 1235.93 -6.29017 2.36192 0
M  V30 13189 N 1238.65 -0.49465 -1.49636 0
M  V30 13190 C 1239.9 0.0520143 -2.02033 0
M  V30 13191 C 1240.22 1.38071 -1.37701 0
M  V30 13192 O 1239.49 1.88589 -0.530181 0
M  V30 13193 H 1238.07 0.0222123 -0.74667 0
M  V30 13194 H 1240.73 -0.650445 -1.83726 0
M  V30 13195 H 1239.82 0.186337 -3.11543 0
M  V30 13196 N 1240.13 1.55939 -0.228214 0
M  V30 13197 C 1241.37 1.98084 0.400884 0
M  V30 13198 C 1241.69 1.11727 1.59819 0
M  V30 13199 O 1240.96 0.195794 1.94919 0
M  V30 13200 H 1239.54 0.731558 0.151102 0
M  V30 13201 H 1242.21 1.92211 -0.322659 0
M  V30 13202 H 1241.3 3.03617 0.722706 0
M  V30 13203 N 1241.6 -0.0451101 1.57535 0
M  V30 13204 C 1242.51 -1.06796 2.08882 0
M  V30 13205 C 1243.53 -1.40682 1.02394 0
M  V30 13206 O 1244.71 -1.50324 1.34033 0
M  V30 13207 C 1241.77 -2.35467 2.54472 0
M  V30 13208 C 1240.83 -2.0831 3.75374 0
M  V30 13209 C 1240.07 -3.30846 4.1878 0
M  V30 13210 O 1240.29 -4.40945 3.61834 0
M  V30 13211 O 1239.22 -3.17488 5.11356 0
M  V30 13212 H 1243.05 -0.661658 2.96405 0
M  V30 13213 H 1240.63 -0.26104 1.47102 0
M  V30 13214 H 1242.52 -3.11143 2.84198 0
M  V30 13215 H 1241.19 -2.75425 1.70068 0
M  V30 13216 H 1240.1 -1.30254 3.50692 0
M  V30 13217 H 1241.43 -1.73218 4.60713 0
M  V30 13218 N 1243.08 -1.54377 -0.317073 0
M  V30 13219 C 1244.49 -1.64062 -0.891105 0
M  V30 13220 C 1244.84 -0.538863 -1.88655 0
M  V30 13221 O 1243.97 0.32718 -2.13912 0
M  V30 13222 C 1244.56 -2.97395 -1.62302 0
M  V30 13223 C 1243.12 -3.09253 -2.14568 0
M  V30 13224 C 1242.27 -2.59664 -0.973146 0
M  V30 13225 H 1245.22 -1.58418 -0.0944829 0
M  V30 13226 H 1245.24 -2.87918 -2.48764 0
M  V30 13227 H 1244.75 -3.77562 -0.898268 0
M  V30 13228 H 1242.86 -2.33774 -2.90139 0
M  V30 13229 H 1242.97 -4.15159 -2.39123 0
M  V30 13230 H 1241.33 -2.15719 -1.35416 0
M  V30 13231 H 1242.12 -3.42294 -0.262611 0
M  V30 13232 N 1244.56 0.579466 -1.4656 0
M  V30 13233 C 1245.84 1.33973 -1.42515 0
M  V30 13234 C 1246.22 2.10812 -0.110317 0
M  V30 13235 O 1245.57 2.09679 0.908135 0
M  V30 13236 C 1245.78 2.26301 -2.65686 0
M  V30 13237 C 1247.12 2.88027 -3.1197 0
M  V30 13238 O 1248.15 2.36612 -2.66257 0
M  V30 13239 O 1247.01 3.81423 -3.9138 0
M  V30 13240 H 1244.1 0.602121 -0.566903 0
M  V30 13241 H 1246.65 0.600214 -1.58731 0
M  V30 13242 H 1245.42 1.68973 -3.52936 0
M  V30 13243 H 1245.04 3.07586 -2.51945 0
M  V30 13244 N 1246.04 1.3432 0.824371 0
M  V30 13245 C 1246.97 1.2842 1.95014 0
M  V30 13246 C 1247.95 0.161925 1.69328 0
M  V30 13247 O 1249.13 0.354052 1.90945 0
M  V30 13248 C 1246.26 1.03741 3.31444 0
M  V30 13249 C 1245.22 2.12419 3.71567 0
M  V30 13250 C 1244.54 1.72931 5.05963 0
M  V30 13251 C 1245.84 3.54235 3.83817 0
M  V30 13252 H 1247.54 2.22614 2.00209 0
M  V30 13253 H 1245.08 1.07165 0.961856 0
M  V30 13254 H 1247.04 0.982586 4.09784 0
M  V30 13255 H 1245.76 0.0598892 3.26545 0
M  V30 13256 H 1244.42 2.16968 2.955 0
M  V30 13257 H 1244.07 0.738433 4.9755 0
M  V30 13258 H 1243.77 2.45668 5.3378 0
M  V30 13259 H 1245.29 1.68941 5.86763 0
M  V30 13260 H 1246.71 3.52106 4.52432 0
M  V30 13261 H 1245.1 4.25581 4.23085 0
M  V30 13262 H 1246.17 3.91682 2.85856 0
M  V30 13263 N 1247.52 -1.0444 1.18026 0
M  V30 13264 C 1248.93 -1.29766 0.929143 0
M  V30 13265 C 1249.13 -1.97338 -0.407436 0
M  V30 13266 O 1248.19 -2.25166 -1.14265 0
M  V30 13267 C 1249.5 -2.16002 2.09197 0
M  V30 13268 C 1251.05 -2.29361 2.12985 0
M  V30 13269 C 1251.52 -3.18962 3.28675 0
M  V30 13270 N 1253.02 -3.26549 3.28512 0
M  V30 13271 C 1253.75 -3.96025 4.14671 0
M  V30 13272 N 1253.25 -4.67863 5.10956 0
M  V30 13273 N 1255.04 -3.92266 4.02597 0
M  V30 13274 H 1247.19 -0.58984 2.04046 0
M  V30 13275 H 1249.45 -0.322752 0.891367 0
M  V30 13276 H 1249.16 -1.73653 3.05839 0
M  V30 13277 H 1249.03 -3.16667 2.04943 0
M  V30 13278 H 1251.42 -2.70948 1.16924 0
M  V30 13279 H 1251.5 -1.28299 2.21298 0
M  V30 13280 H 1251.15 -2.78087 4.25006 0
M  V30 13281 H 1251.08 -4.20047 3.17598 0
M  V30 13282 H 1253.57 -2.75371 2.58804 0
M  V30 13283 H 1253.88 -5.1846 5.73079 0
M  V30 13284 H 1252.22 -4.6678 5.14919 0
M  V30 13285 H 1255.42 -3.35273 3.26665 0
M  V30 13286 H 1255.59 -4.4614 4.69961 0
M  V30 13287 N 1248.99 -0.981699 -1.2329 0
M  V30 13288 C 1250.41 -0.688087 -1.73558 0
M  V30 13289 C 1250.76 0.795633 -1.79344 0
M  V30 13290 O 1249.88 1.62227 -1.43218 0
M  V30 13291 C 1250.48 -1.24235 -3.152 0
M  V30 13292 C 1249.04 -0.998356 -3.62918 0
M  V30 13293 C 1248.18 -1.3693 -2.41134 0
M  V30 13294 H 1251.13 -1.15539 -1.08795 0
M  V30 13295 H 1251.15 -0.61541 -3.7549 0
M  V30 13296 H 1250.67 -2.32223 -3.10957 0
M  V30 13297 H 1248.77 0.0653847 -3.72543 0
M  V30 13298 H 1248.88 -1.65385 -4.49649 0
M  V30 13299 H 1247.24 -0.787773 -2.42211 0
M  V30 13300 H 1248.03 -2.45898 -2.39561 0
M  V30 13301 N 1250.47 1.3842 -0.753509 0
M  V30 13302 C 1251.38 2.34252 -0.127811 0
M  V30 13303 C 1252.4 1.59266 0.700743 0
M  V30 13304 O 1253.57 1.9146 0.624914 0
M  V30 13305 C 1250.64 3.38382 0.754886 0
M  V30 13306 C 1249.7 4.2921 -0.0880312 0
M  V30 13307 C 1248.93 5.28367 0.75263 0
M  V30 13308 O 1249.16 5.34537 1.99064 0
M  V30 13309 O 1248.09 6.01656 0.171475 0
M  V30 13310 H 1251.92 2.89454 -0.91925 0
M  V30 13311 H 1249.5 1.40265 -0.514404 0
M  V30 13312 H 1251.38 4.02141 1.25938 0
M  V30 13313 H 1250.06 2.85536 1.52482 0
M  V30 13314 H 1248.97 3.68611 -0.638468 0
M  V30 13315 H 1250.3 4.85311 -0.82062 0
M  V30 13316 N 1251.95 0.502579 1.49372 0
M  V30 13317 C 1253.2 -0.0412993 2.02058 0
M  V30 13318 C 1253.52 -1.37338 1.38431 0
M  V30 13319 O 1252.79 -1.88305 0.540175 0
M  V30 13320 H 1251.37 -0.0182522 0.746777 0
M  V30 13321 H 1254.03 0.660179 1.83378 0
M  V30 13322 H 1253.13 -0.169812 3.11638 0
M  V30 13323 N 1253.43 -1.55816 0.23648 0
M  V30 13324 C 1254.84 -1.59159 -0.118601 0
M  V30 13325 C 1255.04 -1.25352 -1.57763 0
M  V30 13326 O 1254.1 -0.995863 -2.32032 0
M  V30 13327 C 1255.41 -2.99885 0.221175 0
M  V30 13328 C 1256.96 -3.12567 0.164624 0
M  V30 13329 C 1257.44 -4.55496 0.478285 0
M  V30 13330 N 1258.93 -4.61215 0.428402 0
M  V30 13331 C 1259.66 -5.69768 0.644398 0
M  V30 13332 N 1259.16 -6.86624 0.922966 0
M  V30 13333 N 1260.95 -5.59143 0.575814 0
M  V30 13334 H 1253.1 -1.76063 1.18809 0
M  V30 13335 H 1255.37 -0.819079 0.477297 0
M  V30 13336 H 1255.07 -3.29326 1.2344 0
M  V30 13337 H 1254.95 -3.74425 -0.456723 0
M  V30 13338 H 1257.33 -2.82914 -0.839263 0
M  V30 13339 H 1257.41 -2.40325 0.876219 0
M  V30 13340 H 1257.06 -4.85868 1.47968 0
M  V30 13341 H 1256.99 -5.25984 -0.254671 0
M  V30 13342 H 1259.48 -3.77251 0.221398 0
M  V30 13343 H 1259.79 -7.6528 1.07548 0
M  V30 13344 H 1258.14 -6.88333 0.960325 0
M  V30 13345 H 1261.33 -4.66727 0.358307 0
M  V30 13346 H 1261.5 -6.43674 0.747548 0
M  V30 13347 N 1254.91 0.036755 -1.57557 0
M  V30 13348 C 1256.32 0.392264 -1.54704 0
M  V30 13349 C 1256.52 1.77076 -0.96157 0
M  V30 13350 O 1255.58 2.45766 -0.579263 0
M  V30 13351 C 1256.89 0.301168 -2.99188 0
M  V30 13352 C 1258.44 0.378813 -3.10699 0
M  V30 13353 C 1258.91 0.317249 -4.569 0
M  V30 13354 N 1260.41 0.376277 -4.61669 0
M  V30 13355 C 1261.14 0.351411 -5.72322 0
M  V30 13356 N 1260.64 0.279288 -6.92237 0
M  V30 13357 N 1262.43 0.400571 -5.60671 0
M  V30 13358 H 1254.58 -0.865455 -1.93968 0
M  V30 13359 H 1256.84 -0.328339 -0.889324 0
M  V30 13360 H 1256.55 -0.64582 -3.4572 0
M  V30 13361 H 1256.42 1.09784 -3.6087 0
M  V30 13362 H 1258.81 1.31623 -2.6412 0
M  V30 13363 H 1258.89 -0.447072 -2.51863 0
M  V30 13364 H 1258.54 -0.616469 -5.04145 0
M  V30 13365 H 1258.47 1.16114 -5.13639 0
M  V30 13366 H 1260.96 0.434843 -3.7539 0
M  V30 13367 H 1261.27 0.265202 -7.72345 0
M  V30 13368 H 1259.61 0.24545 -6.94566 0
M  V30 13369 H 1262.81 0.454854 -4.65885 0
M  V30 13370 H 1262.98 0.377724 -6.46898 0
M  V30 13371 N 1256.39 1.54543 0.308881 0
M  V30 13372 C 1257.61 1.77753 1.06857 0
M  V30 13373 C 1258.04 0.531616 1.80431 0
M  V30 13374 O 1257.39 -0.517513 1.73757 0
M  V30 13375 C 1257.44 2.97968 2.03094 0
M  V30 13376 O 1256.55 2.70541 3.11257 0
M  V30 13377 H 1255.89 0.588576 0.307368 0
M  V30 13378 H 1258.42 2.01607 0.348703 0
M  V30 13379 H 1258.43 3.25722 2.45702 0
M  V30 13380 H 1257.1 3.88314 1.48948 0
M  V30 13381 H 1255.68 2.53781 2.7322 0
M  V30 13382 N 1257.86 -0.571685 1.46866 0
M  V30 13383 C 1258.79 -1.68994 1.61131 0
M  V30 13384 C 1259.77 -1.63728 0.461222 0
M  V30 13385 O 1260.96 -1.81574 0.688813 0
M  V30 13386 C 1258.09 -3.07638 1.61172 0
M  V30 13387 C 1257.04 -3.27742 2.75262 0
M  V30 13388 C 1256.37 -4.67025 2.60368 0
M  V30 13389 C 1257.67 -3.14511 4.16989 0
M  V30 13390 H 1259.36 -1.57311 2.54742 0
M  V30 13391 H 1256.91 -0.755382 1.22597 0
M  V30 13392 H 1258.86 -3.857 1.69744 0
M  V30 13393 H 1257.59 -3.20245 0.641122 0
M  V30 13394 H 1256.25 -2.52083 2.66176 0
M  V30 13395 H 1255.89 -4.76413 1.61368 0
M  V30 13396 H 1255.59 -4.81428 3.36899 0
M  V30 13397 H 1257.12 -5.47242 2.70848 0
M  V30 13398 H 1258.53 -3.82407 4.27128 0
M  V30 13399 H 1256.93 -3.40431 4.94193 0
M  V30 13400 H 1258 -2.11443 4.36371 0
M  V30 13401 N 1259.34 -1.34755 -0.817236 0
M  V30 13402 C 1260.76 -1.14561 -1.11121 0
M  V30 13403 C 1260.96 0.0490776 -2.0144 0
M  V30 13404 O 1260.01 0.722897 -2.41931 0
M  V30 13405 C 1261.33 -2.44356 -1.75244 0
M  V30 13406 C 1262.87 -2.50465 -1.87713 0
M  V30 13407 C 1263.35 -3.80276 -2.55253 0
M  V30 13408 N 1264.84 -3.81468 -2.62747 0
M  V30 13409 C 1265.58 -4.78634 -3.15749 0
M  V30 13410 N 1265.07 -5.86184 -3.6927 0
M  V30 13411 N 1266.86 -4.66083 -3.14203 0
M  V30 13412 H 1259.02 -2.11293 -0.2166 0
M  V30 13413 H 1261.28 -0.934629 -0.158661 0
M  V30 13414 H 1260.98 -3.31899 -1.16344 0
M  V30 13415 H 1260.86 -2.58117 -2.75055 0
M  V30 13416 H 1263.25 -1.63358 -2.45761 0
M  V30 13417 H 1263.33 -2.40627 -0.867887 0
M  V30 13418 H 1262.97 -4.67776 -1.97858 0
M  V30 13419 H 1262.9 -3.87399 -3.56693 0
M  V30 13420 H 1265.39 -3.03753 -2.24817 0
M  V30 13421 H 1265.7 -6.56332 -4.0798 0
M  V30 13422 H 1264.05 -5.8989 -3.67498 0
M  V30 13423 H 1267.24 -3.81206 -2.7166 0
M  V30 13424 H 1267.41 -5.41973 -3.55203 0
M  V30 13425 N 1260.82 1.03812 -1.18578 0
M  V30 13426 C 1261.75 2.11436 -0.858502 0
M  V30 13427 C 1262.73 1.61594 0.180604 0
M  V30 13428 O 1263.91 1.88408 0.058995 0
M  V30 13429 C 1261.04 3.37514 -0.283154 0
M  V30 13430 C 1260.09 4.0621 -1.29985 0
M  V30 13431 S 1260.92 4.52936 -2.85673 0
M  V30 13432 C 1262.08 5.82245 -2.29656 0
M  V30 13433 H 1262.31 2.38871 -1.76997 0
M  V30 13434 H 1259.84 1.16617 -1.01192 0
M  V30 13435 H 1261.8 4.10478 0.0422898 0
M  V30 13436 H 1260.46 3.08189 0.60647 0
M  V30 13437 H 1259.65 4.96845 -0.84621 0
M  V30 13438 H 1259.26 3.39374 -1.57166 0
M  V30 13439 H 1261.55 6.56321 -1.68074 0
M  V30 13440 H 1262.49 6.32375 -3.18602 0
M  V30 13441 H 1262.9 5.37472 -1.72581 0
M  V30 13442 N 1262.3 0.988223 1.22768 0
M  V30 13443 C 1263.55 0.660154 1.91014 0
M  V30 13444 C 1263.87 -0.809788 1.77391 0
M  V30 13445 O 1263.14 -1.57998 1.15817 0
M  V30 13446 H 1261.72 0.24118 0.706995 0
M  V30 13447 H 1264.38 1.25372 1.49224 0
M  V30 13448 H 1263.47 0.918603 2.98275 0
M  V30 13449 N 1263.78 -1.38018 0.760839 0
M  V30 13450 C 1264.74 -2.28734 0.146154 0
M  V30 13451 C 1265.74 -1.47525 -0.639768 0
M  V30 13452 O 1266.93 -1.6788 -0.464964 0
M  V30 13453 C 1264.06 -3.31356 -0.801019 0
M  V30 13454 H 1265.25 -2.84599 0.945692 0
M  V30 13455 H 1262.81 -1.471 0.528323 0
M  V30 13456 H 1263.54 -2.80594 -1.62597 0
M  V30 13457 H 1263.33 -3.91366 -0.239775 0
M  V30 13458 H 1264.82 -3.99171 -1.22687 0
M  V30 13459 N 1265.25 -0.510493 -1.49103 0
M  V30 13460 C 1266.5 0.030689 -2.02777 0
M  V30 13461 C 1266.83 1.35765 -1.38858 0
M  V30 13462 O 1266.11 1.87209 -0.527528 0
M  V30 13463 C 1266.39 0.173261 -3.59683 0
M  V30 13464 C 1266.24 -1.17749 -4.34114 0
M  V30 13465 C 1267.56 0.909395 -4.30602 0
M  V30 13466 H 1264.68 0.0096789 -0.736936 0
M  V30 13467 H 1267.32 -0.663746 -1.78029 0
M  V30 13468 H 1265.47 0.764721 -3.80899 0
M  V30 13469 H 1267.15 -1.80856 -4.24369 0
M  V30 13470 H 1265.39 -1.76438 -3.96298 0
M  V30 13471 H 1266.06 -1.03094 -5.42287 0
M  V30 13472 H 1268.54 0.407677 -4.14098 0
M  V30 13473 H 1267.41 0.978012 -5.40117 0
M  V30 13474 H 1267.67 1.9553 -3.96511 0
M  V30 13475 N 1266.73 1.55688 -0.24474 0
M  V30 13476 C 1267.98 1.98891 0.380603 0
M  V30 13477 C 1268.31 1.13283 1.58105 0
M  V30 13478 O 1267.56 0.183141 1.94841 0
M  V30 13479 C 1267.86 3.47487 0.835923 0
M  V30 13480 C 1267.53 4.5017 -0.256528 0
M  V30 13481 C 1266.19 4.7797 -0.556573 0
M  V30 13482 C 1268.54 5.1163 -0.994174 0
M  V30 13483 C 1265.87 5.64508 -1.59838 0
M  V30 13484 C 1268.22 5.99297 -2.02548 0
M  V30 13485 C 1266.88 6.25432 -2.3322 0
M  V30 13486 H 1266.15 0.727794 0.139273 0
M  V30 13487 H 1268.8 1.88235 -0.352113 0
M  V30 13488 H 1267.11 3.55464 1.64781 0
M  V30 13489 H 1268.8 3.78301 1.33001 0
M  V30 13490 H 1265.39 4.28598 -0.0125284 0
M  V30 13491 H 1269.58 4.90202 -0.775617 0
M  V30 13492 H 1264.83 5.83012 -1.84138 0
M  V30 13493 H 1269.01 6.45964 -2.60198 0
M  V30 13494 H 1266.63 6.92282 -3.14085 0
M  V30 13495 N 1268.21 -0.0283989 1.57574 0
M  V30 13496 C 1269.62 -0.574912 1.77628 0
M  V30 13497 C 1269.97 -1.75563 0.875903 0
M  V30 13498 O 1269.1 -2.16284 0.0709141 0
M  V30 13499 C 1269.69 -1.04972 3.22128 0
M  V30 13500 C 1268.25 -1.54175 3.43376 0
M  V30 13501 C 1267.4 -0.480127 2.73112 0
M  V30 13502 H 1270.35 0.197826 1.57462 0
M  V30 13503 H 1270.37 -1.91705 3.28678 0
M  V30 13504 H 1269.88 -0.190173 3.87634 0
M  V30 13505 H 1267.98 -2.42313 2.83046 0
M  V30 13506 H 1268.1 -1.58879 4.51989 0
M  V30 13507 H 1266.46 -0.935314 2.36905 0
M  V30 13508 H 1267.24 0.369973 3.41301 0
M  V30 13509 N 1269.69 -1.54705 -0.300681 0
M  V30 13510 C 1271.1 -1.45926 -0.646359 0
M  V30 13511 C 1271.3 -0.65072 -1.90704 0
M  V30 13512 O 1270.36 -0.158547 -2.52002 0
M  V30 13513 C 1271.67 -2.89889 -0.799059 0
M  V30 13514 C 1273.22 -2.99934 -0.894923 0
M  V30 13515 C 1273.7 -4.45093 -1.07962 0
M  V30 13516 N 1275.19 -4.48804 -1.14581 0
M  V30 13517 C 1275.92 -5.58305 -1.30702 0
M  V30 13518 N 1275.42 -6.77729 -1.43719 0
M  V30 13519 N 1277.21 -5.45994 -1.33593 0
M  V30 13520 H 1269.36 -2.05742 0.527617 0
M  V30 13521 H 1271.62 -0.931817 0.174415 0
M  V30 13522 H 1271.33 -3.51655 0.0563954 0
M  V30 13523 H 1271.2 -3.37325 -1.68796 0
M  V30 13524 H 1273.59 -2.38281 -1.74086 0
M  V30 13525 H 1273.67 -2.55794 0.0179973 0
M  V30 13526 H 1273.32 -5.0734 -0.238444 0
M  V30 13527 H 1273.25 -4.86864 -2.00677 0
M  V30 13528 H 1275.74 -3.62766 -1.05874 0
M  V30 13529 H 1276.05 -7.56937 -1.55776 0
M  V30 13530 H 1274.4 -6.80594 -1.40774 0
M  V30 13531 H 1277.59 -4.51641 -1.23035 0
M  V30 13532 H 1277.76 -6.31381 -1.45813 0
M  V30 13533 N 1271.17 0.563888 -1.47167 0
M  V30 13534 C 1272.13 1.65359 -1.58711 0
M  V30 13535 C 1273.13 1.53999 -0.46272 0
M  V30 13536 O 1274.32 1.58277 -0.727595 0
M  V30 13537 C 1271.45 3.04874 -1.52529 0
M  V30 13538 H 1272.64 1.56475 -2.55843 0
M  V30 13539 H 1270.2 0.783271 -1.35257 0
M  V30 13540 H 1270.93 3.19297 -0.56747 0
M  V30 13541 H 1270.72 3.14528 -2.34125 0
M  V30 13542 H 1272.21 3.84164 -1.63731 0
M  V30 13543 N 1272.64 1.35187 0.810078 0
M  V30 13544 C 1274.06 1.25329 1.38381 0
M  V30 13545 C 1274.41 -0.115799 1.95858 0
M  V30 13546 O 1273.53 -1.01663 1.91033 0
M  V30 13547 C 1274.13 2.2693 2.51572 0
M  V30 13548 C 1272.69 2.20824 3.04818 0
M  V30 13549 C 1271.83 2.1283 1.7776 0
M  V30 13550 H 1274.78 1.46366 0.613402 0
M  V30 13551 H 1274.8 1.89375 3.30026 0
M  V30 13552 H 1274.32 3.26563 2.09709 0
M  V30 13553 H 1272.42 1.24589 3.51153 0
M  V30 13554 H 1272.53 3.12637 3.63036 0
M  V30 13555 H 1270.89 1.58752 1.99173 0
M  V30 13556 H 1271.68 3.14318 1.38054 0
M  V30 13557 N 1274.12 -1.03182 1.19127 0
M  V30 13558 C 1275.35 -1.80165 1.01726 0
M  V30 13559 C 1275.77 -1.83742 -0.434095 0
M  V30 13560 O 1275.12 -1.27932 -1.30152 0
M  V30 13561 C 1275.17 -3.25354 1.57566 0
M  V30 13562 O 1274.89 -3.22042 2.9702 0
M  V30 13563 C 1276.4 -4.18948 1.44906 0
M  V30 13564 H 1273.62 -0.567078 0.358698 0
M  V30 13565 H 1276.16 -1.29982 1.57877 0
M  V30 13566 H 1274.31 -3.72738 1.0557 0
M  V30 13567 H 1274.73 -4.13061 3.23235 0
M  V30 13568 H 1276.2 -5.18723 1.88762 0
M  V30 13569 H 1276.68 -4.37383 0.399125 0
M  V30 13570 H 1277.29 -3.77435 1.96018 0
M  V30 13571 N 1275.6 -0.99472 -1.22242 0
M  V30 13572 C 1276.56 -0.551619 -2.22463 0
M  V30 13573 C 1277.56 0.366498 -1.56568 0
M  V30 13574 O 1278.75 0.158204 -1.7348 0
M  V30 13575 C 1275.89 0.197416 -3.40328 0
M  V30 13576 H 1277.08 -1.43795 -2.63179 0
M  V30 13577 H 1274.63 -0.782121 -1.35324 0
M  V30 13578 H 1275.37 1.09965 -3.05087 0
M  V30 13579 H 1275.15 -0.461829 -3.89371 0
M  V30 13580 H 1276.64 0.495534 -4.1465 0
M  V30 13581 N 1277.08 1.37613 -0.768148 0
M  V30 13582 C 1278.03 2.3218 -0.13974 0
M  V30 13583 C 1279.02 1.54754 0.689023 0
M  V30 13584 O 1280.23 1.70177 0.586489 0
M  V30 13585 H 1276.6 0.751536 -0.0264001 0
M  V30 13586 H 1278.57 2.82768 -0.953139 0
M  V30 13587 C 1277.32 3.39997 0.727829 0
M  V30 13588 H 1276.64 3.99676 0.0994851 0
M  V30 13589 H 1278.08 4.08538 1.13456 0
M  V30 13590 C 1276.54 2.79778 1.87686 0
M  V30 13591 O 1277.07 2.70241 2.97208 0
M  V30 13592 N 1275.28 2.37373 1.67637 0
M  V30 13593 H 1274.83 2.4533 0.785552 0
M  V30 13594 H 1274.78 1.97426 2.44684 0
M  V30 13595 N 1278.56 0.518393 1.4883 0
M  V30 13596 C 1279.78 -0.0162 2.06894 0
M  V30 13597 C 1280.2 -1.29222 1.37649 0
M  V30 13598 O 1279.56 -1.766 0.460288 0
M  V30 13599 C 1279.61 -0.255836 3.60594 0
M  V30 13600 O 1279.33 0.969612 4.27235 0
M  V30 13601 C 1280.83 -0.832117 4.3542 0
M  V30 13602 H 1278.05 0.0282877 0.670403 0
M  V30 13603 H 1280.59 0.720726 1.91379 0
M  V30 13604 H 1278.75 -0.942782 3.75753 0
M  V30 13605 H 1279.16 0.743172 5.19208 0
M  V30 13606 H 1280.64 -0.949279 5.43776 0
M  V30 13607 H 1281.11 -1.83421 3.99066 0
M  V30 13608 H 1281.72 -0.1821 4.2491 0
M  V30 13609 N 1280.03 -1.55556 0.252993 0
M  V30 13610 C 1281 -2.20351 -0.630705 0
M  V30 13611 C 1282 -1.17461 -1.09816 0
M  V30 13612 O 1283.19 -1.42505 -1.00189 0
M  V30 13613 C 1280.32 -2.85192 -1.86757 0
M  V30 13614 H 1281.51 -2.99829 -0.0652939 0
M  V30 13615 H 1279.07 -1.563 0.00347982 0
M  V30 13616 H 1279.8 -2.09669 -2.47406 0
M  V30 13617 H 1279.59 -3.60569 -1.54053 0
M  V30 13618 H 1281.08 -3.34762 -2.49648 0
M  V30 13619 N 1281.51 0.0200419 -1.57587 0
M  V30 13620 C 1282.74 0.724241 -1.94344 0
M  V30 13621 C 1283.16 1.67612 -0.853688 0
M  V30 13622 O 1282.52 1.80303 0.189873 0
M  V30 13623 C 1282.57 1.44967 -3.30177 0
M  V30 13624 O 1281.67 2.56326 -3.23064 0
M  V30 13625 H 1281.01 0.194142 -0.634984 0
M  V30 13626 H 1283.54 -0.0271756 -2.04582 0
M  V30 13627 H 1283.55 1.81758 -3.65278 0
M  V30 13628 H 1282.23 0.75161 -4.09052 0
M  V30 13629 H 1280.81 2.22011 -2.99609 0
M  V30 13630 N 1282.99 1.54862 0.292472 0
M  V30 13631 C 1284.22 1.7855 1.04534 0
M  V30 13632 C 1284.63 0.549161 1.80637 0
M  V30 13633 O 1283.99 -0.481268 1.7604 0
M  V30 13634 C 1284.04 2.99849 2.01923 0
M  V30 13635 O 1283.76 4.18706 1.28907 0
M  V30 13636 C 1285.26 3.35991 2.8918 0
M  V30 13637 H 1282.48 0.595279 0.309652 0
M  V30 13638 H 1285.03 2.01834 0.329159 0
M  V30 13639 H 1283.18 2.78749 2.69032 0
M  V30 13640 H 1283.6 4.87151 1.94383 0
M  V30 13641 H 1285.07 4.24085 3.53349 0
M  V30 13642 H 1285.55 2.54524 3.57931 0
M  V30 13643 H 1286.15 3.59281 2.27591 0
M  V30 13644 N 1284.47 -0.556076 1.47464 0
M  V30 13645 C 1285.38 -1.69043 1.62671 0
M  V30 13646 C 1286.39 -1.66372 0.509535 0
M  V30 13647 O 1287.57 -1.85799 0.777218 0
M  V30 13648 C 1284.64 -3.05546 1.63836 0
M  V30 13649 C 1283.7 -3.19275 2.86988 0
M  V30 13650 C 1282.93 -4.49267 2.88088 0
M  V30 13651 O 1283.15 -5.34796 1.98368 0
M  V30 13652 O 1282.09 -4.66811 3.79962 0
M  V30 13653 H 1285.91 -1.59155 2.58657 0
M  V30 13654 H 1283.5 -0.726211 1.30562 0
M  V30 13655 H 1285.38 -3.86778 1.67275 0
M  V30 13656 H 1284.05 -3.15814 0.710173 0
M  V30 13657 H 1282.96 -2.37437 2.89093 0
M  V30 13658 H 1284.29 -3.13912 3.79104 0
M  V30 13659 N 1285.95 -1.35615 -0.802897 0
M  V30 13660 C 1287.2 -1.28839 -1.55708 0
M  V30 13661 C 1287.52 0.135906 -1.94526 0
M  V30 13662 O 1286.79 1.07317 -1.6389 0
M  V30 13663 H 1285.37 -0.473906 -0.577427 0
M  V30 13664 H 1288.03 -1.69759 -0.957487 0
M  V30 13665 H 1287.12 -1.90675 -2.47082 0
M  V30 13666 N 1287.43 1.02549 -1.19673 0
M  V30 13667 C 1288.36 2.12794 -0.961289 0
M  V30 13668 C 1289.34 1.69766 0.106575 0
M  V30 13669 O 1290.52 1.94138 -0.0491358 0
M  V30 13670 C 1287.65 3.4364 -0.502868 0
M  V30 13671 C 1286.61 4.00367 -1.51296 0
M  V30 13672 C 1285.93 5.26874 -0.911491 0
M  V30 13673 C 1287.23 4.34782 -2.89416 0
M  V30 13674 H 1288.93 2.32748 -1.88331 0
M  V30 13675 H 1286.47 1.11852 -0.906922 0
M  V30 13676 H 1288.42 4.20141 -0.325436 0
M  V30 13677 H 1287.15 3.23418 0.454764 0
M  V30 13678 H 1285.81 3.25964 -1.67759 0
M  V30 13679 H 1285.46 5.02971 0.0537982 0
M  V30 13680 H 1285.16 5.65791 -1.58602 0
M  V30 13681 H 1286.68 6.06039 -0.74493 0
M  V30 13682 H 1288.09 5.02207 -2.76516 0
M  V30 13683 H 1286.49 4.8479 -3.53693 0
M  V30 13684 H 1287.56 3.43935 -3.41814 0
M  V30 13685 N 1288.9 1.00119 1.21713 0
M  V30 13686 C 1290.31 0.715611 1.72441 0
M  V30 13687 C 1290.67 -0.767 1.80587 0
M  V30 13688 O 1289.79 -1.59928 1.45781 0
M  V30 13689 C 1290.39 1.29234 3.13184 0
M  V30 13690 C 1288.94 1.05597 3.61284 0
M  V30 13691 C 1288.09 1.40749 2.38925 0
M  V30 13692 H 1291.04 1.17255 1.06943 0
M  V30 13693 H 1291.06 0.67507 3.74464 0
M  V30 13694 H 1290.58 2.37141 3.07223 0
M  V30 13695 H 1288.68 -0.00610816 3.72599 0
M  V30 13696 H 1288.79 1.72517 4.46961 0
M  V30 13697 H 1287.15 0.826207 2.40927 0
M  V30 13698 H 1287.94 2.49678 2.35618 0
M  V30 13699 N 1290.38 -1.37203 0.775435 0
M  V30 13700 C 1291.34 -2.28566 0.170406 0
M  V30 13701 C 1292.34 -1.48195 -0.624085 0
M  V30 13702 O 1293.53 -1.68364 -0.447132 0
M  V30 13703 C 1290.67 -3.32186 -0.765829 0
M  V30 13704 H 1291.86 -2.8358 0.975824 0
M  V30 13705 H 1289.41 -1.46531 0.543895 0
M  V30 13706 H 1290.15 -2.82303 -1.59611 0
M  V30 13707 H 1289.93 -3.91598 -0.198251 0
M  V30 13708 H 1291.42 -4.0045 -1.18446 0
M  V30 13709 N 1291.86 -0.526279 -1.48553 0
M  V30 13710 C 1292.81 0.238513 -2.29564 0
M  V30 13711 C 1293.78 0.937222 -1.37133 0
M  V30 13712 O 1294.96 0.93897 -1.66096 0
M  V30 13713 C 1292.1 1.28173 -3.20415 0
M  V30 13714 C 1291.21 0.592244 -4.27921 0
M  V30 13715 C 1290.35 1.61808 -5.05956 0
M  V30 13716 C 1289.39 0.911846 -6.0527 0
M  V30 13717 N 1288.53 1.88305 -6.76377 0
M  V30 13718 H 1293.37 -0.458502 -2.94452 0
M  V30 13719 H 1290.9 -0.237948 -1.45163 0
M  V30 13720 H 1292.86 1.89883 -3.71484 0
M  V30 13721 H 1291.49 1.94718 -2.57458 0
M  V30 13722 H 1290.54 -0.138714 -3.80147 0
M  V30 13723 H 1291.85 0.0375427 -4.98786 0
M  V30 13724 H 1291.01 2.30956 -5.61021 0
M  V30 13725 H 1289.75 2.20667 -4.34922 0
M  V30 13726 H 1288.75 0.206273 -5.49413 0
M  V30 13727 H 1289.98 0.329415 -6.78301 0
M  V30 13728 H 1287.92 2.46079 -6.08096 0
M  V30 13729 H 1287.84 1.37969 -7.43304 0
M  V30 13730 H 1289.11 2.56663 -7.36033 0
M  V30 13731 N 1293.34 1.5542 -0.261239 0
M  V30 13732 C 1294.75 1.85161 0.239195 0
M  V30 13733 C 1295.1 1.18319 1.56509 0
M  V30 13734 O 1294.22 0.4666 2.1131 0
M  V30 13735 C 1294.82 3.3592 0.440781 0
M  V30 13736 C 1293.38 3.65837 0.885461 0
M  V30 13737 C 1292.53 2.77285 -0.0291982 0
M  V30 13738 H 1295.48 1.51158 -0.483417 0
M  V30 13739 H 1295.5 3.58276 1.28136 0
M  V30 13740 H 1295.01 3.84541 -0.524382 0
M  V30 13741 H 1293.11 3.22705 1.86259 0
M  V30 13742 H 1293.22 4.73469 0.732394 0
M  V30 13743 H 1291.59 2.50045 0.484701 0
M  V30 13744 H 1292.37 3.28716 -0.989992 0
M  V30 13745 N 1294.82 -0.0116844 1.57596 0
M  V30 13746 C 1296.06 -0.697577 1.89679 0
M  V30 13747 C 1296.38 -1.74956 0.861122 0
M  V30 13748 O 1295.65 -1.95629 -0.103031 0
M  V30 13749 H 1294.23 -0.26064 0.700054 0
M  V30 13750 H 1296.9 0.0264782 1.94882 0
M  V30 13751 H 1295.99 -1.17621 2.89088 0
M  V30 13752 N 1296.29 -1.55015 -0.284256 0
M  V30 13753 C 1297.52 -1.79431 -1.04016 0
M  V30 13754 C 1297.94 -0.560254 -1.79563 0
M  V30 13755 O 1297.3 0.489804 -1.74558 0
M  V30 13756 C 1297.35 -3.01162 -1.98328 0
M  V30 13757 O 1296.45 -2.75459 -3.06914 0
M  V30 13758 H 1295.79 -0.593391 -0.297965 0
M  V30 13759 H 1298.32 -2.02136 -0.316585 0
M  V30 13760 H 1298.33 -3.29589 -2.40489 0
M  V30 13761 H 1297.01 -3.90634 -1.42751 0
M  V30 13762 H 1295.59 -2.58096 -2.69148 0
M  V30 13763 N 1297.77 0.548248 -1.47757 0
M  V30 13764 C 1298.72 1.65028 -1.57321 0
M  V30 13765 C 1299.71 1.55006 -0.431489 0
M  V30 13766 O 1300.9 1.63337 -0.681919 0
M  V30 13767 C 1298.03 3.0379 -1.59896 0
M  V30 13768 C 1297.11 3.18982 -2.79484 0
M  V30 13769 N 1297.5 3.04208 -4.04093 0
M  V30 13770 C 1295.8 3.50001 -2.76433 0
M  V30 13771 C 1296.5 3.2233 -4.8423 0
M  V30 13772 N 1295.48 3.49073 -4.16712 0
M  V30 13773 H 1299.28 1.52187 -2.51428 0
M  V30 13774 H 1296.79 0.753242 -1.43875 0
M  V30 13775 H 1298.79 3.82928 -1.64839 0
M  V30 13776 H 1297.45 3.17735 -0.668912 0
M  V30 13777 H 1298.46 2.81348 -4.34814 0
M  V30 13778 H 1295.14 3.70418 -1.92606 0
M  V30 13779 H 1296.53 3.15799 -5.9306 0
M  V30 13780 N 1299.25 1.36039 0.795694 0
M  V30 13781 C 1300.48 1.33059 1.58439 0
M  V30 13782 C 1300.89 -0.0895496 1.88588 0
M  V30 13783 O 1300.25 -1.04466 1.49643 0
M  V30 13784 C 1300.3 2.14594 2.90915 0
M  V30 13785 O 1300.02 3.51072 2.62069 0
M  V30 13786 C 1301.52 2.19324 3.85242 0
M  V30 13787 H 1298.74 0.456668 0.491625 0
M  V30 13788 H 1301.29 1.79048 0.988035 0
M  V30 13789 H 1299.44 1.72177 3.47036 0
M  V30 13790 H 1299.86 3.93545 3.46732 0
M  V30 13791 H 1301.33 2.80744 4.75276 0
M  V30 13792 H 1301.81 1.19496 4.22631 0
M  V30 13793 H 1302.41 2.6195 3.35056 0
M  V30 13794 N 1300.73 -1.01913 1.20215 0
M  V30 13795 C 1301.66 -2.12282 0.97256 0
M  V30 13796 C 1302.64 -1.6982 -0.0975709 0
M  V30 13797 O 1303.82 -1.94109 0.0594307 0
M  V30 13798 C 1300.95 -3.43369 0.521085 0
M  V30 13799 C 1299.91 -3.99559 1.53417 0
M  V30 13800 C 1299.23 -5.26383 0.93942 0
M  V30 13801 C 1300.53 -4.33241 2.91718 0
M  V30 13802 H 1302.23 -2.31746 1.89563 0
M  V30 13803 H 1299.77 -1.1137 0.912841 0
M  V30 13804 H 1301.73 -4.19963 0.347713 0
M  V30 13805 H 1300.45 -3.23655 -0.437605 0
M  V30 13806 H 1299.11 -3.25069 1.69486 0
M  V30 13807 H 1298.76 -5.02993 -0.0271236 0
M  V30 13808 H 1298.46 -5.64942 1.616 0
M  V30 13809 H 1299.98 -6.05635 0.777059 0
M  V30 13810 H 1301.4 -5.00734 2.79175 0
M  V30 13811 H 1299.79 -4.82907 3.56259 0
M  V30 13812 H 1300.86 -3.42118 3.43633 0
M  V30 13813 N 1302.21 -1.00763 -1.2118 0
M  V30 13814 C 1303.62 -0.720905 -1.42391 0
M  V30 13815 C 1303.82 0.702918 -1.88842 0
M  V30 13816 O 1302.88 1.47191 -2.05161 0
M  V30 13817 C 1304.19 -1.739 -2.45315 0
M  V30 13818 C 1305.74 -1.75611 -2.59094 0
M  V30 13819 C 1306.21 -2.76323 -3.65253 0
M  V30 13820 N 1307.71 -2.75007 -3.72727 0
M  V30 13821 C 1308.44 -3.49594 -4.54502 0
M  V30 13822 N 1307.94 -4.33828 -5.40153 0
M  V30 13823 N 1309.73 -3.38232 -4.4895 0
M  V30 13824 H 1301.88 -1.92697 -0.893404 0
M  V30 13825 H 1304.14 -0.831888 -0.454606 0
M  V30 13826 H 1303.85 -2.75859 -2.18162 0
M  V30 13827 H 1303.72 -1.5438 -3.44161 0
M  V30 13828 H 1306.11 -0.743416 -2.85582 0
M  V30 13829 H 1306.19 -1.99203 -1.60474 0
M  V30 13830 H 1305.84 -3.77751 -3.39509 0
M  V30 13831 H 1305.77 -2.49996 -4.63476 0
M  V30 13832 H 1308.26 -2.13897 -3.11539 0
M  V30 13833 H 1308.57 -4.8753 -5.99612 0
M  V30 13834 H 1306.91 -4.3791 -5.39685 0
M  V30 13835 H 1310.11 -2.71855 -3.81068 0
M  V30 13836 H 1310.28 -3.96615 -5.12445 0
M  V30 13837 N 1303.68 1.3679 -0.7827 0
M  V30 13838 C 1305.1 1.82006 -0.41603 0
M  V30 13839 C 1305.45 1.65151 1.05922 0
M  V30 13840 O 1304.57 1.1687 1.82127 0
M  V30 13841 C 1305.17 3.30432 -0.748353 0
M  V30 13842 C 1303.73 3.73883 -0.4346 0
M  V30 13843 C 1302.87 2.59159 -0.986505 0
M  V30 13844 H 1305.82 1.25107 -0.976423 0
M  V30 13845 H 1305.84 3.80482 -0.036985 0
M  V30 13846 H 1305.36 3.42667 -1.82212 0
M  V30 13847 H 1303.46 3.67211 0.631401 0
M  V30 13848 H 1303.57 4.69577 -0.950511 0
M  V30 13849 H 1301.93 2.51377 -0.410108 0
M  V30 13850 H 1302.72 2.74182 -2.06589 0
M  V30 13851 N 1305.16 0.53415 1.48272 0
M  V30 13852 C 1306.58 0.192291 1.58437 0
M  V30 13853 C 1306.78 -1.3046 1.53566 0
M  V30 13854 O 1305.83 -2.08316 1.42692 0
M  V30 13855 C 1307.15 0.798515 2.89904 0
M  V30 13856 C 1308.7 0.76763 3.03441 0
M  V30 13857 C 1309.17 1.3525 4.37574 0
M  V30 13858 N 1310.66 1.31466 4.44152 0
M  V30 13859 C 1311.4 1.73706 5.46456 0
M  V30 13860 N 1310.89 2.23695 6.55692 0
M  V30 13861 N 1312.69 1.64918 5.37363 0
M  V30 13862 H 1304.84 1.50696 1.49681 0
M  V30 13863 H 1307.1 0.627073 0.710973 0
M  V30 13864 H 1306.81 1.8496 2.99136 0
M  V30 13865 H 1306.68 0.278033 3.76174 0
M  V30 13866 H 1309.07 -0.274704 2.93819 0
M  V30 13867 H 1309.15 1.32562 2.18771 0
M  V30 13868 H 1308.79 2.39379 4.47951 0
M  V30 13869 H 1308.72 0.770153 5.20938 0
M  V30 13870 H 1311.21 0.948761 3.65796 0
M  V30 13871 H 1311.53 2.5391 7.29897 0
M  V30 13872 H 1309.87 2.27691 6.56644 0
M  V30 13873 H 1313.06 1.25658 4.50919 0
M  V30 13874 H 1313.23 1.98157 6.16958 0
M  V30 13875 N 1306.64 -1.55279 0.269478 0
M  V30 13876 C 1307.87 -2.04334 -0.355313 0
M  V30 13877 C 1308.29 -1.14677 -1.491 0
M  V30 13878 O 1307.65 -0.144215 -1.80726 0
M  V30 13879 C 1307.7 -3.51172 -0.819162 0
M  V30 13880 O 1306.8 -3.64615 -1.9269 0
M  V30 13881 H 1306.14 -0.659827 -0.0743229 0
M  V30 13882 H 1308.67 -2.00609 0.402131 0
M  V30 13883 H 1308.68 -3.92428 -1.11642 0
M  V30 13884 H 1307.36 -4.15898 0.0117821 0
M  V30 13885 H 1305.93 -3.35261 -1.63261 0
M  V30 13886 N 1308.12 0.00332656 -1.576 0
M  V30 13887 C 1309.37 0.688869 -1.90423 0
M  V30 13888 C 1309.69 1.73963 -0.869896 0
M  V30 13889 O 1308.95 1.95295 0.125777 0
M  V30 13890 C 1309.25 1.37237 -3.30001 0
M  V30 13891 C 1308.91 0.455132 -4.48597 0
M  V30 13892 C 1307.58 0.202577 -4.80773 0
M  V30 13893 C 1309.93 -0.176597 -5.20901 0
M  V30 13894 C 1307.26 -0.690055 -5.82628 0
M  V30 13895 C 1309.61 -1.05708 -6.23705 0
M  V30 13896 C 1308.27 -1.31885 -6.54341 0
M  V30 13897 H 1307.54 0.252075 -0.696806 0
M  V30 13898 H 1310.19 -0.0514867 -1.91431 0
M  V30 13899 H 1308.49 2.18669 -3.25102 0
M  V30 13900 H 1310.19 1.9088 -3.52656 0
M  V30 13901 H 1306.78 0.662142 -4.23454 0
M  V30 13902 H 1310.96 0.0055127 -4.963 0
M  V30 13903 H 1306.22 -0.900902 -6.04726 0
M  V30 13904 H 1310.39 -1.55296 -6.78864 0
M  V30 13905 H 1308.02 -2.01222 -7.33085 0
M  V30 13906 N 1309.6 1.55164 0.276031 0
M  V30 13907 C 1311.01 1.66367 0.847293 0
M  V30 13908 C 1311.36 0.588692 1.8716 0
M  V30 13909 O 1310.48 -0.27035 2.14705 0
M  V30 13910 C 1311.08 3.01593 1.5436 0
M  V30 13911 C 1309.64 3.14833 2.06293 0
M  V30 13912 C 1308.78 2.62152 0.903959 0
M  V30 13913 H 1311.74 1.58613 0.0524478 0
M  V30 13914 H 1311.76 2.94412 2.41043 0
M  V30 13915 H 1311.27 3.7981 0.797849 0
M  V30 13916 H 1309.37 2.41384 2.83839 0
M  V30 13917 H 1309.48 4.21353 2.28032 0
M  V30 13918 H 1307.85 2.19233 1.29649 0
M  V30 13919 H 1308.63 3.4287 0.171765 0
M  V30 13920 N 1311.07 -0.540404 1.48045 0
M  V30 13921 C 1312.3 -1.32656 1.59427 0
M  V30 13922 C 1312.72 -1.86419 0.250924 0
M  V30 13923 O 1312.08 -1.63861 -0.775838 0
M  V30 13924 C 1312.13 -2.46062 2.63602 0
M  V30 13925 O 1311.23 -3.48794 2.20038 0
M  V30 13926 H 1310.58 -0.393334 0.534962 0
M  V30 13927 H 1313.11 -0.651363 1.93955 0
M  V30 13928 H 1313.12 -2.92396 2.84549 0
M  V30 13929 H 1311.79 -2.06291 3.61133 0
M  V30 13930 H 1310.37 -3.0865 2.0926 0
M  V30 13931 N 1312.55 -1.36459 -0.788468 0
M  V30 13932 C 1313.96 -1.27515 -1.3637 0
M  V30 13933 C 1314.31 0.0846251 -1.96017 0
M  V30 13934 O 1313.44 0.98611 -1.92626 0
M  V30 13935 C 1314.03 -2.30903 -2.4793 0
M  V30 13936 C 1312.59 -2.25645 -3.01266 0
M  V30 13937 C 1311.74 -2.15631 -1.74352 0
M  V30 13938 H 1314.69 -1.47324 -0.590039 0
M  V30 13939 H 1314.71 -1.94601 -3.26972 0
M  V30 13940 H 1314.22 -3.29858 -2.04487 0
M  V30 13941 H 1312.33 -1.3016 -3.49126 0
M  V30 13942 H 1312.44 -3.18373 -3.58016 0
M  V30 13943 H 1310.8 -1.61901 -1.96622 0
M  V30 13944 H 1311.59 -3.16475 -1.33036 0
M  V30 13945 N 1314.03 1.01274 -1.20754 0
M  V30 13946 C 1315.26 1.78524 -1.04579 0
M  V30 13947 C 1315.67 1.84409 0.404809 0
M  V30 13948 O 1315.03 1.29987 1.281 0
M  V30 13949 C 1315.08 3.22806 -1.62722 0
M  V30 13950 O 1314.8 3.17276 -3.02106 0
M  V30 13951 C 1316.3 4.16589 -1.51553 0
M  V30 13952 H 1313.52 0.561299 -0.367674 0
M  V30 13953 H 1316.07 1.27454 -1.59924 0
M  V30 13954 H 1314.22 3.71011 -1.11487 0
M  V30 13955 H 1314.64 4.07866 -3.29766 0
M  V30 13956 H 1316.11 5.15654 -1.9699 0
M  V30 13957 H 1316.59 4.36692 -0.468659 0
M  V30 13958 H 1317.19 3.74269 -2.01998 0
M  V30 13959 N 1315.51 1.01404 1.20644 0
M  V30 13960 C 1316.46 0.582109 2.23339 0
M  V30 13961 C 1317.43 -0.39649 1.61298 0
M  V30 13962 O 1318.61 -0.296504 1.88482 0
M  V30 13963 C 1315.75 -0.076029 3.45016 0
M  V30 13964 C 1314.86 0.946829 4.21496 0
M  V30 13965 C 1314 0.26001 5.30563 0
M  V30 13966 C 1313.04 1.2698 5.98784 0
M  V30 13967 N 1312.18 0.609827 6.99447 0
M  V30 13968 H 1317.02 1.46248 2.59645 0
M  V30 13969 H 1314.55 0.732145 1.27585 0
M  V30 13970 H 1316.51 -0.474714 4.1449 0
M  V30 13971 H 1315.14 -0.920062 3.0941 0
M  V30 13972 H 1314.19 1.4637 3.51113 0
M  V30 13973 H 1315.5 1.71491 4.68393 0
M  V30 13974 H 1314.66 -0.19431 6.06389 0
M  V30 13975 H 1313.4 -0.540395 4.84697 0
M  V30 13976 H 1312.4 1.73453 5.21722 0
M  V30 13977 H 1313.63 2.07144 6.46737 0
M  V30 13978 H 1311.57 -0.170756 6.55778 0
M  V30 13979 H 1311.49 1.31601 7.44458 0
M  V30 13980 H 1312.76 0.179014 7.79294 0
M  V30 13981 N 1316.99 -1.36373 0.789944 0
M  V30 13982 C 1318.23 -2.0106 0.367995 0
M  V30 13983 C 1318.59 -1.61336 -1.0409 0
M  V30 13984 O 1319.79 -2.18618 -1.56396 0
M  V30 13985 C 1318.06 -3.53492 0.527106 0
M  V30 13986 S 1319.62 -4.38375 0.193113 0
M  V30 13987 H 1316.44 -0.696965 0.140573 0
M  V30 13988 H 1319.04 -1.66256 1.02855 0
M  V30 13989 H 1317.75 -3.7989 1.55279 0
M  V30 13990 H 1317.28 -3.93116 -0.149364 0
M  V30 13991 H 1319.29 -4.85913 -1.00513 0
M  V30 13992 N 1318.47 -0.542005 -1.47987 0
M  V30 13993 C 1319.4 0.202703 -2.32618 0
M  V30 13994 C 1320.38 0.923521 -1.42846 0
M  V30 13995 O 1321.56 0.906957 -1.7172 0
M  V30 13996 C 1318.69 1.24267 -3.24307 0
M  V30 13997 C 1317.65 0.639257 -4.23199 0
M  V30 13998 C 1316.97 1.78275 -5.04105 0
M  V30 13999 C 1318.27 -0.396982 -5.20789 0
M  V30 14000 H 1319.97 -0.503817 -2.95131 0
M  V30 14001 H 1317.51 -0.243736 -1.41922 0
M  V30 14002 H 1319.46 1.7717 -3.82347 0
M  V30 14003 H 1318.19 1.97893 -2.59819 0
M  V30 14004 H 1316.85 0.131655 -3.66364 0
M  V30 14005 H 1316.5 2.50768 -4.36032 0
M  V30 14006 H 1316.2 1.38487 -5.71047 0
M  V30 14007 H 1317.72 2.31533 -5.65 0
M  V30 14008 H 1319.13 0.0454057 -5.73282 0
M  V30 14009 H 1317.53 -0.712911 -5.9585 0
M  V30 14010 H 1318.6 -1.29843 -4.67193 0
M  V30 14011 N 1319.94 1.55134 -0.277709 0
M  V30 14012 C 1321.36 1.59417 0.0763615 0
M  V30 14013 C 1321.56 1.29491 1.54384 0
M  V30 14014 O 1320.62 1.05703 2.2931 0
M  V30 14015 C 1321.93 2.99194 -0.300607 0
M  V30 14016 C 1323.48 3.1202 -0.247438 0
M  V30 14017 C 1323.95 4.54068 -0.598884 0
M  V30 14018 N 1325.44 4.59917 -0.550534 0
M  V30 14019 C 1326.18 5.67859 -0.795235 0
M  V30 14020 N 1325.67 6.83936 -1.10469 0
M  V30 14021 N 1327.47 5.5742 -0.723859 0
M  V30 14022 H 1319.62 1.72851 -1.23435 0
M  V30 14023 H 1321.88 0.806137 -0.498846 0
M  V30 14024 H 1321.59 3.25937 -1.32129 0
M  V30 14025 H 1321.46 3.75504 0.35729 0
M  V30 14026 H 1323.85 2.8504 0.763959 0
M  V30 14027 H 1323.93 2.37917 -0.939629 0
M  V30 14028 H 1323.57 4.81774 -1.60798 0
M  V30 14029 H 1323.5 5.26474 0.115126 0
M  V30 14030 H 1325.99 3.76531 -0.321341 0
M  V30 14031 H 1326.31 7.62159 -1.278 0
M  V30 14032 H 1324.65 6.85545 -1.14249 0
M  V30 14033 H 1327.84 4.65613 -0.481925 0
M  V30 14034 H 1328.02 6.41465 -0.917944 0
M  V30 14035 N 1321.42 0.00503138 1.57599 0
M  V30 14036 C 1322.66 -0.683203 1.92644 0
M  V30 14037 C 1323.03 -1.70657 0.879778 0
M  V30 14038 O 1324.23 -2.44555 1.11563 0
M  V30 14039 C 1322.5 -1.30509 3.32719 0
M  V30 14040 S 1324.06 -2.01775 3.89657 0
M  V30 14041 H 1320.87 -0.225551 0.674276 0
M  V30 14042 H 1323.48 0.0629255 1.95399 0
M  V30 14043 H 1322.18 -0.547509 4.06731 0
M  V30 14044 H 1321.71 -2.08904 3.3335 0
M  V30 14045 H 1323.73 -3.29348 3.7114 0
M  V30 14046 N 1322.9 -1.55308 -0.267798 0
M  V30 14047 C 1324.13 -1.80191 -1.01681 0
M  V30 14048 C 1324.54 -0.57783 -1.7974 0
M  V30 14049 O 1323.9 0.4532 -1.76783 0
M  V30 14050 C 1323.95 -3.03023 -1.97127 0
M  V30 14051 O 1323.67 -4.20704 -1.22229 0
M  V30 14052 C 1325.17 -3.40549 -2.83798 0
M  V30 14053 H 1322.39 -0.60013 -0.300142 0
M  V30 14054 H 1324.94 -2.02332 -0.297007 0
M  V30 14055 H 1323.09 -2.82993 -2.64563 0
M  V30 14056 H 1323.51 -4.90181 -1.86608 0
M  V30 14057 H 1324.98 -4.29653 -3.46557 0
M  V30 14058 H 1325.46 -2.60186 -3.53836 0
M  V30 14059 H 1326.06 -3.62856 -2.21846 0
M  V30 14060 N 1324.38 0.532545 -1.4833 0
M  V30 14061 C 1325.6 1.31809 -1.60129 0
M  V30 14062 C 1326.03 1.86283 -0.260807 0
M  V30 14063 O 1325.39 1.6427 0.767137 0
M  V30 14064 C 1325.43 2.44661 -2.64903 0
M  V30 14065 O 1324.54 3.47622 -2.21885 0
M  V30 14066 H 1323.88 0.390492 -0.53704 0
M  V30 14067 H 1326.41 0.641068 -1.94297 0
M  V30 14068 H 1326.42 2.90883 -2.86096 0
M  V30 14069 H 1325.09 2.04373 -3.62222 0
M  V30 14070 H 1323.67 3.07536 -2.10894 0
M  V30 14071 N 1325.86 1.36875 0.78122 0
M  V30 14072 C 1326.79 1.34559 1.9083 0
M  V30 14073 C 1327.77 0.215713 1.68727 0
M  V30 14074 O 1328.95 0.41462 1.89722 0
M  V30 14075 C 1326.08 1.14233 3.27976 0
M  V30 14076 C 1325.04 2.24132 3.64621 0
M  V30 14077 C 1324.36 1.8894 5.00206 0
M  V30 14078 C 1325.66 3.66266 3.72353 0
M  V30 14079 H 1327.36 2.28871 1.93025 0
M  V30 14080 H 1324.9 1.10171 0.927275 0
M  V30 14081 H 1326.85 1.11246 4.06451 0
M  V30 14082 H 1325.58 0.163747 3.26189 0
M  V30 14083 H 1324.24 2.26259 2.88448 0
M  V30 14084 H 1323.89 0.896351 4.94949 0
M  V30 14085 H 1323.59 2.62525 5.25694 0
M  V30 14086 H 1325.11 1.87523 5.81092 0
M  V30 14087 H 1326.52 3.66321 4.41001 0
M  V30 14088 H 1324.92 4.38825 4.09332 0
M  V30 14089 H 1325.99 4.00578 2.7325 0
M  V30 14090 N 1327.33 -1.00632 1.21289 0
M  V30 14091 C 1328.27 -2.09085 0.914258 0
M  V30 14092 C 1329.24 -1.62016 -0.137697 0
M  V30 14093 O 1330.43 -1.88498 -0.00902131 0
M  V30 14094 C 1327.56 -3.36645 0.37254 0
M  V30 14095 C 1326.6 -4.0262 1.40709 0
M  V30 14096 S 1327.43 -4.45203 2.97582 0
M  V30 14097 C 1328.59 -5.75951 2.45013 0
M  V30 14098 H 1328.82 -2.34094 1.83268 0
M  V30 14099 H 1326.36 -1.13893 1.04248 0
M  V30 14100 H 1328.31 -4.10446 0.0665561 0
M  V30 14101 H 1326.98 -3.09689 -0.524546 0
M  V30 14102 H 1326.17 -4.94427 0.977642 0
M  V30 14103 H 1325.77 -3.35088 1.66108 0
M  V30 14104 H 1328.06 -6.51634 1.85416 0
M  V30 14105 H 1329.01 -6.23706 3.35257 0
M  V30 14106 H 1329.41 -5.32707 1.8677 0
M  V30 14107 N 1328.81 -1.02043 -1.20104 0
M  V30 14108 C 1329.74 -0.614421 -2.25271 0
M  V30 14109 C 1330.72 0.37242 -1.65973 0
M  V30 14110 O 1331.91 0.257005 -1.92492 0
M  V30 14111 C 1329.04 0.0442085 -3.47272 0
M  V30 14112 C 1327.99 -0.864019 -4.19188 0
M  V30 14113 C 1327.32 -0.0709551 -5.34653 0
M  V30 14114 C 1328.62 -2.17385 -4.74912 0
M  V30 14115 H 1330.31 -1.49355 -2.59487 0
M  V30 14116 H 1327.86 -0.719591 -1.24731 0
M  V30 14117 H 1329.81 0.339825 -4.20028 0
M  V30 14118 H 1328.53 0.958082 -3.12231 0
M  V30 14119 H 1327.19 -1.1437 -3.48303 0
M  V30 14120 H 1326.84 0.844688 -4.95857 0
M  V30 14121 H 1326.54 -0.67583 -5.83701 0
M  V30 14122 H 1328.07 0.218118 -6.1021 0
M  V30 14123 H 1329.48 -1.94034 -5.39466 0
M  V30 14124 H 1327.88 -2.72991 -5.34412 0
M  V30 14125 H 1328.95 -2.83427 -3.93443 0
M  V30 14126 N 1330.29 1.35952 -0.797165 0
M  V30 14127 C 1331.54 1.98639 -0.372405 0
M  V30 14128 C 1331.86 1.63571 1.06158 0
M  V30 14129 O 1331.13 0.913516 1.73297 0
M  V30 14130 H 1329.71 0.734753 -0.13471 0
M  V30 14131 H 1332.37 1.66022 -1.02092 0
M  V30 14132 H 1331.47 3.08533 -0.47049 0
M  V30 14133 N 1331.77 0.549846 1.47697 0
M  V30 14134 C 1332.7 -0.190364 2.32723 0
M  V30 14135 C 1333.68 -0.915933 1.43334 0
M  V30 14136 O 1334.86 -0.897838 1.72199 0
M  V30 14137 C 1331.99 -1.22545 3.24961 0
M  V30 14138 C 1330.95 -0.616805 4.23532 0
M  V30 14139 C 1330.27 -1.75599 5.05044 0
M  V30 14140 C 1331.57 0.424595 5.20571 0
M  V30 14141 H 1333.27 0.519461 2.94859 0
M  V30 14142 H 1330.81 0.251259 1.41791 0
M  V30 14143 H 1332.77 -1.75139 3.83281 0
M  V30 14144 H 1331.49 -1.96512 2.60865 0
M  V30 14145 H 1330.15 -0.112224 3.66428 0
M  V30 14146 H 1329.8 -2.48453 4.37356 0
M  V30 14147 H 1329.5 -1.35456 5.71774 0
M  V30 14148 H 1331.02 -2.28533 5.6622 0
M  V30 14149 H 1332.44 -0.0150025 5.73298 0
M  V30 14150 H 1330.83 0.7445 5.95464 0
M  V30 14151 H 1331.9 1.32318 4.66497 0
M  V30 14152 N 1333.25 -1.54984 0.285932 0
M  V30 14153 C 1334.49 -1.99436 -0.32709 0
M  V30 14154 C 1334.82 -1.17582 -1.55562 0
M  V30 14155 O 1334.09 -0.268002 -1.94058 0
M  V30 14156 H 1332.67 -0.736662 -0.123846 0
M  V30 14157 H 1335.33 -1.90881 0.393774 0
M  V30 14158 H 1334.42 -3.0609 -0.609523 0
M  V30 14159 N 1334.72 -0.0133892 -1.57594 0
M  V30 14160 C 1336.14 0.342848 -1.55874 0
M  V30 14161 C 1336.34 1.73928 -1.01742 0
M  V30 14162 O 1335.4 2.43798 -0.657158 0
M  V30 14163 C 1336.71 0.205831 -2.99995 0
M  V30 14164 C 1338.26 0.279774 -3.11747 0
M  V30 14165 C 1338.73 0.171729 -4.57678 0
M  V30 14166 N 1340.22 0.22921 -4.62633 0
M  V30 14167 C 1340.96 0.169153 -5.7315 0
M  V30 14168 N 1340.45 0.0589166 -6.92775 0
M  V30 14169 N 1342.25 0.221995 -5.61661 0
M  V30 14170 H 1334.4 -0.926727 -1.91117 0
M  V30 14171 H 1336.66 -0.356466 -0.878428 0
M  V30 14172 H 1336.37 -0.755482 -3.4349 0
M  V30 14173 H 1336.24 0.982476 -3.6418 0
M  V30 14174 H 1338.63 1.23154 -2.68174 0
M  V30 14175 H 1338.71 -0.526974 -2.50313 0
M  V30 14176 H 1338.35 -0.776547 -5.01928 0
M  V30 14177 H 1338.28 0.997138 -5.17073 0
M  V30 14178 H 1340.77 0.315196 -3.76583 0
M  V30 14179 H 1341.09 0.0193526 -7.72798 0
M  V30 14180 H 1339.43 0.0243543 -6.94996 0
M  V30 14181 H 1342.62 0.306406 -4.67096 0
M  V30 14182 H 1342.8 0.171727 -6.47772 0
M  V30 14183 N 1336.2 1.55448 0.259558 0
M  V30 14184 C 1337.13 1.85678 1.34373 0
M  V30 14185 C 1338.15 0.742155 1.449 0
M  V30 14186 O 1339.34 1.02015 1.46476 0
M  V30 14187 C 1336.44 2.01668 2.72366 0
M  V30 14188 C 1335.61 3.32434 2.84265 0
M  V30 14189 C 1334.67 3.38322 4.03019 0
M  V30 14190 O 1333.69 4.11616 3.93143 0
M  V30 14191 N 1334.9 2.66697 5.1561 0
M  V30 14192 H 1337.66 2.79261 1.08781 0
M  V30 14193 H 1335.22 1.5553 0.449672 0
M  V30 14194 H 1337.21 2.02963 3.50126 0
M  V30 14195 H 1335.78 1.14889 2.90722 0
M  V30 14196 H 1335 3.43564 1.93281 0
M  V30 14197 H 1336.29 4.18649 2.89155 0
M  V30 14198 H 1335.69 2.06857 5.26523 0
M  V30 14199 H 1334.25 2.73699 5.91551 0
M  V30 14200 N 1337.68 -0.524672 1.4861 0
M  V30 14201 C 1338.93 -1.27768 1.56588 0
M  V30 14202 C 1339.25 -1.93469 0.243899 0
M  V30 14203 O 1338.52 -1.8159 -0.734985 0
M  V30 14204 H 1337.1 -0.474566 0.576885 0
M  V30 14205 H 1339.76 -0.610114 1.85104 0
M  V30 14206 H 1338.86 -2.05416 2.34969 0
M  V30 14207 N 1339.16 -1.37287 -0.77395 0
M  V30 14208 C 1340.09 -1.35569 -1.90114 0
M  V30 14209 C 1341.07 -0.224658 -1.6861 0
M  V30 14210 O 1342.25 -0.424676 -1.895 0
M  V30 14211 C 1339.38 -1.15971 -3.27365 0
M  V30 14212 C 1338.34 -2.26063 -3.63427 0
M  V30 14213 C 1337.66 -1.9159 -4.99197 0
M  V30 14214 C 1338.96 -3.68236 -3.70405 0
M  V30 14215 H 1340.66 -2.29891 -1.91808 0
M  V30 14216 H 1338.2 -1.10661 -0.92142 0
M  V30 14217 H 1340.16 -1.134 -4.05855 0
M  V30 14218 H 1338.88 -0.181043 -3.26098 0
M  V30 14219 H 1337.54 -2.27786 -2.87244 0
M  V30 14220 H 1337.19 -0.922586 -4.94467 0
M  V30 14221 H 1336.89 -2.65309 -5.24294 0
M  V30 14222 H 1338.41 -1.90602 -5.80089 0
M  V30 14223 H 1339.83 -3.68655 -4.39052 0
M  V30 14224 H 1338.22 -4.4099 -4.06999 0
M  V30 14225 H 1339.29 -4.02021 -2.71122 0
M  V30 14226 N 1340.64 0.999871 -1.21821 0
M  V30 14227 C 1341.88 1.73497 -1.0365 0
M  V30 14228 C 1342.21 1.90194 0.430271 0
M  V30 14229 O 1341.48 1.45655 1.31002 0
M  V30 14230 H 1340.06 0.642804 -0.380541 0
M  V30 14231 H 1342.72 1.20461 -1.53216 0
M  V30 14232 H 1341.81 2.73215 -1.50864 0
M  V30 14233 N 1342.11 1.02678 1.19562 0
M  V30 14234 C 1343.35 0.7307 1.90893 0
M  V30 14235 C 1343.72 -0.727166 1.77697 0
M  V30 14236 O 1344.92 -1.13623 2.43605 0
M  V30 14237 C 1343.19 1.16683 3.37816 0
M  V30 14238 S 1344.75 0.994271 4.27387 0
M  V30 14239 H 1341.57 0.266082 0.659334 0
M  V30 14240 H 1344.17 1.31617 1.44558 0
M  V30 14241 H 1342.87 2.22354 3.44945 0
M  V30 14242 H 1342.4 0.574559 3.89182 0
M  V30 14243 H 1344.42 -0.0963871 4.96106 0
M  V30 14244 N 1343.59 -1.35528 0.804364 0
M  V30 14245 C 1344.87 -1.93175 0.307049 0
M  V30 14246 C 1345.25 -1.73466 -1.20303 0
M  V30 14247 O 1344.6 -1.10235 -2.00151 0
M  V30 14248 C 1344.81 -3.41576 0.716018 0
M  V30 14249 C 1346.16 -4.18719 0.704242 0
M  V30 14250 O 1347.18 -3.50081 0.657423 0
M  V30 14251 O 1346.04 -5.41181 0.760601 0
M  V30 14252 H 1343.13 -0.823142 0.0797888 0
M  V30 14253 H 1345.68 -1.44617 0.887912 0
M  V30 14254 H 1344.45 -3.49642 1.75688 0
M  V30 14255 H 1344.07 -3.97448 0.109843 0
M  V30 14256 N 1345.07 -0.557671 -1.47404 0
M  V30 14257 C 1346.03 0.179311 -2.28498 0
M  V30 14258 C 1347.03 0.842281 -1.36975 0
M  V30 14259 O 1348.22 0.698072 -1.59601 0
M  V30 14260 C 1345.36 1.26229 -3.16668 0
M  V30 14261 H 1346.55 -0.533033 -2.95125 0
M  V30 14262 H 1344.1 -0.314634 -1.531 0
M  V30 14263 H 1344.84 2.00702 -2.54733 0
M  V30 14264 H 1344.62 0.791712 -3.84024 0
M  V30 14265 H 1346.11 1.77991 -3.77768 0
M  V30 14266 N 1346.55 1.54831 -0.294147 0
M  V30 14267 C 1347.79 2.0191 0.318092 0
M  V30 14268 C 1348.15 1.178 1.51615 0
M  V30 14269 O 1349.35 1.54546 2.1993 0
M  V30 14270 C 1347.63 3.51018 0.672375 0
M  V30 14271 S 1349.18 4.20066 1.26845 0
M  V30 14272 H 1346 0.704215 0.0979881 0
M  V30 14273 H 1348.6 1.90926 -0.420422 0
M  V30 14274 H 1347.31 4.09872 -0.208159 0
M  V30 14275 H 1346.84 3.66025 1.44186 0
M  V30 14276 H 1348.85 4.25274 2.55649 0
M  V30 14277 N 1348.03 0.0217466 1.57585 0
M  V30 14278 C 1349.28 -0.657187 1.91116 0
M  V30 14279 C 1349.6 -1.7309 0.898039 0
M  V30 14280 O 1348.87 -1.95803 -0.0615116 0
M  V30 14281 H 1347.45 -0.245732 0.705425 0
M  V30 14282 H 1350.11 0.0678096 1.94782 0
M  V30 14283 H 1349.2 -1.11462 2.91518 0
M  V30 14284 N 1349.51 -1.55583 -0.251311 0
M  V30 14285 C 1350.74 -1.80996 -0.99619 0
M  V30 14286 C 1351.14 -0.594534 -1.79616 0
M  V30 14287 O 1350.49 0.446197 -1.78199 0
M  V30 14288 C 1350.55 -2.99691 -1.98559 0
M  V30 14289 C 1350.21 -4.35888 -1.37297 0
M  V30 14290 C 1351.21 -5.14051 -0.777672 0
M  V30 14291 C 1348.89 -4.82579 -1.39366 0
M  V30 14292 C 1350.89 -6.3705 -0.211225 0
M  V30 14293 C 1348.58 -6.05528 -0.823357 0
M  V30 14294 C 1349.57 -6.82602 -0.233163 0
M  V30 14295 O 1349.26 -8.03229 0.328345 0
M  V30 14296 H 1348.99 -0.606287 -0.298985 0
M  V30 14297 H 1351.55 -2.03471 -0.280813 0
M  V30 14298 H 1349.78 -2.7296 -2.73915 0
M  V30 14299 H 1351.47 -3.12235 -2.59354 0
M  V30 14300 H 1352.23 -4.791 -0.754228 0
M  V30 14301 H 1348.11 -4.22582 -1.84243 0
M  V30 14302 H 1351.66 -6.97152 0.250073 0
M  V30 14303 H 1347.55 -6.39957 -0.844114 0
M  V30 14304 H 1348.32 -8.18205 0.219785 0
M  V30 14305 N 1350.98 0.516783 -1.48886 0
M  V30 14306 C 1352.23 1.27187 -1.57574 0
M  V30 14307 C 1352.56 1.92815 -0.255432 0
M  V30 14308 O 1351.81 1.80533 0.755403 0
M  V30 14309 C 1352.11 2.37296 -2.67256 0
M  V30 14310 C 1351.78 1.89232 -4.0927 0
M  V30 14311 C 1350.44 1.75842 -4.47921 0
M  V30 14312 C 1352.79 1.53073 -4.98215 0
M  V30 14313 C 1350.12 1.24648 -5.73306 0
M  V30 14314 C 1352.47 1.03337 -6.24103 0
M  V30 14315 C 1351.14 0.885744 -6.61597 0
M  V30 14316 H 1350.41 0.46541 -0.576606 0
M  V30 14317 H 1353.05 0.575223 -1.82657 0
M  V30 14318 H 1351.36 3.12685 -2.36084 0
M  V30 14319 H 1353.06 2.95393 -2.7119 0
M  V30 14320 H 1349.65 2.00608 -3.78754 0
M  V30 14321 H 1353.83 1.62272 -4.69022 0
M  V30 14322 H 1349.09 1.11917 -6.0107 0
M  V30 14323 H 1353.26 0.744338 -6.92411 0
M  V30 14324 H 1350.89 0.486866 -7.58639 0
M  V30 14325 N 1352.46 1.37696 0.766659 0
M  V30 14326 C 1353.7 1.34588 1.53836 0
M  V30 14327 C 1354.07 -0.0676384 1.91881 0
M  V30 14328 O 1355.27 -0.223479 2.67869 0
M  V30 14329 C 1353.54 2.26329 2.76604 0
M  V30 14330 S 1355.1 2.4112 3.66615 0
M  V30 14331 H 1351.91 0.477717 0.5266 0
M  V30 14332 H 1354.52 1.73495 0.901099 0
M  V30 14333 H 1353.22 3.27943 2.46742 0
M  V30 14334 H 1352.75 1.88525 3.45285 0
M  V30 14335 H 1354.77 1.62556 4.68818 0
M  V30 14336 N 1353.94 -0.993397 1.22349 0
M  V30 14337 C 1354.89 -2.06784 0.960445 0
M  V30 14338 C 1355.87 -1.60655 -0.0887385 0
M  V30 14339 O 1357.07 -1.76581 0.121716 0
M  V30 14340 C 1354.19 -3.39034 0.539552 0
M  V30 14341 C 1353.28 -3.91798 1.62344 0
M  V30 14342 N 1353.67 -4.17791 2.85104 0
M  V30 14343 C 1351.97 -4.20197 1.49501 0
M  V30 14344 C 1352.67 -4.6067 3.55187 0
M  V30 14345 N 1351.65 -4.64333 2.82658 0
M  V30 14346 H 1355.45 -2.24821 1.89295 0
M  V30 14347 H 1352.96 -1.17509 1.12095 0
M  V30 14348 H 1354.96 -4.15573 0.332419 0
M  V30 14349 H 1353.62 -3.22397 -0.38606 0
M  V30 14350 H 1354.63 -4.05999 3.21536 0
M  V30 14351 H 1351.31 -4.12634 0.635546 0
M  V30 14352 H 1352.7 -4.89408 4.60358 0
M  V30 14353 N 1355.42 -1.03311 -1.19015 0
M  V30 14354 C 1356.65 -0.751802 -1.92758 0
M  V30 14355 C 1357.06 0.689982 -1.7574 0
M  V30 14356 O 1356.42 1.46961 -1.08207 0
M  V30 14357 C 1356.47 -1.09892 -3.44392 0
M  V30 14358 O 1356.19 -2.48409 -3.60866 0
M  V30 14359 C 1357.69 -0.841029 -4.35249 0
M  V30 14360 H 1354.91 -0.274757 -0.612168 0
M  V30 14361 H 1357.45 -1.37873 -1.51034 0
M  V30 14362 H 1355.61 -0.517092 -3.83933 0
M  V30 14363 H 1356.02 -2.61468 -4.54681 0
M  V30 14364 H 1357.5 -1.13383 -5.4023 0
M  V30 14365 H 1357.97 0.224434 -4.38626 0
M  V30 14366 H 1358.58 -1.40579 -4.01395 0
M  V30 14367 N 1356.9 1.35099 -0.81154 0
M  V30 14368 C 1358.12 2.0286 -0.406855 0
M  V30 14369 C 1358.54 1.61147 0.98372 0
M  V30 14370 O 1357.9 0.811398 1.6347 0
M  V30 14371 C 1357.95 3.58214 -0.486305 0
M  V30 14372 O 1357.67 3.98412 -1.82206 0
M  V30 14373 C 1359.17 4.43236 -0.0750619 0
M  V30 14374 H 1356.39 0.650482 -0.164664 0
M  V30 14375 H 1358.93 1.72616 -1.09654 0
M  V30 14376 H 1357.09 3.87089 0.155177 0
M  V30 14377 H 1357.5 4.93072 -1.78831 0
M  V30 14378 H 1358.98 5.51701 -0.181759 0
M  V30 14379 H 1359.45 4.28123 0.980169 0
M  V30 14380 H 1360.06 4.19667 -0.689894 0
M  V30 14381 N 1358.37 0.56548 1.47106 0
M  V30 14382 C 1359.61 0.0469867 2.04346 0
M  V30 14383 C 1359.98 -1.28183 1.42944 0
M  V30 14384 O 1361.18 -1.88852 1.91281 0
M  V30 14385 C 1359.45 -0.0357764 3.57382 0
M  V30 14386 S 1361.01 -0.499194 4.35951 0
M  V30 14387 H 1357.83 0.0291355 0.710403 0
M  V30 14388 H 1360.43 0.754085 1.80371 0
M  V30 14389 H 1359.13 0.935578 3.99594 0
M  V30 14390 H 1358.66 -0.766177 3.85867 0
M  V30 14391 H 1360.68 -1.75732 4.6404 0
M  V30 14392 N 1359.85 -1.54672 0.302354 0
M  V30 14393 C 1360.82 -2.22246 -0.560283 0
M  V30 14394 C 1361.82 -1.20895 -1.06023 0
M  V30 14395 O 1363.01 -1.45621 -0.956047 0
M  V30 14396 C 1360.14 -2.9099 -1.77589 0
M  V30 14397 H 1361.33 -2.99885 0.0301274 0
M  V30 14398 H 1358.88 -1.56209 0.0532036 0
M  V30 14399 H 1359.62 -2.17433 -2.4061 0
M  V30 14400 H 1359.4 -3.65288 -1.42503 0
M  V30 14401 H 1360.89 -3.42535 -2.38871 0
M  V30 14402 N 1361.33 -0.0301034 -1.57571 0
M  V30 14403 C 1362.74 0.508591 -1.79639 0
M  V30 14404 C 1363.09 1.72191 -0.940458 0
M  V30 14405 O 1362.22 2.15872 -0.151138 0
M  V30 14406 C 1362.81 0.929446 -3.25802 0
M  V30 14407 C 1361.37 1.41325 -3.48861 0
M  V30 14408 C 1360.52 0.378433 -2.74706 0
M  V30 14409 H 1363.47 -0.256131 -1.56619 0
M  V30 14410 H 1363.49 1.79374 -3.35567 0
M  V30 14411 H 1363 0.0461738 -3.88073 0
M  V30 14412 H 1361.1 2.31641 -2.91844 0
M  V30 14413 H 1361.22 1.41995 -4.57574 0
M  V30 14414 H 1359.58 0.846744 -2.40213 0
M  V30 14415 H 1360.36 -0.49639 -3.39692 0
M  V30 14416 N 1362.81 1.55714 0.243056 0
M  V30 14417 C 1363.74 1.87093 1.32396 0
M  V30 14418 C 1364.75 0.757482 1.44104 0
M  V30 14419 O 1365.94 1.03563 1.45386 0
M  V30 14420 C 1363.04 2.04546 2.70212 0
M  V30 14421 C 1362.22 3.3543 2.80723 0
M  V30 14422 C 1361.27 3.42578 3.99408 0
M  V30 14423 O 1360.3 4.15762 3.88755 0
M  V30 14424 N 1361.5 2.7215 5.12752 0
M  V30 14425 H 1364.27 2.80399 1.05813 0
M  V30 14426 H 1361.83 1.55998 0.433151 0
M  V30 14427 H 1363.82 2.06665 3.47954 0
M  V30 14428 H 1362.39 1.17966 2.89487 0
M  V30 14429 H 1361.61 3.45594 1.89626 0
M  V30 14430 H 1362.9 4.21692 2.84698 0
M  V30 14431 H 1362.3 2.1243 5.24299 0
M  V30 14432 H 1360.85 2.79957 5.88615 0
M  V30 14433 N 1364.29 -0.50888 1.49158 0
M  V30 14434 C 1365.25 -1.59354 1.64739 0
M  V30 14435 C 1366.25 -1.52175 0.519557 0
M  V30 14436 O 1367.44 -1.55468 0.785838 0
M  V30 14437 C 1364.57 -2.99002 1.63739 0
M  V30 14438 H 1365.76 -1.46871 2.61474 0
M  V30 14439 H 1363.32 -0.732532 1.38071 0
M  V30 14440 H 1364.05 -3.1697 0.685583 0
M  V30 14441 H 1363.84 -3.05622 2.45637 0
M  V30 14442 H 1365.33 -3.77822 1.77877 0
M  V30 14443 N 1365.76 -1.381 -0.759346 0
M  V30 14444 C 1367.18 -1.30379 -1.33635 0
M  V30 14445 C 1367.53 0.0430279 -1.96153 0
M  V30 14446 O 1366.65 0.945029 -1.94675 0
M  V30 14447 C 1367.25 -2.3611 -2.42976 0
M  V30 14448 C 1365.81 -2.31985 -2.96412 0
M  V30 14449 C 1364.95 -2.19281 -1.69739 0
M  V30 14450 H 1367.9 -1.48542 -0.558656 0
M  V30 14451 H 1367.92 -2.01493 -3.22771 0
M  V30 14452 H 1367.44 -3.34122 -1.97445 0
M  V30 14453 H 1365.54 -1.37536 -3.46287 0
M  V30 14454 H 1365.65 -3.25895 -3.51183 0
M  V30 14455 H 1364.01 -1.66035 -1.93144 0
M  V30 14456 H 1364.8 -3.19225 -1.26293 0
M  V30 14457 N 1367.24 0.986894 -1.22875 0
M  V30 14458 C 1368.65 1.54182 -1.05284 0
M  V30 14459 C 1369 1.92448 0.381856 0
M  V30 14460 O 1368.13 1.75381 1.26769 0
M  V30 14461 C 1368.72 2.80173 -1.90496 0
M  V30 14462 C 1367.28 3.32088 -1.77185 0
M  V30 14463 C 1366.43 2.05128 -1.86596 0
M  V30 14464 H 1369.38 0.807304 -1.36632 0
M  V30 14465 H 1369.4 3.52772 -1.42591 0
M  V30 14466 H 1368.91 2.52291 -2.94908 0
M  V30 14467 H 1367.02 3.64864 -0.755295 0
M  V30 14468 H 1367.13 4.02285 -2.60199 0
M  V30 14469 H 1365.49 2.18964 -1.30103 0
M  V30 14470 H 1366.28 1.79635 -2.92551 0
M  V30 14471 N 1368.72 1.0394 1.18466 0
M  V30 14472 C 1369.96 0.750905 1.90107 0
M  V30 14473 C 1370.32 -0.708278 1.78458 0
M  V30 14474 O 1371.53 -1.11033 2.44796 0
M  V30 14475 C 1369.8 1.20259 3.3656 0
M  V30 14476 S 1371.36 1.03954 4.26308 0
M  V30 14477 H 1368.17 0.273061 0.656475 0
M  V30 14478 H 1370.78 1.33143 1.43154 0
M  V30 14479 H 1369.48 2.26 3.42567 0
M  V30 14480 H 1369.01 0.615804 3.8855 0
M  V30 14481 H 1371.03 -0.0437629 4.96181 0
M  V30 14482 N 1370.2 -1.34667 0.818693 0
M  V30 14483 C 1371.61 -1.80839 0.46414 0
M  V30 14484 C 1371.96 -1.67902 -1.01506 0
M  V30 14485 O 1371.09 -1.21658 -1.78964 0
M  V30 14486 C 1371.68 -3.28331 0.835698 0
M  V30 14487 C 1370.24 -3.72599 0.533575 0
M  V30 14488 C 1369.39 -2.56452 1.05487 0
M  V30 14489 H 1372.34 -1.22474 1.00925 0
M  V30 14490 H 1372.36 -3.8025 0.13785 0
M  V30 14491 H 1371.87 -3.37715 1.91233 0
M  V30 14492 H 1369.97 -3.68756 -0.533819 0
M  V30 14493 H 1370.08 -4.66891 1.07468 0
M  V30 14494 H 1368.45 -2.50201 0.476612 0
M  V30 14495 H 1369.23 -2.68608 2.13786 0
M  V30 14496 N 1371.68 -0.573274 -1.46804 0
M  V30 14497 C 1372.92 -0.0553432 -2.02724 0
M  V30 14498 C 1373.26 1.29753 -1.44492 0
M  V30 14499 O 1372.53 1.84804 -0.606455 0
M  V30 14500 C 1372.81 0.0205511 -3.60094 0
M  V30 14501 C 1372.67 -1.36055 -4.2873 0
M  V30 14502 C 1373.99 0.725944 -4.34071 0
M  V30 14503 H 1371.1 -0.0215858 -0.736684 0
M  V30 14504 H 1373.75 -0.738657 -1.75054 0
M  V30 14505 H 1371.9 0.602481 -3.838 0
M  V30 14506 H 1373.57 -1.98692 -4.16316 0
M  V30 14507 H 1371.81 -1.93087 -3.88458 0
M  V30 14508 H 1372.48 -1.26001 -5.37427 0
M  V30 14509 H 1374.96 0.231677 -4.15455 0
M  V30 14510 H 1373.83 0.74805 -5.43779 0
M  V30 14511 H 1374.1 1.78536 -4.04447 0
M  V30 14512 N 1373.15 1.5451 -0.310553 0
M  V30 14513 C 1374.57 1.85829 0.180166 0
M  V30 14514 C 1374.92 1.23239 1.52665 0
M  V30 14515 O 1374.04 0.53359 2.09718 0
M  V30 14516 C 1374.64 3.37153 0.333687 0
M  V30 14517 C 1373.2 3.68469 0.768625 0
M  V30 14518 C 1372.34 2.77051 -0.117399 0
M  V30 14519 H 1375.29 1.49544 -0.531262 0
M  V30 14520 H 1375.31 3.62171 1.16673 0
M  V30 14521 H 1374.83 3.82678 -0.646455 0
M  V30 14522 H 1372.93 3.28467 1.75898 0
M  V30 14523 H 1373.04 4.75559 0.581392 0
M  V30 14524 H 1371.4 2.51461 0.404905 0
M  V30 14525 H 1372.19 3.254 -1.09407 0
M  V30 14526 N 1374.63 0.0384594 1.57553 0
M  V30 14527 C 1376.04 -0.499057 1.79906 0
M  V30 14528 C 1376.4 -1.7169 0.949577 0
M  V30 14529 O 1375.52 -2.15788 0.162584 0
M  V30 14530 C 1376.12 -0.912155 3.2629 0
M  V30 14531 C 1374.67 -1.39473 3.49606 0
M  V30 14532 C 1373.82 -0.363859 2.74902 0
M  V30 14533 H 1376.77 0.264433 1.56481 0
M  V30 14534 H 1376.79 -1.77592 3.36513 0
M  V30 14535 H 1376.31 -0.0255928 3.88092 0
M  V30 14536 H 1374.41 -2.3009 2.93068 0
M  V30 14537 H 1374.52 -1.39566 4.58321 0
M  V30 14538 H 1372.88 -0.833993 2.40659 0
M  V30 14539 H 1373.67 0.514398 3.39424 0
M  V30 14540 N 1376.11 -1.55841 -0.234795 0
M  V30 14541 C 1377.39 -1.69008 -0.984665 0
M  V30 14542 C 1377.77 -0.581882 -2.02922 0
M  V30 14543 O 1377.12 0.412998 -2.24737 0
M  V30 14544 C 1377.33 -3.09796 -1.60708 0
M  V30 14545 C 1378.67 -3.68784 -2.10436 0
M  V30 14546 O 1379.7 -3.12674 -1.70627 0
M  V30 14547 O 1378.56 -4.67175 -2.83567 0
M  V30 14548 H 1375.65 -0.68786 -0.459105 0
M  V30 14549 H 1378.2 -1.68166 -0.227623 0
M  V30 14550 H 1376.97 -3.81908 -0.852169 0
M  V30 14551 H 1376.59 -3.147 -2.43001 0
M  V30 14552 N 1377.59 0.500963 -1.49426 0
M  V30 14553 C 1378.52 1.61114 -1.69011 0
M  V30 14554 C 1379.5 1.61341 -0.538813 0
M  V30 14555 O 1380.69 1.78081 -0.77466 0
M  V30 14556 C 1377.82 2.99598 -1.75666 0
M  V30 14557 C 1376.77 3.14236 -2.90585 0
M  V30 14558 C 1376.1 4.54071 -2.82354 0
M  V30 14559 C 1377.4 2.94258 -4.3152 0
M  V30 14560 H 1379.09 1.44978 -2.61957 0
M  V30 14561 H 1376.64 0.69603 -1.26061 0
M  V30 14562 H 1378.59 3.77163 -1.87953 0
M  V30 14563 H 1377.31 3.16822 -0.793186 0
M  V30 14564 H 1375.97 2.39096 -2.779 0
M  V30 14565 H 1375.62 4.68172 -1.83914 0
M  V30 14566 H 1375.32 4.64806 -3.59485 0
M  V30 14567 H 1376.84 5.33696 -2.96649 0
M  V30 14568 H 1378.26 3.61592 -4.44886 0
M  V30 14569 H 1376.65 3.16464 -5.09873 0
M  V30 14570 H 1377.72 1.90383 -4.45962 0
M  V30 14571 N 1379.07 1.38501 0.752011 0
M  V30 14572 C 1380 1.38577 1.87933 0
M  V30 14573 C 1380.98 0.251454 1.68231 0
M  V30 14574 O 1382.16 0.45477 1.888 0
M  V30 14575 C 1379.29 1.21164 3.25479 0
M  V30 14576 C 1378.25 2.31816 3.59785 0
M  V30 14577 C 1377.57 1.99508 4.96085 0
M  V30 14578 C 1378.87 3.74082 3.645 0
M  V30 14579 H 1380.57 2.32913 1.88127 0
M  V30 14580 H 1378.11 1.12113 0.903698 0
M  V30 14581 H 1380.07 1.19842 4.04 0
M  V30 14582 H 1378.79 0.232899 3.25769 0
M  V30 14583 H 1377.45 2.32327 2.83584 0
M  V30 14584 H 1377.1 1.00114 4.92936 0
M  V30 14585 H 1376.8 2.73617 5.20007 0
M  V30 14586 H 1378.32 1.99807 5.76983 0
M  V30 14587 H 1379.74 3.75593 4.33131 0
M  V30 14588 H 1378.13 4.47409 3.99931 0
M  V30 14589 H 1379.2 4.06284 2.64692 0
M  V30 14590 N 1380.55 -0.980364 1.23396 0
M  V30 14591 C 1381.96 -1.24658 0.996622 0
M  V30 14592 C 1382.16 -1.9922 -0.302259 0
M  V30 14593 O 1381.22 -2.30906 -1.02169 0
M  V30 14594 C 1382.53 -2.0461 2.20353 0
M  V30 14595 C 1384.08 -2.17749 2.24843 0
M  V30 14596 C 1384.55 -3.01091 3.4512 0
M  V30 14597 N 1386.04 -3.08676 3.4536 0
M  V30 14598 C 1386.78 -3.73487 4.3508 0
M  V30 14599 N 1386.28 -4.40121 5.35038 0
M  V30 14600 N 1388.07 -3.70373 4.22824 0
M  V30 14601 H 1380.22 -0.480851 2.06885 0
M  V30 14602 H 1382.48 -0.275049 0.907222 0
M  V30 14603 H 1382.19 -1.57197 3.14614 0
M  V30 14604 H 1382.06 -3.05359 2.21441 0
M  V30 14605 H 1384.45 -2.64369 1.31122 0
M  V30 14606 H 1384.53 -1.16388 2.27788 0
M  V30 14607 H 1384.17 -2.55168 4.39149 0
M  V30 14608 H 1384.1 -4.02621 3.39417 0
M  V30 14609 H 1386.6 -2.61265 2.73037 0
M  V30 14610 H 1386.91 -4.87354 5.99755 0
M  V30 14611 H 1385.25 -4.38829 5.38938 0
M  V30 14612 H 1388.44 -3.17486 3.43977 0
M  V30 14613 H 1388.62 -4.20601 4.92949 0
M  V30 14614 N 1382.02 -1.04567 -1.17913 0
M  V30 14615 C 1383.25 -0.772204 -1.9195 0
M  V30 14616 C 1383.67 0.671303 -1.76462 0
M  V30 14617 O 1383.02 1.45805 -1.0976 0
M  V30 14618 C 1383.07 -1.13539 -3.43207 0
M  V30 14619 O 1382.8 -2.52223 -3.58211 0
M  V30 14620 C 1384.3 -0.887146 -4.34332 0
M  V30 14621 H 1381.52 -0.281234 -0.609219 0
M  V30 14622 H 1384.06 -1.39467 -1.49563 0
M  V30 14623 H 1382.22 -0.557784 -3.83363 0
M  V30 14624 H 1382.63 -2.66275 -4.51882 0
M  V30 14625 H 1384.1 -1.19107 -5.38997 0
M  V30 14626 H 1384.58 0.1779 -4.3884 0
M  V30 14627 H 1385.19 -1.44829 -3.99881 0
M  V30 14628 N 1383.5 1.34231 -0.825823 0
M  V30 14629 C 1384.46 2.27776 -0.25512 0
M  V30 14630 C 1385.46 1.50409 0.568654 0
M  V30 14631 O 1386.65 1.69907 0.384337 0
M  V30 14632 C 1383.79 3.348 0.642013 0
M  V30 14633 H 1384.98 2.79763 -1.0804 0
M  V30 14634 H 1382.53 1.44412 -0.597904 0
M  V30 14635 H 1383.27 2.88032 1.49024 0
M  V30 14636 H 1383.05 3.92064 0.0527756 0
M  V30 14637 H 1384.54 4.0457 1.03502 0
M  V30 14638 N 1384.98 0.581051 1.46498 0
M  V30 14639 C 1385.91 -0.140957 2.33074 0
M  V30 14640 C 1386.89 -0.885323 1.45245 0
M  V30 14641 O 1388.08 -0.86111 1.74065 0
M  V30 14642 C 1385.21 -1.15625 3.27488 0
M  V30 14643 C 1384.16 -0.526829 4.24745 0
M  V30 14644 C 1383.49 -1.64847 5.08655 0
M  V30 14645 C 1384.79 0.53492 5.19554 0
M  V30 14646 H 1386.48 0.581888 2.93691 0
M  V30 14647 H 1384.03 0.281278 1.41226 0
M  V30 14648 H 1385.98 -1.6697 3.8691 0
M  V30 14649 H 1384.7 -1.90935 2.64974 0
M  V30 14650 H 1383.36 -0.0344738 3.66584 0
M  V30 14651 H 1383.01 -2.3912 4.42528 0
M  V30 14652 H 1382.71 -1.23298 5.74518 0
M  V30 14653 H 1384.23 -2.16472 5.7094 0
M  V30 14654 H 1385.65 0.106606 5.73201 0
M  V30 14655 H 1384.04 0.870639 5.93751 0
M  V30 14656 H 1385.11 1.42184 4.63586 0
M  V30 14657 N 1386.46 -1.54343 0.318742 0
M  V30 14658 C 1387.71 -2.00084 -0.284713 0
M  V30 14659 C 1388.03 -1.20855 -1.53033 0
M  V30 14660 O 1387.3 -0.309104 -1.93446 0
M  V30 14661 H 1385.88 -0.739123 -0.108193 0
M  V30 14662 H 1388.54 -1.90002 0.434174 0
M  V30 14663 H 1387.63 -3.07314 -0.544459 0
M  V30 14664 N 1387.94 -0.0468143 -1.5753 0
M  V30 14665 C 1389.18 0.628869 -1.92803 0
M  V30 14666 C 1389.51 1.70751 -0.925083 0
M  V30 14667 O 1388.79 1.94437 0.0495821 0
M  V30 14668 C 1389.07 1.22899 -3.38479 0
M  V30 14669 C 1388.93 0.158707 -4.4952 0
M  V30 14670 C 1390.24 2.1419 -3.84461 0
M  V30 14671 H 1387.36 0.227137 -0.701126 0
M  V30 14672 H 1390.01 -0.107689 -1.89695 0
M  V30 14673 H 1388.16 1.85674 -3.41259 0
M  V30 14674 H 1389.83 -0.472963 -4.58869 0
M  V30 14675 H 1388.07 -0.51375 -4.30747 0
M  V30 14676 H 1388.74 0.618545 -5.48523 0
M  V30 14677 H 1391.22 1.61382 -3.8353 0
M  V30 14678 H 1390.09 2.53125 -4.87051 0
M  V30 14679 H 1390.35 3.04024 -3.2097 0
M  V30 14680 N 1389.41 1.55964 0.226527 0
M  V30 14681 C 1390.36 1.88403 1.28406 0
M  V30 14682 C 1391.35 0.746656 1.42527 0
M  V30 14683 O 1392.54 1.00898 1.45425 0
M  V30 14684 C 1389.67 2.19992 2.63549 0
M  V30 14685 C 1388.76 3.40109 2.5335 0
M  V30 14686 N 1389.15 4.58858 2.12798 0
M  V30 14687 C 1387.44 3.43625 2.8432 0
M  V30 14688 C 1388.15 5.41013 2.13729 0
M  V30 14689 N 1387.12 4.80596 2.54025 0
M  V30 14690 H 1390.92 2.77732 0.961352 0
M  V30 14691 H 1388.44 1.56463 0.435104 0
M  V30 14692 H 1390.43 2.41405 3.39896 0
M  V30 14693 H 1389.09 1.31973 2.9667 0
M  V30 14694 H 1390.11 4.84108 1.8401 0
M  V30 14695 H 1386.78 2.65935 3.21846 0
M  V30 14696 H 1388.17 6.4606 1.84543 0
M  V30 14697 N 1390.89 -0.493031 1.4969 0
M  V30 14698 C 1392.3 -1.0744 1.52688 0
M  V30 14699 C 1392.65 -1.93612 0.317652 0
M  V30 14700 O 1391.78 -2.0871 -0.571745 0
M  V30 14701 C 1392.37 -1.95523 2.76688 0
M  V30 14702 C 1390.93 -2.48808 2.82438 0
M  V30 14703 C 1390.08 -1.26617 2.46705 0
M  V30 14704 H 1393.03 -0.276589 1.56271 0
M  V30 14705 H 1393.05 -2.80315 2.57301 0
M  V30 14706 H 1392.56 -1.32779 3.6468 0
M  V30 14707 H 1390.67 -3.15168 1.98746 0
M  V30 14708 H 1390.78 -2.85416 3.84805 0
M  V30 14709 H 1389.14 -1.59396 1.98658 0
M  V30 14710 H 1389.93 -0.655695 3.3698 0
M  V30 14711 N 1392.37 -1.38898 -0.744656 0
M  V30 14712 C 1393.28 -1.39098 -1.88915 0
M  V30 14713 C 1394.3 -0.286956 -1.71617 0
M  V30 14714 O 1395.47 -0.526852 -1.94387 0
M  V30 14715 C 1392.54 -1.22352 -3.24393 0
M  V30 14716 C 1391.6 -2.4264 -3.54153 0
M  V30 14717 C 1390.83 -2.26683 -4.83167 0
M  V30 14718 O 1391.05 -1.26523 -5.56191 0
M  V30 14719 O 1389.99 -3.15464 -5.12607 0
M  V30 14720 H 1393.81 -2.35551 -1.91701 0
M  V30 14721 H 1391.4 -1.19911 -0.891158 0
M  V30 14722 H 1393.28 -1.15109 -4.05374 0
M  V30 14723 H 1391.96 -0.289886 -3.22399 0
M  V30 14724 H 1390.86 -2.55459 -2.73298 0
M  V30 14725 H 1392.2 -3.34664 -3.60917 0
M  V30 14726 N 1393.85 0.973806 -1.23914 0
M  V30 14727 C 1395.08 1.75107 -1.10206 0
M  V30 14728 C 1395.49 1.85604 0.345935 0
M  V30 14729 O 1394.85 1.33996 1.239 0
M  V30 14730 C 1394.9 3.17466 -1.72909 0
M  V30 14731 O 1394.62 3.07504 -3.12047 0
M  V30 14732 C 1396.12 4.11557 -1.6473 0
M  V30 14733 H 1393.34 0.549318 -0.385345 0
M  V30 14734 H 1395.89 1.22301 -1.63898 0
M  V30 14735 H 1394.04 3.67277 -1.23234 0
M  V30 14736 H 1394.45 3.97169 -3.42575 0
M  V30 14737 H 1395.93 5.09126 -2.13295 0
M  V30 14738 H 1396.41 4.3498 -0.607352 0
M  V30 14739 H 1397.01 3.67653 -2.13802 0
M  V30 14740 N 1395.33 1.05191 1.17357 0
M  V30 14741 C 1396.57 0.760479 1.87246 0
M  V30 14742 C 1396.9 -0.714618 1.81434 0
M  V30 14743 O 1396.17 -1.51636 1.24029 0
M  V30 14744 H 1394.75 0.278317 0.693216 0
M  V30 14745 H 1397.41 1.33106 1.42369 0
M  V30 14746 H 1396.5 1.07542 2.92987 0
M  V30 14747 N 1396.8 -1.33791 0.83293 0
M  V30 14748 C 1398.03 -2.02187 0.439077 0
M  V30 14749 C 1398.45 -1.62692 -0.957958 0
M  V30 14750 O 1397.8 -0.837302 -1.62159 0
M  V30 14751 C 1397.86 -3.57395 0.543232 0
M  V30 14752 O 1397.58 -3.95463 1.88522 0
M  V30 14753 C 1399.08 -4.43061 0.145567 0
M  V30 14754 H 1396.3 -0.64778 0.174992 0
M  V30 14755 H 1398.84 -1.7085 1.12386 0
M  V30 14756 H 1397 -3.87287 -0.0935746 0
M  V30 14757 H 1397.41 -4.90164 1.86653 0
M  V30 14758 H 1398.88 -5.51342 0.269507 0
M  V30 14759 H 1399.36 -4.29628 -0.911934 0
M  V30 14760 H 1399.97 -4.18517 0.756572 0
M  V30 14761 N 1398.28 -0.588812 -1.46187 0
M  V30 14762 C 1399.53 -0.0765765 -2.01955 0
M  V30 14763 C 1399.85 1.29034 -1.46203 0
M  V30 14764 O 1399.12 1.84836 -0.649044 0
M  V30 14765 H 1397.7 -0.025318 -0.746571 0
M  V30 14766 H 1400.36 -0.765971 -1.79217 0
M  V30 14767 H 1399.46 -0.0121702 -3.12098 0
M  V30 14768 N 1399.76 1.54172 -0.326923 0
M  V30 14769 C 1400.99 2.05044 0.276508 0
M  V30 14770 C 1401.4 1.20288 1.45521 0
M  V30 14771 O 1400.76 0.234324 1.80989 0
M  V30 14772 C 1400.81 3.54505 0.707714 0
M  V30 14773 O 1400.53 4.36042 -0.424098 0
M  V30 14774 C 1402.03 4.21482 1.3736 0
M  V30 14775 H 1399.25 0.668632 0.0563273 0
M  V30 14776 H 1401.8 1.98929 -0.474087 0
M  V30 14777 H 1399.95 3.60896 1.40828 0
M  V30 14778 H 1400.37 5.24433 -0.0836846 0
M  V30 14779 H 1401.84 5.27501 1.62623 0
M  V30 14780 H 1402.32 3.72802 2.32196 0
M  V30 14781 H 1402.92 4.19238 0.715526 0
M  V30 14782 N 1401.24 0.0551678 1.57503 0
M  V30 14783 C 1402.2 -0.903065 2.10659 0
M  V30 14784 C 1403.2 -1.23728 1.02703 0
M  V30 14785 O 1404.39 -1.17331 1.2876 0
M  V30 14786 C 1401.52 -2.21171 2.59415 0
M  V30 14787 H 1402.72 -0.442197 2.96622 0
M  V30 14788 H 1400.27 -0.193297 1.551 0
M  V30 14789 H 1401 -2.71831 1.76858 0
M  V30 14790 H 1400.79 -1.98216 3.38309 0
M  V30 14791 H 1402.28 -2.89802 3.00674 0
M  V30 14792 N 1402.72 -1.56081 -0.218252 0
M  V30 14793 C 1403.95 -1.83069 -0.957574 0
M  V30 14794 C 1404.35 -0.6325 -1.78315 0
M  V30 14795 O 1403.7 0.408298 -1.79105 0
M  V30 14796 C 1403.76 -3.03835 -1.92157 0
M  V30 14797 C 1403.42 -4.38702 -1.2802 0
M  V30 14798 C 1404.42 -5.15585 -0.66846 0
M  V30 14799 C 1402.11 -4.85427 -1.29098 0
M  V30 14800 C 1404.1 -6.37355 -0.0760499 0
M  V30 14801 C 1401.79 -6.07138 -0.69473 0
M  V30 14802 C 1402.78 -6.82943 -0.0883201 0
M  V30 14803 O 1402.47 -8.02352 0.498648 0
M  V30 14804 H 1402.2 -0.612493 -0.286057 0
M  V30 14805 H 1404.76 -2.04021 -0.23759 0
M  V30 14806 H 1402.99 -2.78709 -2.68064 0
M  V30 14807 H 1404.68 -3.17666 -2.52672 0
M  V30 14808 H 1405.44 -4.80592 -0.652434 0
M  V30 14809 H 1401.32 -4.26395 -1.75238 0
M  V30 14810 H 1404.87 -6.96464 0.397893 0
M  V30 14811 H 1400.76 -6.41604 -0.70818 0
M  V30 14812 H 1401.53 -8.17555 0.393289 0
M  V30 14813 N 1404.2 0.485086 -1.49949 0
M  V30 14814 C 1405.11 1.61089 -1.70551 0
M  V30 14815 C 1406.12 1.63752 -0.588333 0
M  V30 14816 O 1407.3 1.81879 -0.86498 0
M  V30 14817 C 1404.36 2.97382 -1.78227 0
M  V30 14818 C 1403.42 3.05219 -3.01894 0
M  V30 14819 C 1402.66 4.35011 -3.09195 0
M  V30 14820 O 1402.88 5.24722 -2.23658 0
M  V30 14821 O 1401.81 4.48151 -4.01802 0
M  V30 14822 H 1405.64 1.46633 -2.65956 0
M  V30 14823 H 1403.22 0.663091 -1.33879 0
M  V30 14824 H 1405.11 3.78356 -1.85538 0
M  V30 14825 H 1403.78 3.12066 -0.860043 0
M  V30 14826 H 1402.69 2.23373 -3.00092 0
M  V30 14827 H 1404.02 2.95467 -3.93649 0
M  V30 14828 N 1405.67 1.39291 0.737279 0
M  V30 14829 C 1406.92 1.36121 1.49384 0
M  V30 14830 C 1407.24 -0.0429406 1.94953 0
M  V30 14831 O 1406.51 -0.993756 1.68823 0
M  V30 14832 H 1405.09 0.500916 0.554159 0
M  V30 14833 H 1407.75 1.74134 0.875402 0
M  V30 14834 H 1406.85 2.02246 2.37704 0
M  V30 14835 N 1407.15 -0.967221 1.24429 0
M  V30 14836 C 1408.4 -1.71026 1.08427 0
M  V30 14837 C 1408.73 -1.90815 -0.376812 0
M  V30 14838 O 1407.98 -1.46745 -1.29477 0
M  V30 14839 C 1408.28 -3.10507 1.76975 0
M  V30 14840 C 1407.95 -3.10557 3.26902 0
M  V30 14841 C 1406.61 -3.10278 3.67806 0
M  V30 14842 C 1408.96 -3.04852 4.22746 0
M  V30 14843 C 1406.29 -3.02027 5.02988 0
M  V30 14844 C 1408.64 -2.98143 5.57937 0
M  V30 14845 C 1407.3 -2.96193 5.98185 0
M  V30 14846 H 1406.57 -0.625827 0.396764 0
M  V30 14847 H 1409.22 -1.13094 1.54538 0
M  V30 14848 H 1407.53 -3.71906 1.2326 0
M  V30 14849 H 1409.22 -3.66794 1.62058 0
M  V30 14850 H 1405.81 -3.11539 2.94349 0
M  V30 14851 H 1410 -3.04197 3.92145 0
M  V30 14852 H 1405.25 -2.98878 5.33368 0
M  V30 14853 H 1409.43 -2.92688 6.31907 0
M  V30 14854 H 1407.05 -2.89555 7.02895 0
M  V30 14855 N 1408.63 -1.05812 -1.16797 0
M  V30 14856 C 1409.56 -0.685778 -2.23202 0
M  V30 14857 C 1410.54 0.319428 -1.67074 0
M  V30 14858 O 1411.73 0.195635 -1.93212 0
M  V30 14859 C 1408.86 -0.0662958 -3.47237 0
M  V30 14860 C 1407.81 -0.996943 -4.16227 0
M  V30 14861 C 1407.14 -0.241015 -5.34157 0
M  V30 14862 C 1408.44 -2.32384 -4.67755 0
M  V30 14863 H 1410.13 -1.57535 -2.54604 0
M  V30 14864 H 1407.68 -0.758909 -1.22379 0
M  V30 14865 H 1409.63 0.206024 -4.20896 0
M  V30 14866 H 1408.35 0.858263 -3.15121 0
M  V30 14867 H 1407.01 -1.25393 -3.44488 0
M  V30 14868 H 1406.66 0.686508 -4.98293 0
M  V30 14869 H 1406.36 -0.861188 -5.81255 0
M  V30 14870 H 1407.88 0.0238739 -6.10595 0
M  V30 14871 H 1409.3 -2.11099 -5.3302 0
M  V30 14872 H 1407.69 -2.89855 -5.25456 0
M  V30 14873 H 1408.76 -2.958 -3.84227 0
M  V30 14874 N 1410.11 1.33347 -0.840014 0
M  V30 14875 C 1411.33 2.02485 -0.448856 0
M  V30 14876 C 1411.76 1.62781 0.942543 0
M  V30 14877 O 1411.12 0.82099 1.61646 0
M  V30 14878 C 1411.16 3.55928 -0.578582 0
M  V30 14879 O 1410.27 4.10507 0.394695 0
M  V30 14880 H 1409.61 0.63848 -0.182317 0
M  V30 14881 H 1412.14 1.70221 -1.13516 0
M  V30 14882 H 1412.15 4.05391 -0.460653 0
M  V30 14883 H 1410.82 3.8417 -1.5933 0
M  V30 14884 H 1409.4 3.72164 0.234227 0
M  V30 14885 N 1411.59 0.596556 1.45873 0
M  V30 14886 C 1412.83 0.0875879 2.02611 0
M  V30 14887 C 1413.16 -1.27438 1.46538 0
M  V30 14888 O 1412.44 -1.83815 0.635779 0
M  V30 14889 C 1412.72 0.0367394 3.60081 0
M  V30 14890 C 1412.58 1.42859 4.26511 0
M  V30 14891 C 1413.89 -0.656795 4.35171 0
M  V30 14892 H 1411.01 0.0333031 0.736247 0
M  V30 14893 H 1413.66 0.766413 1.73857 0
M  V30 14894 H 1411.81 -0.541345 3.8471 0
M  V30 14895 H 1413.48 2.0529 4.13102 0
M  V30 14896 H 1411.72 1.99243 3.85337 0
M  V30 14897 H 1412.39 1.34535 5.35354 0
M  V30 14898 H 1414.87 -0.165553 4.15771 0
M  V30 14899 H 1413.74 -0.661445 5.449 0
M  V30 14900 H 1414 -1.72079 4.07236 0
M  V30 14901 N 1413.06 -1.53996 0.335095 0
M  V30 14902 C 1414.47 -1.86092 -0.15058 0
M  V30 14903 C 1414.83 -1.25652 -1.50685 0
M  V30 14904 O 1413.95 -0.566887 -2.08843 0
M  V30 14905 C 1414.55 -3.37641 -0.280007 0
M  V30 14906 C 1413.1 -3.69645 -0.709907 0
M  V30 14907 C 1412.25 -2.7683 0.161461 0
M  V30 14908 H 1415.2 -1.4868 0.554986 0
M  V30 14909 H 1415.22 -3.63981 -1.10896 0
M  V30 14910 H 1414.74 -3.81601 0.707254 0
M  V30 14911 H 1412.84 -3.31224 -1.7065 0
M  V30 14912 H 1412.95 -4.76424 -0.505661 0
M  V30 14913 H 1411.31 -2.52073 -0.364849 0
M  V30 14914 H 1412.1 -3.23618 1.1457 0
M  V30 14915 N 1414.54 -0.0635198 -1.57472 0
M  V30 14916 C 1415.96 0.293084 -1.56886 0
M  V30 14917 C 1416.16 1.70603 -1.07224 0
M  V30 14918 O 1415.21 2.41584 -0.734388 0
M  V30 14919 C 1416.53 0.110286 -3.00498 0
M  V30 14920 C 1418.07 0.180453 -3.12479 0
M  V30 14921 C 1418.55 0.0260354 -4.57993 0
M  V30 14922 N 1420.04 0.0819109 -4.63128 0
M  V30 14923 C 1420.78 -0.0132764 -5.73398 0
M  V30 14924 N 1420.27 -0.161514 -6.92612 0
M  V30 14925 N 1422.06 0.0431948 -5.62083 0
M  V30 14926 H 1414.22 -0.98706 -1.88072 0
M  V30 14927 H 1416.48 -0.384232 -0.866643 0
M  V30 14928 H 1416.18 -0.864378 -3.40913 0
M  V30 14929 H 1416.06 0.866117 -3.67122 0
M  V30 14930 H 1418.45 1.1456 -2.71956 0
M  V30 14931 H 1418.53 -0.606342 -2.4851 0
M  V30 14932 H 1418.17 -0.935839 -4.99204 0
M  V30 14933 H 1418.1 0.832131 -5.19984 0
M  V30 14934 H 1420.59 0.195229 -3.77395 0
M  V30 14935 H 1420.9 -0.226517 -7.72468 0
M  V30 14936 H 1419.25 -0.196766 -6.94721 0
M  V30 14937 H 1422.44 0.157648 -4.67834 0
M  V30 14938 H 1422.61 -0.0344435 -6.47991 0
M  V30 14939 N 1416.02 1.56195 0.209972 0
M  V30 14940 C 1417.43 1.69811 0.775969 0
M  V30 14941 C 1417.78 0.667543 1.84495 0
M  V30 14942 O 1416.91 -0.179043 2.15658 0
M  V30 14943 C 1417.5 3.07869 1.41429 0
M  V30 14944 C 1416.06 3.233 1.92755 0
M  V30 14945 C 1415.21 2.6575 0.791958 0
M  V30 14946 H 1418.16 1.58693 -0.0148727 0
M  V30 14947 H 1418.18 3.04371 2.28339 0
M  V30 14948 H 1417.69 3.82853 0.63604 0
M  V30 14949 H 1415.79 2.53206 2.73345 0
M  V30 14950 H 1415.91 4.30645 2.09956 0
M  V30 14951 H 1414.27 2.24535 1.20234 0
M  V30 14952 H 1415.05 3.4329 0.0261877 0
M  V30 14953 N 1417.5 -0.477127 1.50204 0
M  V30 14954 C 1418.72 -1.25775 1.6491 0
M  V30 14955 C 1419.15 -1.85187 0.329765 0
M  V30 14956 O 1418.51 -1.67004 -0.705641 0
M  V30 14957 C 1418.55 -2.3466 2.73801 0
M  V30 14958 O 1417.66 -3.39147 2.34634 0
M  V30 14959 H 1417 -0.370291 0.551163 0
M  V30 14960 H 1419.53 -0.568514 1.96543 0
M  V30 14961 H 1419.54 -2.80065 2.96695 0
M  V30 14962 H 1418.21 -1.90788 3.69557 0
M  V30 14963 H 1416.79 -2.99496 2.22163 0
M  V30 14964 N 1418.98 -1.3968 -0.729882 0
M  V30 14965 C 1420.22 -1.36911 -1.4866 0
M  V30 14966 C 1420.55 0.0326011 -1.94973 0
M  V30 14967 O 1419.82 0.984789 -1.69348 0
M  V30 14968 H 1418.4 -0.503848 -0.551495 0
M  V30 14969 H 1421.06 -1.74596 -0.866155 0
M  V30 14970 H 1420.15 -2.03504 -2.36628 0
M  V30 14971 N 1420.45 0.960609 -1.2494 0
M  V30 14972 C 1421.7 1.70701 -1.09495 0
M  V30 14973 C 1422.03 1.90754 0.364214 0
M  V30 14974 O 1421.31 1.47417 1.26879 0
M  V30 14975 C 1421.59 3.09353 -1.84317 0
M  V30 14976 C 1421.44 2.96747 -3.38026 0
M  V30 14977 C 1422.76 4.09139 -1.62153 0
M  V30 14978 H 1419.88 0.61955 -0.399158 0
M  V30 14979 H 1422.52 1.11701 -1.53698 0
M  V30 14980 H 1420.67 3.59719 -1.46746 0
M  V30 14981 H 1422.35 2.53752 -3.85237 0
M  V30 14982 H 1420.59 2.32798 -3.66043 0
M  V30 14983 H 1421.26 3.95002 -3.85587 0
M  V30 14984 H 1423.74 3.67659 -1.94849 0
M  V30 14985 H 1422.61 5.04206 -2.16951 0
M  V30 14986 H 1422.87 4.38521 -0.561437 0
M  V30 14987 N 1421.93 1.0643 1.16234 0
M  V30 14988 C 1423.35 0.78802 1.38789 0
M  V30 14989 C 1423.55 -0.612019 1.91981 0
M  V30 14990 O 1422.6 -1.37235 2.1195 0
M  V30 14991 C 1423.92 1.85406 2.36738 0
M  V30 14992 C 1425.47 1.87773 2.5042 0
M  V30 14993 C 1425.94 2.93435 3.51653 0
M  V30 14994 N 1427.43 2.92477 3.59181 0
M  V30 14995 C 1428.17 3.7088 4.37305 0
M  V30 14996 N 1427.66 4.59106 5.18839 0
M  V30 14997 N 1429.46 3.59267 4.32301 0
M  V30 14998 H 1421.61 1.9674 0.800449 0
M  V30 14999 H 1423.87 0.852631 0.414397 0
M  V30 15000 H 1423.58 2.85954 2.04751 0
M  V30 15001 H 1423.45 1.70625 3.36403 0
M  V30 15002 H 1425.84 0.878825 2.8171 0
M  V30 15003 H 1425.92 2.06633 1.50787 0
M  V30 15004 H 1425.56 3.93519 3.211 0
M  V30 15005 H 1425.49 2.71824 4.5102 0
M  V30 15006 H 1427.98 2.28517 3.00979 0
M  V30 15007 H 1428.3 5.15583 5.75668 0
M  V30 15008 H 1426.64 4.6316 5.18177 0
M  V30 15009 H 1429.83 2.89726 3.67663 0
M  V30 15010 H 1430 4.20613 4.92939 0
M  V30 15011 N 1423.41 -1.329 0.847073 0
M  V30 15012 C 1424.83 -1.50333 0.53593 0
M  V30 15013 C 1425.03 -1.78492 -0.93504 0
M  V30 15014 O 1424.08 -1.85001 -1.71846 0
M  V30 15015 C 1425.4 -2.65254 1.41636 0
M  V30 15016 C 1426.94 -2.79139 1.416 0
M  V30 15017 C 1427.42 -3.97131 2.28147 0
M  V30 15018 N 1428.91 -4.0438 2.25901 0
M  V30 15019 C 1429.64 -4.94893 2.89601 0
M  V30 15020 N 1429.14 -5.90466 3.62383 0
M  V30 15021 N 1430.93 -4.87955 2.79028 0
M  V30 15022 H 1423.08 -1.12886 1.79918 0
M  V30 15023 H 1425.35 -0.555707 0.768045 0
M  V30 15024 H 1425.05 -2.51151 2.46203 0
M  V30 15025 H 1424.93 -3.60856 1.09829 0
M  V30 15026 H 1427.31 -2.92669 0.378013 0
M  V30 15027 H 1427.4 -1.84273 1.77418 0
M  V30 15028 H 1427.04 -3.8436 3.32009 0
M  V30 15029 H 1426.97 -4.91258 1.89665 0
M  V30 15030 H 1429.46 -3.35986 1.72979 0
M  V30 15031 H 1429.77 -6.56212 4.08174 0
M  V30 15032 H 1428.12 -5.90516 3.66491 0
M  V30 15033 H 1431.31 -4.12258 2.21723 0
M  V30 15034 H 1431.48 -5.58295 3.28954 0
M  V30 15035 N 1424.89 -0.604284 -1.45555 0
M  V30 15036 C 1426.14 -0.0979922 -2.01862 0
M  V30 15037 C 1426.46 1.27476 -1.47563 0
M  V30 15038 O 1425.73 1.84137 -0.668612 0
M  V30 15039 H 1424.31 -0.033235 -0.74626 0
M  V30 15040 H 1426.97 -0.784936 -1.78395 0
M  V30 15041 H 1426.07 -0.0452716 -3.12067 0
M  V30 15042 N 1426.37 1.53816 -0.343257 0
M  V30 15043 C 1427.61 2.01902 0.246398 0
M  V30 15044 C 1427.97 1.22671 1.48221 0
M  V30 15045 O 1427.26 0.305932 1.89142 0
M  V30 15046 C 1427.45 3.521 0.613243 0
M  V30 15047 C 1427.28 4.45873 -0.585472 0
M  V30 15048 C 1426.05 4.93388 -1.09069 0
M  V30 15049 C 1428.25 4.93617 -1.44383 0
M  V30 15050 N 1426.23 5.71112 -2.25176 0
M  V30 15051 C 1427.6 5.69461 -2.45182 0
M  V30 15052 C 1429.66 4.75726 -1.46931 0
M  V30 15053 C 1428.36 6.29317 -3.48357 0
M  V30 15054 C 1430.39 5.36432 -2.48987 0
M  V30 15055 C 1429.75 6.12143 -3.48511 0
M  V30 15056 H 1425.85 0.780169 0.0534765 0
M  V30 15057 H 1428.43 1.8862 -0.482756 0
M  V30 15058 H 1426.6 3.65588 1.3115 0
M  V30 15059 H 1428.34 3.8693 1.18606 0
M  V30 15060 H 1425.09 4.68995 -0.658824 0
M  V30 15061 H 1425.52 6.14645 -2.83797 0
M  V30 15062 H 1430.16 4.16737 -0.713479 0
M  V30 15063 H 1427.88 6.87416 -4.24835 0
M  V30 15064 H 1431.46 5.24495 -2.51785 0
M  V30 15065 H 1430.34 6.58281 -4.26187 0
M  V30 15066 N 1427.84 0.0718701 1.57436 0
M  V30 15067 C 1428.78 -0.924911 2.09709 0
M  V30 15068 C 1429.79 -1.26136 1.02925 0
M  V30 15069 O 1430.98 -1.21853 1.30438 0
M  V30 15070 C 1428.08 -2.24072 2.54254 0
M  V30 15071 C 1427.25 -2.0831 3.84611 0
M  V30 15072 C 1426.31 -3.23196 4.15248 0
M  V30 15073 O 1425.34 -2.98184 4.84846 0
M  V30 15074 N 1426.54 -4.48293 3.688 0
M  V30 15075 H 1429.3 -0.478605 2.95854 0
M  V30 15076 H 1426.86 -0.113853 1.61499 0
M  V30 15077 H 1428.86 -2.99835 2.71811 0
M  V30 15078 H 1427.43 -2.60201 1.73246 0
M  V30 15079 H 1426.65 -1.17014 3.76432 0
M  V30 15080 H 1427.93 -1.9503 4.69937 0
M  V30 15081 H 1427.33 -4.71501 3.12575 0
M  V30 15082 H 1425.89 -5.21082 3.91556 0
M  V30 15083 N 1429.32 -1.56304 -0.201686 0
M  V30 15084 C 1430.74 -1.49741 -0.552247 0
M  V30 15085 C 1430.94 -0.770683 -1.86179 0
M  V30 15086 O 1429.99 -0.318489 -2.50483 0
M  V30 15087 C 1431.31 -2.94384 -0.613083 0
M  V30 15088 C 1432.86 -3.05018 -0.702365 0
M  V30 15089 C 1433.33 -4.51058 -0.794371 0
M  V30 15090 N 1434.82 -4.55183 -0.858072 0
M  V30 15091 C 1435.56 -5.65487 -0.949317 0
M  V30 15092 N 1435.05 -6.85497 -1.00327 0
M  V30 15093 N 1436.85 -5.53385 -0.985995 0
M  V30 15094 H 1429 -2.01971 0.657394 0
M  V30 15095 H 1431.26 -0.918839 0.233322 0
M  V30 15096 H 1430.97 -3.50584 0.279921 0
M  V30 15097 H 1430.84 -3.47376 -1.47002 0
M  V30 15098 H 1433.23 -2.4887 -1.5858 0
M  V30 15099 H 1433.31 -2.55161 0.180636 0
M  V30 15100 H 1432.95 -5.07829 0.0846883 0
M  V30 15101 H 1432.88 -4.98641 -1.69308 0
M  V30 15102 H 1435.37 -3.68765 -0.825888 0
M  V30 15103 H 1435.69 -7.65312 -1.07322 0
M  V30 15104 H 1434.03 -6.88169 -0.972061 0
M  V30 15105 H 1437.22 -4.58552 -0.940635 0
M  V30 15106 H 1437.39 -6.39376 -1.05365 0
M  V30 15107 N 1430.8 0.469154 -1.50455 0
M  V30 15108 C 1432.05 1.2229 -1.6178 0
M  V30 15109 C 1432.38 1.91577 -0.318073 0
M  V30 15110 O 1431.65 1.82205 0.68057 0
M  V30 15111 C 1431.94 2.26504 -2.79943 0
M  V30 15112 C 1431.79 1.61509 -4.19804 0
M  V30 15113 C 1433.11 3.27796 -2.93662 0
M  V30 15114 H 1430.23 0.443241 -0.588817 0
M  V30 15115 H 1432.87 0.516431 -1.82847 0
M  V30 15116 H 1431.02 2.86757 -2.62112 0
M  V30 15117 H 1432.69 1.04838 -4.49229 0
M  V30 15118 H 1430.94 0.918162 -4.23972 0
M  V30 15119 H 1431.61 2.37248 -4.98415 0
M  V30 15120 H 1434.08 2.77568 -3.09992 0
M  V30 15121 H 1432.96 3.98041 -3.77961 0
M  V30 15122 H 1433.22 3.92033 -2.04359 0
M  V30 15123 N 1432.28 1.40065 0.722464 0
M  V30 15124 C 1433.53 1.3797 1.48224 0
M  V30 15125 C 1433.85 -0.0202588 1.94489 0
M  V30 15126 O 1433.11 -1.0035 1.68013 0
M  V30 15127 C 1433.41 2.30949 2.72759 0
M  V30 15128 C 1433.07 3.7834 2.45295 0
M  V30 15129 C 1431.74 4.18497 2.37515 0
M  V30 15130 C 1434.09 4.71509 2.221 0
M  V30 15131 C 1431.42 5.4987 2.04598 0
M  V30 15132 C 1433.77 6.03173 1.90697 0
M  V30 15133 C 1432.43 6.4238 1.81394 0
M  V30 15134 H 1431.7 0.504869 0.542392 0
M  V30 15135 H 1434.35 1.72667 0.828149 0
M  V30 15136 H 1432.65 1.89413 3.42972 0
M  V30 15137 H 1434.35 2.26615 3.30827 0
M  V30 15138 H 1430.94 3.46519 2.52235 0
M  V30 15139 H 1435.12 4.41308 2.27071 0
M  V30 15140 H 1430.38 5.79157 1.95928 0
M  V30 15141 H 1434.55 6.74886 1.71761 0
M  V30 15142 H 1432.18 7.44094 1.55654 0
M  V30 15143 N 1433.76 -0.95397 1.25448 0
M  V30 15144 C 1434.72 -2.03231 1.0597 0
M  V30 15145 C 1435.72 -1.60795 0.0122855 0
M  V30 15146 O 1436.91 -1.7233 0.254533 0
M  V30 15147 C 1434.04 -3.35414 0.609105 0
M  V30 15148 H 1435.24 -2.21943 2.01696 0
M  V30 15149 H 1432.79 -1.13115 1.07864 0
M  V30 15150 H 1433.52 -3.22398 -0.350723 0
M  V30 15151 H 1433.31 -3.67564 1.36526 0
M  V30 15152 H 1434.8 -4.14664 0.49428 0
M  V30 15153 N 1435.24 -1.07045 -1.15668 0
M  V30 15154 C 1436.2 -0.69198 -2.18505 0
M  V30 15155 C 1437.2 0.266185 -1.58582 0
M  V30 15156 O 1438.39 0.0475566 -1.74135 0
M  V30 15157 C 1435.52 -0.0194196 -3.40894 0
M  V30 15158 H 1436.71 -1.60241 -2.53501 0
M  V30 15159 H 1434.27 -0.866598 -1.30076 0
M  V30 15160 H 1435 0.903398 -3.11463 0
M  V30 15161 H 1434.79 -0.708519 -3.85645 0
M  V30 15162 H 1436.28 0.230829 -4.16962 0
M  V30 15163 N 1436.71 1.32449 -0.85411 0
M  V30 15164 C 1437.64 2.31383 -0.313697 0
M  V30 15165 C 1438.62 1.59656 0.586858 0
M  V30 15166 O 1439.81 1.87459 0.507216 0
M  V30 15167 C 1436.94 3.43693 0.499235 0
M  V30 15168 C 1435.89 4.26899 -0.306839 0
M  V30 15169 C 1435.22 5.30966 0.630795 0
M  V30 15170 C 1436.52 4.99318 -1.53229 0
M  V30 15171 H 1438.21 2.76832 -1.14037 0
M  V30 15172 H 1435.76 1.33091 -0.549805 0
M  V30 15173 H 1437.71 4.11944 0.887709 0
M  V30 15174 H 1436.44 2.96971 1.35926 0
M  V30 15175 H 1435.1 3.60294 -0.677061 0
M  V30 15176 H 1434.74 4.80498 1.48765 0
M  V30 15177 H 1434.44 5.87522 0.0954635 0
M  V30 15178 H 1435.97 6.0208 1.01646 0
M  V30 15179 H 1437.38 5.60253 -1.21614 0
M  V30 15180 H 1435.78 5.65596 -2.00552 0
M  V30 15181 H 1436.85 4.27213 -2.29383 0
M  V30 15182 N 1438.19 0.611994 1.45232 0
M  V30 15183 C 1439.42 0.113618 2.07089 0
M  V30 15184 C 1439.84 -1.1947 1.45288 0
M  V30 15185 O 1439.2 -1.72845 0.547207 0
M  V30 15186 C 1439.25 -0.00789978 3.60599 0
M  V30 15187 O 1438.35 -1.05697 3.98625 0
M  V30 15188 H 1437.69 0.076066 0.659629 0
M  V30 15189 H 1440.22 0.843253 1.86415 0
M  V30 15190 H 1440.23 -0.204692 4.07486 0
M  V30 15191 H 1438.91 0.947386 4.04966 0
M  V30 15192 H 1437.48 -0.836291 3.63401 0
M  V30 15193 N 1439.67 -1.53632 0.351409 0
M  V30 15194 C 1440.95 -1.93311 -0.298362 0
M  V30 15195 C 1441.33 -1.28369 -1.67584 0
M  V30 15196 O 1440.67 -0.437514 -2.24272 0
M  V30 15197 C 1440.88 -3.47109 -0.362773 0
M  V30 15198 C 1442.23 -4.20197 -0.609878 0
M  V30 15199 O 1443.26 -3.53415 -0.444566 0
M  V30 15200 O 1442.12 -5.38517 -0.930691 0
M  V30 15201 H 1439.21 -0.808112 -0.175739 0
M  V30 15202 H 1441.76 -1.64841 0.40316 0
M  V30 15203 H 1440.53 -3.86617 0.60357 0
M  V30 15204 H 1440.15 -3.81769 -1.11076 0
M  V30 15205 N 1441.15 -0.0802183 -1.57396 0
M  V30 15206 C 1442.37 0.599179 -1.98556 0
M  V30 15207 C 1442.8 1.61844 -0.958555 0
M  V30 15208 O 1442.16 1.81146 0.0748226 0
M  V30 15209 C 1442.2 1.23675 -3.38728 0
M  V30 15210 O 1441.31 2.35262 -3.38712 0
M  V30 15211 H 1440.65 0.153366 -0.646045 0
M  V30 15212 H 1443.18 -0.157227 -2.03995 0
M  V30 15213 H 1443.19 1.5816 -3.76098 0
M  V30 15214 H 1441.86 0.489946 -4.13004 0
M  V30 15215 H 1440.44 2.02507 -3.13122 0
M  V30 15216 N 1442.63 1.56409 0.193394 0
M  V30 15217 C 1444.04 1.50032 0.544298 0
M  V30 15218 C 1444.24 0.780546 1.85768 0
M  V30 15219 O 1443.3 0.331769 2.50311 0
M  V30 15220 C 1444.61 2.94705 0.597463 0
M  V30 15221 C 1446.16 3.05386 0.686179 0
M  V30 15222 C 1446.63 4.51473 0.770439 0
M  V30 15223 N 1448.12 4.55631 0.833921 0
M  V30 15224 C 1448.86 5.65982 0.919314 0
M  V30 15225 N 1448.36 6.8602 0.966904 0
M  V30 15226 N 1450.15 5.539 0.956634 0
M  V30 15227 H 1442.3 2.01619 -0.668096 0
M  V30 15228 H 1444.56 0.917589 -0.238191 0
M  V30 15229 H 1444.27 3.50431 -0.298509 0
M  V30 15230 H 1444.14 3.48151 1.45157 0
M  V30 15231 H 1446.53 2.49708 1.57258 0
M  V30 15232 H 1446.61 2.55062 -0.194165 0
M  V30 15233 H 1446.25 5.07777 -0.111619 0
M  V30 15234 H 1446.18 4.99531 1.66661 0
M  V30 15235 H 1448.68 3.69198 0.80632 0
M  V30 15236 H 1448.99 7.6587 1.03262 0
M  V30 15237 H 1447.33 6.88674 0.935552 0
M  V30 15238 H 1450.52 4.59044 0.916304 0
M  V30 15239 H 1450.7 6.39926 1.01972 0
M  V30 15240 N 1444.1 -0.461169 1.50702 0
M  V30 15241 C 1445.03 -1.56576 1.73223 0
M  V30 15242 C 1446.01 -1.59855 0.581401 0
M  V30 15243 O 1447.2 -1.75964 0.821602 0
M  V30 15244 C 1444.33 -2.94835 1.83548 0
M  V30 15245 C 1443.28 -3.06421 2.98815 0
M  V30 15246 C 1442.61 -4.46425 2.94293 0
M  V30 15247 C 1443.91 -2.82714 4.3917 0
M  V30 15248 H 1445.6 -1.37982 2.65709 0
M  V30 15249 H 1443.15 -0.662362 1.27862 0
M  V30 15250 H 1445.1 -3.72047 1.97887 0
M  V30 15251 H 1443.83 -3.14608 0.876906 0
M  V30 15252 H 1442.49 -2.31644 2.84142 0
M  V30 15253 H 1442.13 -4.63131 1.96262 0
M  V30 15254 H 1441.83 -4.55111 3.71682 0
M  V30 15255 H 1443.36 -5.25644 3.10695 0
M  V30 15256 H 1444.77 -3.4967 4.54317 0
M  V30 15257 H 1443.17 -3.02835 5.18084 0
M  V30 15258 H 1444.24 -1.78492 4.50853 0
M  V30 15259 N 1445.58 -1.40446 -0.715026 0
M  V30 15260 C 1446.51 -1.43511 -1.84193 0
M  V30 15261 C 1447.49 -0.295969 -1.67505 0
M  V30 15262 O 1448.68 -0.504667 -1.87528 0
M  V30 15263 C 1445.81 -1.29751 -3.22152 0
M  V30 15264 C 1444.76 -2.41274 -3.53512 0
M  V30 15265 C 1444.09 -2.12591 -4.90621 0
M  V30 15266 C 1445.39 -3.83614 -3.54454 0
M  V30 15267 H 1447.08 -2.37819 -1.81885 0
M  V30 15268 H 1444.63 -1.14469 -0.873655 0
M  V30 15269 H 1446.58 -1.30511 -4.0068 0
M  V30 15270 H 1445.3 -0.319189 -3.25037 0
M  V30 15271 H 1443.96 -2.39764 -2.77324 0
M  V30 15272 H 1443.61 -1.13148 -4.90109 0
M  V30 15273 H 1443.31 -2.87308 -5.1257 0
M  V30 15274 H 1444.84 -2.15034 -5.71483 0
M  V30 15275 H 1446.25 -3.86945 -4.23021 0
M  V30 15276 H 1444.65 -4.57855 -3.87929 0
M  V30 15277 H 1445.72 -4.13159 -2.53827 0
M  V30 15278 N 1447.06 0.947303 -1.25952 0
M  V30 15279 C 1447.99 2.0625 -1.09467 0
M  V30 15280 C 1448.97 1.701 -0.00160498 0
M  V30 15281 O 1450.16 1.93432 -0.172501 0
M  V30 15282 C 1447.29 3.39746 -0.720392 0
M  V30 15283 C 1446.24 3.89935 -1.76451 0
M  V30 15284 C 1445.57 5.2001 -1.24472 0
M  V30 15285 C 1446.87 4.15496 -3.16481 0
M  V30 15286 H 1448.56 2.203 -2.02752 0
M  V30 15287 H 1446.11 1.05858 -0.97622 0
M  V30 15288 H 1448.06 4.17221 -0.591972 0
M  V30 15289 H 1446.78 3.25656 0.248161 0
M  V30 15290 H 1445.44 3.14635 -1.8815 0
M  V30 15291 H 1445.09 5.02295 -0.266182 0
M  V30 15292 H 1444.79 5.54559 -1.94263 0
M  V30 15293 H 1446.31 6.00075 -1.12884 0
M  V30 15294 H 1447.73 4.83605 -3.07894 0
M  V30 15295 H 1446.12 4.61315 -3.83808 0
M  V30 15296 H 1447.19 3.21501 -3.62995 0
M  V30 15297 N 1448.54 1.07657 1.15099 0
M  V30 15298 C 1449.79 0.801609 1.85958 0
M  V30 15299 C 1450.11 -0.672415 1.82507 0
M  V30 15300 O 1449.37 -1.50958 1.2454 0
M  V30 15301 C 1449.67 1.25903 3.3449 0
M  V30 15302 C 1449.33 2.73954 3.58134 0
M  V30 15303 C 1448 3.14392 3.64296 0
M  V30 15304 C 1450.35 3.69502 3.67584 0
M  V30 15305 C 1447.68 4.49187 3.77422 0
M  V30 15306 C 1450.03 5.04063 3.82235 0
M  V30 15307 C 1448.69 5.44117 3.86643 0
M  V30 15308 H 1447.96 0.293329 0.68047 0
M  V30 15309 H 1450.61 1.34814 1.36005 0
M  V30 15310 H 1448.91 0.631943 3.8667 0
M  V30 15311 H 1450.61 1.02314 3.87728 0
M  V30 15312 H 1447.2 2.41652 3.53981 0
M  V30 15313 H 1451.38 3.39385 3.62121 0
M  V30 15314 H 1446.64 4.79685 3.79094 0
M  V30 15315 H 1450.81 5.7797 3.88489 0
M  V30 15316 H 1448.44 6.48567 3.96567 0
M  V30 15317 N 1450.02 -1.31994 0.861122 0
M  V30 15318 C 1451.29 -1.91699 0.388705 0
M  V30 15319 C 1451.67 -1.78412 -1.12838 0
M  V30 15320 O 1451.02 -1.18625 -1.95296 0
M  V30 15321 C 1451.23 -3.38232 0.860248 0
M  V30 15322 C 1452.58 -4.15355 0.881201 0
M  V30 15323 O 1453.6 -3.46977 0.805313 0
M  V30 15324 O 1452.46 -5.37468 0.98945 0
M  V30 15325 H 1449.56 -0.819017 0.114629 0
M  V30 15326 H 1452.1 -1.40721 0.94845 0
M  V30 15327 H 1450.87 -3.41876 1.9036 0
M  V30 15328 H 1450.5 -3.96625 0.278316 0
M  V30 15329 N 1451.49 -0.619688 -1.44906 0
M  V30 15330 C 1452.46 0.0822364 -2.29052 0
M  V30 15331 C 1453.46 0.783427 -1.40425 0
M  V30 15332 O 1454.65 0.629751 -1.62419 0
M  V30 15333 C 1451.78 1.12685 -3.21737 0
M  V30 15334 H 1452.97 -0.657726 -2.92599 0
M  V30 15335 H 1450.53 -0.379286 -1.51628 0
M  V30 15336 H 1451.26 1.89717 -2.63017 0
M  V30 15337 H 1451.05 0.628122 -3.87036 0
M  V30 15338 H 1452.54 1.61808 -3.84978 0
M  V30 15339 N 1452.97 1.53444 -0.359552 0
M  V30 15340 C 1454.38 1.86308 0.120955 0
M  V30 15341 C 1454.73 1.28033 1.48667 0
M  V30 15342 O 1453.86 0.600041 2.07915 0
M  V30 15343 C 1454.45 3.38044 0.226255 0
M  V30 15344 C 1453.01 3.70727 0.65101 0
M  V30 15345 C 1452.16 2.76538 -0.205482 0
M  V30 15346 H 1455.11 1.47778 -0.578569 0
M  V30 15347 H 1455.13 3.65699 1.05092 0
M  V30 15348 H 1454.64 3.80428 -0.767874 0
M  V30 15349 H 1452.75 3.33897 1.65359 0
M  V30 15350 H 1452.86 4.77168 0.429802 0
M  V30 15351 H 1451.22 2.52622 0.3247 0
M  V30 15352 H 1452.01 3.21754 -1.19704 0
M  V30 15353 N 1454.45 0.0885642 1.57351 0
M  V30 15354 C 1455.73 -0.618587 1.85561 0
M  V30 15355 C 1456.11 -1.86753 0.984206 0
M  V30 15356 O 1455.46 -2.28434 0.0548839 0
M  V30 15357 C 1455.67 -0.940222 3.36096 0
M  V30 15358 C 1457.01 -1.30649 4.04 0
M  V30 15359 O 1458.04 -1.03144 3.4094 0
M  V30 15360 O 1456.9 -1.82135 5.15256 0
M  V30 15361 H 1453.99 -0.308881 0.767152 0
M  V30 15362 H 1456.54 0.120767 1.6927 0
M  V30 15363 H 1455.31 -0.0538991 3.91263 0
M  V30 15364 H 1454.93 -1.73577 3.5771 0
M  V30 15365 N 1455.93 -1.56509 -0.185096 0
M  V30 15366 C 1456.86 -1.98363 -1.23184 0
M  V30 15367 C 1457.84 -0.85709 -1.46929 0
M  V30 15368 O 1459.02 -1.12216 -1.58497 0
M  V30 15369 C 1456.15 -2.33172 -2.57387 0
M  V30 15370 C 1455.11 -3.48658 -2.48236 0
M  V30 15371 C 1454.43 -3.69171 -3.86804 0
M  V30 15372 C 1455.73 -4.82538 -1.99885 0
M  V30 15373 H 1457.43 -2.86053 -0.883982 0
M  V30 15374 H 1454.97 -1.37623 -0.423786 0
M  V30 15375 H 1456.93 -2.61048 -3.30805 0
M  V30 15376 H 1455.65 -1.42377 -2.93933 0
M  V30 15377 H 1454.31 -3.20889 -1.77273 0
M  V30 15378 H 1453.96 -2.75689 -4.20719 0
M  V30 15379 H 1453.66 -4.46868 -3.81553 0
M  V30 15380 H 1455.18 -3.99433 -4.61829 0
M  V30 15381 H 1456.6 -5.0938 -2.63068 0
M  V30 15382 H 1454.99 -5.63775 -2.05614 0
M  V30 15383 H 1456.06 -4.75453 -0.952503 0
M  V30 15384 N 1457.41 0.45317 -1.50944 0
M  V30 15385 C 1458.82 0.788393 -1.38768 0
M  V30 15386 C 1459.02 1.96233 -0.457676 0
M  V30 15387 O 1458.08 2.52328 0.0930651 0
M  V30 15388 C 1459.39 1.08363 -2.80496 0
M  V30 15389 C 1460.94 1.18901 -2.89537 0
M  V30 15390 C 1461.41 1.51727 -4.32138 0
M  V30 15391 N 1462.91 1.58683 -4.35171 0
M  V30 15392 C 1463.64 1.85623 -5.42523 0
M  V30 15393 N 1463.14 2.10462 -6.60059 0
M  V30 15394 N 1464.93 1.87274 -5.29986 0
M  V30 15395 H 1457.08 -0.320216 -2.09972 0
M  V30 15396 H 1459.34 -0.0808021 -0.94455 0
M  V30 15397 H 1459.05 0.293897 -3.5047 0
M  V30 15398 H 1458.92 2.01532 -3.18849 0
M  V30 15399 H 1461.31 1.96939 -2.19771 0
M  V30 15400 H 1461.39 0.236691 -2.54703 0
M  V30 15401 H 1461.04 0.74223 -5.02447 0
M  V30 15402 H 1460.97 2.48139 -4.64472 0
M  V30 15403 H 1463.46 1.41455 -3.50427 0
M  V30 15404 H 1463.77 2.30343 -7.37673 0
M  V30 15405 H 1462.11 2.07817 -6.63202 0
M  V30 15406 H 1465.31 1.67377 -4.37153 0
M  V30 15407 H 1465.48 2.07933 -6.13733 0
M  V30 15408 N 1458.88 1.40823 0.707568 0
M  V30 15409 C 1459.81 1.44485 1.83429 0
M  V30 15410 C 1460.8 0.304848 1.67346 0
M  V30 15411 O 1461.98 0.514605 1.87258 0
M  V30 15412 C 1459.11 1.31458 3.21459 0
M  V30 15413 C 1458.06 2.43145 3.52228 0
M  V30 15414 C 1457.39 2.15189 4.89487 0
M  V30 15415 C 1458.69 3.85489 3.52414 0
M  V30 15416 H 1460.38 2.38781 1.80622 0
M  V30 15417 H 1457.93 1.14931 0.867572 0
M  V30 15418 H 1459.88 1.32635 3.99983 0
M  V30 15419 H 1458.61 0.336422 3.24863 0
M  V30 15420 H 1457.27 2.41231 2.76049 0
M  V30 15421 H 1456.91 1.15745 4.89502 0
M  V30 15422 H 1456.61 2.90022 5.11039 0
M  V30 15423 H 1458.14 2.18062 5.70334 0
M  V30 15424 H 1459.55 3.89183 4.20963 0
M  V30 15425 H 1457.95 4.59906 3.85495 0
M  V30 15426 H 1459.02 4.14499 2.51632 0
M  V30 15427 N 1460.36 -0.94061 1.26453 0
M  V30 15428 C 1461.59 -1.72654 1.14914 0
M  V30 15429 C 1462.01 -1.85823 -0.291789 0
M  V30 15430 O 1461.37 -1.34888 -1.2114 0
M  V30 15431 C 1461.42 -3.11083 1.82372 0
M  V30 15432 O 1460.52 -3.971 1.1129 0
M  V30 15433 H 1459.86 -0.529704 0.400387 0
M  V30 15434 H 1462.39 -1.17803 1.67283 0
M  V30 15435 H 1462.4 -3.6147 1.89219 0
M  V30 15436 H 1461.08 -3.00815 2.87199 0
M  V30 15437 H 1459.66 -3.5555 1.12423 0
M  V30 15438 N 1461.84 -1.08266 -1.14527 0
M  V30 15439 C 1463.25 -0.832702 -1.67102 0
M  V30 15440 C 1463.6 0.640776 -1.85441 0
M  V30 15441 O 1462.73 1.49505 -1.56452 0
M  V30 15442 C 1463.32 -1.50502 -3.03537 0
M  V30 15443 C 1461.88 -1.30234 -3.53152 0
M  V30 15444 C 1461.03 -1.56873 -2.28661 0
M  V30 15445 H 1463.98 -1.24344 -0.986118 0
M  V30 15446 H 1464 -0.931426 -3.68924 0
M  V30 15447 H 1463.51 -2.57741 -2.90157 0
M  V30 15448 H 1461.61 -0.250582 -3.71756 0
M  V30 15449 H 1461.73 -2.02898 -4.34015 0
M  V30 15450 H 1460.09 -0.990214 -2.34663 0
M  V30 15451 H 1460.87 -2.65316 -2.17859 0
M  V30 15452 N 1463.32 1.31536 -0.86811 0
M  V30 15453 C 1464.73 1.78991 -0.530937 0
M  V30 15454 C 1465.08 1.71553 0.952046 0
M  V30 15455 O 1464.21 1.28216 1.74326 0
M  V30 15456 C 1464.8 3.25004 -0.956981 0
M  V30 15457 C 1463.36 3.70362 -0.671495 0
M  V30 15458 C 1462.51 2.52361 -1.14932 0
M  V30 15459 H 1465.46 1.18644 -1.05401 0
M  V30 15460 H 1465.48 3.79477 -0.278883 0
M  V30 15461 H 1464.99 3.30385 -2.03635 0
M  V30 15462 H 1463.09 3.70483 0.39659 0
M  V30 15463 H 1463.21 4.62581 -1.24722 0
M  V30 15464 H 1461.57 2.4826 -0.569144 0
M  V30 15465 H 1462.35 2.60489 -2.23608 0
M  V30 15466 N 1464.8 0.627364 1.44575 0
M  V30 15467 C 1466.02 0.135576 2.06956 0
M  V30 15468 C 1466.45 -1.17922 1.46547 0
M  V30 15469 O 1465.81 -1.72255 0.565509 0
M  V30 15470 C 1465.85 0.030347 3.60587 0
M  V30 15471 O 1464.96 -1.01464 3.99724 0
M  V30 15472 H 1464.3 0.083058 0.658785 0
M  V30 15473 H 1466.83 0.862977 1.8551 0
M  V30 15474 H 1466.84 -0.161461 4.0768 0
M  V30 15475 H 1465.51 0.990285 4.03938 0
M  V30 15476 H 1464.09 -0.797701 3.64268 0
M  V30 15477 N 1466.28 -1.53251 0.367684 0
M  V30 15478 C 1467.52 -2.00889 -0.220914 0
M  V30 15479 C 1467.84 -1.25662 -1.4911 0
M  V30 15480 O 1467.11 -0.370491 -1.92365 0
M  V30 15481 H 1465.69 -0.742191 -0.0846233 0
M  V30 15482 H 1468.36 -1.88525 0.494402 0
M  V30 15483 H 1467.45 -3.08891 -0.446414 0
M  V30 15484 N 1467.75 -0.0969077 -1.57302 0
M  V30 15485 C 1468.72 0.846895 -2.1298 0
M  V30 15486 C 1469.72 1.20962 -1.05947 0
M  V30 15487 O 1470.91 1.13876 -1.31826 0
M  V30 15488 C 1468.04 2.14215 -2.65188 0
M  V30 15489 H 1469.23 0.363398 -2.9769 0
M  V30 15490 H 1466.78 0.152107 -1.55558 0
M  V30 15491 H 1467.52 2.67046 -1.84002 0
M  V30 15492 H 1467.3 1.89176 -3.43445 0
M  V30 15493 H 1468.79 2.81728 -3.08252 0
M  V30 15494 N 1469.23 1.56605 0.176793 0
M  V30 15495 C 1470.16 1.99014 1.2213 0
M  V30 15496 C 1471.14 0.86487 1.46472 0
M  V30 15497 O 1472.33 1.13055 1.57899 0
M  V30 15498 C 1469.46 2.34534 2.56146 0
M  V30 15499 C 1468.41 3.4997 2.46384 0
M  V30 15500 C 1467.74 3.71217 3.8484 0
M  V30 15501 C 1469.04 4.83592 1.97323 0
M  V30 15502 H 1470.73 2.86517 0.8688 0
M  V30 15503 H 1468.28 1.37846 0.416481 0
M  V30 15504 H 1470.23 2.62799 3.29416 0
M  V30 15505 H 1468.95 1.43933 2.93174 0
M  V30 15506 H 1467.61 3.21824 1.75569 0
M  V30 15507 H 1467.26 2.77916 4.19251 0
M  V30 15508 H 1466.96 4.48885 3.79178 0
M  V30 15509 H 1468.49 4.01877 4.59704 0
M  V30 15510 H 1469.9 5.10768 2.60363 0
M  V30 15511 H 1468.3 5.64858 2.02622 0
M  V30 15512 H 1469.37 4.75951 0.927275 0
M  V30 15513 N 1470.71 -0.445159 1.51182 0
M  V30 15514 C 1471.64 -1.5473 1.74874 0
M  V30 15515 C 1472.62 -1.5923 0.598323 0
M  V30 15516 O 1473.81 -1.75083 0.840219 0
M  V30 15517 C 1470.94 -2.92872 1.86664 0
M  V30 15518 C 1469.89 -3.03235 3.02048 0
M  V30 15519 C 1469.22 -4.43279 2.99012 0
M  V30 15520 C 1470.52 -2.7804 4.42144 0
M  V30 15521 H 1472.21 -1.35156 2.67158 0
M  V30 15522 H 1469.76 -0.648763 1.28558 0
M  V30 15523 H 1471.71 -3.69927 2.01822 0
M  V30 15524 H 1470.43 -3.1366 0.910225 0
M  V30 15525 H 1469.09 -2.28617 2.86583 0
M  V30 15526 H 1468.74 -4.61023 2.01163 0
M  V30 15527 H 1468.44 -4.51144 3.76488 0
M  V30 15528 H 1469.96 -5.22319 3.16252 0
M  V30 15529 H 1471.38 -3.44831 4.58 0
M  V30 15530 H 1469.77 -2.97323 5.21267 0
M  V30 15531 H 1470.84 -1.737 4.52721 0
M  V30 15532 N 1472.19 -1.41197 -0.700089 0
M  V30 15533 C 1473.12 -1.38616 -1.82533 0
M  V30 15534 C 1474.13 -0.289047 -1.60213 0
M  V30 15535 O 1475.32 -0.550465 -1.698 0
M  V30 15536 C 1472.42 -1.13815 -3.19217 0
M  V30 15537 C 1471.59 -2.3548 -3.68603 0
M  V30 15538 C 1470.65 -2.06604 -4.83943 0
M  V30 15539 O 1469.68 -2.79604 -4.95792 0
M  V30 15540 N 1470.88 -1.05351 -5.7086 0
M  V30 15541 H 1473.65 -2.35598 -1.8524 0
M  V30 15542 H 1471.21 -1.3575 -0.882238 0
M  V30 15543 H 1473.2 -0.924571 -3.93997 0
M  V30 15544 H 1471.77 -0.254468 -3.11563 0
M  V30 15545 H 1470.99 -2.72569 -2.8478 0
M  V30 15546 H 1472.28 -3.16553 -3.98336 0
M  V30 15547 H 1471.68 -0.449223 -5.63914 0
M  V30 15548 H 1470.23 -0.899819 -6.45559 0
M  V30 15549 N 1473.67 0.933891 -1.2695 0
M  V30 15550 C 1474.91 1.6834 -1.13091 0
M  V30 15551 C 1475.24 1.91484 0.32367 0
M  V30 15552 O 1474.52 1.50075 1.23724 0
M  V30 15553 C 1474.8 3.05374 -1.90838 0
M  V30 15554 C 1474.66 2.8951 -3.44244 0
M  V30 15555 C 1475.97 4.05607 -1.70795 0
M  V30 15556 H 1473.09 0.610944 -0.41221 0
M  V30 15557 H 1475.74 1.08416 -1.56032 0
M  V30 15558 H 1473.89 3.56526 -1.54343 0
M  V30 15559 H 1475.56 2.45523 -3.90533 0
M  V30 15560 H 1473.8 2.24981 -3.70899 0
M  V30 15561 H 1474.47 3.86734 -3.93879 0
M  V30 15562 H 1476.95 3.63443 -2.02604 0
M  V30 15563 H 1475.82 4.9949 -2.27597 0
M  V30 15564 H 1476.08 4.37231 -0.654327 0
M  V30 15565 N 1475.14 1.08871 1.13951 0
M  V30 15566 C 1476.07 0.744715 2.21306 0
M  V30 15567 C 1477.05 -0.275019 1.67862 0
M  V30 15568 O 1478.24 -0.144339 1.93663 0
M  V30 15569 C 1475.37 0.158336 3.46939 0
M  V30 15570 C 1474.32 1.10695 4.13438 0
M  V30 15571 C 1473.65 0.382552 5.3333 0
M  V30 15572 C 1474.95 2.44704 4.61429 0
M  V30 15573 H 1476.64 1.6423 2.50337 0
M  V30 15574 H 1474.19 0.791088 1.20324 0
M  V30 15575 H 1476.14 -0.0943587 4.21294 0
M  V30 15576 H 1474.87 -0.774413 3.17286 0
M  V30 15577 H 1473.53 1.34482 3.41043 0
M  V30 15578 H 1473.17 -0.554153 4.99938 0
M  V30 15579 H 1472.87 1.01499 5.78767 0
M  V30 15580 H 1474.4 0.138023 6.10444 0
M  V30 15581 H 1475.81 2.25156 5.27236 0
M  V30 15582 H 1474.21 3.03684 5.17586 0
M  V30 15583 H 1475.28 3.05883 3.76249 0
M  V30 15584 N 1476.62 -1.31073 0.875073 0
M  V30 15585 C 1477.9 -1.91276 0.409015 0
M  V30 15586 C 1478.28 -1.79599 -1.10939 0
M  V30 15587 O 1477.63 -1.2069 -1.94026 0
M  V30 15588 C 1477.84 -3.373 0.896074 0
M  V30 15589 C 1479.18 -4.14397 0.925205 0
M  V30 15590 O 1480.21 -3.46104 0.842069 0
M  V30 15591 O 1479.07 -5.36389 1.0464 0
M  V30 15592 H 1476.16 -0.817755 0.12331 0
M  V30 15593 H 1478.71 -1.39708 0.963322 0
M  V30 15594 H 1477.48 -3.39837 1.93975 0
M  V30 15595 H 1477.1 -3.96307 0.320367 0
M  V30 15596 N 1478.1 -0.635022 -1.4424 0
M  V30 15597 C 1479.03 0.0543561 -2.33437 0
M  V30 15598 C 1480.01 0.830807 -1.48431 0
M  V30 15599 O 1481.2 0.795913 -1.77141 0
M  V30 15600 C 1478.33 1.03391 -3.31553 0
M  V30 15601 C 1477.28 0.368824 -4.26408 0
M  V30 15602 C 1476.61 1.45855 -5.14422 0
M  V30 15603 C 1477.91 -0.727381 -5.1721 0
M  V30 15604 H 1479.6 -0.690489 -2.91329 0
M  V30 15605 H 1477.15 -0.3335 -1.40085 0
M  V30 15606 H 1479.1 1.52495 -3.9284 0
M  V30 15607 H 1477.82 1.80969 -2.71878 0
M  V30 15608 H 1476.48 -0.101605 -3.66459 0
M  V30 15609 H 1476.13 2.22531 -4.51098 0
M  V30 15610 H 1475.83 1.0189 -5.78699 0
M  V30 15611 H 1477.35 1.95132 -5.78581 0
M  V30 15612 H 1478.77 -0.319272 -5.7241 0
M  V30 15613 H 1477.17 -1.09041 -5.9011 0
M  V30 15614 H 1478.24 -1.59292 -4.57989 0
M  V30 15615 N 1479.58 1.53054 -0.375806 0
M  V30 15616 C 1480.99 1.5958 -0.0251765 0
M  V30 15617 C 1481.19 1.39047 1.45836 0
M  V30 15618 O 1480.25 1.20073 2.22123 0
M  V30 15619 C 1481.56 2.96676 -0.490274 0
M  V30 15620 C 1483.11 3.09815 -0.44537 0
M  V30 15621 C 1483.59 4.4934 -0.886442 0
M  V30 15622 N 1485.08 4.55484 -0.84191 0
M  V30 15623 C 1485.81 5.61652 -1.15476 0
M  V30 15624 N 1485.31 6.75526 -1.53741 0
M  V30 15625 N 1487.1 5.51688 -1.07689 0
M  V30 15626 H 1479.25 1.64651 -1.34178 0
M  V30 15627 H 1481.52 0.77278 -0.549104 0
M  V30 15628 H 1481.22 3.16874 -1.52589 0
M  V30 15629 H 1481.1 3.77016 0.11776 0
M  V30 15630 H 1483.48 2.89321 0.581138 0
M  V30 15631 H 1483.56 2.3146 -1.08903 0
M  V30 15632 H 1483.21 4.70573 -1.91111 0
M  V30 15633 H 1483.14 5.26141 -0.219925 0
M  V30 15634 H 1485.63 3.73725 -0.56015 0
M  V30 15635 H 1485.94 7.52489 -1.76012 0
M  V30 15636 H 1484.29 6.76892 -1.57616 0
M  V30 15637 H 1487.48 4.61605 -0.777062 0
M  V30 15638 H 1487.65 6.34329 -1.32403 0
M  V30 15639 N 1481.06 0.105248 1.57248 0
M  V30 15640 C 1482.33 -0.598871 1.86207 0
M  V30 15641 C 1482.71 -1.85698 1.00396 0
M  V30 15642 O 1482.06 -2.28363 0.0791093 0
M  V30 15643 C 1482.27 -0.904522 3.37075 0
M  V30 15644 C 1483.62 -1.26357 4.05363 0
M  V30 15645 O 1484.64 -0.99522 3.42014 0
M  V30 15646 O 1483.5 -1.76659 5.17159 0
M  V30 15647 H 1480.6 -0.300727 0.770384 0
M  V30 15648 H 1483.14 0.138713 1.69132 0
M  V30 15649 H 1481.91 -0.0123974 3.91298 0
M  V30 15650 H 1481.54 -1.69774 3.59531 0
M  V30 15651 N 1482.53 -1.56697 -0.168486 0
M  V30 15652 C 1483.95 -1.71808 -0.730674 0
M  V30 15653 C 1484.3 -0.716224 -1.8266 0
M  V30 15654 O 1483.42 0.121803 -2.16057 0
M  V30 15655 C 1484.02 -3.1151 -1.33217 0
M  V30 15656 C 1482.58 -3.28297 -1.84115 0
M  V30 15657 C 1481.72 -2.67757 -0.72122 0
M  V30 15658 H 1484.67 -1.58598 0.0569421 0
M  V30 15659 H 1484.69 -3.10318 -2.20189 0
M  V30 15660 H 1484.21 -3.84404 -0.53431 0
M  V30 15661 H 1482.31 -2.60364 -2.66536 0
M  V30 15662 H 1482.42 -4.3606 -1.98464 0
M  V30 15663 H 1480.78 -2.27644 -1.14239 0
M  V30 15664 H 1481.57 -3.43239 0.0648388 0
M  V30 15665 N 1484.01 0.437135 -1.51416 0
M  V30 15666 C 1484.94 1.54894 -1.68939 0
M  V30 15667 C 1485.96 1.52493 -0.570059 0
M  V30 15668 O 1487.15 1.57266 -0.844381 0
M  V30 15669 C 1484.25 2.9381 -1.68904 0
M  V30 15670 C 1483.42 3.20714 -2.97425 0
M  V30 15671 C 1482.48 4.39355 -2.89575 0
M  V30 15672 O 1481.5 4.37999 -3.63519 0
M  V30 15673 N 1482.71 5.42931 -2.05441 0
M  V30 15674 H 1485.47 1.40267 -2.64849 0
M  V30 15675 H 1483.03 0.626075 -1.49305 0
M  V30 15676 H 1485.02 3.71201 -1.61221 0
M  V30 15677 H 1483.59 3.02034 -0.805871 0
M  V30 15678 H 1482.81 2.31621 -3.18975 0
M  V30 15679 H 1484.1 3.35516 -3.825 0
M  V30 15680 H 1483.5 5.4687 -1.44742 0
M  V30 15681 H 1482.06 6.19173 -2.03636 0
M  V30 15682 N 1485.49 1.41566 0.692592 0
M  V30 15683 C 1486.74 1.41083 1.45265 0
M  V30 15684 C 1487.07 0.0209998 1.94489 0
M  V30 15685 O 1486.32 -0.96764 1.70104 0
M  V30 15686 C 1486.62 2.36683 2.67799 0
M  V30 15687 C 1486.29 3.83458 2.37215 0
M  V30 15688 C 1484.95 4.23441 2.28585 0
M  V30 15689 C 1487.3 4.76114 2.12048 0
M  V30 15690 C 1484.63 5.54086 1.92888 0
M  V30 15691 C 1486.98 6.07082 1.7786 0
M  V30 15692 C 1485.64 6.46083 1.67727 0
M  V30 15693 H 1484.91 0.51626 0.531561 0
M  V30 15694 H 1487.56 1.74385 0.791337 0
M  V30 15695 H 1485.87 1.96645 3.38877 0
M  V30 15696 H 1487.56 2.33581 3.25946 0
M  V30 15697 H 1484.15 3.51792 2.44828 0
M  V30 15698 H 1488.34 4.46025 2.17659 0
M  V30 15699 H 1483.59 5.83182 1.83599 0
M  V30 15700 H 1487.77 6.78378 1.57407 0
M  V30 15701 H 1485.39 7.47228 1.39836 0
M  V30 15702 N 1486.97 -0.927146 1.27443 0
M  V30 15703 C 1488.19 -1.71426 1.16739 0
M  V30 15704 C 1488.62 -1.86122 -0.272063 0
M  V30 15705 O 1487.98 -1.36165 -1.19703 0
M  V30 15706 C 1488.02 -3.09131 1.85661 0
M  V30 15707 O 1487.13 -3.95897 1.15495 0
M  V30 15708 H 1486.47 -0.525428 0.405983 0
M  V30 15709 H 1489 -1.16022 1.68523 0
M  V30 15710 H 1489.01 -3.59442 1.93042 0
M  V30 15711 H 1487.68 -2.97752 2.90373 0
M  V30 15712 H 1486.26 -3.54337 1.16187 0
M  V30 15713 N 1488.45 -1.09474 -1.13372 0
M  V30 15714 C 1489.41 -0.738173 -2.16988 0
M  V30 15715 C 1490.41 0.232488 -1.5911 0
M  V30 15716 O 1491.6 0.0106093 -1.74197 0
M  V30 15717 C 1488.73 -0.091724 -3.40777 0
M  V30 15718 H 1489.92 -1.65582 -2.50045 0
M  V30 15719 H 1487.48 -0.893994 -1.28209 0
M  V30 15720 H 1488.21 0.837129 -3.13309 0
M  V30 15721 H 1488 -0.790161 -3.84056 0
M  V30 15722 H 1489.49 0.142334 -4.17357 0
M  V30 15723 N 1489.92 1.30607 -0.882012 0
M  V30 15724 C 1491.15 2.00418 -0.513815 0
M  V30 15725 C 1491.57 1.66135 0.896916 0
M  V30 15726 O 1490.92 0.89691 1.5894 0
M  V30 15727 C 1490.98 3.55133 -0.675503 0
M  V30 15728 O 1490.7 3.88194 -2.03069 0
M  V30 15729 C 1492.2 4.42215 -0.309906 0
M  V30 15730 H 1489.42 0.640839 -0.198913 0
M  V30 15731 H 1491.96 1.66561 -1.1865 0
M  V30 15732 H 1490.12 3.87367 -0.0502289 0
M  V30 15733 H 1490.53 4.82899 -2.04717 0
M  V30 15734 H 1492 5.49962 -0.473948 0
M  V30 15735 H 1492.48 4.32717 0.751852 0
M  V30 15736 H 1493.09 4.1542 -0.91138 0
M  V30 15737 N 1491.4 0.642663 1.43901 0
M  V30 15738 C 1492.81 0.232809 1.85243 0
M  V30 15739 C 1493.16 -1.21834 1.53789 0
M  V30 15740 O 1492.29 -1.92855 0.981625 0
M  V30 15741 C 1492.88 0.415749 3.36239 0
M  V30 15742 C 1491.44 0.0603055 3.76352 0
M  V30 15743 C 1490.59 0.723658 2.67691 0
M  V30 15744 H 1493.54 0.847052 1.34204 0
M  V30 15745 H 1493.56 -0.341903 3.78961 0
M  V30 15746 H 1493.07 1.472 3.59101 0
M  V30 15747 H 1491.18 -0.993761 3.59103 0
M  V30 15748 H 1491.29 0.478408 4.76705 0
M  V30 15749 H 1489.65 0.15787 2.5421 0
M  V30 15750 H 1490.44 1.78273 2.93383 0
M  V30 15751 N 1492.88 -1.52852 0.383918 0
M  V30 15752 C 1494.13 -2.01809 -0.200285 0
M  V30 15753 C 1494.46 -1.27009 -1.46909 0
M  V30 15754 O 1493.74 -0.369002 -1.90968 0
M  V30 15755 C 1494.02 -3.56971 -0.473672 0
M  V30 15756 C 1493.87 -4.42446 0.810048 0
M  V30 15757 C 1495.19 -4.21481 -1.26658 0
M  V30 15758 H 1492.31 -0.733541 -0.0713192 0
M  V30 15759 H 1494.95 -1.8296 0.512425 0
M  V30 15760 H 1493.1 -3.73163 -1.08081 0
M  V30 15761 H 1494.77 -4.38016 1.44706 0
M  V30 15762 H 1493.02 -4.09674 1.42652 0
M  V30 15763 H 1493.69 -5.49013 0.573478 0
M  V30 15764 H 1496.16 -4.09233 -0.752806 0
M  V30 15765 H 1495.04 -5.30037 -1.42661 0
M  V30 15766 H 1495.3 -3.78756 -2.28028 0
M  V30 15767 N 1494.36 -0.113586 -1.5719 0
M  V30 15768 C 1495.29 0.835363 -2.18046 0
M  V30 15769 C 1496.27 1.28114 -1.11897 0
M  V30 15770 O 1497.46 1.34472 -1.40111 0
M  V30 15771 C 1494.59 2.08759 -2.77556 0
M  V30 15772 C 1493.54 1.77979 -3.8924 0
M  V30 15773 C 1492.87 3.10185 -4.35533 0
M  V30 15774 C 1494.17 1.05231 -5.11589 0
M  V30 15775 H 1495.86 0.328275 -2.97595 0
M  V30 15776 H 1493.41 0.156456 -1.43148 0
M  V30 15777 H 1495.36 2.75597 -3.18785 0
M  V30 15778 H 1494.08 2.61783 -1.95288 0
M  V30 15779 H 1492.74 1.13532 -3.48577 0
M  V30 15780 H 1492.39 3.61133 -3.50131 0
M  V30 15781 H 1492.09 2.90367 -5.10843 0
M  V30 15782 H 1493.61 3.78151 -4.7941 0
M  V30 15783 H 1495.03 1.62213 -5.49872 0
M  V30 15784 H 1493.42 0.955269 -5.92448 0
M  V30 15785 H 1494.49 0.038137 -4.84885 0
M  V30 15786 N 1495.84 1.56784 0.160173 0
M  V30 15787 C 1496.8 1.96373 1.18195 0
M  V30 15788 C 1497.8 0.848674 1.3658 0
M  V30 15789 O 1498.99 1.11553 1.33796 0
M  V30 15790 C 1496.12 2.26824 2.54487 0
M  V30 15791 H 1497.32 2.87819 0.842641 0
M  V30 15792 H 1494.87 1.51014 0.403038 0
M  V30 15793 H 1495.6 1.38129 2.93413 0
M  V30 15794 H 1495.39 3.08112 2.42507 0
M  V30 15795 H 1496.88 2.58337 3.28104 0
M  V30 15796 N 1497.32 -0.429099 1.51646 0
M  V30 15797 C 1498.54 -1.20465 1.68828 0
M  V30 15798 C 1498.97 -1.84044 0.388514 0
M  V30 15799 O 1498.32 -1.69165 -0.652152 0
M  V30 15800 C 1498.37 -2.25831 2.81128 0
M  V30 15801 O 1497.48 -3.31511 2.45305 0
M  V30 15802 H 1496.82 -0.352568 0.562665 0
M  V30 15803 H 1499.35 -0.505698 1.98252 0
M  V30 15804 H 1499.36 -2.70484 3.05455 0
M  V30 15805 H 1498.03 -1.78934 3.7544 0
M  V30 15806 H 1496.61 -2.92277 2.31579 0
M  V30 15807 N 1498.79 -1.41931 -0.685074 0
M  V30 15808 C 1500.07 -1.32338 -1.44035 0
M  V30 15809 C 1500.45 0.0441161 -2.11054 0
M  V30 15810 O 1499.8 1.05901 -2.02478 0
M  V30 15811 C 1500.01 -2.48429 -2.45121 0
M  V30 15812 C 1501.36 -2.90076 -3.10067 0
M  V30 15813 O 1502.38 -2.48245 -2.55447 0
M  V30 15814 O 1501.24 -3.62445 -4.09019 0
M  V30 15815 H 1498.33 -0.521361 -0.641959 0
M  V30 15816 H 1500.88 -1.53918 -0.714666 0
M  V30 15817 H 1499.65 -3.39637 -1.94326 0
M  V30 15818 H 1499.27 -2.28781 -3.25184 0
M  V30 15819 N 1500.27 0.920374 -1.27933 0
M  V30 15820 C 1501.52 1.67131 -1.1487 0
M  V30 15821 C 1501.85 1.91816 0.303343 0
M  V30 15822 O 1501.13 1.51379 1.22125 0
M  V30 15823 C 1501.41 3.03332 -1.94066 0
M  V30 15824 C 1501.26 2.85842 -3.47296 0
M  V30 15825 C 1502.58 4.03773 -1.75087 0
M  V30 15826 H 1499.7 0.606537 -0.418666 0
M  V30 15827 H 1502.34 1.06755 -1.57173 0
M  V30 15828 H 1500.49 3.54869 -1.58116 0
M  V30 15829 H 1502.16 2.41367 -3.93115 0
M  V30 15830 H 1500.41 2.21035 -3.73264 0
M  V30 15831 H 1501.08 3.82535 -3.97958 0
M  V30 15832 H 1503.55 3.61274 -2.06447 0
M  V30 15833 H 1502.43 4.97048 -2.32882 0
M  V30 15834 H 1502.69 4.36512 -0.700665 0
M  V30 15835 N 1501.75 1.10074 1.1279 0
M  V30 15836 C 1503 0.835715 1.83572 0
M  V30 15837 C 1503.31 -0.640831 1.84805 0
M  V30 15838 O 1504.52 -1.02162 2.51545 0
M  V30 15839 C 1502.97 1.44519 3.29609 0
M  V30 15840 C 1502.58 2.95476 3.36746 0
M  V30 15841 C 1504.33 1.2594 4.05388 0
M  V30 15842 C 1502.23 3.49477 4.77095 0
M  V30 15843 H 1501.16 0.308974 0.687787 0
M  V30 15844 H 1503.81 1.32427 1.27025 0
M  V30 15845 H 1502.2 0.884323 3.86 0
M  V30 15846 H 1503.37 3.57846 2.90315 0
M  V30 15847 H 1501.68 3.13166 2.74437 0
M  V30 15848 H 1504.28 1.63732 5.09015 0
M  V30 15849 H 1504.62 0.200633 4.15816 0
M  V30 15850 H 1505.16 1.78814 3.55346 0
M  V30 15851 H 1501.9 4.55003 4.7186 0
M  V30 15852 H 1501.42 2.91873 5.23995 0
M  V30 15853 H 1503.1 3.47077 5.46028 0
M  V30 15854 N 1503.23 -1.30138 0.888926 0
M  V30 15855 C 1504.18 -2.25598 0.33005 0
M  V30 15856 C 1505.16 -1.51434 -0.543751 0
M  V30 15857 O 1506.35 -1.72706 -0.387529 0
M  V30 15858 C 1503.48 -3.40326 -0.450925 0
M  V30 15859 C 1502.57 -4.21841 0.437187 0
M  V30 15860 N 1502.96 -4.81803 1.53947 0
M  V30 15861 C 1501.26 -4.45391 0.233015 0
M  V30 15862 C 1501.96 -5.42907 2.0887 0
M  V30 15863 N 1500.93 -5.25709 1.38314 0
M  V30 15864 H 1504.74 -2.6951 1.17224 0
M  V30 15865 H 1502.25 -1.44623 0.738771 0
M  V30 15866 H 1504.25 -4.07764 -0.867971 0
M  V30 15867 H 1502.91 -2.97953 -1.2905 0
M  V30 15868 H 1503.92 -4.80904 1.92229 0
M  V30 15869 H 1500.6 -4.13603 -0.569074 0
M  V30 15870 H 1501.99 -6.00478 3.01457 0
M  V30 15871 N 1504.71 -0.650285 -1.43559 0
M  V30 15872 C 1505.67 0.0336325 -2.29175 0
M  V30 15873 C 1506.67 0.753465 -1.42055 0
M  V30 15874 O 1507.86 0.595158 -1.63718 0
M  V30 15875 C 1504.99 1.05835 -3.24055 0
M  V30 15876 H 1506.18 -0.719643 -2.91138 0
M  V30 15877 H 1503.74 -0.411363 -1.5079 0
M  V30 15878 H 1504.47 1.84096 -2.66982 0
M  V30 15879 H 1504.26 0.545884 -3.88281 0
M  V30 15880 H 1505.75 1.53606 -3.88323 0
M  V30 15881 N 1506.18 1.52647 -0.392018 0
M  V30 15882 C 1507.12 2.24183 0.476934 0
M  V30 15883 C 1508.13 1.26526 1.02446 0
M  V30 15884 O 1509.32 1.52583 0.92632 0
M  V30 15885 C 1506.42 2.94672 1.67397 0
M  V30 15886 C 1505.59 4.19058 1.25335 0
M  V30 15887 C 1504.65 4.72522 2.31537 0
M  V30 15888 O 1503.68 5.35541 1.92833 0
M  V30 15889 N 1504.88 4.52613 3.63486 0
M  V30 15890 H 1507.64 2.99391 -0.135963 0
M  V30 15891 H 1505.2 1.60419 -0.218514 0
M  V30 15892 H 1507.2 3.27338 2.37975 0
M  V30 15893 H 1505.77 2.22755 2.19315 0
M  V30 15894 H 1504.99 3.92399 0.376352 0
M  V30 15895 H 1506.27 4.99871 0.94901 0
M  V30 15896 H 1505.67 4.02316 3.97692 0
M  V30 15897 H 1504.23 4.89761 4.3009 0
M  V30 15898 N 1507.66 0.121921 1.57128 0
M  V30 15899 C 1508.89 -0.546325 2.00075 0
M  V30 15900 C 1509.31 -1.59245 1.00113 0
M  V30 15901 O 1508.67 -1.8128 -0.0267687 0
M  V30 15902 C 1508.72 -1.14651 3.41888 0
M  V30 15903 O 1507.82 -2.26199 3.4483 0
M  V30 15904 H 1507.16 -0.136184 0.649885 0
M  V30 15905 H 1509.69 0.211257 2.03506 0
M  V30 15906 H 1509.7 -1.48133 3.80159 0
M  V30 15907 H 1508.38 -0.380273 4.14158 0
M  V30 15908 H 1506.96 -1.94134 3.18381 0
M  V30 15909 N 1509.14 -1.56867 -0.151857 0
M  V30 15910 C 1510.56 -1.51422 -0.504328 0
M  V30 15911 C 1510.76 -0.829524 -1.83633 0
M  V30 15912 O 1509.81 -0.398018 -2.49343 0
M  V30 15913 C 1511.13 -2.96185 -0.519117 0
M  V30 15914 C 1512.67 -3.07098 -0.60497 0
M  V30 15915 C 1513.15 -4.53357 -0.650468 0
M  V30 15916 N 1514.64 -4.57682 -0.712825 0
M  V30 15917 C 1515.37 -5.68221 -0.768931 0
M  V30 15918 N 1514.87 -6.88342 -0.784678 0
M  V30 15919 N 1516.66 -5.56241 -0.809441 0
M  V30 15920 H 1508.81 -1.99777 0.721316 0
M  V30 15921 H 1511.08 -0.910951 0.262436 0
M  V30 15922 H 1510.78 -3.49516 0.391315 0
M  V30 15923 H 1510.66 -3.51877 -1.35876 0
M  V30 15924 H 1513.04 -2.53789 -1.50582 0
M  V30 15925 H 1513.13 -2.54458 0.261722 0
M  V30 15926 H 1512.77 -5.07303 0.246207 0
M  V30 15927 H 1512.7 -5.03775 -1.53358 0
M  V30 15928 H 1515.19 -3.71206 -0.708151 0
M  V30 15929 H 1515.5 -7.68339 -0.829202 0
M  V30 15930 H 1513.85 -6.90913 -0.752634 0
M  V30 15931 H 1517.04 -4.61312 -0.794274 0
M  V30 15932 H 1517.21 -6.42405 -0.849701 0
M  V30 15933 N 1510.62 0.421051 -1.51871 0
M  V30 15934 C 1511.9 1.18133 -1.55897 0
M  V30 15935 C 1512.28 2.08459 -0.332876 0
M  V30 15936 O 1511.62 2.18114 0.681052 0
M  V30 15937 C 1511.83 1.96902 -2.88151 0
M  V30 15938 C 1513.18 2.53382 -3.4071 0
M  V30 15939 O 1514.21 2.07095 -2.89811 0
M  V30 15940 O 1513.06 3.37846 -4.29561 0
M  V30 15941 H 1510.16 0.538721 -0.627462 0
M  V30 15942 H 1512.7 0.428798 -1.64193 0
M  V30 15943 H 1511.48 1.30659 -3.68841 0
M  V30 15944 H 1511.1 2.79185 -2.83093 0
M  V30 15945 N 1512.1 1.42293 0.677538 0
M  V30 15946 C 1513.03 1.48344 1.80323 0
M  V30 15947 C 1514.01 0.340276 1.66662 0
M  V30 15948 O 1515.19 0.554209 1.86124 0
M  V30 15949 C 1512.32 1.38247 3.18599 0
M  V30 15950 C 1511.28 2.50562 3.46991 0
M  V30 15951 C 1510.6 2.25524 4.84812 0
M  V30 15952 C 1511.9 3.92877 3.44158 0
M  V30 15953 H 1513.6 2.42558 1.75516 0
M  V30 15954 H 1511.14 1.16746 0.842999 0
M  V30 15955 H 1513.1 1.41089 3.97079 0
M  V30 15956 H 1511.82 0.405255 3.24076 0
M  V30 15957 H 1510.48 2.47032 2.7087 0
M  V30 15958 H 1510.13 1.26102 4.86937 0
M  V30 15959 H 1509.83 3.00797 5.04772 0
M  V30 15960 H 1511.35 2.3011 5.65581 0
M  V30 15961 H 1512.76 3.98024 4.12613 0
M  V30 15962 H 1511.16 4.6798 3.75653 0
M  V30 15963 H 1512.23 4.19743 2.42783 0
M  V30 15964 N 1513.57 -0.913576 1.28419 0
M  V30 15965 C 1514.99 -1.47782 1.14094 0
M  V30 15966 C 1515.34 -1.94347 -0.269004 0
M  V30 15967 O 1514.46 -1.82474 -1.16328 0
M  V30 15968 C 1515.06 -2.6859 2.06507 0
M  V30 15969 C 1513.62 -3.21193 1.96245 0
M  V30 15970 C 1512.76 -1.939 1.98238 0
M  V30 15971 H 1515.71 -0.726271 1.41106 0
M  V30 15972 H 1515.73 -3.43858 1.62916 0
M  V30 15973 H 1515.25 -2.34668 3.09116 0
M  V30 15974 H 1513.35 -3.5984 0.966737 0
M  V30 15975 H 1513.46 -3.8643 2.83211 0
M  V30 15976 H 1511.82 -2.11006 1.42648 0
M  V30 15977 H 1512.61 -1.62273 3.02527 0
M  V30 15978 N 1515.05 -1.1067 -1.12204 0
M  V30 15979 C 1516.47 -0.838988 -1.35769 0
M  V30 15980 C 1516.67 0.540345 -1.9412 0
M  V30 15981 O 1515.72 1.29274 -2.16897 0
M  V30 15982 C 1517.04 -1.94065 -2.29694 0
M  V30 15983 C 1518.59 -1.96938 -2.43279 0
M  V30 15984 C 1519.06 -3.06284 -3.4052 0
M  V30 15985 N 1520.55 -3.05607 -3.48079 0
M  V30 15986 C 1521.29 -3.86855 -4.23238 0
M  V30 15987 N 1520.78 -4.78046 -5.01442 0
M  V30 15988 N 1522.58 -3.75064 -4.18669 0
M  V30 15989 H 1514.73 -1.99575 -0.726878 0
M  V30 15990 H 1516.99 -0.867423 -0.382467 0
M  V30 15991 H 1516.7 -2.93356 -1.93997 0
M  V30 15992 H 1516.57 -1.82992 -3.29839 0
M  V30 15993 H 1518.96 -0.982774 -2.78254 0
M  V30 15994 H 1519.04 -2.12087 -1.43014 0
M  V30 15995 H 1518.68 -4.05165 -3.06273 0
M  V30 15996 H 1518.61 -2.88376 -4.40621 0
M  V30 15997 H 1521.1 -2.39531 -2.9229 0
M  V30 15998 H 1521.42 -5.36594 -5.56136 0
M  V30 15999 H 1519.76 -4.82073 -5.0063 0
M  V30 16000 H 1522.95 -3.03172 -3.56657 0
M  V30 16001 H 1523.12 -4.38618 -4.76988 0
M  V30 16002 N 1516.53 1.29665 -0.895815 0
M  V30 16003 C 1517.78 1.94995 -0.515749 0
M  V30 16004 C 1518.09 1.71427 0.94192 0
M  V30 16005 O 1519.3 2.3083 1.42933 0
M  V30 16006 C 1517.75 3.4919 -0.871468 0
M  V30 16007 C 1517.36 3.81562 -2.34764 0
M  V30 16008 C 1519.11 4.20775 -0.561123 0
M  V30 16009 C 1517.01 5.28984 -2.64442 0
M  V30 16010 H 1515.94 0.729889 -0.189151 0
M  V30 16011 H 1518.59 1.4745 -1.09228 0
M  V30 16012 H 1516.98 3.95366 -0.223908 0
M  V30 16013 H 1518.15 3.46258 -3.04043 0
M  V30 16014 H 1516.47 3.23107 -2.62661 0
M  V30 16015 H 1519.06 5.29275 -0.759755 0
M  V30 16016 H 1519.41 4.13285 0.500129 0
M  V30 16017 H 1519.94 3.80317 -1.16635 0
M  V30 16018 H 1516.68 5.41535 -3.69351 0
M  V30 16019 H 1516.2 5.6555 -1.99784 0
M  V30 16020 H 1517.88 5.96536 -2.50506 0
M  V30 16021 N 1518.01 0.657889 1.43212 0
M  V30 16022 C 1519.26 0.173187 2.01758 0
M  V30 16023 C 1519.58 -1.21447 1.51924 0
M  V30 16024 O 1518.84 -1.82568 0.704807 0
M  V30 16025 C 1519.14 0.138025 3.57133 0
M  V30 16026 C 1518.8 1.46806 4.26332 0
M  V30 16027 C 1517.47 1.83227 4.44951 0
M  V30 16028 C 1519.82 2.34476 4.65478 0
M  V30 16029 C 1517.15 3.06975 4.99983 0
M  V30 16030 C 1519.5 3.57521 5.21883 0
M  V30 16031 C 1518.16 3.94132 5.38717 0
M  V30 16032 H 1517.43 0.0633735 0.738285 0
M  V30 16033 H 1520.08 0.849524 1.71626 0
M  V30 16034 H 1518.38 -0.621776 3.86835 0
M  V30 16035 H 1520.08 -0.253948 4.00195 0
M  V30 16036 H 1516.67 1.17469 4.12188 0
M  V30 16037 H 1520.85 2.07628 4.50782 0
M  V30 16038 H 1516.11 3.35383 5.11202 0
M  V30 16039 H 1520.28 4.25669 5.51161 0
M  V30 16040 H 1517.91 4.901 5.81125 0
M  V30 16041 N 1519.49 -1.52437 0.400108 0
M  V30 16042 C 1520.9 -1.5952 0.0505611 0
M  V30 16043 C 1521.1 -1.4135 -1.43606 0
M  V30 16044 O 1520.16 -1.23591 -2.20185 0
M  V30 16045 C 1521.47 -2.95859 0.537411 0
M  V30 16046 C 1523.02 -3.09067 0.494603 0
M  V30 16047 C 1523.49 -4.47873 0.957815 0
M  V30 16048 N 1524.99 -4.54087 0.914267 0
M  V30 16049 C 1525.72 -5.59744 1.24397 0
M  V30 16050 N 1525.22 -6.72995 1.64469 0
M  V30 16051 N 1527.01 -5.49905 1.16452 0
M  V30 16052 H 1519.16 -1.62496 1.36781 0
M  V30 16053 H 1521.42 -0.763947 0.561328 0
M  V30 16054 H 1521.13 -3.14407 1.57611 0
M  V30 16055 H 1521 -3.77156 -0.0577652 0
M  V30 16056 H 1523.39 -2.90209 -0.535035 0
M  V30 16057 H 1523.47 -2.29698 1.12572 0
M  V30 16058 H 1523.12 -4.67473 1.98574 0
M  V30 16059 H 1523.05 -5.25724 0.303602 0
M  V30 16060 H 1525.54 -3.72787 0.619536 0
M  V30 16061 H 1525.85 -7.49594 1.87961 0
M  V30 16062 H 1524.19 -6.74298 1.68364 0
M  V30 16063 H 1527.39 -4.60311 0.850401 0
M  V30 16064 H 1527.56 -6.32142 1.42478 0
M  V30 16065 N 1520.96 -0.130252 -1.57061 0
M  V30 16066 C 1522.21 0.525784 -1.95866 0
M  V30 16067 C 1522.54 1.65607 -1.01429 0
M  V30 16068 O 1521.82 1.94426 -0.0535544 0
M  V30 16069 C 1522.1 1.04784 -3.44517 0
M  V30 16070 C 1521.95 -0.0797972 -4.49729 0
M  V30 16071 C 1523.27 1.9351 -3.95275 0
M  V30 16072 H 1520.39 0.189652 -0.71218 0
M  V30 16073 H 1523.03 -0.208091 -1.88857 0
M  V30 16074 H 1521.18 1.67324 -3.50621 0
M  V30 16075 H 1522.86 -0.715535 -4.55717 0
M  V30 16076 H 1521.1 -0.741358 -4.27418 0
M  V30 16077 H 1521.77 0.326915 -5.51031 0
M  V30 16078 H 1524.25 1.40825 -3.91545 0
M  V30 16079 H 1523.12 2.26952 -4.99784 0
M  V30 16080 H 1523.38 2.86583 -3.36634 0
M  V30 16081 N 1522.44 1.56945 0.143535 0
M  V30 16082 C 1523.67 1.87701 0.870401 0
M  V30 16083 C 1524.09 0.718833 1.7458 0
M  V30 16084 O 1523.44 -0.311286 1.79826 0
M  V30 16085 C 1523.49 3.1773 1.72424 0
M  V30 16086 O 1523.22 4.29086 0.884115 0
M  V30 16087 C 1524.72 3.62024 2.55839 0
M  V30 16088 H 1521.94 0.622083 0.251504 0
M  V30 16089 H 1524.48 2.04052 0.135285 0
M  V30 16090 H 1522.64 3.03122 2.41238 0
M  V30 16091 H 1523.05 5.0346 1.47065 0
M  V30 16092 H 1524.52 4.55834 3.11319 0
M  V30 16093 H 1525 2.87481 3.32041 0
M  V30 16094 H 1525.61 3.79338 1.9231 0
M  V30 16095 N 1523.92 -0.412991 1.52093 0
M  V30 16096 C 1525.15 -1.18212 1.69805 0
M  V30 16097 C 1525.56 -1.84386 0.405844 0
M  V30 16098 O 1524.92 -1.71725 -0.617809 0
M  V30 16099 C 1524.97 -2.24811 2.83094 0
M  V30 16100 O 1524.69 -1.61338 4.0731 0
M  V30 16101 C 1526.19 -3.14633 3.12283 0
M  V30 16102 H 1523.41 -0.355371 0.569168 0
M  V30 16103 H 1525.96 -0.486392 1.98632 0
M  V30 16104 H 1524.11 -2.90058 2.56797 0
M  V30 16105 H 1524.53 -2.31979 4.7041 0
M  V30 16106 H 1526 -3.85511 3.95076 0
M  V30 16107 H 1526.48 -3.76785 2.25677 0
M  V30 16108 H 1527.08 -2.55059 3.40331 0
M  V30 16109 N 1525.4 -1.4265 -0.669982 0
M  V30 16110 C 1526.62 -1.46992 -1.46315 0
M  V30 16111 C 1527.05 -0.0840655 -1.87912 0
M  V30 16112 O 1526.41 0.918554 -1.56308 0
M  V30 16113 C 1526.46 -2.40663 -2.6854 0
M  V30 16114 O 1525.56 -1.88132 -3.66988 0
M  V30 16115 H 1524.9 -0.497844 -0.439372 0
M  V30 16116 H 1527.43 -1.8739 -0.821348 0
M  V30 16117 H 1527.44 -2.57405 -3.16554 0
M  V30 16118 H 1526.12 -3.41346 -2.37604 0
M  V30 16119 H 1524.69 -1.80969 -3.26044 0
M  V30 16120 N 1526.88 0.906753 -1.28902 0
M  V30 16121 C 1527.81 2.01497 -1.09233 0
M  V30 16122 C 1528.82 1.62746 -0.0419378 0
M  V30 16123 O 1530.01 1.76198 -0.285728 0
M  V30 16124 C 1527.11 3.32816 -0.639255 0
M  V30 16125 C 1526.28 4.00137 -1.76661 0
M  V30 16126 C 1525.34 5.09742 -1.30573 0
M  V30 16127 O 1524.37 5.32559 -2.00921 0
M  V30 16128 N 1525.57 5.80243 -0.17275 0
M  V30 16129 H 1528.34 2.18927 -2.04673 0
M  V30 16130 H 1525.9 1.0785 -1.20748 0
M  V30 16131 H 1527.89 4.03477 -0.31439 0
M  V30 16132 H 1526.46 3.11807 0.222498 0
M  V30 16133 H 1525.68 3.22933 -2.26071 0
M  V30 16134 H 1526.97 4.41859 -2.52266 0
M  V30 16135 H 1526.37 5.64184 0.413931 0
M  V30 16136 H 1524.92 6.51734 0.0927926 0
M  V30 16137 N 1528.36 1.11264 1.11616 0
M  V30 16138 C 1529.29 0.79149 2.19676 0
M  V30 16139 C 1530.27 -0.239351 1.68408 0
M  V30 16140 O 1531.45 -0.103228 1.93925 0
M  V30 16141 C 1528.58 0.231891 3.46525 0
M  V30 16142 C 1527.54 1.19439 4.10997 0
M  V30 16143 C 1526.86 0.495593 5.32398 0
M  V30 16144 C 1528.16 2.54437 4.56135 0
M  V30 16145 H 1529.86 1.69503 2.46797 0
M  V30 16146 H 1527.4 0.816433 1.18619 0
M  V30 16147 H 1529.35 -0.00497468 4.214 0
M  V30 16148 H 1528.08 -0.706938 3.18857 0
M  V30 16149 H 1526.74 1.41686 3.38113 0
M  V30 16150 H 1526.39 -0.447984 5.01001 0
M  V30 16151 H 1526.09 1.13753 5.76484 0
M  V30 16152 H 1527.61 0.267476 6.10014 0
M  V30 16153 H 1529.02 2.36289 5.22341 0
M  V30 16154 H 1527.42 3.14595 5.11028 0
M  V30 16155 H 1528.49 3.13795 3.69676 0
M  V30 16156 N 1529.83 -1.29188 0.902679 0
M  V30 16157 C 1530.8 -2.25901 0.387485 0
M  V30 16158 C 1531.8 -1.53469 -0.479993 0
M  V30 16159 O 1532.99 -1.71859 -0.284623 0
M  V30 16160 C 1530.12 -3.37974 -0.445723 0
M  V30 16161 H 1531.31 -2.72988 1.24167 0
M  V30 16162 H 1528.86 -1.4068 0.681083 0
M  V30 16163 H 1529.6 -2.9623 -1.31977 0
M  V30 16164 H 1529.38 -3.91705 0.175899 0
M  V30 16165 H 1530.87 -4.09917 -0.797384 0
M  V30 16166 N 1531.31 -0.665475 -1.42861 0
M  V30 16167 C 1532.56 -0.184156 -2.01962 0
M  V30 16168 C 1532.89 1.20301 -1.52451 0
M  V30 16169 O 1532.17 1.80573 -0.722756 0
M  V30 16170 C 1532.45 -0.208497 -3.59496 0
M  V30 16171 C 1532.3 -1.63045 -4.19209 0
M  V30 16172 C 1533.62 0.448421 -4.3781 0
M  V30 16173 H 1530.74 -0.0683924 -0.73382 0
M  V30 16174 H 1533.38 -0.84849 -1.70002 0
M  V30 16175 H 1531.53 0.357179 -3.86855 0
M  V30 16176 H 1533.2 -2.24766 -4.02837 0
M  V30 16177 H 1531.45 -2.17401 -3.75392 0
M  V30 16178 H 1532.12 -1.59924 -5.28326 0
M  V30 16179 H 1534.59 -0.0330053 -4.16087 0
M  V30 16180 H 1533.47 0.400713 -5.47435 0
M  V30 16181 H 1533.73 1.52454 -4.14982 0
M  V30 16182 N 1532.79 1.52222 -0.408187 0
M  V30 16183 C 1534.2 1.86598 0.0616213 0
M  V30 16184 C 1534.55 1.32698 1.44519 0
M  V30 16185 O 1533.68 0.665883 2.059 0
M  V30 16186 C 1534.27 3.38592 0.118595 0
M  V30 16187 C 1532.83 3.72611 0.532737 0
M  V30 16188 C 1531.98 2.75744 -0.293356 0
M  V30 16189 H 1534.93 1.45862 -0.625291 0
M  V30 16190 H 1534.95 3.68858 0.934039 0
M  V30 16191 H 1534.46 3.77792 -0.888516 0
M  V30 16192 H 1532.56 3.38989 1.54652 0
M  V30 16193 H 1532.68 4.78294 0.277777 0
M  V30 16194 H 1531.04 2.53527 0.244166 0
M  V30 16195 H 1531.82 3.17783 -1.2988 0
M  V30 16196 N 1534.27 0.138579 1.5699 0
M  V30 16197 C 1535.68 -0.383633 1.82716 0
M  V30 16198 C 1536.03 -1.65304 1.05684 0
M  V30 16199 O 1535.15 -2.14318 0.299488 0
M  V30 16200 C 1535.75 -0.7028 3.3143 0
M  V30 16201 C 1534.31 -1.16957 3.57768 0
M  V30 16202 C 1533.46 -0.188295 2.7666 0
M  V30 16203 H 1536.41 0.363415 1.54483 0
M  V30 16204 H 1536.43 -1.55832 3.47126 0
M  V30 16205 H 1535.94 0.221271 3.87469 0
M  V30 16206 H 1534.04 -2.10987 3.07108 0
M  V30 16207 H 1534.15 -1.10136 4.66269 0
M  V30 16208 H 1532.52 -0.679255 2.45475 0
M  V30 16209 H 1533.3 0.729218 3.35466 0
M  V30 16210 N 1535.75 -1.57019 -0.13521 0
M  V30 16211 C 1536.97 -1.8816 -0.860434 0
M  V30 16212 C 1537.39 -0.728081 -1.74196 0
M  V30 16213 O 1536.75 0.301745 -1.79988 0
M  V30 16214 C 1536.8 -3.1864 -1.70737 0
M  V30 16215 O 1536.52 -4.29549 -0.861347 0
M  V30 16216 C 1538.02 -3.63376 -2.53915 0
M  V30 16217 H 1535.24 -0.623408 -0.248201 0
M  V30 16218 H 1537.78 -2.04121 -0.124461 0
M  V30 16219 H 1535.94 -3.04397 -2.39627 0
M  V30 16220 H 1536.35 -5.04233 -1.44393 0
M  V30 16221 H 1537.83 -4.57478 -3.08897 0
M  V30 16222 H 1538.3 -2.89238 -3.30512 0
M  V30 16223 H 1538.91 -3.80352 -1.90296 0
M  V30 16224 N 1537.22 0.404919 -1.52309 0
M  V30 16225 C 1538.45 1.17309 -1.70429 0
M  V30 16226 C 1538.87 1.84169 -0.415617 0
M  V30 16227 O 1538.22 1.7205 0.608693 0
M  V30 16228 C 1538.28 2.23306 -2.84282 0
M  V30 16229 O 1538 1.59176 -4.0816 0
M  V30 16230 C 1539.5 3.12972 -3.13948 0
M  V30 16231 H 1536.72 0.352348 -0.571045 0
M  V30 16232 H 1539.26 0.475851 -1.98887 0
M  V30 16233 H 1537.42 2.88693 -2.58332 0
M  V30 16234 H 1537.83 2.29481 -4.71634 0
M  V30 16235 H 1539.3 3.83411 -3.97115 0
M  V30 16236 H 1539.78 3.75582 -2.27672 0
M  V30 16237 H 1540.39 2.53251 -3.41678 0
M  V30 16238 N 1538.7 1.43003 0.662408 0
M  V30 16239 C 1539.94 1.45629 1.43428 0
M  V30 16240 C 1540.31 0.0748804 1.91854 0
M  V30 16241 O 1541.51 -0.0241645 2.68789 0
M  V30 16242 C 1539.78 2.46223 2.59054 0
M  V30 16243 S 1541.34 2.6765 3.47719 0
M  V30 16244 H 1538.16 0.515463 0.489713 0
M  V30 16245 H 1540.76 1.79701 0.769923 0
M  V30 16246 H 1539.46 3.45342 2.21737 0
M  V30 16247 H 1538.99 2.13618 3.3035 0
M  V30 16248 H 1541.01 1.96884 4.55468 0
M  V30 16249 N 1540.18 -0.899904 1.29381 0
M  V30 16250 C 1541.41 -1.68383 1.20227 0
M  V30 16251 C 1541.82 -1.87305 -0.237135 0
M  V30 16252 O 1541.18 -1.40992 -1.15877 0
M  V30 16253 C 1541.23 -3.06845 1.91124 0
M  V30 16254 O 1540.95 -2.88787 3.29444 0
M  V30 16255 C 1542.45 -4.01253 1.88444 0
M  V30 16256 H 1539.67 -0.525917 0.416717 0
M  V30 16257 H 1542.22 -1.12537 1.7075 0
M  V30 16258 H 1540.37 -3.59467 1.44438 0
M  V30 16259 H 1540.79 -3.7652 3.65148 0
M  V30 16260 H 1542.26 -4.95824 2.42616 0
M  V30 16261 H 1542.74 -4.30699 0.859925 0
M  V30 16262 H 1543.34 -3.54562 2.34874 0
M  V30 16263 N 1541.66 -1.11854 -1.11024 0
M  V30 16264 C 1542.9 -0.871362 -1.83126 0
M  V30 16265 C 1543.24 0.601437 -1.84652 0
M  V30 16266 O 1542.51 1.44427 -1.30273 0
M  V30 16267 C 1542.8 -1.4391 -3.30094 0
M  V30 16268 C 1542.65 -2.97983 -3.36937 0
M  V30 16269 C 1543.97 -1.09361 -4.26296 0
M  V30 16270 H 1541.09 -0.317994 -0.664867 0
M  V30 16271 H 1543.73 -1.38414 -1.3016 0
M  V30 16272 H 1541.88 -1.00297 -3.7533 0
M  V30 16273 H 1543.55 -3.50231 -3.00227 0
M  V30 16274 H 1541.79 -3.33827 -2.77023 0
M  V30 16275 H 1542.46 -3.32797 -4.40398 0
M  V30 16276 H 1544.94 -1.47018 -3.89262 0
M  V30 16277 H 1543.82 -1.51756 -5.27505 0
M  V30 16278 H 1544.08 -0.0049637 -4.421 0
M  V30 16279 N 1543.14 1.28707 -0.909517 0
M  V30 16280 C 1544.07 2.29845 -0.411552 0
M  V30 16281 C 1545.05 1.62001 0.518615 0
M  V30 16282 O 1546.23 1.89442 0.427252 0
M  V30 16283 C 1543.36 3.45501 0.353013 0
M  V30 16284 C 1542.32 4.25213 -0.487625 0
M  V30 16285 C 1541.64 5.33164 0.405026 0
M  V30 16286 C 1542.94 4.9237 -1.74268 0
M  V30 16287 H 1544.64 2.71746 -1.25676 0
M  V30 16288 H 1542.18 1.30639 -0.605759 0
M  V30 16289 H 1544.14 4.15338 0.712191 0
M  V30 16290 H 1542.86 3.02469 1.23209 0
M  V30 16291 H 1541.52 3.57098 -0.829265 0
M  V30 16292 H 1541.17 4.86375 1.28252 0
M  V30 16293 H 1540.87 5.87399 -0.153811 0
M  V30 16294 H 1542.39 6.0585 0.760179 0
M  V30 16295 H 1543.8 5.5459 -1.45266 0
M  V30 16296 H 1542.2 5.56581 -2.2436 0
M  V30 16297 H 1543.27 4.171 -2.47297 0
M  V30 16298 N 1544.61 0.673042 1.42506 0
M  V30 16299 C 1545.54 0.00755467 2.33499 0
M  V30 16300 C 1546.53 -0.791161 1.50581 0
M  V30 16301 O 1547.71 -0.748668 1.79189 0
M  V30 16302 C 1544.84 -0.945638 3.34178 0
M  V30 16303 C 1543.79 -0.25564 4.27236 0
M  V30 16304 C 1543.12 -1.32165 5.18109 0
M  V30 16305 C 1544.42 0.864254 5.151 0
M  V30 16306 H 1546.11 0.767487 2.89396 0
M  V30 16307 H 1543.66 0.370524 1.39151 0
M  V30 16308 H 1545.61 -1.42026 3.96745 0
M  V30 16309 H 1544.34 -1.73697 2.76581 0
M  V30 16310 H 1543 0.19873 3.66061 0
M  V30 16311 H 1542.64 -2.10492 4.56839 0
M  V30 16312 H 1542.34 -0.865109 5.81197 0
M  V30 16313 H 1543.87 -1.79724 5.83551 0
M  V30 16314 H 1545.28 0.470924 5.71363 0
M  V30 16315 H 1543.68 1.24648 5.87012 0
M  V30 16316 H 1544.75 1.71378 4.53605 0
M  V30 16317 N 1546.09 -1.52004 0.416254 0
M  V30 16318 C 1547.02 -2.30106 -0.396671 0
M  V30 16319 C 1548 -1.34616 -1.03983 0
M  V30 16320 O 1549.19 -1.63528 -1.04749 0
M  V30 16321 C 1546.32 -3.12769 -1.50972 0
M  V30 16322 C 1545.27 -4.16365 -0.99119 0
M  V30 16323 C 1544.6 -4.87417 -2.19838 0
M  V30 16324 C 1545.9 -5.22284 -0.0402599 0
M  V30 16325 H 1547.59 -2.98312 0.255054 0
M  V30 16326 H 1545.14 -1.43464 0.124106 0
M  V30 16327 H 1547.09 -3.66178 -2.08547 0
M  V30 16328 H 1545.82 -2.42346 -2.18943 0
M  V30 16329 H 1544.47 -3.63976 -0.437803 0
M  V30 16330 H 1544.12 -4.13516 -2.8638 0
M  V30 16331 H 1543.82 -5.57454 -1.85792 0
M  V30 16332 H 1545.35 -5.43641 -2.78006 0
M  V30 16333 H 1546.76 -5.70891 -0.525027 0
M  V30 16334 H 1545.16 -5.99726 0.211742 0
M  V30 16335 H 1546.23 -4.7642 0.902877 0
M  V30 16336 N 1547.57 -0.146903 -1.56914 0
M  V30 16337 C 1548.53 0.778709 -2.15566 0
M  V30 16338 C 1549.53 1.1753 -1.09742 0
M  V30 16339 O 1550.72 1.09624 -1.35382 0
M  V30 16340 C 1547.86 2.0567 -2.71869 0
M  V30 16341 H 1549.05 0.268506 -2.98696 0
M  V30 16342 H 1546.6 0.10254 -1.55963 0
M  V30 16343 H 1547.34 2.61057 -1.92405 0
M  V30 16344 H 1547.12 1.78154 -3.4929 0
M  V30 16345 H 1548.61 2.71779 -3.17059 0
M  V30 16346 N 1549.05 1.57088 0.126881 0
M  V30 16347 C 1549.96 2.03053 1.17502 0
M  V30 16348 C 1550.97 0.949484 1.45811 0
M  V30 16349 O 1552.15 1.26043 1.57083 0
M  V30 16350 C 1549.22 2.41897 2.48368 0
M  V30 16351 C 1548.28 3.64047 2.27527 0
M  V30 16352 C 1547.51 4.01029 3.52153 0
M  V30 16353 O 1547.73 3.38441 4.59145 0
M  V30 16354 O 1546.67 4.94174 3.43622 0
M  V30 16355 H 1550.49 2.92568 0.814733 0
M  V30 16356 H 1548.08 1.45547 0.3371 0
M  V30 16357 H 1549.96 2.67652 3.25485 0
M  V30 16358 H 1548.63 1.55531 2.83887 0
M  V30 16359 H 1547.54 3.43452 1.48294 0
M  V30 16360 H 1548.87 4.51093 1.96916 0
M  V30 16361 N 1550.53 -0.396836 1.52522 0
M  V30 16362 C 1551.75 -1.16857 1.71345 0
M  V30 16363 C 1552.18 -1.83178 0.427465 0
M  V30 16364 O 1551.53 -1.7051 -0.616123 0
M  V30 16365 C 1551.58 -2.19817 2.85855 0
M  V30 16366 O 1550.69 -3.26233 2.52281 0
M  V30 16367 H 1550.03 -0.340554 0.570017 0
M  V30 16368 H 1552.56 -0.463532 1.9928 0
M  V30 16369 H 1552.57 -2.63944 3.11123 0
M  V30 16370 H 1551.24 -1.70931 3.79151 0
M  V30 16371 H 1549.82 -2.87299 2.37726 0
M  V30 16372 N 1552.01 -1.43353 -0.654814 0
M  V30 16373 C 1552.92 -1.50831 -1.79687 0
M  V30 16374 C 1553.93 -0.395518 -1.69445 0
M  V30 16375 O 1555.11 -0.649408 -1.90643 0
M  V30 16376 C 1552.17 -1.42735 -3.15955 0
M  V30 16377 C 1551.23 -2.64671 -3.38005 0
M  V30 16378 C 1550.47 -2.56952 -4.67773 0
M  V30 16379 O 1550.69 -1.61638 -5.47019 0
M  V30 16380 O 1549.62 -3.47425 -4.91507 0
M  V30 16381 H 1553.45 -2.47266 -1.76333 0
M  V30 16382 H 1551.03 -1.25336 -0.813095 0
M  V30 16383 H 1552.92 -1.40656 -3.97233 0
M  V30 16384 H 1551.59 -0.494334 -3.19903 0
M  V30 16385 H 1550.5 -2.72323 -2.56498 0
M  V30 16386 H 1551.83 -3.5694 -3.38903 0
M  V30 16387 N 1553.48 0.89303 -1.29857 0
M  V30 16388 C 1554.73 1.64088 -1.17981 0
M  V30 16389 C 1555.05 1.93156 0.267533 0
M  V30 16390 O 1554.32 1.56233 1.18186 0
M  V30 16391 H 1552.9 0.608241 -0.43365 0
M  V30 16392 H 1555.56 1.07042 -1.62874 0
M  V30 16393 H 1554.66 2.59446 -1.73477 0
M  V30 16394 N 1554.96 1.12442 1.10429 0
M  V30 16395 C 1555.87 0.805377 2.20343 0
M  V30 16396 C 1556.89 -0.205836 1.72778 0
M  V30 16397 O 1558.06 -0.0394195 2.01361 0
M  V30 16398 C 1555.13 0.264711 3.45688 0
M  V30 16399 C 1554.19 1.33586 4.07987 0
M  V30 16400 C 1553.42 0.8209 5.27349 0
M  V30 16401 O 1553.65 -0.345303 5.69354 0
M  V30 16402 O 1552.58 1.59052 5.80505 0
M  V30 16403 H 1556.41 1.7234 2.50065 0
M  V30 16404 H 1553.99 0.901084 1.19167 0
M  V30 16405 H 1555.87 -0.0319164 4.21388 0
M  V30 16406 H 1554.55 -0.625869 3.17592 0
M  V30 16407 H 1553.45 1.68566 3.33971 0
M  V30 16408 H 1554.79 2.20021 4.40286 0
M  V30 16409 N 1556.44 -1.28223 0.91633 0
M  V30 16410 C 1557.86 -1.47281 0.614864 0
M  V30 16411 C 1558.06 -1.83197 -0.839111 0
M  V30 16412 O 1557.11 -1.9385 -1.61798 0
M  V30 16413 C 1558.42 -2.57373 1.55498 0
M  V30 16414 C 1559.97 -2.71241 1.56197 0
M  V30 16415 C 1560.45 -3.84479 2.48877 0
M  V30 16416 N 1561.94 -3.91837 2.47019 0
M  V30 16417 C 1562.67 -4.78846 3.15427 0
M  V30 16418 N 1562.17 -5.70427 3.93173 0
M  V30 16419 N 1563.96 -4.72478 3.04501 0
M  V30 16420 H 1556.11 -1.03191 1.85649 0
M  V30 16421 H 1558.38 -0.514213 0.796422 0
M  V30 16422 H 1558.08 -2.37747 2.5917 0
M  V30 16423 H 1557.96 -3.54527 1.28803 0
M  V30 16424 H 1560.34 -2.90254 0.532619 0
M  V30 16425 H 1560.42 -1.74609 1.86937 0
M  V30 16426 H 1560.07 -3.6622 3.51916 0
M  V30 16427 H 1560 -4.80514 2.15439 0
M  V30 16428 H 1562.49 -3.26344 1.90546 0
M  V30 16429 H 1562.8 -6.33653 4.42384 0
M  V30 16430 H 1561.15 -5.70259 3.97278 0
M  V30 16431 H 1564.34 -3.99925 2.43265 0
M  V30 16432 H 1564.51 -5.40073 3.58086 0
M  V30 16433 N 1557.92 -0.68059 -1.42147 0
M  V30 16434 C 1558.83 -0.00595573 -2.34599 0
M  V30 16435 C 1559.84 0.782528 -1.55411 0
M  V30 16436 O 1561.02 0.723524 -1.87955 0
M  V30 16437 C 1558.08 0.92964 -3.34004 0
M  V30 16438 C 1557.15 0.135041 -4.29088 0
M  V30 16439 C 1556.38 1.02607 -5.23744 0
M  V30 16440 O 1556.6 2.26562 -5.23475 0
M  V30 16441 O 1555.54 0.483774 -5.99953 0
M  V30 16442 H 1559.36 -0.767652 -2.93838 0
M  V30 16443 H 1556.95 -0.440849 -1.42748 0
M  V30 16444 H 1558.83 1.46657 -3.95057 0
M  V30 16445 H 1557.5 1.67109 -2.7723 0
M  V30 16446 H 1556.41 -0.44613 -3.7143 0
M  V30 16447 H 1557.74 -0.567417 -4.88918 0
M  V30 16448 N 1559.4 1.51781 -0.424309 0
M  V30 16449 C 1560.81 1.59419 -0.0759329 0
M  V30 16450 C 1561.01 1.43616 1.41339 0
M  V30 16451 O 1560.07 1.27078 2.18191 0
M  V30 16452 C 1561.38 2.94966 -0.584411 0
M  V30 16453 C 1562.93 3.08241 -0.54371 0
M  V30 16454 C 1563.4 4.46292 -1.02895 0
M  V30 16455 N 1564.89 4.52575 -0.986392 0
M  V30 16456 C 1565.63 5.57694 -1.33286 0
M  V30 16457 N 1565.13 6.70293 -1.75154 0
M  V30 16458 N 1566.92 5.47983 -1.25186 0
M  V30 16459 H 1559.07 1.60299 -1.39349 0
M  V30 16460 H 1561.33 0.75492 -0.573411 0
M  V30 16461 H 1561.04 3.11859 -1.62593 0
M  V30 16462 H 1560.91 3.772 -0.00224435 0
M  V30 16463 H 1563.3 2.91024 0.488798 0
M  V30 16464 H 1563.38 2.27878 -1.16212 0
M  V30 16465 H 1563.02 4.64255 -2.05986 0
M  V30 16466 H 1562.95 5.25175 -0.387202 0
M  V30 16467 H 1565.45 3.71754 -0.678765 0
M  V30 16468 H 1565.76 7.46508 -1.99863 0
M  V30 16469 H 1564.1 6.71535 -1.79071 0
M  V30 16470 H 1567.29 4.58899 -0.923525 0
M  V30 16471 H 1567.47 6.29796 -1.52517 0
M  V30 16472 N 1560.87 0.155222 1.56834 0
M  V30 16473 C 1562.12 -0.488126 1.97456 0
M  V30 16474 C 1562.47 -1.61935 1.03898 0
M  V30 16475 O 1561.77 -1.91451 0.0755621 0
M  V30 16476 C 1561.96 -1.03346 3.42132 0
M  V30 16477 C 1561.79 0.0434014 4.49679 0
M  V30 16478 C 1560.56 0.487619 5.02942 0
M  V30 16479 C 1562.76 0.837907 5.07428 0
M  V30 16480 N 1560.74 1.54646 5.94102 0
M  V30 16481 C 1562.11 1.74705 5.94877 0
M  V30 16482 C 1564.17 0.884781 4.89976 0
M  V30 16483 C 1562.87 2.69907 6.6674 0
M  V30 16484 C 1564.9 1.82467 5.62548 0
M  V30 16485 C 1564.26 2.72132 6.4971 0
M  V30 16486 H 1560.36 -0.147187 0.768023 0
M  V30 16487 H 1562.94 0.251725 1.93066 0
M  V30 16488 H 1561.11 -1.74288 3.471 0
M  V30 16489 H 1562.84 -1.6441 3.69799 0
M  V30 16490 H 1559.6 0.0883276 4.73518 0
M  V30 16491 H 1560.02 2.07589 6.44388 0
M  V30 16492 H 1564.66 0.205617 4.223 0
M  V30 16493 H 1562.38 3.3882 7.33639 0
M  V30 16494 H 1565.97 1.86684 5.51036 0
M  V30 16495 H 1564.85 3.43676 7.0488 0
M  V30 16496 N 1562.35 -1.57153 -0.118549 0
M  V30 16497 C 1563.28 -2.03409 -1.1466 0
M  V30 16498 C 1564.26 -0.918636 -1.43161 0
M  V30 16499 O 1565.45 -1.18838 -1.53594 0
M  V30 16500 C 1562.58 -2.43879 -2.47265 0
M  V30 16501 C 1561.53 -3.58873 -2.33225 0
M  V30 16502 C 1560.86 -3.85244 -3.70798 0
M  V30 16503 C 1562.16 -4.90582 -1.79239 0
M  V30 16504 H 1563.85 -2.89545 -0.761862 0
M  V30 16505 H 1561.4 -1.39296 -0.365034 0
M  V30 16506 H 1563.35 -2.74844 -3.19435 0
M  V30 16507 H 1562.07 -1.54715 -2.8763 0
M  V30 16508 H 1560.73 -3.28119 -1.63504 0
M  V30 16509 H 1560.38 -2.93285 -4.08648 0
M  V30 16510 H 1560.08 -4.62649 -3.62257 0
M  V30 16511 H 1561.61 -4.18661 -4.44472 0
M  V30 16512 H 1563.02 -5.20079 -2.41227 0
M  V30 16513 H 1561.42 -5.71989 -1.81518 0
M  V30 16514 H 1562.49 -4.79065 -0.74999 0
M  V30 16515 N 1563.83 0.388742 -1.5273 0
M  V30 16516 C 1564.76 1.49441 -1.73781 0
M  V30 16517 C 1565.77 1.50602 -0.618285 0
M  V30 16518 O 1566.96 1.545 -0.893986 0
M  V30 16519 C 1564.06 2.88288 -1.78166 0
M  V30 16520 C 1563.24 3.11089 -3.07478 0
M  V30 16521 C 1562.3 4.2992 -3.03407 0
M  V30 16522 O 1561.32 4.26212 -3.77269 0
M  V30 16523 N 1562.52 5.36121 -2.2261 0
M  V30 16524 H 1565.29 1.3177 -2.69178 0
M  V30 16525 H 1562.85 0.578258 -1.51221 0
M  V30 16526 H 1564.84 3.65884 -1.72949 0
M  V30 16527 H 1563.41 2.99317 -0.901553 0
M  V30 16528 H 1562.63 2.21356 -3.26183 0
M  V30 16529 H 1563.92 3.23177 -3.92981 0
M  V30 16530 H 1563.32 5.41988 -1.62067 0
M  V30 16531 H 1561.87 6.12381 -2.23232 0
M  V30 16532 N 1565.31 1.43698 0.647203 0
M  V30 16533 C 1566.55 1.45849 1.40911 0
M  V30 16534 C 1566.89 0.0846767 1.94015 0
M  V30 16535 O 1566.16 -0.89537 1.72665 0
M  V30 16536 C 1566.44 2.50579 2.58616 0
M  V30 16537 C 1566.3 3.97258 2.10965 0
M  V30 16538 C 1567.62 2.51981 3.60824 0
M  V30 16539 H 1564.74 0.531056 0.511027 0
M  V30 16540 H 1567.38 1.75283 0.733204 0
M  V30 16541 H 1565.53 2.25611 3.16278 0
M  V30 16542 H 1567.2 4.33304 1.58257 0
M  V30 16543 H 1565.44 4.09802 1.42284 0
M  V30 16544 H 1566.11 4.6616 2.95633 0
M  V30 16545 H 1568.59 2.7425 3.12932 0
M  V30 16546 H 1567.47 3.27191 4.40723 0
M  V30 16547 H 1567.73 1.55582 4.1382 0
M  V30 16548 N 1566.79 -0.886131 1.30328 0
M  V30 16549 C 1567.72 -2.00793 1.19183 0
M  V30 16550 C 1568.7 -1.69899 0.08276 0
M  V30 16551 O 1569.88 -1.92389 0.264593 0
M  V30 16552 C 1567.01 -3.35922 0.881669 0
M  V30 16553 C 1565.97 -3.81072 1.94855 0
M  V30 16554 C 1565.29 -5.1348 1.4914 0
M  V30 16555 C 1566.59 -3.99923 3.35944 0
M  V30 16556 H 1568.29 -2.10375 2.13032 0
M  V30 16557 H 1565.83 -1.0108 1.02561 0
M  V30 16558 H 1567.79 -4.13922 0.790359 0
M  V30 16559 H 1566.51 -3.26469 -0.0925037 0
M  V30 16560 H 1565.17 -3.053 2.02947 0
M  V30 16561 H 1564.82 -5.00453 0.50553 0
M  V30 16562 H 1564.52 -5.44659 2.205 0
M  V30 16563 H 1566.04 -5.94005 1.41386 0
M  V30 16564 H 1567.45 -4.68364 3.30617 0
M  V30 16565 H 1565.85 -4.42477 4.05381 0
M  V30 16566 H 1566.92 -3.03816 3.77921 0
M  V30 16567 N 1568.26 -1.13026 -1.09832 0
M  V30 16568 C 1569.51 -0.887662 -1.81563 0
M  V30 16569 C 1569.83 0.587935 -1.85926 0
M  V30 16570 O 1569.1 1.42732 -1.3418 0
M  V30 16571 H 1567.68 -0.32541 -0.672397 0
M  V30 16572 H 1570.35 -1.42597 -1.32861 0
M  V30 16573 H 1569.44 -1.2747 -2.84882 0
M  V30 16574 N 1569.74 1.27735 -0.923117 0
M  V30 16575 C 1570.65 2.30734 -0.424124 0
M  V30 16576 C 1571.67 1.66872 0.49291 0
M  V30 16577 O 1572.84 1.97843 0.37683 0
M  V30 16578 C 1569.91 3.45227 0.319254 0
M  V30 16579 C 1568.97 4.2462 -0.632137 0
M  V30 16580 C 1568.2 5.33646 0.0758596 0
M  V30 16581 O 1568.43 5.55481 1.29602 0
M  V30 16582 O 1567.36 5.98966 -0.593624 0
M  V30 16583 H 1571.19 2.75444 -1.27923 0
M  V30 16584 H 1568.77 1.32601 -0.688288 0
M  V30 16585 H 1570.65 4.14874 0.73873 0
M  V30 16586 H 1569.33 3.02582 1.15004 0
M  V30 16587 H 1568.24 3.57525 -1.1012 0
M  V30 16588 H 1569.57 4.70969 -1.43001 0
M  V30 16589 N 1571.22 0.688118 1.41784 0
M  V30 16590 C 1572.15 0.0323199 2.33478 0
M  V30 16591 C 1573.13 -0.775145 1.51412 0
M  V30 16592 O 1574.32 -0.72962 1.79973 0
M  V30 16593 C 1571.45 -0.910141 3.35162 0
M  V30 16594 C 1570.4 -0.210312 4.27483 0
M  V30 16595 C 1569.73 -1.26662 5.19481 0
M  V30 16596 C 1571.03 0.918839 5.14154 0
M  V30 16597 H 1572.72 0.798138 2.88566 0
M  V30 16598 H 1570.27 0.385262 1.38751 0
M  V30 16599 H 1572.22 -1.3781 3.98229 0
M  V30 16600 H 1570.94 -1.70754 2.78408 0
M  V30 16601 H 1569.6 0.237544 3.6583 0
M  V30 16602 H 1569.25 -2.05635 4.59046 0
M  V30 16603 H 1568.95 -0.803416 5.82082 0
M  V30 16604 H 1570.47 -1.73524 5.85424 0
M  V30 16605 H 1571.89 0.531499 5.70831 0
M  V30 16606 H 1570.29 1.30867 5.85657 0
M  V30 16607 H 1571.36 1.7618 4.51762 0
M  V30 16608 N 1572.7 -1.51554 0.432352 0
M  V30 16609 C 1573.63 -2.25369 -0.417328 0
M  V30 16610 C 1574.64 -1.29197 -0.990551 0
M  V30 16611 O 1575.83 -1.54985 -0.885539 0
M  V30 16612 C 1572.93 -2.99006 -1.59526 0
M  V30 16613 C 1572.11 -4.22234 -1.1418 0
M  V30 16614 C 1571.16 -4.78495 -2.18928 0
M  V30 16615 O 1570.19 -5.40465 -1.78566 0
M  V30 16616 N 1571.39 -4.62091 -3.51358 0
M  V30 16617 H 1574.16 -2.98926 0.215294 0
M  V30 16618 H 1571.72 -1.59783 0.26097 0
M  V30 16619 H 1573.71 -3.33532 -2.29212 0
M  V30 16620 H 1572.28 -2.28491 -2.13332 0
M  V30 16621 H 1571.5 -3.93259 -0.272182 0
M  V30 16622 H 1572.79 -5.02212 -0.816145 0
M  V30 16623 H 1572.19 -4.12718 -3.86885 0
M  V30 16624 H 1570.74 -5.00992 -4.16953 0
M  V30 16625 N 1574.18 -0.163538 -1.56749 0
M  V30 16626 C 1575.59 0.192717 -1.58432 0
M  V30 16627 C 1575.79 1.63438 -1.17856 0
M  V30 16628 O 1574.85 2.36425 -0.88654 0
M  V30 16629 C 1576.16 -0.0810427 -3.00591 0
M  V30 16630 C 1577.71 -0.0186378 -3.12994 0
M  V30 16631 C 1578.18 -0.265283 -4.57231 0
M  V30 16632 N 1579.68 -0.212787 -4.62711 0
M  V30 16633 C 1580.41 -0.37791 -5.72153 0
M  V30 16634 N 1579.91 -0.601663 -6.90182 0
M  V30 16635 N 1581.7 -0.314357 -5.6122 0
M  V30 16636 H 1573.85 -1.10467 -1.81413 0
M  V30 16637 H 1576.11 -0.438569 -0.840453 0
M  V30 16638 H 1575.82 -1.07944 -3.34725 0
M  V30 16639 H 1575.69 0.630888 -3.71887 0
M  V30 16640 H 1578.08 0.970324 -2.78691 0
M  V30 16641 H 1578.16 -0.763158 -2.44151 0
M  V30 16642 H 1577.81 -1.25142 -4.92242 0
M  V30 16643 H 1577.74 0.499756 -5.24223 0
M  V30 16644 H 1580.23 -0.0451754 -3.77873 0
M  V30 16645 H 1580.54 -0.717319 -7.69464 0
M  V30 16646 H 1578.88 -0.638184 -6.92064 0
M  V30 16647 H 1582.08 -0.140197 -4.6789 0
M  V30 16648 H 1582.25 -0.446472 -6.4646 0
M  V30 16649 N 1575.65 1.57214 0.110213 0
M  V30 16650 C 1576.58 2.04015 1.13579 0
M  V30 16651 C 1577.57 0.926215 1.42672 0
M  V30 16652 O 1578.75 1.19651 1.52962 0
M  V30 16653 C 1575.88 2.45187 2.45969 0
M  V30 16654 C 1574.83 3.60105 2.31319 0
M  V30 16655 C 1574.16 3.87205 3.68749 0
M  V30 16656 C 1575.46 4.91526 1.76635 0
M  V30 16657 H 1577.15 2.89944 0.746496 0
M  V30 16658 H 1574.7 1.39488 0.357642 0
M  V30 16659 H 1576.65 2.76534 3.17973 0
M  V30 16660 H 1575.38 1.56238 2.86805 0
M  V30 16661 H 1574.04 3.28981 1.61762 0
M  V30 16662 H 1573.68 2.95448 4.07087 0
M  V30 16663 H 1573.38 4.64563 3.59798 0
M  V30 16664 H 1574.91 4.21013 4.42245 0
M  V30 16665 H 1576.32 5.21351 2.38465 0
M  V30 16666 H 1574.72 5.72944 1.78482 0
M  V30 16667 H 1575.79 4.79456 0.724573 0
M  V30 16668 N 1577.13 -0.380637 1.52934 0
M  V30 16669 C 1578.06 -1.47174 1.81279 0
M  V30 16670 C 1579.04 -1.56549 0.665319 0
M  V30 16671 O 1580.23 -1.71362 0.913722 0
M  V30 16672 C 1577.36 -2.84691 1.98918 0
M  V30 16673 C 1576.31 -2.90151 3.14637 0
M  V30 16674 C 1575.64 -4.30198 3.17544 0
M  V30 16675 C 1576.94 -2.59037 4.53539 0
M  V30 16676 H 1578.63 -1.23703 2.7265 0
M  V30 16677 H 1576.18 -0.593654 1.31194 0
M  V30 16678 H 1578.13 -3.61034 2.1733 0
M  V30 16679 H 1576.86 -3.09517 1.04244 0
M  V30 16680 H 1575.51 -2.16257 2.96021 0
M  V30 16681 H 1575.16 -4.52076 2.20536 0
M  V30 16682 H 1574.86 -4.3477 3.95284 0
M  V30 16683 H 1576.39 -5.08435 3.38121 0
M  V30 16684 H 1577.8 -3.25096 4.72214 0
M  V30 16685 H 1576.2 -2.74946 5.33408 0
M  V30 16686 H 1577.27 -1.54342 4.59681 0
M  V30 16687 N 1578.61 -1.44039 -0.639573 0
M  V30 16688 C 1579.54 -1.53073 -1.76327 0
M  V30 16689 C 1580.52 -0.384344 -1.65701 0
M  V30 16690 O 1581.71 -0.603362 -1.84589 0
M  V30 16691 C 1578.84 -1.46646 -3.14821 0
M  V30 16692 C 1577.79 -2.59673 -3.40226 0
M  V30 16693 C 1577.12 -2.38298 -4.78663 0
M  V30 16694 C 1578.42 -4.01864 -3.33621 0
M  V30 16695 H 1580.11 -2.47126 -1.69023 0
M  V30 16696 H 1577.66 -1.1894 -0.811749 0
M  V30 16697 H 1579.61 -1.51567 -3.93199 0
M  V30 16698 H 1578.33 -0.491035 -3.22888 0
M  V30 16699 H 1576.99 -2.54127 -2.64225 0
M  V30 16700 H 1576.64 -1.38968 -4.83422 0
M  V30 16701 H 1576.34 -3.14074 -4.9662 0
M  V30 16702 H 1577.86 -2.45025 -5.59281 0
M  V30 16703 H 1579.28 -4.08824 -4.01915 0
M  V30 16704 H 1577.68 -4.77775 -3.63113 0
M  V30 16705 H 1578.75 -4.26033 -2.31569 0
M  V30 16706 N 1580.09 0.879207 -1.30796 0
M  V30 16707 C 1581.37 1.61328 -1.10602 0
M  V30 16708 C 1581.75 2.08301 0.342621 0
M  V30 16709 O 1581.09 1.85436 1.33514 0
M  V30 16710 C 1581.3 2.77838 -2.11203 0
M  V30 16711 C 1582.65 3.48028 -2.43231 0
M  V30 16712 O 1583.68 2.88034 -2.09559 0
M  V30 16713 O 1582.53 4.56233 -3.00854 0
M  V30 16714 H 1579.63 0.709335 -0.425174 0
M  V30 16715 H 1582.17 0.925478 -1.42243 0
M  V30 16716 H 1580.95 2.40475 -3.08687 0
M  V30 16717 H 1580.57 3.54312 -1.80414 0
M  V30 16718 N 1581.57 1.13606 1.09231 0
M  V30 16719 C 1582.53 0.818197 2.14099 0
M  V30 16720 C 1583.53 -0.173275 1.59864 0
M  V30 16721 O 1584.72 0.05405 1.74116 0
M  V30 16722 C 1581.85 0.218138 3.40201 0
M  V30 16723 H 1583.05 1.74748 2.43727 0
M  V30 16724 H 1580.6 0.940962 1.24802 0
M  V30 16725 H 1581.33 -0.720269 3.162 0
M  V30 16726 H 1581.12 0.932156 3.80859 0
M  V30 16727 H 1582.61 0.0126639 4.17598 0
M  V30 16728 N 1583.05 -1.27244 0.929878 0
M  V30 16729 C 1584.46 -1.4662 0.630451 0
M  V30 16730 C 1584.66 -1.84077 -0.819633 0
M  V30 16731 O 1583.72 -1.95555 -1.59733 0
M  V30 16732 C 1585.03 -2.55709 1.58219 0
M  V30 16733 C 1586.58 -2.69569 1.59065 0
M  V30 16734 C 1587.05 -3.81818 2.52941 0
M  V30 16735 N 1588.54 -3.89195 2.51161 0
M  V30 16736 C 1589.28 -4.75474 3.20488 0
M  V30 16737 N 1588.78 -5.66225 3.99201 0
M  V30 16738 N 1590.57 -4.69222 3.09495 0
M  V30 16739 H 1582.72 -1.01216 1.86733 0
M  V30 16740 H 1584.98 -0.505737 0.801832 0
M  V30 16741 H 1584.69 -2.34985 2.61677 0
M  V30 16742 H 1584.56 -3.53141 1.32556 0
M  V30 16743 H 1586.95 -2.89672 0.563375 0
M  V30 16744 H 1587.03 -1.72616 1.88778 0
M  V30 16745 H 1586.67 -3.62467 3.55781 0
M  V30 16746 H 1586.6 -4.78202 2.20524 0
M  V30 16747 H 1589.1 -3.24305 1.93997 0
M  V30 16748 H 1589.41 -6.28925 4.4908 0
M  V30 16749 H 1587.75 -5.66013 4.03304 0
M  V30 16750 H 1590.94 -3.97322 2.47493 0
M  V30 16751 H 1591.12 -5.36244 3.63794 0
M  V30 16752 N 1584.52 -0.695628 -1.41417 0
M  V30 16753 C 1585.93 -0.3014 -1.84251 0
M  V30 16754 C 1586.29 1.16042 -1.58204 0
M  V30 16755 O 1585.41 1.89079 -1.05253 0
M  V30 16756 C 1586.01 -0.540256 -3.34465 0
M  V30 16757 C 1584.56 -0.199944 -3.75869 0
M  V30 16758 C 1583.71 -0.822511 -2.64821 0
M  V30 16759 H 1586.66 -0.896278 -1.30968 0
M  V30 16760 H 1586.68 0.201019 -3.79969 0
M  V30 16761 H 1586.2 -1.60427 -3.53391 0
M  V30 16762 H 1584.3 0.859798 -3.62544 0
M  V30 16763 H 1584.41 -0.655005 -4.74601 0
M  V30 16764 H 1582.77 -0.252109 -2.53449 0
M  V30 16765 H 1583.56 -1.89039 -2.86564 0
M  V30 16766 N 1586 1.51322 -0.440383 0
M  V30 16767 C 1587.42 1.5933 -0.0928372 0
M  V30 16768 C 1587.62 1.45107 1.39807 0
M  V30 16769 O 1586.67 1.29385 2.16831 0
M  V30 16770 C 1587.99 2.9433 -0.615663 0
M  V30 16771 C 1589.53 3.07647 -0.576373 0
M  V30 16772 C 1590.01 4.45176 -1.07622 0
M  V30 16773 N 1591.5 4.51504 -1.03434 0
M  V30 16774 C 1592.24 5.56249 -1.39194 0
M  V30 16775 N 1591.73 6.68398 -1.82254 0
M  V30 16776 N 1593.52 5.46624 -1.30991 0
M  V30 16777 H 1585.68 1.58812 -1.41041 0
M  V30 16778 H 1587.94 0.748795 -0.581386 0
M  V30 16779 H 1587.64 3.10117 -1.65892 0
M  V30 16780 H 1587.52 3.77176 -0.0422513 0
M  V30 16781 H 1589.91 2.91526 0.457904 0
M  V30 16782 H 1589.99 2.26633 -1.18622 0
M  V30 16783 H 1589.63 4.62044 -2.10898 0
M  V30 16784 H 1589.56 5.24734 -0.442882 0
M  V30 16785 H 1592.05 3.71013 -0.718156 0
M  V30 16786 H 1592.36 7.44347 -2.07769 0
M  V30 16787 H 1590.71 6.69598 -1.86183 0
M  V30 16788 H 1593.9 4.57894 -0.972145 0
M  V30 16789 H 1594.07 6.28143 -1.59188 0
M  V30 16790 N 1587.48 0.171848 1.5666 0
M  V30 16791 C 1588.89 -0.34479 1.83489 0
M  V30 16792 C 1589.24 -1.63025 1.09167 0
M  V30 16793 O 1588.37 -2.13634 0.34488 0
M  V30 16794 C 1588.96 -0.63234 3.32847 0
M  V30 16795 C 1587.52 -1.09342 3.60169 0
M  V30 16796 C 1586.67 -0.129569 2.76997 0
M  V30 16797 H 1589.62 0.396101 1.53677 0
M  V30 16798 H 1589.64 -1.48434 3.50354 0
M  V30 16799 H 1589.15 0.303409 3.86912 0
M  V30 16800 H 1587.25 -2.04425 3.11514 0
M  V30 16801 H 1587.37 -1.00221 4.685 0
M  V30 16802 H 1585.73 -0.627033 2.46861 0
M  V30 16803 H 1586.51 0.800211 3.33844 0
M  V30 16804 N 1588.96 -1.5727 -0.101874 0
M  V30 16805 C 1590.37 -1.5295 -0.455899 0
M  V30 16806 C 1590.57 -0.887526 -1.80901 0
M  V30 16807 O 1589.63 -0.477143 -2.47951 0
M  V30 16808 C 1590.94 -2.97687 -0.424625 0
M  V30 16809 C 1592.49 -3.08867 -0.506963 0
M  V30 16810 C 1592.97 -4.55197 -0.505907 0
M  V30 16811 N 1594.46 -4.59718 -0.566856 0
M  V30 16812 C 1595.19 -5.7038 -0.587766 0
M  V30 16813 N 1594.69 -6.9049 -0.56529 0
M  V30 16814 N 1596.48 -5.58535 -0.632067 0
M  V30 16815 H 1588.63 -1.97381 0.784509 0
M  V30 16816 H 1590.89 -0.902141 0.291284 0
M  V30 16817 H 1590.6 -3.48094 0.502312 0
M  V30 16818 H 1590.47 -3.56022 -1.24612 0
M  V30 16819 H 1592.86 -2.58451 -1.42432 0
M  V30 16820 H 1592.94 -2.53496 0.342544 0
M  V30 16821 H 1592.59 -5.06263 0.407477 0
M  V30 16822 H 1592.52 -5.08399 -1.37253 0
M  V30 16823 H 1595.01 -3.73271 -0.589696 0
M  V30 16824 H 1595.32 -7.70588 -0.584342 0
M  V30 16825 H 1593.67 -6.92957 -0.532444 0
M  V30 16826 H 1596.86 -4.63606 -0.647109 0
M  V30 16827 H 1597.03 -6.44783 -0.644895 0
M  V30 16828 N 1590.44 0.372521 -1.53134 0
M  V30 16829 C 1591.85 0.949671 -1.60742 0
M  V30 16830 C 1592.2 1.90475 -0.470501 0
M  V30 16831 O 1591.32 2.12594 0.404085 0
M  V30 16832 C 1591.92 1.72918 -2.9135 0
M  V30 16833 C 1590.48 2.25577 -3.01317 0
M  V30 16834 C 1589.62 1.06612 -2.55986 0
M  V30 16835 H 1592.57 0.151533 -1.57975 0
M  V30 16836 H 1592.6 2.58982 -2.78763 0
M  V30 16837 H 1592.11 1.0338 -3.74078 0
M  V30 16838 H 1590.21 2.98378 -2.23162 0
M  V30 16839 H 1590.32 2.53935 -4.06268 0
M  V30 16840 H 1588.69 1.43105 -2.10697 0
M  V30 16841 H 1589.47 0.38584 -3.41125 0
M  V30 16842 N 1591.91 1.44376 0.631925 0
M  V30 16843 C 1593.16 1.47335 1.39356 0
M  V30 16844 C 1593.49 0.10525 1.93915 0
M  V30 16845 O 1592.77 -0.877006 1.73605 0
M  V30 16846 C 1593.05 2.53308 2.55943 0
M  V30 16847 C 1592.9 3.99473 2.06739 0
M  V30 16848 C 1594.22 2.55794 3.58131 0
M  V30 16849 H 1591.34 0.536447 0.505365 0
M  V30 16850 H 1593.98 1.76051 0.714572 0
M  V30 16851 H 1592.13 2.28953 3.13868 0
M  V30 16852 H 1593.81 4.34958 1.53652 0
M  V30 16853 H 1592.05 4.11288 1.37929 0
M  V30 16854 H 1592.72 4.69269 2.90672 0
M  V30 16855 H 1595.2 2.77554 3.10005 0
M  V30 16856 H 1594.07 3.31847 4.37228 0
M  V30 16857 H 1594.33 1.59962 4.12146 0
M  V30 16858 N 1593.39 -0.872258 1.31261 0
M  V30 16859 C 1594.62 -1.65555 1.23593 0
M  V30 16860 C 1595.03 -1.88124 -0.201532 0
M  V30 16861 O 1594.37 -1.43792 -1.14323 0
M  V30 16862 C 1594.43 -3.04726 1.90742 0
M  V30 16863 C 1594.1 -3.05276 3.40082 0
M  V30 16864 C 1595.1 -2.83401 4.35867 0
M  V30 16865 C 1592.78 -3.26469 3.81737 0
M  V30 16866 C 1594.77 -2.82697 5.71281 0
M  V30 16867 C 1592.46 -3.25393 5.17265 0
M  V30 16868 C 1593.46 -3.03533 6.11847 0
M  V30 16869 O 1593.15 -3.02297 7.44897 0
M  V30 16870 H 1592.88 -0.52296 0.428356 0
M  V30 16871 H 1595.43 -1.09717 1.73641 0
M  V30 16872 H 1593.66 -3.62281 1.35239 0
M  V30 16873 H 1595.35 -3.65265 1.7702 0
M  V30 16874 H 1596.12 -2.66812 4.05014 0
M  V30 16875 H 1592 -3.42515 3.08552 0
M  V30 16876 H 1595.54 -2.65553 6.45079 0
M  V30 16877 H 1591.44 -3.41522 5.47753 0
M  V30 16878 H 1592.21 -3.18375 7.54042 0
M  V30 16879 N 1594.87 -1.14184 -1.08627 0
M  V30 16880 C 1596.1 -0.932104 -1.84714 0
M  V30 16881 C 1596.51 0.519335 -1.81517 0
M  V30 16882 O 1595.87 1.35978 -1.21722 0
M  V30 16883 C 1595.92 -1.42217 -3.3235 0
M  V30 16884 O 1595.64 -2.81674 -3.35547 0
M  V30 16885 C 1597.14 -1.25205 -4.25251 0
M  V30 16886 H 1594.36 -0.331854 -0.583193 0
M  V30 16887 H 1596.91 -1.51641 -1.37205 0
M  V30 16888 H 1595.06 -0.880679 -3.77257 0
M  V30 16889 H 1595.48 -3.03615 -4.2769 0
M  V30 16890 H 1596.95 -1.64358 -5.26963 0
M  V30 16891 H 1597.43 -0.194659 -4.38768 0
M  V30 16892 H 1598.03 -1.78198 -3.86168 0
M  V30 16893 N 1596.35 1.26749 -0.936613 0
M  V30 16894 C 1597.28 2.2892 -0.460213 0
M  V30 16895 C 1598.26 1.63065 0.484135 0
M  V30 16896 O 1599.44 1.90305 0.386973 0
M  V30 16897 C 1596.57 3.46172 0.279648 0
M  V30 16898 C 1595.53 4.24083 -0.57771 0
M  V30 16899 C 1594.85 5.33903 0.291843 0
M  V30 16900 C 1596.15 4.88562 -1.84673 0
M  V30 16901 H 1597.85 2.69019 -1.31412 0
M  V30 16902 H 1595.39 1.29325 -0.633333 0
M  V30 16903 H 1597.35 4.16755 0.623931 0
M  V30 16904 H 1596.07 3.05014 1.16765 0
M  V30 16905 H 1594.73 3.55258 -0.904824 0
M  V30 16906 H 1594.38 4.88986 1.17906 0
M  V30 16907 H 1594.08 5.8694 -0.278372 0
M  V30 16908 H 1595.6 6.07326 0.631498 0
M  V30 16909 H 1597.02 5.51384 -1.56997 0
M  V30 16910 H 1595.41 5.51697 -2.36115 0
M  V30 16911 H 1596.48 4.11761 -2.56088 0
M  V30 16912 N 1597.83 0.703118 1.41046 0
M  V30 16913 C 1598.77 0.0425767 2.30761 0
M  V30 16914 C 1599.74 -0.763406 1.47517 0
M  V30 16915 O 1600.93 -0.7299 1.76287 0
M  V30 16916 C 1598.07 -0.882353 3.33629 0
M  V30 16917 C 1597.18 -0.0671799 4.31948 0
M  V30 16918 C 1596.32 -0.990443 5.21885 0
M  V30 16919 C 1595.36 -0.168622 6.11868 0
M  V30 16920 N 1594.49 -1.04609 6.94263 0
M  V30 16921 H 1599.33 0.813363 2.86685 0
M  V30 16922 H 1596.87 0.412804 1.41189 0
M  V30 16923 H 1598.83 -1.43273 3.91827 0
M  V30 16924 H 1597.46 -1.61946 2.79237 0
M  V30 16925 H 1596.51 0.600219 3.75635 0
M  V30 16926 H 1597.82 0.569624 4.95537 0
M  V30 16927 H 1596.98 -1.60979 5.84954 0
M  V30 16928 H 1595.71 -1.66109 4.5854 0
M  V30 16929 H 1594.72 0.463746 5.47841 0
M  V30 16930 H 1595.94 0.49834 6.77269 0
M  V30 16931 H 1593.89 -1.70262 6.33519 0
M  V30 16932 H 1593.81 -0.465036 7.54568 0
M  V30 16933 H 1595.08 -1.65201 7.61793 0
M  V30 16934 N 1599.3 -1.51086 0.448402 0
M  V30 16935 C 1600.21 -2.3177 -0.363323 0
M  V30 16936 C 1601.23 -1.41159 -1.01736 0
M  V30 16937 O 1602.41 -1.74226 -1.01031 0
M  V30 16938 C 1599.47 -3.15211 -1.4437 0
M  V30 16939 C 1598.53 -4.21615 -0.808643 0
M  V30 16940 C 1597.77 -5.01069 -1.83754 0
M  V30 16941 O 1597.99 -4.81296 -3.06121 0
M  V30 16942 O 1596.92 -5.84863 -1.42193 0
M  V30 16943 H 1600.75 -3.02257 0.295653 0
M  V30 16944 H 1598.33 -1.47907 0.210703 0
M  V30 16945 H 1600.22 -3.67053 -2.07002 0
M  V30 16946 H 1598.89 -2.47476 -2.08656 0
M  V30 16947 H 1597.8 -3.73823 -0.143975 0
M  V30 16948 H 1599.13 -4.91756 -0.209098 0
M  V30 16949 N 1600.78 -0.180154 -1.56567 0
M  V30 16950 C 1601.75 0.732809 -2.17169 0
M  V30 16951 C 1602.75 1.15176 -1.1221 0
M  V30 16952 O 1603.94 1.06728 -1.37677 0
M  V30 16953 C 1601.07 1.99857 -2.7617 0
M  V30 16954 H 1602.26 0.205088 -2.99198 0
M  V30 16955 H 1599.81 0.0694351 -1.56146 0
M  V30 16956 H 1600.55 2.56917 -1.97899 0
M  V30 16957 H 1600.33 1.70705 -3.5299 0
M  V30 16958 H 1601.82 2.64992 -3.22752 0
M  V30 16959 N 1602.26 1.57322 0.0935319 0
M  V30 16960 C 1603.49 1.90099 0.80907 0
M  V30 16961 C 1603.9 0.772198 1.72724 0
M  V30 16962 O 1603.24 -0.26468 1.81783 0
M  V30 16963 C 1603.3 3.18144 1.67405 0
M  V30 16964 C 1602.97 4.47488 0.927539 0
M  V30 16965 C 1603.96 5.19266 0.256635 0
M  V30 16966 C 1601.65 4.9415 0.901156 0
M  V30 16967 C 1603.64 6.35943 -0.430665 0
M  V30 16968 C 1601.33 6.10739 0.21007 0
M  V30 16969 C 1602.33 6.81485 -0.454661 0
M  V30 16970 O 1602.02 7.95852 -1.13466 0
M  V30 16971 H 1601.75 0.633287 0.236481 0
M  V30 16972 H 1604.3 2.05264 0.0747132 0
M  V30 16973 H 1602.53 2.99129 2.45068 0
M  V30 16974 H 1604.22 3.3674 2.2663 0
M  V30 16975 H 1604.99 4.84256 0.268468 0
M  V30 16976 H 1600.87 4.38972 1.408 0
M  V30 16977 H 1604.41 6.911 -0.950082 0
M  V30 16978 H 1600.31 6.45202 0.196089 0
M  V30 16979 H 1601.08 8.11844 -1.04172 0
M  V30 16980 N 1603.74 -0.364395 1.53329 0
M  V30 16981 C 1605.02 -1.12265 1.60174 0
M  V30 16982 C 1605.4 -2.0708 0.410015 0
M  V30 16983 O 1604.74 -2.20492 -0.599631 0
M  V30 16984 C 1604.95 -1.86071 2.9526 0
M  V30 16985 C 1606.3 -2.40562 3.49879 0
M  V30 16986 O 1607.33 -1.96196 2.97297 0
M  V30 16987 O 1606.18 -3.2167 4.41804 0
M  V30 16988 H 1603.28 -0.515062 0.647024 0
M  V30 16989 H 1605.82 -0.367563 1.65672 0
M  V30 16990 H 1604.6 -1.1688 3.73436 0
M  V30 16991 H 1604.22 -2.68486 2.93259 0
M  V30 16992 N 1605.22 -1.44709 -0.62426 0
M  V30 16993 C 1606.16 -1.52413 -1.75707 0
M  V30 16994 C 1607.16 -0.395303 -1.64723 0
M  V30 16995 O 1608.36 -0.570535 -1.70719 0
M  V30 16996 H 1604.74 -0.478401 -0.580204 0
M  V30 16997 H 1606.71 -2.47742 -1.66333 0
M  V30 16998 C 1605.46 -1.49208 -3.14058 0
M  V30 16999 H 1604.78 -2.35387 -3.23161 0
M  V30 17000 H 1606.22 -1.58658 -3.93197 0
M  V30 17001 C 1604.68 -0.213877 -3.3622 0
M  V30 17002 O 1605.21 0.713128 -3.95319 0
M  V30 17003 N 1603.42 -0.114834 -2.90373 0
M  V30 17004 H 1602.96 -0.870047 -2.42462 0
M  V30 17005 H 1602.92 0.739619 -3.05576 0
M  V30 17006 N 1606.69 0.865285 -1.31722 0
M  V30 17007 C 1607.94 1.61549 -1.21435 0
M  V30 17008 C 1608.26 1.9368 0.226501 0
M  V30 17009 O 1607.53 1.58705 1.14846 0
M  V30 17010 H 1606.11 0.598905 -0.446454 0
M  V30 17011 H 1608.78 1.03563 -1.65108 0
M  V30 17012 H 1607.87 2.55708 -1.78941 0
M  V30 17013 N 1608.17 1.14759 1.0802 0
M  V30 17014 C 1609.1 0.860977 2.17047 0
M  V30 17015 C 1610.08 -0.185652 1.69084 0
M  V30 17016 O 1611.27 -0.0414797 1.94156 0
M  V30 17017 C 1608.4 0.342018 3.45612 0
M  V30 17018 C 1607.35 1.32455 4.06989 0
M  V30 17019 C 1606.68 0.664721 5.30552 0
M  V30 17020 C 1607.98 2.68819 4.4781 0
M  V30 17021 H 1609.67 1.77269 2.4128 0
M  V30 17022 H 1607.22 0.853757 1.15961 0
M  V30 17023 H 1609.17 0.129093 4.21202 0
M  V30 17024 H 1607.9 -0.605138 3.20945 0
M  V30 17025 H 1606.55 1.52371 3.33435 0
M  V30 17026 H 1606.2 -0.288367 5.02173 0
M  V30 17027 H 1605.9 1.32036 5.72573 0
M  V30 17028 H 1607.43 0.461412 6.08854 0
M  V30 17029 H 1608.84 2.52787 5.14559 0
M  V30 17030 H 1607.24 3.30694 5.00761 0
M  V30 17031 H 1608.31 3.25398 3.59506 0
M  V30 17032 N 1609.65 -1.26251 0.943322 0
M  V30 17033 C 1611.06 -1.75591 0.634391 0
M  V30 17034 C 1611.41 -1.76812 -0.850406 0
M  V30 17035 O 1610.54 -1.38162 -1.66554 0
M  V30 17036 C 1611.13 -3.18871 1.14484 0
M  V30 17037 C 1609.69 -3.65817 0.886285 0
M  V30 17038 C 1608.84 -2.4523 1.2945 0
M  V30 17039 H 1611.79 -1.12297 1.12139 0
M  V30 17040 H 1611.81 -3.77205 0.499654 0
M  V30 17041 H 1611.32 -3.17951 2.22551 0
M  V30 17042 H 1609.42 -3.72165 -0.179913 0
M  V30 17043 H 1609.54 -4.54523 1.5148 0
M  V30 17044 H 1607.9 -2.44519 0.712919 0
M  V30 17045 H 1608.68 -2.47009 2.38415 0
M  V30 17046 N 1611.13 -0.710588 -1.40671 0
M  V30 17047 C 1612.06 -0.0694601 -2.33397 0
M  V30 17048 C 1613.04 0.750959 -1.52626 0
M  V30 17049 O 1614.23 0.700896 -1.81111 0
M  V30 17050 C 1611.36 0.856704 -3.36568 0
M  V30 17051 C 1610.31 0.142276 -4.27763 0
M  V30 17052 C 1609.64 1.18382 -5.21431 0
M  V30 17053 C 1610.94 -1.00052 -5.12627 0
M  V30 17054 H 1612.63 -0.843945 -2.87259 0
M  V30 17055 H 1610.18 -0.407287 -1.3812 0
M  V30 17056 H 1612.13 1.31457 -4.00371 0
M  V30 17057 H 1610.85 1.66303 -2.81089 0
M  V30 17058 H 1609.51 -0.295714 -3.65405 0
M  V30 17059 H 1609.16 1.98306 -4.62259 0
M  V30 17060 H 1608.86 0.71071 -5.83286 0
M  V30 17061 H 1610.38 1.64189 -5.88111 0
M  V30 17062 H 1611.8 -0.622246 -5.69913 0
M  V30 17063 H 1610.19 -1.40168 -5.83501 0
M  V30 17064 H 1611.26 -1.83345 -4.48902 0
M  V30 17065 N 1612.61 1.50847 -0.456408 0
M  V30 17066 C 1613.54 2.31077 0.335523 0
M  V30 17067 C 1614.52 1.37326 1.00377 0
M  V30 17068 O 1615.7 1.66247 1.00376 0
M  V30 17069 C 1612.83 3.16662 1.42627 0
M  V30 17070 C 1611.79 4.18846 0.88045 0
M  V30 17071 C 1611.11 4.93074 2.06838 0
M  V30 17072 C 1612.41 5.22208 -0.0982288 0
M  V30 17073 H 1614.11 2.97531 -0.334056 0
M  V30 17074 H 1611.65 1.43085 -0.162099 0
M  V30 17075 H 1613.61 3.71578 1.98765 0
M  V30 17076 H 1612.33 2.48066 2.12441 0
M  V30 17077 H 1610.99 3.65009 0.341147 0
M  V30 17078 H 1610.64 4.20963 2.75316 0
M  V30 17079 H 1610.34 5.62184 1.70947 0
M  V30 17080 H 1611.86 5.5082 2.63494 0
M  V30 17081 H 1613.28 5.72082 0.373481 0
M  V30 17082 H 1611.67 5.98954 -0.370674 0
M  V30 17083 H 1612.74 4.73859 -1.02887 0
M  V30 17084 N 1614.09 0.188454 1.56469 0
M  V30 17085 C 1615.5 -0.325309 1.83844 0
M  V30 17086 C 1615.85 -1.61858 1.1089 0
M  V30 17087 O 1614.97 -2.13256 0.36752 0
M  V30 17088 C 1615.57 -0.597002 3.33499 0
M  V30 17089 C 1614.13 -1.05515 3.61308 0
M  V30 17090 C 1613.27 -0.100182 2.77119 0
M  V30 17091 H 1616.22 0.412378 1.53249 0
M  V30 17092 H 1616.25 -1.44709 3.51908 0
M  V30 17093 H 1615.76 0.344429 3.86569 0
M  V30 17094 H 1613.86 -2.01109 3.13665 0
M  V30 17095 H 1613.97 -0.952461 4.69537 0
M  V30 17096 H 1612.34 -0.600815 2.47512 0
M  V30 17097 H 1613.12 0.835574 3.32976 0
M  V30 17098 N 1615.56 -1.5737 -0.0851874 0
M  V30 17099 C 1616.51 -1.99199 -1.10922 0
M  V30 17100 C 1617.5 -0.871945 -1.35225 0
M  V30 17101 O 1618.69 -1.13581 -1.35751 0
M  V30 17102 C 1615.82 -2.42827 -2.42672 0
M  V30 17103 C 1614.9 -3.61538 -2.217 0
M  V30 17104 N 1615.3 -4.76153 -1.70622 0
M  V30 17105 C 1613.59 -3.67828 -2.52228 0
M  V30 17106 C 1614.29 -5.58058 -1.64152 0
M  V30 17107 N 1613.27 -5.01515 -2.09723 0
M  V30 17108 H 1617.07 -2.8526 -0.707395 0
M  V30 17109 H 1614.59 -1.59745 -0.292468 0
M  V30 17110 H 1616.58 -2.71027 -3.16781 0
M  V30 17111 H 1615.24 -1.58147 -2.83583 0
M  V30 17112 H 1616.25 -4.98709 -1.39677 0
M  V30 17113 H 1612.93 -2.93832 -2.96596 0
M  V30 17114 H 1614.32 -6.60051 -1.25627 0
M  V30 17115 N 1617.04 0.356258 -1.53521 0
M  V30 17116 C 1618.27 1.11828 -1.74075 0
M  V30 17117 C 1618.68 1.82753 -0.473998 0
M  V30 17118 O 1618.04 1.73899 0.553649 0
M  V30 17119 C 1618.09 2.14149 -2.91243 0
M  V30 17120 O 1617.81 1.4611 -4.13017 0
M  V30 17121 C 1619.31 3.02826 -3.23746 0
M  V30 17122 H 1616.53 0.334002 -0.581965 0
M  V30 17123 H 1619.08 0.412336 -2.003 0
M  V30 17124 H 1617.23 2.80328 -2.67386 0
M  V30 17125 H 1617.65 2.1436 -4.78696 0
M  V30 17126 H 1619.12 3.70583 -4.09112 0
M  V30 17127 H 1619.6 3.68149 -2.39505 0
M  V30 17128 H 1620.2 2.42252 -3.49563 0
M  V30 17129 N 1618.52 1.45038 0.616577 0
M  V30 17130 C 1619.45 1.55858 1.73869 0
M  V30 17131 C 1620.43 0.410657 1.65069 0
M  V30 17132 O 1621.62 0.632652 1.83606 0
M  V30 17133 C 1618.75 1.51635 3.12448 0
M  V30 17134 C 1617.7 2.65053 3.36052 0
M  V30 17135 C 1617.03 2.45883 4.74811 0
M  V30 17136 C 1618.33 4.07121 3.27185 0
M  V30 17137 H 1620.02 2.49784 1.6507 0
M  V30 17138 H 1617.57 1.20216 0.792724 0
M  V30 17139 H 1619.52 1.57803 3.90738 0
M  V30 17140 H 1618.24 0.542342 3.22066 0
M  V30 17141 H 1616.9 2.58299 2.60149 0
M  V30 17142 H 1616.55 1.46641 4.8115 0
M  V30 17143 H 1616.25 3.21935 4.9156 0
M  V30 17144 H 1617.77 2.53892 5.55312 0
M  V30 17145 H 1619.19 4.15167 3.9536 0
M  V30 17146 H 1617.58 4.83491 3.55466 0
M  V30 17147 H 1618.65 4.29663 2.24762 0
M  V30 17148 N 1620 -0.858287 1.32179 0
M  V30 17149 C 1621.24 -1.6261 1.23844 0
M  V30 17150 C 1621.6 -1.9098 -0.197628 0
M  V30 17151 O 1622.8 -2.65737 -0.40465 0
M  V30 17152 C 1621.07 -2.91319 2.07047 0
M  V30 17153 S 1622.63 -3.82125 2.15699 0
M  V30 17154 H 1619.45 -0.557789 0.4409 0
M  V30 17155 H 1622.05 -1.0167 1.66983 0
M  V30 17156 H 1620.76 -2.68417 3.10452 0
M  V30 17157 H 1620.29 -3.57277 1.64671 0
M  V30 17158 H 1622.3 -4.78764 1.30384 0
M  V30 17159 N 1621.48 -1.1533 -1.07409 0
M  V30 17160 C 1622.44 -0.852155 -2.1277 0
M  V30 17161 C 1623.44 0.14782 -1.60119 0
M  V30 17162 O 1624.63 -0.0817436 -1.74008 0
M  V30 17163 C 1621.76 -0.272233 -3.39811 0
M  V30 17164 H 1622.95 -1.78604 -2.40917 0
M  V30 17165 H 1620.51 -0.960698 -1.23289 0
M  V30 17166 H 1621.24 0.669873 -3.17306 0
M  V30 17167 H 1621.03 -0.992629 -3.79327 0
M  V30 17168 H 1622.52 -0.0790986 -4.17525 0
M  V30 17169 N 1622.95 1.25748 -0.950004 0
M  V30 17170 C 1623.92 2.24307 -0.47106 0
M  V30 17171 C 1624.92 1.55145 0.422704 0
M  V30 17172 O 1626.11 1.72797 0.220642 0
M  V30 17173 C 1623.24 3.39395 0.319979 0
M  V30 17174 H 1624.43 2.68192 -1.34214 0
M  V30 17175 H 1621.98 1.38056 -0.732827 0
M  V30 17176 H 1622.72 3.00925 1.20892 0
M  V30 17177 H 1622.5 3.90783 -0.321157 0
M  V30 17178 H 1623.99 4.12594 0.644697 0
M  V30 17179 N 1624.43 0.718038 1.40292 0
M  V30 17180 C 1625.68 0.255581 2.00074 0
M  V30 17181 C 1625.99 -1.15859 1.57594 0
M  V30 17182 O 1627.2 -1.71969 2.10092 0
M  V30 17183 C 1625.66 0.406019 3.57602 0
M  V30 17184 C 1625.26 1.82699 4.09054 0
M  V30 17185 C 1627.01 0.00447854 4.245 0
M  V30 17186 C 1624.91 1.92788 5.59094 0
M  V30 17187 H 1623.84 0.0918012 0.748391 0
M  V30 17188 H 1626.5 0.88948 1.60501 0
M  V30 17189 H 1624.88 -0.296504 3.94888 0
M  V30 17190 H 1626.05 2.56009 3.8314 0
M  V30 17191 H 1624.37 2.18021 3.54761 0
M  V30 17192 H 1626.96 0.05911 5.34667 0
M  V30 17193 H 1627.31 -1.03779 4.03157 0
M  V30 17194 H 1627.84 0.657535 3.92328 0
M  V30 17195 H 1624.58 2.95145 5.85295 0
M  V30 17196 H 1624.1 1.23893 5.86865 0
M  V30 17197 H 1625.78 1.70114 6.24236 0
M  V30 17198 N 1625.91 -1.50602 0.464402 0
M  V30 17199 C 1626.84 -2.31252 -0.323263 0
M  V30 17200 C 1627.82 -1.37856 -0.996476 0
M  V30 17201 O 1629.01 -1.66777 -0.994933 0
M  V30 17202 C 1626.14 -3.17414 -1.40945 0
M  V30 17203 C 1625.09 -4.19307 -0.858226 0
M  V30 17204 C 1624.42 -4.94164 -2.0422 0
M  V30 17205 C 1625.72 -5.22148 0.125921 0
M  V30 17206 H 1627.41 -2.97349 0.34983 0
M  V30 17207 H 1624.96 -1.42997 0.169685 0
M  V30 17208 H 1626.91 -3.72627 -1.96791 0
M  V30 17209 H 1625.63 -2.49189 -2.11122 0
M  V30 17210 H 1624.29 -3.65185 -0.321785 0
M  V30 17211 H 1623.94 -4.22417 -2.7308 0
M  V30 17212 H 1623.64 -5.63083 -1.67963 0
M  V30 17213 H 1625.16 -5.5221 -2.60569 0
M  V30 17214 H 1626.58 -5.72272 -0.343136 0
M  V30 17215 H 1624.98 -5.98749 0.402433 0
M  V30 17216 H 1626.05 -4.73307 1.05399 0
M  V30 17217 N 1627.39 -0.19675 -1.56367 0
M  V30 17218 C 1628.67 0.489288 -1.89381 0
M  V30 17219 C 1629.05 1.79529 -1.11052 0
M  V30 17220 O 1628.39 2.27513 -0.212117 0
M  V30 17221 C 1628.6 0.706459 -3.41775 0
M  V30 17222 C 1629.95 1.02508 -4.1204 0
M  V30 17223 O 1630.98 0.794123 -3.47235 0
M  V30 17224 O 1629.83 1.46207 -5.26579 0
M  V30 17225 H 1626.93 0.2553 -0.786607 0
M  V30 17226 H 1629.47 -0.237086 -1.68036 0
M  V30 17227 H 1628.25 -0.215762 -3.90705 0
M  V30 17228 H 1627.87 1.48523 -3.68818 0
M  V30 17229 N 1628.87 1.57413 0.0768405 0
M  V30 17230 C 1629.8 2.00058 1.11845 0
M  V30 17231 C 1630.81 0.905783 1.35275 0
M  V30 17232 O 1632 1.18372 1.33605 0
M  V30 17233 C 1629.1 2.32002 2.47039 0
M  V30 17234 C 1628.27 3.63265 2.43634 0
M  V30 17235 C 1627.33 3.82937 3.60896 0
M  V30 17236 O 1626.36 4.54582 3.42555 0
M  V30 17237 N 1627.56 3.24904 4.81059 0
M  V30 17238 H 1630.33 2.90026 0.75533 0
M  V30 17239 H 1627.89 1.59707 0.265567 0
M  V30 17240 H 1629.88 2.4234 3.24119 0
M  V30 17241 H 1628.45 1.4795 2.75372 0
M  V30 17242 H 1627.67 3.63727 1.51974 0
M  V30 17243 H 1628.96 4.49462 2.38455 0
M  V30 17244 H 1628.35 2.66742 4.98864 0
M  V30 17245 H 1626.91 3.40699 5.55669 0
M  V30 17246 N 1630.34 -0.348112 1.53707 0
M  V30 17247 C 1631.62 -1.1056 1.61356 0
M  V30 17248 C 1632 -2.06633 0.431955 0
M  V30 17249 O 1631.35 -2.21115 -0.576211 0
M  V30 17250 C 1631.56 -1.82929 2.97217 0
M  V30 17251 C 1632.91 -2.36837 3.52411 0
M  V30 17252 O 1633.93 -1.93032 2.99361 0
M  V30 17253 O 1632.79 -3.16966 4.45191 0
M  V30 17254 H 1629.88 -0.50817 0.652451 0
M  V30 17255 H 1632.43 -0.349971 1.66052 0
M  V30 17256 H 1631.2 -1.12912 3.74655 0
M  V30 17257 H 1630.83 -2.65361 2.9609 0
M  V30 17258 N 1631.82 -1.45363 -0.608876 0
M  V30 17259 C 1633.24 -1.29741 -0.929491 0
M  V30 17260 C 1633.44 -0.249486 -1.9995 0
M  V30 17261 O 1632.49 0.357014 -2.49963 0
M  V30 17262 C 1633.81 -2.67594 -1.37164 0
M  V30 17263 C 1635.36 -2.7548 -1.48592 0
M  V30 17264 C 1635.83 -4.13855 -1.96183 0
M  V30 17265 N 1637.32 -4.16143 -2.03419 0
M  V30 17266 C 1638.06 -5.20081 -2.41462 0
M  V30 17267 N 1637.55 -6.34365 -2.78482 0
M  V30 17268 N 1639.35 -5.07439 -2.4179 0
M  V30 17269 H 1631.5 -2.12172 0.0983838 0
M  V30 17270 H 1633.76 -0.947817 -0.0186397 0
M  V30 17271 H 1633.47 -3.45459 -0.6596 0
M  V30 17272 H 1633.34 -2.9597 -2.33841 0
M  V30 17273 H 1635.73 -1.97919 -2.18888 0
M  V30 17274 H 1635.81 -2.50819 -0.502337 0
M  V30 17275 H 1635.45 -4.91901 -1.26475 0
M  V30 17276 H 1635.38 -4.35907 -2.95453 0
M  V30 17277 H 1637.87 -3.33671 -1.77404 0
M  V30 17278 H 1638.19 -7.09469 -3.06388 0
M  V30 17279 H 1636.53 -6.37769 -2.76181 0
M  V30 17280 H 1639.72 -4.17202 -2.12273 0
M  V30 17281 H 1639.89 -5.8856 -2.71112 0
M  V30 17282 N 1633.3 0.851265 -1.32632 0
M  V30 17283 C 1634.23 1.97562 -1.24465 0
M  V30 17284 C 1635.21 1.69619 -0.127777 0
M  V30 17285 O 1636.4 1.9162 -0.315509 0
M  V30 17286 C 1633.53 3.33467 -0.970423 0
M  V30 17287 C 1632.48 3.75772 -2.0489 0
M  V30 17288 C 1631.81 5.09345 -1.62702 0
M  V30 17289 C 1633.11 3.90876 -3.4643 0
M  V30 17290 H 1634.8 2.04653 -2.18535 0
M  V30 17291 H 1632.35 0.983252 -1.05205 0
M  V30 17292 H 1634.3 4.11681 -0.899825 0
M  V30 17293 H 1633.02 3.26599 0.00591373 0
M  V30 17294 H 1631.68 2.99812 -2.1097 0
M  V30 17295 H 1631.33 4.98937 -0.638039 0
M  V30 17296 H 1631.03 5.38621 -2.34864 0
M  V30 17297 H 1632.55 5.90048 -1.57085 0
M  V30 17298 H 1633.97 4.59434 -3.42919 0
M  V30 17299 H 1632.37 4.31574 -4.1697 0
M  V30 17300 H 1633.44 2.93689 -3.85843 0
M  V30 17301 N 1634.78 1.15898 1.06796 0
M  V30 17302 C 1635.74 0.863427 2.12315 0
M  V30 17303 C 1636.74 -0.139326 1.60195 0
M  V30 17304 O 1637.93 0.0909705 1.73962 0
M  V30 17305 C 1635.06 0.290251 3.39662 0
M  V30 17306 H 1636.26 1.79879 2.39966 0
M  V30 17307 H 1633.81 0.967223 1.22778 0
M  V30 17308 H 1634.54 -0.653037 3.17657 0
M  V30 17309 H 1634.33 1.01273 3.78796 0
M  V30 17310 H 1635.82 0.10124 4.17477 0
M  V30 17311 N 1636.26 -1.25243 0.956659 0
M  V30 17312 C 1637.19 -2.28159 0.496574 0
M  V30 17313 C 1638.17 -1.63814 -0.458132 0
M  V30 17314 O 1639.35 -1.90897 -0.356648 0
M  V30 17315 C 1636.48 -3.46573 -0.22454 0
M  V30 17316 C 1635.44 -4.2311 0.645104 0
M  V30 17317 C 1634.76 -5.343 -0.206867 0
M  V30 17318 C 1636.06 -4.85562 1.92422 0
M  V30 17319 H 1637.76 -2.66895 1.35675 0
M  V30 17320 H 1635.3 -1.28301 0.653827 0
M  V30 17321 H 1637.26 -4.17695 -0.55755 0
M  V30 17322 H 1635.98 -3.06833 -1.11898 0
M  V30 17323 H 1634.64 -3.53774 0.961228 0
M  V30 17324 H 1634.29 -4.908 -1.10112 0
M  V30 17325 H 1633.99 -5.86423 0.371714 0
M  V30 17326 H 1635.51 -6.08253 -0.534798 0
M  V30 17327 H 1636.92 -5.48817 1.65749 0
M  V30 17328 H 1635.32 -5.47871 2.44862 0
M  V30 17329 H 1636.39 -4.07634 2.62607 0
M  V30 17330 N 1637.73 -0.725468 -1.3991 0
M  V30 17331 C 1638.98 -0.268719 -2.00306 0
M  V30 17332 C 1639.3 1.14511 -1.57836 0
M  V30 17333 O 1638.57 1.77808 -0.822263 0
M  V30 17334 H 1637.15 -0.0963614 -0.740759 0
M  V30 17335 H 1639.82 -0.933303 -1.71101 0
M  V30 17336 H 1638.91 -0.309587 -3.10561 0
M  V30 17337 N 1639.21 1.50354 -0.472382 0
M  V30 17338 C 1640.44 2.06746 0.0798134 0
M  V30 17339 C 1640.86 1.3361 1.33393 0
M  V30 17340 O 1640.21 0.405765 1.77932 0
M  V30 17341 C 1640.26 3.59636 0.3666 0
M  V30 17342 O 1639.98 4.30015 -0.837776 0
M  V30 17343 C 1641.49 4.32655 0.965618 0
M  V30 17344 H 1638.71 0.670956 -0.00765904 0
M  V30 17345 H 1641.25 1.93504 -0.661535 0
M  V30 17346 H 1639.4 3.72676 1.05788 0
M  V30 17347 H 1639.82 5.21248 -0.583161 0
M  V30 17348 H 1641.29 5.406 1.11604 0
M  V30 17349 H 1641.77 3.93237 1.95606 0
M  V30 17350 H 1642.38 4.24149 0.312676 0
M  V30 17351 N 1640.69 0.205039 1.56261 0
M  V30 17352 C 1641.6 -0.723548 2.23164 0
M  V30 17353 C 1642.62 -1.22683 1.23389 0
M  V30 17354 O 1643.79 -1.27191 1.56155 0
M  V30 17355 C 1640.86 -1.92178 2.88563 0
M  V30 17356 C 1639.92 -1.46209 4.03635 0
M  V30 17357 C 1639.15 -2.60321 4.65906 0
M  V30 17358 O 1639.38 -3.78051 4.27122 0
M  V30 17359 O 1638.31 -2.32465 5.55197 0
M  V30 17360 H 1642.14 -0.183715 3.03144 0
M  V30 17361 H 1639.72 -0.0246933 1.4938 0
M  V30 17362 H 1641.6 -2.62188 3.29902 0
M  V30 17363 H 1640.28 -2.45003 2.11555 0
M  V30 17364 H 1639.18 -0.730492 3.66899 0
M  V30 17365 H 1640.52 -0.980402 4.82337 0
M  V30 17366 N 1642.17 -1.57451 -0.0684915 0
M  V30 17367 C 1643.08 -2.07274 -1.09885 0
M  V30 17368 C 1644.1 -1.00295 -1.42186 0
M  V30 17369 O 1645.27 -1.31786 -1.52297 0
M  V30 17370 C 1642.34 -2.50949 -2.39219 0
M  V30 17371 C 1641.4 -3.7224 -2.13859 0
M  V30 17372 C 1640.63 -4.13823 -3.37026 0
M  V30 17373 O 1640.85 -3.55248 -4.46268 0
M  V30 17374 O 1639.79 -5.06587 -3.25044 0
M  V30 17375 H 1643.61 -2.9539 -0.705587 0
M  V30 17376 H 1641.2 -1.46698 -0.282849 0
M  V30 17377 H 1643.08 -2.79547 -3.15327 0
M  V30 17378 H 1641.76 -1.6596 -2.77919 0
M  V30 17379 H 1640.66 -3.4872 -1.35445 0
M  V30 17380 H 1642 -4.58091 -1.80038 0
M  V30 17381 N 1643.65 0.339955 -1.5389 0
M  V30 17382 C 1644.9 1.07766 -1.7097 0
M  V30 17383 C 1645.22 1.89064 -0.477486 0
M  V30 17384 O 1644.49 1.89183 0.508579 0
M  V30 17385 H 1643.07 0.400849 -0.630341 0
M  V30 17386 H 1645.73 0.380359 -1.91153 0
M  V30 17387 H 1644.82 1.75301 -2.58217 0
M  V30 17388 N 1645.13 1.45684 0.601159 0
M  V30 17389 C 1646.06 1.57694 1.72206 0
M  V30 17390 C 1647.04 0.428141 1.64624 0
M  V30 17391 O 1648.22 0.65209 1.82925 0
M  V30 17392 C 1645.35 1.54941 3.10822 0
M  V30 17393 C 1644.31 2.68603 3.33222 0
M  V30 17394 C 1643.63 2.50906 4.72176 0
M  V30 17395 C 1644.93 4.10568 3.22849 0
M  V30 17396 H 1646.63 2.51521 1.62412 0
M  V30 17397 H 1644.17 1.2105 0.779929 0
M  V30 17398 H 1646.12 1.61939 3.89042 0
M  V30 17399 H 1644.85 0.576471 3.21472 0
M  V30 17400 H 1643.51 2.61043 2.57394 0
M  V30 17401 H 1643.16 1.51736 4.79568 0
M  V30 17402 H 1642.86 3.27131 4.88118 0
M  V30 17403 H 1644.38 2.59767 5.52588 0
M  V30 17404 H 1645.79 4.19336 3.90935 0
M  V30 17405 H 1644.19 4.87234 3.50318 0
M  V30 17406 H 1645.26 4.32022 2.20192 0
M  V30 17407 N 1646.6 -0.84422 1.33082 0
M  V30 17408 C 1647.85 -1.59912 1.24235 0
M  V30 17409 C 1648.18 -1.93538 -0.193223 0
M  V30 17410 O 1647.43 -1.58418 -1.14901 0
M  V30 17411 C 1647.73 -2.92225 2.05765 0
M  V30 17412 C 1647.4 -2.77985 3.55014 0
M  V30 17413 C 1646.06 -2.73809 3.95705 0
M  V30 17414 C 1648.41 -2.63171 4.49878 0
M  V30 17415 C 1645.74 -2.5271 5.29485 0
M  V30 17416 C 1648.09 -2.43607 5.83814 0
M  V30 17417 C 1646.76 -2.37829 6.23693 0
M  V30 17418 H 1646.03 -0.58516 0.454608 0
M  V30 17419 H 1648.67 -0.978493 1.64614 0
M  V30 17420 H 1646.98 -3.58465 1.58146 0
M  V30 17421 H 1648.68 -3.49678 1.96281 0
M  V30 17422 H 1645.27 -2.82065 3.22703 0
M  V30 17423 H 1649.45 -2.65435 4.19354 0
M  V30 17424 H 1644.71 -2.4668 5.59427 0
M  V30 17425 H 1648.88 -2.31126 6.56927 0
M  V30 17426 H 1646.51 -2.21241 7.27294 0
M  V30 17427 N 1648.08 -1.16463 -1.0618 0
M  V30 17428 C 1649.33 -0.948248 -1.79265 0
M  V30 17429 C 1649.66 0.522578 -1.87037 0
M  V30 17430 O 1648.94 1.38772 -1.36282 0
M  V30 17431 C 1649.22 -1.57781 -3.23693 0
M  V30 17432 C 1649.07 -3.12005 -3.23995 0
M  V30 17433 C 1650.39 -1.27343 -4.21274 0
M  V30 17434 H 1647.51 -0.345907 -0.650782 0
M  V30 17435 H 1650.15 -1.4381 -1.24172 0
M  V30 17436 H 1648.3 -1.16126 -3.70738 0
M  V30 17437 H 1649.97 -3.62649 -2.85102 0
M  V30 17438 H 1648.22 -3.45276 -2.62615 0
M  V30 17439 H 1648.89 -3.51176 -4.25886 0
M  V30 17440 H 1651.36 -1.63396 -3.82676 0
M  V30 17441 H 1650.24 -1.73993 -5.20594 0
M  V30 17442 H 1650.5 -0.192469 -4.41681 0
M  V30 17443 N 1649.56 1.24734 -0.963288 0
M  V30 17444 C 1650.81 1.91987 -0.618386 0
M  V30 17445 C 1651.12 1.76179 0.849726 0
M  V30 17446 O 1652.33 2.38082 1.30496 0
M  V30 17447 C 1650.78 3.44079 -1.05534 0
M  V30 17448 C 1650.39 3.68582 -2.5466 0
M  V30 17449 C 1652.14 4.17209 -0.783378 0
M  V30 17450 C 1650.04 5.14223 -2.92111 0
M  V30 17451 H 1648.97 0.718836 -0.227575 0
M  V30 17452 H 1651.62 1.41453 -1.1689 0
M  V30 17453 H 1650.01 3.93624 -0.433168 0
M  V30 17454 H 1651.18 3.29655 -3.2197 0
M  V30 17455 H 1649.49 3.08729 -2.79419 0
M  V30 17456 H 1652.09 5.24503 -1.03924 0
M  V30 17457 H 1652.43 4.15355 0.280352 0
M  V30 17458 H 1652.97 3.736 -1.36631 0
M  V30 17459 H 1649.71 5.21195 -3.97537 0
M  V30 17460 H 1649.23 5.54164 -2.29482 0
M  V30 17461 H 1650.91 5.82419 -2.81775 0
M  V30 17462 N 1651.04 0.732878 1.39523 0
M  V30 17463 C 1651.99 0.0676184 2.279 0
M  V30 17464 C 1652.97 -0.7148 1.44151 0
M  V30 17465 O 1654.16 -0.584158 1.67083 0
M  V30 17466 C 1651.29 -0.840482 3.32853 0
M  V30 17467 C 1650.38 -0.052326 4.24068 0
M  V30 17468 N 1650.77 0.973429 4.96345 0
M  V30 17469 C 1649.07 -0.282301 4.45106 0
M  V30 17470 C 1649.77 1.44851 5.63376 0
M  V30 17471 N 1648.74 0.767499 5.38155 0
M  V30 17472 H 1652.55 0.853533 2.81233 0
M  V30 17473 H 1650.06 0.567016 1.5218 0
M  V30 17474 H 1652.06 -1.33254 3.95031 0
M  V30 17475 H 1650.72 -1.62558 2.81078 0
M  V30 17476 H 1651.73 1.35474 4.99867 0
M  V30 17477 H 1648.41 -1.04237 4.04278 0
M  V30 17478 H 1649.8 2.30179 6.31242 0
M  V30 17479 N 1652.52 -1.50101 0.480349 0
M  V30 17480 C 1653.45 -2.31581 -0.298718 0
M  V30 17481 C 1654.43 -1.38905 -0.981798 0
M  V30 17482 O 1655.61 -1.67823 -0.977188 0
M  V30 17483 C 1652.74 -3.18891 -1.37571 0
M  V30 17484 C 1651.7 -4.20194 -0.813704 0
M  V30 17485 C 1651.02 -4.96302 -1.98968 0
M  V30 17486 C 1652.32 -5.21985 0.181295 0
M  V30 17487 H 1654.02 -2.96961 0.381349 0
M  V30 17488 H 1651.56 -1.42809 0.184842 0
M  V30 17489 H 1653.51 -3.74694 -1.92828 0
M  V30 17490 H 1652.24 -2.51414 -2.08467 0
M  V30 17491 H 1650.9 -3.65506 -0.283034 0
M  V30 17492 H 1650.55 -4.2529 -2.68584 0
M  V30 17493 H 1650.25 -5.64833 -1.61981 0
M  V30 17494 H 1651.77 -5.54943 -2.54698 0
M  V30 17495 H 1653.18 -5.72604 -0.28242 0
M  V30 17496 H 1651.58 -5.98289 0.465916 0
M  V30 17497 H 1652.65 -4.72162 1.10413 0
M  V30 17498 N 1653.99 -0.213323 -1.5615 0
M  V30 17499 C 1655.41 0.142215 -1.58965 0
M  V30 17500 C 1655.61 1.59606 -1.22996 0
M  V30 17501 O 1654.67 2.33485 -0.961308 0
M  V30 17502 C 1655.98 -0.176632 -3.00181 0
M  V30 17503 C 1657.53 -0.118205 -3.12777 0
M  V30 17504 C 1658 -0.410614 -4.56156 0
M  V30 17505 N 1659.49 -0.359887 -4.618 0
M  V30 17506 C 1660.23 -0.559744 -5.70661 0
M  V30 17507 N 1659.72 -0.820934 -6.87919 0
M  V30 17508 N 1661.52 -0.492746 -5.59936 0
M  V30 17509 H 1653.67 -1.16182 -1.77807 0
M  V30 17510 H 1655.93 -0.465086 -0.826075 0
M  V30 17511 H 1655.64 -1.18538 -3.31122 0
M  V30 17512 H 1655.51 0.512256 -3.73705 0
M  V30 17513 H 1657.9 0.88117 -2.81637 0
M  V30 17514 H 1657.98 -0.840446 -2.41599 0
M  V30 17515 H 1657.62 -1.40739 -4.88011 0
M  V30 17516 H 1657.55 0.332725 -5.25548 0
M  V30 17517 H 1660.04 -0.16537 -3.77538 0
M  V30 17518 H 1660.36 -0.961755 -7.66792 0
M  V30 17519 H 1658.7 -0.858036 -6.89683 0
M  V30 17520 H 1661.89 -0.288981 -4.67207 0
M  V30 17521 H 1662.07 -0.651912 -6.44712 0
M  V30 17522 N 1655.47 1.57485 0.0601405 0
M  V30 17523 C 1656.7 1.92438 0.773466 0
M  V30 17524 C 1657.12 0.810755 1.6973 0
M  V30 17525 O 1656.48 -0.235697 1.79761 0
M  V30 17526 C 1656.53 3.26381 1.53323 0
M  V30 17527 O 1655.63 3.16436 2.64465 0
M  V30 17528 H 1654.97 0.629838 0.210239 0
M  V30 17529 H 1657.5 2.04585 0.0248981 0
M  V30 17530 H 1657.51 3.60534 1.90996 0
M  V30 17531 H 1656.19 4.07007 0.855468 0
M  V30 17532 H 1654.77 2.93862 2.29564 0
M  V30 17533 N 1656.95 -0.331789 1.54068 0
M  V30 17534 C 1657.9 -1.42815 1.83593 0
M  V30 17535 C 1658.89 -1.53931 0.707231 0
M  V30 17536 O 1660.1 -1.56414 0.890763 0
M  V30 17537 H 1656.47 -0.476418 0.581833 0
M  V30 17538 H 1658.44 -1.15133 2.75294 0
M  V30 17539 C 1657.19 -2.79162 2.07277 0
M  V30 17540 H 1656.52 -2.7138 2.93586 0
M  V30 17541 H 1657.96 -3.54966 2.31895 0
M  V30 17542 C 1656.42 -3.25691 0.861816 0
M  V30 17543 O 1656.95 -4.01644 0.0670133 0
M  V30 17544 N 1655.15 -2.82634 0.675746 0
M  V30 17545 H 1654.7 -2.20988 1.32371 0
M  V30 17546 H 1654.66 -3.14119 -0.133004 0
M  V30 17547 N 1658.43 -1.46001 -0.593424 0
M  V30 17548 C 1659.71 -1.4123 -1.35327 0
M  V30 17549 C 1660.09 -0.0901956 -2.10907 0
M  V30 17550 O 1659.43 0.928102 -2.08803 0
M  V30 17551 C 1659.64 -2.63515 -2.28825 0
M  V30 17552 C 1660.99 -3.09208 -2.90991 0
M  V30 17553 O 1662.02 -2.63988 -2.39142 0
M  V30 17554 O 1660.87 -3.87723 -3.8514 0
M  V30 17555 H 1657.97 -0.561132 -0.607503 0
M  V30 17556 H 1660.51 -1.58151 -0.615333 0
M  V30 17557 H 1659.29 -3.51308 -1.72333 0
M  V30 17558 H 1658.91 -2.48999 -3.09976 0
M  V30 17559 N 1659.91 0.83715 -1.33527 0
M  V30 17560 C 1661.16 1.58747 -1.24428 0
M  V30 17561 C 1661.47 1.94696 0.187885 0
M  V30 17562 O 1662.67 2.68524 0.400903 0
M  V30 17563 C 1661.13 2.86337 -2.18035 0
M  V30 17564 C 1660.74 2.57745 -3.66431 0
M  V30 17565 C 1662.48 3.6436 -2.17812 0
M  V30 17566 C 1660.39 3.81443 -4.51946 0
M  V30 17567 H 1659.32 0.595749 -0.462168 0
M  V30 17568 H 1661.97 0.922901 -1.58603 0
M  V30 17569 H 1660.35 3.54344 -1.76795 0
M  V30 17570 H 1661.53 1.97939 -4.16121 0
M  V30 17571 H 1659.84 1.93023 -3.68959 0
M  V30 17572 H 1662.44 4.56181 -2.78932 0
M  V30 17573 H 1662.78 3.99414 -1.17364 0
M  V30 17574 H 1663.31 3.03279 -2.57423 0
M  V30 17575 H 1660.05 3.51519 -5.53276 0
M  V30 17576 H 1659.57 4.40582 -4.06998 0
M  V30 17577 H 1661.25 4.49004 -4.65837 0
M  V30 17578 N 1661.38 1.17024 1.05561 0
M  V30 17579 C 1662.63 0.956325 1.78496 0
M  V30 17580 C 1662.96 -0.51532 1.87549 0
M  V30 17581 O 1662.21 -1.3986 1.36885 0
M  V30 17582 C 1662.51 1.53798 3.22616 0
M  V30 17583 C 1662.18 3.03321 3.33628 0
M  V30 17584 C 1660.84 3.44135 3.3634 0
M  V30 17585 C 1663.19 3.99325 3.34946 0
M  V30 17586 C 1660.52 4.79558 3.37995 0
M  V30 17587 C 1662.87 5.34644 3.3814 0
M  V30 17588 C 1661.54 5.74928 3.39138 0
M  V30 17589 H 1660.81 0.349944 0.653162 0
M  V30 17590 H 1663.45 1.45856 1.2409 0
M  V30 17591 H 1661.76 0.957374 3.79923 0
M  V30 17592 H 1663.46 1.34806 3.77662 0
M  V30 17593 H 1660.05 2.70782 3.32227 0
M  V30 17594 H 1664.23 3.68854 3.32055 0
M  V30 17595 H 1659.49 5.10088 3.37076 0
M  V30 17596 H 1663.66 6.08815 3.38108 0
M  V30 17597 H 1661.29 6.79843 3.40173 0
M  V30 17598 N 1662.86 -1.24221 0.969889 0
M  V30 17599 C 1663.79 -2.24544 0.459636 0
M  V30 17600 C 1664.81 -1.56941 -0.432813 0
M  V30 17601 O 1666 -1.76898 -0.238637 0
M  V30 17602 C 1663.1 -3.3703 -0.3555 0
M  V30 17603 C 1662.27 -4.34207 0.527566 0
M  V30 17604 C 1661.33 -5.25689 -0.231934 0
M  V30 17605 O 1660.35 -5.67964 0.37488 0
M  V30 17606 N 1661.56 -5.60222 -1.5209 0
M  V30 17607 H 1664.32 -2.68957 1.3222 0
M  V30 17608 H 1661.88 -1.38285 0.84196 0
M  V30 17609 H 1663.87 -3.95201 -0.871685 0
M  V30 17610 H 1662.44 -2.91885 -1.11901 0
M  V30 17611 H 1661.66 -3.74693 1.2247 0
M  V30 17612 H 1662.95 -4.96099 1.12975 0
M  V30 17613 H 1662.35 -5.27807 -2.03559 0
M  V30 17614 H 1660.91 -6.20911 -1.98273 0
M  V30 17615 N 1664.34 -0.740267 -1.39132 0
M  V30 17616 C 1665.59 -0.290953 -2.00702 0
M  V30 17617 C 1665.92 1.12051 -1.58613 0
M  V30 17618 O 1665.19 1.76488 -0.817457 0
M  V30 17619 C 1665.48 -0.398765 -3.57885 0
M  V30 17620 C 1665.33 -1.85038 -4.09977 0
M  V30 17621 C 1666.65 0.215717 -4.39571 0
M  V30 17622 H 1663.77 -0.107194 -0.729163 0
M  V30 17623 H 1666.41 -0.937411 -1.65265 0
M  V30 17624 H 1664.56 0.151613 -3.88204 0
M  V30 17625 H 1666.23 -2.45804 -3.90357 0
M  V30 17626 H 1664.48 -2.36994 -3.63341 0
M  V30 17627 H 1665.15 -1.87705 -5.19106 0
M  V30 17628 H 1667.62 -0.253518 -4.15327 0
M  V30 17629 H 1666.5 0.109966 -5.4879 0
M  V30 17630 H 1666.76 1.30242 -4.2248 0
M  V30 17631 N 1665.82 1.49844 -0.488302 0
M  V30 17632 C 1667.07 2.02009 0.0605782 0
M  V30 17633 C 1667.39 1.37114 1.38653 0
M  V30 17634 O 1666.66 0.522182 1.88812 0
M  V30 17635 H 1665.24 0.746569 0.0253773 0
M  V30 17636 H 1667.9 1.84 -0.64265 0
M  V30 17637 H 1667 3.11461 0.199542 0
M  V30 17638 N 1667.3 0.221601 1.56034 0
M  V30 17639 C 1668.21 -0.699837 2.23918 0
M  V30 17640 C 1669.22 -1.21367 1.24683 0
M  V30 17641 O 1670.4 -1.25527 1.57495 0
M  V30 17642 C 1667.46 -1.89107 2.90585 0
M  V30 17643 C 1666.52 -1.4192 4.05163 0
M  V30 17644 C 1665.76 -2.55365 4.68641 0
M  V30 17645 O 1665.98 -3.735 4.31108 0
M  V30 17646 O 1664.91 -2.26564 5.57631 0
M  V30 17647 H 1668.74 -0.151552 3.03322 0
M  V30 17648 H 1666.33 -0.0088482 1.49397 0
M  V30 17649 H 1668.21 -2.58674 3.32664 0
M  V30 17650 H 1666.88 -2.42745 2.14141 0
M  V30 17651 H 1665.79 -0.691536 3.67653 0
M  V30 17652 H 1667.12 -0.929189 4.8335 0
M  V30 17653 N 1668.77 -1.57515 -0.0517878 0
M  V30 17654 C 1670.01 -1.90056 -0.752209 0
M  V30 17655 C 1670.38 -0.817682 -1.73718 0
M  V30 17656 O 1671.58 -1.02674 -2.48418 0
M  V30 17657 C 1669.85 -3.27798 -1.42419 0
M  V30 17658 S 1671.41 -3.82129 -2.15691 0
M  V30 17659 H 1668.23 -0.665706 -0.249712 0
M  V30 17660 H 1670.83 -1.95499 -0.0075584 0
M  V30 17661 H 1669.53 -4.04493 -0.693783 0
M  V30 17662 H 1669.06 -3.25602 -2.20786 0
M  V30 17663 H 1671.08 -3.59025 -3.42513 0
M  V30 17664 N 1670.25 0.323614 -1.54242 0
M  V30 17665 C 1671.67 0.66795 -1.4495 0
M  V30 17666 C 1671.87 1.91649 -0.622338 0
M  V30 17667 O 1670.93 2.52209 -0.121119 0
M  V30 17668 C 1672.24 0.842006 -2.88671 0
M  V30 17669 C 1673.79 0.93935 -2.98572 0
M  V30 17670 C 1674.26 1.14557 -4.43442 0
M  V30 17671 N 1675.75 1.21231 -4.47054 0
M  V30 17672 C 1676.49 1.38976 -5.56303 0
M  V30 17673 N 1675.98 1.53764 -6.75521 0
M  V30 17674 N 1677.78 1.41684 -5.4395 0
M  V30 17675 H 1669.93 -0.497017 -2.06503 0
M  V30 17676 H 1672.19 -0.160563 -0.934304 0
M  V30 17677 H 1671.9 -0.00418568 -3.517 0
M  V30 17678 H 1671.77 1.73785 -3.34782 0
M  V30 17679 H 1674.16 1.77605 -2.35671 0
M  V30 17680 H 1674.24 0.0199775 -2.55792 0
M  V30 17681 H 1673.88 0.313732 -5.0693 0
M  V30 17682 H 1673.81 2.07882 -4.83831 0
M  V30 17683 H 1676.3 1.11247 -3.61154 0
M  V30 17684 H 1676.62 1.66996 -7.54541 0
M  V30 17685 H 1674.96 1.50862 -6.78429 0
M  V30 17686 H 1678.15 1.29726 -4.49765 0
M  V30 17687 H 1678.33 1.5517 -6.29147 0
M  V30 17688 N 1671.73 1.46313 0.585673 0
M  V30 17689 C 1673.15 1.31203 0.908733 0
M  V30 17690 C 1673.35 0.281265 1.99527 0
M  V30 17691 O 1672.4 -0.317202 2.505 0
M  V30 17692 C 1673.72 2.69742 1.3289 0
M  V30 17693 C 1675.26 2.77809 1.44191 0
M  V30 17694 C 1675.74 4.16924 1.89574 0
M  V30 17695 N 1677.23 4.19327 1.96773 0
M  V30 17696 C 1677.97 5.23856 2.33157 0
M  V30 17697 N 1677.46 6.38716 2.68355 0
M  V30 17698 N 1679.25 5.11221 2.33686 0
M  V30 17699 H 1671.41 2.11989 -0.132126 0
M  V30 17700 H 1673.67 0.947993 0.00355835 0
M  V30 17701 H 1673.37 3.46465 0.604557 0
M  V30 17702 H 1673.25 2.99653 2.29102 0
M  V30 17703 H 1675.64 2.01377 2.15712 0
M  V30 17704 H 1675.72 2.51587 0.46237 0
M  V30 17705 H 1675.36 4.93851 1.18633 0
M  V30 17706 H 1675.29 4.40552 2.88481 0
M  V30 17707 H 1677.78 3.36451 1.72073 0
M  V30 17708 H 1678.09 7.14253 2.95063 0
M  V30 17709 H 1676.44 6.42082 2.66 0
M  V30 17710 H 1679.63 4.20527 2.05609 0
M  V30 17711 H 1679.8 5.92798 2.61714 0
M  V30 17712 N 1673.21 -0.830057 1.33969 0
M  V30 17713 C 1674.46 -1.58821 1.26111 0
M  V30 17714 C 1674.79 -1.9345 -0.170484 0
M  V30 17715 O 1674.06 -1.59433 -1.11407 0
M  V30 17716 C 1674.35 -2.89243 2.14501 0
M  V30 17717 C 1674.2 -2.61239 3.66162 0
M  V30 17718 C 1675.52 -3.90752 2.02487 0
M  V30 17719 H 1672.64 -0.576255 0.459455 0
M  V30 17720 H 1675.28 -0.956736 1.64154 0
M  V30 17721 H 1673.43 -3.43133 1.82186 0
M  V30 17722 H 1675.1 -2.13713 4.08809 0
M  V30 17723 H 1673.34 -1.94796 3.87604 0
M  V30 17724 H 1674.02 -3.54212 4.23365 0
M  V30 17725 H 1676.49 -3.46194 2.30844 0
M  V30 17726 H 1675.37 -4.79825 2.6657 0
M  V30 17727 H 1675.63 -4.30649 0.999704 0
M  V30 17728 N 1674.69 -1.17582 -1.04939 0
M  V30 17729 C 1675.62 -0.852608 -2.12752 0
M  V30 17730 C 1676.63 0.14607 -1.62143 0
M  V30 17731 O 1677.82 -0.0805751 -1.78318 0
M  V30 17732 C 1674.92 -0.251083 -3.37969 0
M  V30 17733 C 1674.09 -1.29325 -4.17844 0
M  V30 17734 C 1673.15 -0.709025 -5.21401 0
M  V30 17735 O 1672.18 -1.38149 -5.52181 0
M  V30 17736 N 1673.38 0.497716 -5.78362 0
M  V30 17737 H 1676.15 -1.78054 -2.41074 0
M  V30 17738 H 1673.71 -1.07502 -1.21058 0
M  V30 17739 H 1675.7 0.15312 -4.0441 0
M  V30 17740 H 1674.27 0.580684 -3.07159 0
M  V30 17741 H 1673.49 -1.87311 -3.46855 0
M  V30 17742 H 1674.78 -1.99614 -4.68008 0
M  V30 17743 H 1674.18 1.06196 -5.55643 0
M  V30 17744 H 1672.73 0.843951 -6.46313 0
M  V30 17745 N 1676.17 1.23705 -0.976463 0
M  V30 17746 C 1677.1 2.24297 -0.471538 0
M  V30 17747 C 1678.11 1.57169 0.424484 0
M  V30 17748 O 1679.3 1.77022 0.229252 0
M  V30 17749 C 1676.4 3.37214 0.337621 0
M  V30 17750 C 1675.57 4.33921 -0.550586 0
M  V30 17751 C 1674.63 5.25804 0.204053 0
M  V30 17752 O 1673.66 5.67757 -0.404995 0
M  V30 17753 N 1674.86 5.61021 1.49116 0
M  V30 17754 H 1677.62 2.68252 -1.33645 0
M  V30 17755 H 1675.19 1.37836 -0.849281 0
M  V30 17756 H 1677.18 3.95658 0.850714 0
M  V30 17757 H 1675.75 2.92474 1.10351 0
M  V30 17758 H 1674.97 3.74038 -1.24455 0
M  V30 17759 H 1676.26 4.95493 -1.15604 0
M  V30 17760 H 1675.65 5.28879 2.00757 0
M  V30 17761 H 1674.21 6.21954 1.94978 0
M  V30 17762 N 1677.64 0.747635 1.38738 0
M  V30 17763 C 1678.57 0.131317 2.3313 0
M  V30 17764 C 1679.55 -0.710229 1.54563 0
M  V30 17765 O 1680.74 -0.652631 1.82905 0
M  V30 17766 C 1677.87 -0.767168 3.38721 0
M  V30 17767 C 1676.82 -0.0288124 4.2799 0
M  V30 17768 C 1676.15 -1.04515 5.24386 0
M  V30 17769 C 1677.45 1.13608 5.09795 0
M  V30 17770 H 1679.14 0.91981 2.84921 0
M  V30 17771 H 1676.69 0.443764 1.36992 0
M  V30 17772 H 1678.64 -1.20796 4.03716 0
M  V30 17773 H 1677.37 -1.58792 2.85399 0
M  V30 17774 H 1676.03 0.392491 3.64493 0
M  V30 17775 H 1675.67 -1.8598 4.67355 0
M  V30 17776 H 1675.37 -0.555813 5.84965 0
M  V30 17777 H 1676.9 -1.48538 5.92257 0
M  V30 17778 H 1678.31 0.773129 5.68063 0
M  V30 17779 H 1676.71 1.55589 5.79579 0
M  V30 17780 H 1677.78 1.95182 4.43883 0
M  V30 17781 N 1679.12 -1.49583 0.496242 0
M  V30 17782 C 1680.35 -2.06847 -0.0469118 0
M  V30 17783 C 1680.76 -1.35715 -1.31251 0
M  V30 17784 O 1680.12 -0.434021 -1.77264 0
M  V30 17785 C 1680.17 -3.60174 -0.309338 0
M  V30 17786 O 1679.89 -4.28628 0.906082 0
M  V30 17787 C 1681.39 -4.34137 -0.896664 0
M  V30 17788 H 1678.61 -0.67075 0.0183324 0
M  V30 17789 H 1681.16 -1.92427 0.692237 0
M  V30 17790 H 1679.31 -3.74312 -0.998459 0
M  V30 17791 H 1679.73 -5.20254 0.666014 0
M  V30 17792 H 1681.2 -5.42307 -1.0299 0
M  V30 17793 H 1681.68 -3.96299 -1.89325 0
M  V30 17794 H 1682.28 -4.24593 -0.245158 0
M  V30 17795 N 1680.6 -0.229873 -1.55915 0
M  V30 17796 C 1681.53 0.671321 -2.23642 0
M  V30 17797 C 1682.51 1.19461 -1.21091 0
M  V30 17798 O 1683.7 1.23708 -1.49699 0
M  V30 17799 C 1680.83 1.87595 -2.92276 0
M  V30 17800 C 1679.78 1.48616 -4.01369 0
M  V30 17801 C 1679.11 2.77024 -4.57342 0
M  V30 17802 C 1680.41 0.669928 -5.17986 0
M  V30 17803 H 1682.1 0.106622 -2.9921 0
M  V30 17804 H 1679.65 0.0498418 -1.43914 0
M  V30 17805 H 1681.6 2.51191 -3.3835 0
M  V30 17806 H 1680.32 2.46576 -2.14168 0
M  V30 17807 H 1678.98 0.873623 -3.56038 0
M  V30 17808 H 1678.63 3.34166 -3.75955 0
M  V30 17809 H 1678.33 2.51674 -5.30975 0
M  V30 17810 H 1679.85 3.41548 -5.0614 0
M  V30 17811 H 1681.27 1.20978 -5.6039 0
M  V30 17812 H 1679.66 0.513174 -5.97902 0
M  V30 17813 H 1680.73 -0.321644 -4.83832 0
M  V30 17814 N 1682.08 1.5754 0.0434337 0
M  V30 17815 C 1683.3 1.93247 0.753012 0
M  V30 17816 C 1683.73 0.828712 1.68861 0
M  V30 17817 O 1683.09 -0.216618 1.80001 0
M  V30 17818 C 1683.13 3.27989 1.49852 0
M  V30 17819 O 1682.24 3.19223 2.61094 0
M  V30 17820 H 1681.58 0.632032 0.203547 0
M  V30 17821 H 1684.11 2.046 0.00319776 0
M  V30 17822 H 1684.12 3.62539 1.87161 0
M  V30 17823 H 1682.79 4.07891 0.812251 0
M  V30 17824 H 1681.37 2.9628 2.26434 0
M  V30 17825 N 1683.56 -0.31543 1.54411 0
M  V30 17826 C 1684.97 -0.889358 1.64156 0
M  V30 17827 C 1685.32 -1.88598 0.54087 0
M  V30 17828 O 1684.44 -2.13947 -0.324904 0
M  V30 17829 C 1685.04 -1.61985 2.97567 0
M  V30 17830 C 1683.6 -2.14239 3.09481 0
M  V30 17831 C 1682.74 -0.970382 2.59767 0
M  V30 17832 H 1685.69 -0.092797 1.58428 0
M  V30 17833 H 1685.72 -2.48457 2.88183 0
M  V30 17834 H 1685.23 -0.89425 3.77657 0
M  V30 17835 H 1683.33 -2.8989 2.34082 0
M  V30 17836 H 1683.44 -2.38681 4.15413 0
M  V30 17837 H 1681.81 -1.35187 2.15863 0
M  V30 17838 H 1682.59 -0.258968 3.42322 0
M  V30 17839 N 1685.03 -1.46622 -0.577906 0
M  V30 17840 C 1686.26 -1.56 -1.36671 0
M  V30 17841 C 1686.68 -0.2034 -1.86997 0
M  V30 17842 O 1686.04 0.817288 -1.61834 0
M  V30 17843 C 1686.09 -2.57254 -2.52691 0
M  V30 17844 O 1685.19 -2.1109 -3.54281 0
M  V30 17845 H 1684.54 -0.524779 -0.406821 0
M  V30 17846 H 1687.07 -1.92234 -0.700512 0
M  V30 17847 H 1687.08 -2.77016 -2.99543 0
M  V30 17848 H 1685.75 -3.55766 -2.15415 0
M  V30 17849 H 1684.33 -2.01337 -3.13875 0
M  V30 17850 N 1686.51 0.822941 -1.34408 0
M  V30 17851 C 1687.48 1.91541 -1.25876 0
M  V30 17852 C 1688.48 1.59856 -0.17397 0
M  V30 17853 O 1689.67 1.68896 -0.426592 0
M  V30 17854 C 1686.8 3.27586 -0.943415 0
M  V30 17855 H 1687.99 2.00529 -2.22998 0
M  V30 17856 H 1685.54 1.01691 -1.18695 0
M  V30 17857 H 1686.28 3.24291 0.0246389 0
M  V30 17858 H 1686.06 3.51966 -1.72807 0
M  V30 17859 H 1687.55 4.07589 -0.908891 0
M  V30 17860 N 1687.99 1.18137 1.04314 0
M  V30 17861 C 1689.24 0.973277 1.77121 0
M  V30 17862 C 1689.56 -0.498558 1.88519 0
M  V30 17863 O 1688.83 -1.36168 1.40837 0
M  V30 17864 H 1687.41 0.35712 0.656105 0
M  V30 17865 H 1690.07 1.48774 1.25906 0
M  V30 17866 H 1689.17 1.40917 2.78476 0
M  V30 17867 N 1689.47 -1.23186 0.98301 0
M  V30 17868 C 1690.4 -2.27054 0.544858 0
M  V30 17869 C 1691.38 -1.64749 -0.423281 0
M  V30 17870 O 1692.56 -1.91611 -0.316075 0
M  V30 17871 C 1689.69 -3.46972 -0.150976 0
M  V30 17872 C 1688.65 -4.21647 0.734707 0
M  V30 17873 C 1687.97 -5.34618 -0.0934874 0
M  V30 17874 C 1689.27 -4.81372 2.02679 0
M  V30 17875 H 1690.97 -2.63957 1.41305 0
M  V30 17876 H 1688.51 -1.26885 0.680895 0
M  V30 17877 H 1690.47 -4.18784 -0.468825 0
M  V30 17878 H 1689.19 -3.09137 -1.05364 0
M  V30 17879 H 1687.85 -3.51655 1.03605 0
M  V30 17880 H 1687.5 -4.93025 -0.996768 0
M  V30 17881 H 1687.2 -5.85503 0.496019 0
M  V30 17882 H 1688.72 -6.09251 -0.405658 0
M  V30 17883 H 1690.14 -5.45178 1.77353 0
M  V30 17884 H 1688.53 -5.42554 2.56429 0
M  V30 17885 H 1689.6 -4.01972 2.71194 0
M  V30 17886 N 1690.95 -0.754982 -1.38339 0
M  V30 17887 C 1691.88 -0.143678 -2.33058 0
M  V30 17888 C 1692.86 0.702022 -1.54938 0
M  V30 17889 O 1694.04 0.642922 -1.83249 0
M  V30 17890 C 1691.17 0.749194 -3.39123 0
M  V30 17891 C 1690.13 0.00611459 -4.28 0
M  V30 17892 C 1689.45 1.01733 -5.24933 0
M  V30 17893 C 1690.75 -1.1631 -5.09185 0
M  V30 17894 H 1692.45 -0.934907 -2.84429 0
M  V30 17895 H 1689.99 -0.451023 -1.36754 0
M  V30 17896 H 1691.95 1.18653 -4.04351 0
M  V30 17897 H 1690.67 1.57276 -2.86237 0
M  V30 17898 H 1689.33 -0.411816 -3.6428 0
M  V30 17899 H 1688.98 1.83499 -4.68334 0
M  V30 17900 H 1688.68 0.524783 -5.85252 0
M  V30 17901 H 1690.2 1.45395 -5.93037 0
M  V30 17902 H 1691.61 -0.803244 -5.67645 0
M  V30 17903 H 1690.01 -1.5866 -5.78746 0
M  V30 17904 H 1691.08 -1.97533 -4.42842 0
M  V30 17905 N 1692.42 1.49318 -0.504168 0
M  V30 17906 C 1693.67 2.02762 0.0392846 0
M  V30 17907 C 1694 1.38282 1.36352 0
M  V30 17908 O 1693.28 0.519587 1.87431 0
M  V30 17909 C 1693.56 3.59606 0.188507 0
M  V30 17910 C 1693.41 4.3461 -1.15908 0
M  V30 17911 C 1694.73 4.30213 0.927641 0
M  V30 17912 H 1691.85 0.736889 0.0128028 0
M  V30 17913 H 1694.49 1.78309 -0.656193 0
M  V30 17914 H 1692.64 3.80572 0.780861 0
M  V30 17915 H 1694.32 4.25132 -1.79055 0
M  V30 17916 H 1692.56 3.97043 -1.74756 0
M  V30 17917 H 1693.23 5.4272 -1.00794 0
M  V30 17918 H 1695.71 4.13922 0.425228 0
M  V30 17919 H 1694.58 5.39697 1.0009 0
M  V30 17920 H 1694.84 3.95678 1.97209 0
M  V30 17921 N 1693.9 0.238138 1.5579 0
M  V30 17922 C 1695.15 -0.389608 1.99022 0
M  V30 17923 C 1695.48 -1.58226 1.12597 0
M  V30 17924 O 1694.76 -1.93595 0.187363 0
M  V30 17925 C 1695.04 -0.808025 3.50917 0
M  V30 17926 C 1694.89 0.389417 4.48111 0
M  V30 17927 C 1696.21 -1.6582 4.07666 0
M  V30 17928 H 1693.33 -0.140141 0.723553 0
M  V30 17929 H 1695.97 0.337696 1.86975 0
M  V30 17930 H 1694.12 -1.42772 3.61315 0
M  V30 17931 H 1695.79 1.02777 4.49705 0
M  V30 17932 H 1694.04 1.03404 4.21296 0
M  V30 17933 H 1694.71 0.0534549 5.51974 0
M  V30 17934 H 1697.18 -1.13518 4.00316 0
M  V30 17935 H 1696.06 -1.91984 5.14231 0
M  V30 17936 H 1696.32 -2.62712 3.55577 0
M  V30 17937 N 1695.38 -1.57561 -0.0350783 0
M  V30 17938 C 1696.31 -2.09201 -1.03716 0
M  V30 17939 C 1697.29 -0.993231 -1.3809 0
M  V30 17940 O 1698.48 -1.26812 -1.47079 0
M  V30 17941 C 1695.61 -2.56643 -2.3399 0
M  V30 17942 C 1694.56 -3.70731 -2.13874 0
M  V30 17943 C 1693.89 -4.04358 -3.49855 0
M  V30 17944 C 1695.19 -4.99393 -1.52982 0
M  V30 17945 H 1696.88 -2.93176 -0.60731 0
M  V30 17946 H 1694.43 -1.41036 -0.290683 0
M  V30 17947 H 1696.38 -2.9139 -3.04417 0
M  V30 17948 H 1695.1 -1.69744 -2.79024 0
M  V30 17949 H 1693.76 -3.36325 -1.45881 0
M  V30 17950 H 1693.41 -3.14534 -3.92527 0
M  V30 17951 H 1693.11 -4.81201 -3.37223 0
M  V30 17952 H 1694.63 -4.41633 -4.21654 0
M  V30 17953 H 1696.05 -5.32135 -2.13319 0
M  V30 17954 H 1694.45 -5.80807 -1.50943 0
M  V30 17955 H 1695.52 -4.82367 -0.494993 0
M  V30 17956 N 1696.86 0.307236 -1.54576 0
M  V30 17957 C 1698.1 1.05125 -1.75294 0
M  V30 17958 C 1698.46 1.84702 -0.524313 0
M  V30 17959 O 1699.66 2.61807 -0.609121 0
M  V30 17960 C 1697.93 1.93827 -3.00276 0
M  V30 17961 S 1699.49 2.74959 -3.41969 0
M  V30 17962 H 1696.31 0.35464 -0.61624 0
M  V30 17963 H 1698.91 0.325362 -1.92774 0
M  V30 17964 H 1697.62 1.3423 -3.87828 0
M  V30 17965 H 1697.15 2.70794 -2.85366 0
M  V30 17966 H 1699.16 3.96336 -2.9855 0
M  V30 17967 N 1698.34 1.46926 0.570122 0
M  V30 17968 C 1699.58 1.52585 1.32523 0
M  V30 17969 C 1699.91 0.184291 1.94127 0
M  V30 17970 O 1699.18 -0.790478 1.79244 0
M  V30 17971 H 1697.76 0.562019 0.492081 0
M  V30 17972 H 1700.42 1.83141 0.666746 0
M  V30 17973 H 1699.51 2.28541 2.12545 0
M  V30 17974 N 1699.82 -0.815801 1.34842 0
M  V30 17975 C 1701.23 -1.10999 1.1468 0
M  V30 17976 C 1701.43 -2.01445 -0.0469339 0
M  V30 17977 O 1700.49 -2.42007 -0.720322 0
M  V30 17978 C 1701.8 -1.74984 2.44543 0
M  V30 17979 C 1703.35 -1.87447 2.50665 0
M  V30 17980 C 1703.82 -2.54848 3.80548 0
M  V30 17981 N 1705.31 -2.62341 3.81748 0
M  V30 17982 C 1706.05 -3.15239 4.7897 0
M  V30 17983 N 1705.55 -3.68646 5.86577 0
M  V30 17984 N 1707.34 -3.13706 4.66417 0
M  V30 17985 H 1699.49 -0.214351 2.11316 0
M  V30 17986 H 1701.75 -0.157666 0.934797 0
M  V30 17987 H 1701.46 -1.1599 3.32023 0
M  V30 17988 H 1701.33 -2.7478 2.5841 0
M  V30 17989 H 1703.72 -2.45587 1.63619 0
M  V30 17990 H 1703.8 -0.865325 2.40719 0
M  V30 17991 H 1703.44 -1.9736 4.67987 0
M  V30 17992 H 1703.37 -3.5628 3.87778 0
M  V30 17993 H 1705.87 -2.24493 3.03992 0
M  V30 17994 H 1706.18 -4.07281 6.56766 0
M  V30 17995 H 1704.52 -3.6687 5.90281 0
M  V30 17996 H 1707.71 -2.71255 3.81495 0
M  V30 17997 H 1707.89 -3.54626 5.4235 0
M  V30 17998 N 1701.29 -1.18689 -1.03686 0
M  V30 17999 C 1702.54 -0.982656 -1.76602 0
M  V30 18000 C 1702.86 0.488553 -1.88781 0
M  V30 18001 O 1702.13 1.35419 -1.41558 0
M  V30 18002 H 1700.71 -0.360595 -0.654202 0
M  V30 18003 H 1703.37 -1.49439 -1.25115 0
M  V30 18004 H 1702.47 -1.42392 -2.77725 0
M  V30 18005 N 1702.77 1.22662 -0.989529 0
M  V30 18006 C 1704.18 1.73116 -0.699124 0
M  V30 18007 C 1704.53 1.79847 0.784197 0
M  V30 18008 O 1703.66 1.44248 1.61311 0
M  V30 18009 C 1704.25 3.14403 -1.2624 0
M  V30 18010 C 1702.81 3.62275 -1.02144 0
M  V30 18011 C 1701.96 2.40257 -1.38463 0
M  V30 18012 H 1704.91 1.08057 -1.1623 0
M  V30 18013 H 1704.93 3.75091 -0.639307 0
M  V30 18014 H 1704.44 3.09472 -2.34198 0
M  V30 18015 H 1702.54 3.72577 0.0416622 0
M  V30 18016 H 1702.66 4.48587 -1.68245 0
M  V30 18017 H 1701.02 2.41705 -0.803179 0
M  V30 18018 H 1701.8 2.3799 -2.47418 0
M  V30 18019 N 1704.25 0.762308 1.37937 0
M  V30 18020 C 1705.47 0.332217 2.04722 0
M  V30 18021 C 1705.9 -1.03417 1.57119 0
M  V30 18022 O 1705.26 -1.6608 0.727117 0
M  V30 18023 C 1705.31 0.373899 3.58656 0
M  V30 18024 O 1704.41 -0.629024 4.07575 0
M  V30 18025 H 1703.75 0.145471 0.647869 0
M  V30 18026 H 1706.28 1.03586 1.7644 0
M  V30 18027 H 1706.29 0.22785 4.07363 0
M  V30 18028 H 1704.97 1.37079 3.92661 0
M  V30 18029 H 1703.54 -0.446871 3.70213 0
M  V30 18030 N 1705.73 -1.49049 0.51208 0
M  V30 18031 C 1706.97 -2.0278 -0.0285311 0
M  V30 18032 C 1707.31 -1.39003 -1.35617 0
M  V30 18033 O 1706.58 -0.52952 -1.87153 0
M  V30 18034 C 1706.86 -3.59701 -0.169433 0
M  V30 18035 C 1706.72 -4.33989 1.18211 0
M  V30 18036 C 1708.04 -4.30698 -0.904812 0
M  V30 18037 H 1705.16 -0.736946 -0.00889467 0
M  V30 18038 H 1707.8 -1.77959 0.66564 0
M  V30 18039 H 1705.95 -3.8098 -0.760667 0
M  V30 18040 H 1707.62 -4.24176 1.81307 0
M  V30 18041 H 1705.86 -3.9611 1.76859 0
M  V30 18042 H 1706.53 -5.42177 1.03671 0
M  V30 18043 H 1709.01 -4.14141 -0.40327 0
M  V30 18044 H 1707.89 -5.40221 -0.972264 0
M  V30 18045 H 1708.15 -3.96718 -1.95108 0
M  V30 18046 N 1707.21 -0.246397 -1.55662 0
M  V30 18047 C 1708.62 0.108465 -1.59231 0
M  V30 18048 C 1708.82 1.56961 -1.26354 0
M  V30 18049 O 1707.88 2.31393 -1.01062 0
M  V30 18050 C 1709.19 -0.240265 -2.99739 0
M  V30 18051 C 1710.74 -0.184523 -3.12456 0
M  V30 18052 C 1711.21 -0.507279 -4.55182 0
M  V30 18053 N 1712.7 -0.457761 -4.60933 0
M  V30 18054 C 1713.44 -0.680664 -5.69346 0
M  V30 18055 N 1712.94 -0.966667 -6.86023 0
M  V30 18056 N 1714.73 -0.611405 -5.58765 0
M  V30 18057 H 1706.88 -1.19928 -1.75303 0
M  V30 18058 H 1709.14 -0.482503 -0.816024 0
M  V30 18059 H 1708.85 -1.25535 -3.28533 0
M  V30 18060 H 1708.72 0.432872 -3.74708 0
M  V30 18061 H 1711.11 0.821232 -2.83443 0
M  V30 18062 H 1711.19 -0.891504 -2.39762 0
M  V30 18063 H 1710.83 -1.51059 -4.84916 0
M  V30 18064 H 1710.76 0.221174 -5.26135 0
M  V30 18065 H 1713.26 -0.245414 -3.77102 0
M  V30 18066 H 1713.57 -1.12419 -7.6458 0
M  V30 18067 H 1711.91 -1.00413 -6.87708 0
M  V30 18068 H 1715.1 -0.388018 -4.66489 0
M  V30 18069 H 1715.28 -0.788519 -6.43185 0
M  V30 18070 N 1708.68 1.57577 0.026722 0
M  V30 18071 C 1709.61 2.09748 1.02605 0
M  V30 18072 C 1710.59 1.00054 1.37562 0
M  V30 18073 O 1711.78 1.2759 1.46405 0
M  V30 18074 C 1708.91 2.57881 2.32626 0
M  V30 18075 C 1707.86 3.7186 2.11905 0
M  V30 18076 C 1707.19 4.06208 3.47706 0
M  V30 18077 C 1708.49 5.00198 1.50332 0
M  V30 18078 H 1710.18 2.93494 0.591753 0
M  V30 18079 H 1707.73 1.41188 0.283199 0
M  V30 18080 H 1709.68 2.93 3.02868 0
M  V30 18081 H 1708.41 1.71222 2.7812 0
M  V30 18082 H 1707.07 3.37094 1.44096 0
M  V30 18083 H 1706.71 3.16611 3.90853 0
M  V30 18084 H 1706.41 4.82982 3.34667 0
M  V30 18085 H 1707.94 4.43863 4.19306 0
M  V30 18086 H 1709.35 5.33259 2.10494 0
M  V30 18087 H 1707.75 5.81599 1.4786 0
M  V30 18088 H 1708.82 4.82623 0.469405 0
M  V30 18089 N 1710.16 -0.299034 1.54737 0
M  V30 18090 C 1711.41 -1.034 1.74111 0
M  V30 18091 C 1711.74 -1.87197 0.527965 0
M  V30 18092 O 1710.99 -1.89465 -0.490052 0
M  V30 18093 C 1711.29 -1.9673 2.98382 0
M  V30 18094 C 1710.96 -1.28893 4.32085 0
M  V30 18095 C 1709.62 -1.10124 4.68429 0
M  V30 18096 C 1711.97 -0.804114 5.1496 0
M  V30 18097 C 1709.3 -0.415622 5.85226 0
M  V30 18098 C 1711.65 -0.132204 6.32462 0
M  V30 18099 C 1710.31 0.0674159 6.67466 0
M  V30 18100 H 1709.58 -0.378366 0.637119 0
M  V30 18101 H 1712.23 -0.308686 1.88996 0
M  V30 18102 H 1710.54 -2.75795 2.78288 0
M  V30 18103 H 1712.23 -2.53671 3.10567 0
M  V30 18104 H 1708.82 -1.44507 4.03504 0
M  V30 18105 H 1713.01 -0.93682 4.87378 0
M  V30 18106 H 1708.26 -0.249993 6.10889 0
M  V30 18107 H 1712.44 0.251345 6.95946 0
M  V30 18108 H 1710.06 0.600691 7.57823 0
M  V30 18109 N 1711.64 -1.47227 -0.562322 0
M  V30 18110 C 1712.6 -1.58887 -1.6519 0
M  V30 18111 C 1713.6 -0.464359 -1.53949 0
M  V30 18112 O 1714.79 -0.729279 -1.582 0
M  V30 18113 C 1711.92 -1.52853 -3.04711 0
M  V30 18114 H 1713.12 -2.5601 -1.56202 0
M  V30 18115 H 1710.67 -1.35341 -0.781832 0
M  V30 18116 H 1711.41 -0.570867 -3.19236 0
M  V30 18117 H 1711.19 -2.3446 -3.14279 0
M  V30 18118 H 1712.68 -1.6414 -3.83989 0
M  V30 18119 N 1713.12 0.808639 -1.35273 0
M  V30 18120 C 1714.05 1.93502 -1.30687 0
M  V30 18121 C 1715.03 1.69127 -0.181675 0
M  V30 18122 O 1716.21 1.90519 -0.376312 0
M  V30 18123 C 1713.34 3.30211 -1.07602 0
M  V30 18124 C 1712.3 3.69063 -2.16741 0
M  V30 18125 C 1711.62 5.03911 -1.78824 0
M  V30 18126 C 1712.92 3.79656 -3.5869 0
M  V30 18127 H 1714.62 1.97597 -2.24935 0
M  V30 18128 H 1712.16 0.949284 -1.0828 0
M  V30 18129 H 1714.12 4.0861 -1.03034 0
M  V30 18130 H 1712.84 3.26453 -0.0979944 0
M  V30 18131 H 1711.5 2.92948 -2.20402 0
M  V30 18132 H 1711.15 4.96655 -0.796449 0
M  V30 18133 H 1710.85 5.30877 -2.51881 0
M  V30 18134 H 1712.37 5.84752 -1.75777 0
M  V30 18135 H 1713.79 4.48292 -3.57362 0
M  V30 18136 H 1712.18 4.1809 -4.30489 0
M  V30 18137 H 1713.25 2.81265 -3.94991 0
M  V30 18138 N 1714.6 1.19237 1.03055 0
M  V30 18139 C 1715.56 0.930536 2.0946 0
M  V30 18140 C 1716.56 -0.0882907 1.60557 0
M  V30 18141 O 1717.75 0.146269 1.73585 0
M  V30 18142 C 1714.88 0.398165 3.38567 0
M  V30 18143 H 1716.07 1.87422 2.34122 0
M  V30 18144 H 1713.63 1.00579 1.19639 0
M  V30 18145 H 1714.36 -0.551646 3.19574 0
M  V30 18146 H 1714.15 1.13273 3.75382 0
M  V30 18147 H 1715.64 0.234006 4.16944 0
M  V30 18148 N 1716.07 -1.22136 0.99602 0
M  V30 18149 C 1716.98 -2.27869 0.557927 0
M  V30 18150 C 1718 -1.69462 -0.394781 0
M  V30 18151 O 1719.18 -1.99704 -0.26084 0
M  V30 18152 C 1716.24 -3.46501 -0.117434 0
M  V30 18153 C 1715.3 -4.20213 0.878627 0
M  V30 18154 C 1714.54 -5.33181 0.2354 0
M  V30 18155 O 1714.76 -5.62093 -0.969954 0
M  V30 18156 O 1713.69 -5.94486 0.941828 0
M  V30 18157 H 1717.52 -2.67517 1.43765 0
M  V30 18158 H 1715.1 -1.28362 0.764428 0
M  V30 18159 H 1716.99 -4.18476 -0.49559 0
M  V30 18160 H 1715.66 -3.08772 -0.971674 0
M  V30 18161 H 1714.57 -3.50497 1.30777 0
M  V30 18162 H 1715.9 -4.6183 1.70217 0
M  V30 18163 N 1717.55 -0.769612 -1.37531 0
M  V30 18164 C 1718.48 -0.168389 -2.32892 0
M  V30 18165 C 1719.46 0.685549 -1.55673 0
M  V30 18166 O 1720.65 0.62345 -1.8392 0
M  V30 18167 C 1717.78 0.713183 -3.39898 0
M  V30 18168 C 1716.73 -0.0392808 -4.27982 0
M  V30 18169 C 1716.06 0.961596 -5.25982 0
M  V30 18170 C 1717.36 -1.21704 -5.07923 0
M  V30 18171 H 1719.05 -0.965022 -2.83421 0
M  V30 18172 H 1716.6 -0.465502 -1.36268 0
M  V30 18173 H 1718.55 1.14358 -4.05586 0
M  V30 18174 H 1717.28 1.54231 -2.87889 0
M  V30 18175 H 1715.93 -0.450429 -3.63822 0
M  V30 18176 H 1715.58 1.78522 -4.70254 0
M  V30 18177 H 1715.28 0.462679 -5.85776 0
M  V30 18178 H 1716.81 1.39097 -5.94545 0
M  V30 18179 H 1718.22 -0.863405 -5.66761 0
M  V30 18180 H 1716.62 -1.6479 -5.77031 0
M  V30 18181 H 1717.69 -2.02219 -4.40722 0
M  V30 18182 N 1719.03 1.48775 -0.519977 0
M  V30 18183 C 1719.94 2.33239 0.252329 0
M  V30 18184 C 1720.96 1.45852 0.948849 0
M  V30 18185 O 1722.13 1.78848 0.92603 0
M  V30 18186 C 1719.2 3.2174 1.29166 0
M  V30 18187 C 1718.26 4.24993 0.606564 0
M  V30 18188 C 1717.49 5.09266 1.59638 0
M  V30 18189 O 1717.71 4.95353 2.82809 0
M  V30 18190 O 1716.65 5.90981 1.14127 0
M  V30 18191 H 1720.47 3.00503 -0.439527 0
M  V30 18192 H 1718.06 1.46733 -0.281032 0
M  V30 18193 H 1719.94 3.76512 1.89254 0
M  V30 18194 H 1718.62 2.5715 1.96611 0
M  V30 18195 H 1717.52 3.74084 -0.0345447 0
M  V30 18196 H 1718.86 4.92193 -0.0257627 0
M  V30 18197 N 1720.51 0.254649 1.55529 0
M  V30 18198 C 1721.46 -0.657787 2.23105 0
M  V30 18199 C 1722.45 -1.17402 1.22119 0
M  V30 18200 O 1723.66 -1.13002 1.40109 0
M  V30 18201 H 1720.03 -0.230628 0.715762 0
M  V30 18202 H 1722 -0.0647759 2.9833 0
M  V30 18203 C 1720.75 -1.84018 2.95013 0
M  V30 18204 H 1720.07 -1.45211 3.72497 0
M  V30 18205 H 1721.51 -2.45568 3.45648 0
M  V30 18206 C 1719.97 -2.7161 1.99322 0
M  V30 18207 O 1720.5 -3.7137 1.53125 0
M  V30 18208 N 1718.71 -2.38342 1.66258 0
M  V30 18209 H 1718.26 -1.57268 2.04021 0
M  V30 18210 H 1718.21 -2.97222 1.025 0
M  V30 18211 N 1721.99 -1.57589 -0.0183649 0
M  V30 18212 C 1723.24 -1.88937 -0.706105 0
M  V30 18213 C 1723.55 -0.854565 -1.75945 0
M  V30 18214 O 1724.75 -1.05763 -2.50053 0
M  V30 18215 C 1723.21 -3.35329 -1.307 0
M  V30 18216 C 1722.82 -4.47064 -0.289444 0
M  V30 18217 C 1724.56 -3.75811 -1.97399 0
M  V30 18218 C 1722.47 -5.84523 -0.899288 0
M  V30 18219 H 1721.4 -0.704959 -0.267486 0
M  V30 18220 H 1724.05 -1.83458 0.0391685 0
M  V30 18221 H 1722.43 -3.35586 -2.10233 0
M  V30 18222 H 1723.61 -4.58294 0.479958 0
M  V30 18223 H 1721.92 -4.15484 0.276066 0
M  V30 18224 H 1724.52 -4.75834 -2.43898 0
M  V30 18225 H 1724.86 -3.08362 -2.79676 0
M  V30 18226 H 1725.39 -3.77774 -1.24626 0
M  V30 18227 H 1722.13 -6.55398 -0.11571 0
M  V30 18228 H 1721.65 -5.76993 -1.63828 0
M  V30 18229 H 1723.33 -6.31595 -1.40344 0
M  V30 18230 N 1723.46 0.290824 -1.54893 0
M  V30 18231 C 1724.37 1.38137 -1.89619 0
M  V30 18232 C 1725.39 1.54959 -0.791432 0
M  V30 18233 O 1726.57 1.69428 -1.08885 0
M  V30 18234 C 1723.63 2.72353 -2.14534 0
M  V30 18235 C 1722.69 2.64429 -3.38195 0
M  V30 18236 C 1721.93 3.92244 -3.61912 0
M  V30 18237 O 1722.15 4.92088 -2.88454 0
M  V30 18238 O 1721.08 3.93523 -4.55438 0
M  V30 18239 H 1724.91 1.11688 -2.82417 0
M  V30 18240 H 1722.49 0.487789 -1.41213 0
M  V30 18241 H 1724.38 3.51745 -2.32064 0
M  V30 18242 H 1723.05 2.98624 -1.24921 0
M  V30 18243 H 1721.96 1.83474 -3.26018 0
M  V30 18244 H 1723.29 2.43109 -4.2797 0
M  V30 18245 N 1724.94 1.47523 0.554506 0
M  V30 18246 C 1726.19 1.54515 1.3135 0
M  V30 18247 C 1726.52 0.207892 1.93084 0
M  V30 18248 O 1725.8 -0.783749 1.7801 0
M  V30 18249 C 1726.08 2.66519 2.42156 0
M  V30 18250 C 1725.93 4.0987 1.85274 0
M  V30 18251 C 1727.25 2.74418 3.44068 0
M  V30 18252 H 1724.37 0.562481 0.476219 0
M  V30 18253 H 1727.01 1.79591 0.620246 0
M  V30 18254 H 1725.16 2.45268 3.0129 0
M  V30 18255 H 1726.83 4.42492 1.3038 0
M  V30 18256 H 1725.08 4.18021 1.15934 0
M  V30 18257 H 1725.75 4.84017 2.65389 0
M  V30 18258 H 1728.22 2.93596 2.94857 0
M  V30 18259 H 1727.1 3.54557 4.19023 0
M  V30 18260 H 1727.36 1.81584 4.03088 0
M  V30 18261 N 1726.42 -0.801453 1.357 0
M  V30 18262 C 1727.38 -1.89514 1.28907 0
M  V30 18263 C 1728.38 -1.59559 0.19938 0
M  V30 18264 O 1729.57 -1.68196 0.453408 0
M  V30 18265 C 1726.71 -3.26044 0.995411 0
M  V30 18266 H 1727.9 -1.96956 2.2616 0
M  V30 18267 H 1725.45 -0.997899 1.20298 0
M  V30 18268 H 1726.19 -3.24289 0.0269561 0
M  V30 18269 H 1725.97 -3.49172 1.78385 0
M  V30 18270 H 1727.46 -4.06092 0.97362 0
M  V30 18271 N 1727.9 -1.19782 -1.02421 0
M  V30 18272 C 1729.15 -1.00133 -1.7555 0
M  V30 18273 C 1729.47 0.468503 -1.89288 0
M  V30 18274 O 1728.74 1.3391 -1.42986 0
M  V30 18275 H 1727.32 -0.367513 -0.650341 0
M  V30 18276 H 1729.98 -1.50758 -1.23523 0
M  V30 18277 H 1729.08 -1.45329 -2.76199 0
M  V30 18278 N 1729.38 1.21606 -1.00248 0
M  V30 18279 C 1730.34 2.22107 -0.565772 0
M  V30 18280 C 1731.34 1.56798 0.356521 0
M  V30 18281 O 1732.53 1.73577 0.147154 0
M  V30 18282 C 1729.66 3.40447 0.175742 0
M  V30 18283 H 1730.86 2.62258 -1.45468 0
M  V30 18284 H 1728.41 1.34823 -0.790721 0
M  V30 18285 H 1729.14 3.05781 1.0802 0
M  V30 18286 H 1728.93 3.89069 -0.486612 0
M  V30 18287 H 1730.42 4.14957 0.469122 0
M  V30 18288 N 1730.86 0.776895 1.37121 0
M  V30 18289 C 1731.8 0.164838 2.30211 0
M  V30 18290 C 1732.77 -0.684137 1.51356 0
M  V30 18291 O 1733.96 -0.635428 1.79908 0
M  V30 18292 C 1731.1 -0.704263 3.37837 0
M  V30 18293 C 1730.21 0.161881 4.31697 0
M  V30 18294 C 1729.35 -0.712411 5.26401 0
M  V30 18295 C 1728.38 0.155953 6.11901 0
M  V30 18296 N 1727.52 -0.676607 6.98832 0
M  V30 18297 H 1732.36 0.964185 2.81971 0
M  V30 18298 H 1729.9 0.487065 1.38802 0
M  V30 18299 H 1731.86 -1.22302 3.98871 0
M  V30 18300 H 1730.49 -1.46916 2.87429 0
M  V30 18301 H 1729.54 0.798491 3.71925 0
M  V30 18302 H 1730.85 0.831496 4.91821 0
M  V30 18303 H 1730 -1.29745 5.92664 0
M  V30 18304 H 1728.74 -1.41569 4.66701 0
M  V30 18305 H 1727.75 0.753493 5.44612 0
M  V30 18306 H 1728.97 0.856645 6.73675 0
M  V30 18307 H 1726.92 -1.36441 6.41654 0
M  V30 18308 H 1726.84 -0.0644017 7.55973 0
M  V30 18309 H 1728.1 -1.24588 7.69479 0
M  V30 18310 N 1732.33 -1.48497 0.527859 0
M  V30 18311 C 1733.58 -2.01698 -0.00900086 0
M  V30 18312 C 1733.9 -1.4104 -1.35525 0
M  V30 18313 O 1735.1 -1.85726 -1.98035 0
M  V30 18314 C 1733.56 -3.59839 -0.0664428 0
M  V30 18315 C 1733.17 -4.2948 1.27479 0
M  V30 18316 C 1734.91 -4.20893 -0.552244 0
M  V30 18317 C 1732.82 -5.79548 1.17805 0
M  V30 18318 H 1731.75 -0.753966 -0.00713463 0
M  V30 18319 H 1734.4 -1.70779 0.67132 0
M  V30 18320 H 1732.78 -3.8759 -0.811795 0
M  V30 18321 H 1733.95 -4.13403 2.03554 0
M  V30 18322 H 1732.27 -3.80289 1.69616 0
M  V30 18323 H 1734.87 -5.30825 -0.642556 0
M  V30 18324 H 1735.21 -3.86066 -1.55752 0
M  V30 18325 H 1735.74 -3.97563 0.137363 0
M  V30 18326 H 1732.48 -6.18945 2.15841 0
M  V30 18327 H 1732 -5.98044 0.458624 0
M  V30 18328 H 1733.68 -6.41153 0.867834 0
M  V30 18329 N 1733.81 -0.262893 -1.55392 0
M  V30 18330 C 1735.22 0.237224 -1.85187 0
M  V30 18331 C 1735.57 1.56383 -1.18486 0
M  V30 18332 O 1734.7 2.1126 -0.468849 0
M  V30 18333 C 1735.29 0.437206 -3.35967 0
M  V30 18334 C 1733.85 0.881568 -3.65931 0
M  V30 18335 C 1733 -0.0321489 -2.77281 0
M  V30 18336 H 1735.95 -0.485025 -1.51107 0
M  V30 18337 H 1735.97 1.27755 -3.58412 0
M  V30 18338 H 1735.48 -0.528474 -3.84485 0
M  V30 18339 H 1733.58 1.85915 -3.22903 0
M  V30 18340 H 1733.7 0.727355 -4.73547 0
M  V30 18341 H 1732.06 0.48204 -2.50097 0
M  V30 18342 H 1732.84 -0.99349 -3.2861 0
M  V30 18343 N 1735.29 1.57597 0.0100073 0
M  V30 18344 C 1736.2 2.11209 1.02117 0
M  V30 18345 C 1737.22 1.05503 1.38366 0
M  V30 18346 O 1738.39 1.37348 1.47301 0
M  V30 18347 C 1735.46 2.59654 2.2974 0
M  V30 18348 C 1734.52 3.79921 1.99896 0
M  V30 18349 C 1733.75 4.26046 3.21435 0
M  V30 18350 O 1733.97 3.71566 4.32775 0
M  V30 18351 O 1732.91 5.18301 3.06018 0
M  V30 18352 H 1736.73 2.97805 0.595469 0
M  V30 18353 H 1734.32 1.47647 0.228208 0
M  V30 18354 H 1736.2 2.91058 3.04735 0
M  V30 18355 H 1734.88 1.76161 2.71568 0
M  V30 18356 H 1733.78 3.53506 1.22409 0
M  V30 18357 H 1735.12 4.64457 1.62912 0
M  V30 18358 N 1736.77 -0.282606 1.55045 0
M  V30 18359 C 1737.99 -1.03825 1.79542 0
M  V30 18360 C 1738.42 -1.79503 0.562165 0
M  V30 18361 O 1737.78 -1.7461 -0.487946 0
M  V30 18362 C 1737.82 -1.98007 3.01373 0
M  V30 18363 O 1736.93 -3.06621 2.75785 0
M  V30 18364 H 1736.27 -0.297333 0.593708 0
M  V30 18365 H 1738.8 -0.314434 2.02169 0
M  V30 18366 H 1738.81 -2.40138 3.29845 0
M  V30 18367 H 1737.48 -1.42335 3.90786 0
M  V30 18368 H 1736.06 -2.68874 2.58382 0
M  V30 18369 N 1738.25 -1.47815 -0.546675 0
M  V30 18370 C 1739.66 -1.33566 -0.873628 0
M  V30 18371 C 1739.86 -0.334067 -1.98711 0
M  V30 18372 O 1738.92 0.250675 -2.51253 0
M  V30 18373 C 1740.23 -2.73171 -1.25691 0
M  V30 18374 C 1741.78 -2.81535 -1.36774 0
M  V30 18375 C 1742.25 -4.21804 -1.78454 0
M  V30 18376 N 1743.74 -4.24396 -1.85586 0
M  V30 18377 C 1744.48 -5.29854 -2.19186 0
M  V30 18378 N 1743.98 -6.45606 -2.51326 0
M  V30 18379 N 1745.77 -5.17237 -2.2005 0
M  V30 18380 H 1737.92 -2.11564 0.188285 0
M  V30 18381 H 1740.18 -0.947754 0.0215773 0
M  V30 18382 H 1739.89 -3.47946 -0.512485 0
M  V30 18383 H 1739.76 -3.05622 -2.21077 0
M  V30 18384 H 1742.15 -2.07025 -2.10297 0
M  V30 18385 H 1742.23 -2.52724 -0.395504 0
M  V30 18386 H 1741.87 -4.96823 -1.05498 0
M  V30 18387 H 1741.8 -4.48046 -2.76699 0
M  V30 18388 H 1744.3 -3.40895 -1.63092 0
M  V30 18389 H 1744.61 -7.21825 -2.76022 0
M  V30 18390 H 1742.95 -6.48909 -2.48883 0
M  V30 18391 H 1746.14 -4.2583 -1.94387 0
M  V30 18392 H 1746.32 -5.99529 -2.45905 0
M  V30 18393 N 1739.72 0.794246 -1.36123 0
M  V30 18394 C 1740.97 1.54885 -1.29827 0
M  V30 18395 C 1741.29 1.94608 0.123517 0
M  V30 18396 O 1740.56 1.6457 1.06272 0
M  V30 18397 H 1739.14 0.574398 -0.477573 0
M  V30 18398 H 1741.8 0.946658 -1.70365 0
M  V30 18399 H 1740.9 2.45863 -1.92244 0
M  V30 18400 N 1741.2 1.20323 1.01785 0
M  V30 18401 C 1742.44 1.0239 1.76906 0
M  V30 18402 C 1742.81 -0.436461 1.86973 0
M  V30 18403 O 1744.01 -0.735939 2.58529 0
M  V30 18404 C 1742.28 1.68729 3.15064 0
M  V30 18405 S 1743.84 1.65881 4.06237 0
M  V30 18406 H 1740.65 0.367179 0.608852 0
M  V30 18407 H 1743.26 1.52857 1.21881 0
M  V30 18408 H 1741.96 2.74194 3.05362 0
M  V30 18409 H 1741.49 1.18387 3.75164 0
M  V30 18410 H 1743.51 0.6908 4.91368 0
M  V30 18411 N 1742.68 -1.21073 1.00892 0
M  V30 18412 C 1743.61 -2.22968 0.530841 0
M  V30 18413 C 1744.62 -1.58239 -0.382664 0
M  V30 18414 O 1745.81 -1.77567 -0.182237 0
M  V30 18415 C 1742.91 -3.37991 -0.248096 0
M  V30 18416 C 1742.09 -4.32309 0.665439 0
M  V30 18417 C 1741.15 -5.2616 -0.0645731 0
M  V30 18418 O 1740.17 -5.66484 0.555383 0
M  V30 18419 N 1741.37 -5.64777 -1.3419 0
M  V30 18420 H 1744.14 -2.64614 1.4071 0
M  V30 18421 H 1741.7 -1.35536 0.885528 0
M  V30 18422 H 1743.69 -3.97774 -0.745513 0
M  V30 18423 H 1742.26 -2.95297 -1.02558 0
M  V30 18424 H 1741.48 -3.70607 1.34329 0
M  V30 18425 H 1742.77 -4.92254 1.28701 0
M  V30 18426 H 1742.17 -5.34016 -1.86664 0
M  V30 18427 H 1740.72 -6.26905 -1.78419 0
M  V30 18428 N 1744.16 -0.784156 -1.36707 0
M  V30 18429 C 1745.4 -0.354658 -1.99675 0
M  V30 18430 C 1745.74 1.06948 -1.62098 0
M  V30 18431 O 1745.01 1.73798 -0.873192 0
M  V30 18432 C 1745.3 -0.512421 -3.56435 0
M  V30 18433 C 1745.15 -1.97987 -4.03883 0
M  V30 18434 C 1746.47 0.075762 -4.40035 0
M  V30 18435 H 1743.59 -0.130338 -0.725383 0
M  V30 18436 H 1746.23 -0.989515 -1.62199 0
M  V30 18437 H 1744.38 0.0280323 -3.8849 0
M  V30 18438 H 1746.05 -2.58098 -3.82339 0
M  V30 18439 H 1744.29 -2.48433 -3.55617 0
M  V30 18440 H 1744.96 -2.04125 -5.12871 0
M  V30 18441 H 1747.44 -0.385522 -4.1431 0
M  V30 18442 H 1746.32 -0.0646832 -5.48862 0
M  V30 18443 H 1746.58 1.16735 -4.2641 0
M  V30 18444 N 1745.64 1.48215 -0.535727 0
M  V30 18445 C 1746.57 2.3253 0.212562 0
M  V30 18446 C 1747.55 1.42454 0.929568 0
M  V30 18447 O 1748.73 1.71334 0.914228 0
M  V30 18448 C 1745.86 3.23777 1.25641 0
M  V30 18449 C 1744.82 4.22924 0.657191 0
M  V30 18450 C 1744.14 5.03345 1.80411 0
M  V30 18451 C 1745.44 5.20953 -0.374902 0
M  V30 18452 H 1747.14 2.95341 -0.491301 0
M  V30 18453 H 1744.68 1.42024 -0.237718 0
M  V30 18454 H 1746.64 3.81592 1.78789 0
M  V30 18455 H 1745.36 2.58978 1.98993 0
M  V30 18456 H 1744.02 3.66304 0.147184 0
M  V30 18457 H 1743.67 4.34965 2.52615 0
M  V30 18458 H 1743.37 5.70455 1.40906 0
M  V30 18459 H 1744.89 5.64013 2.33926 0
M  V30 18460 H 1746.3 5.73258 0.0697072 0
M  V30 18461 H 1744.7 5.96147 -0.687646 0
M  V30 18462 H 1745.77 4.67739 -1.27861 0
M  V30 18463 N 1747.11 0.27113 1.5525 0
M  V30 18464 C 1748.08 -0.604946 2.21072 0
M  V30 18465 C 1749.08 -1.08438 1.18735 0
M  V30 18466 O 1750.27 -0.985192 1.43665 0
M  V30 18467 C 1747.4 -1.83416 2.87353 0
M  V30 18468 H 1748.59 -0.0302981 2.99885 0
M  V30 18469 H 1746.15 0.0217204 1.56285 0
M  V30 18470 H 1746.88 -2.44942 2.12542 0
M  V30 18471 H 1746.67 -1.49834 3.62343 0
M  V30 18472 H 1748.16 -2.45724 3.37653 0
M  V30 18473 N 1748.59 -1.576 -0.00164943 0
M  V30 18474 C 1749.56 -2.07267 -0.978423 0
M  V30 18475 C 1750.56 -0.981758 -1.27351 0
M  V30 18476 O 1751.75 -1.24446 -1.21896 0
M  V30 18477 C 1748.88 -2.51273 -2.30379 0
M  V30 18478 H 1750.07 -2.94835 -0.548845 0
M  V30 18479 H 1747.62 -1.54302 -0.249086 0
M  V30 18480 H 1748.36 -1.66943 -2.7803 0
M  V30 18481 H 1748.14 -3.30943 -2.10283 0
M  V30 18482 H 1749.63 -2.90031 -3.00453 0
M  V30 18483 N 1750.07 0.274379 -1.55193 0
M  V30 18484 C 1751.32 1.00418 -1.75387 0
M  V30 18485 C 1751.64 1.86868 -0.557244 0
M  V30 18486 O 1750.91 1.9117 0.427883 0
M  V30 18487 H 1749.49 0.373753 -0.646775 0
M  V30 18488 H 1752.15 0.298942 -1.92594 0
M  V30 18489 H 1751.25 1.64191 -2.6542 0
M  V30 18490 N 1751.55 1.48103 0.538828 0
M  V30 18491 C 1752.77 1.59568 1.32487 0
M  V30 18492 C 1753.2 0.252908 1.86392 0
M  V30 18493 O 1752.56 -0.774094 1.63944 0
M  V30 18494 C 1752.6 2.63863 2.45782 0
M  V30 18495 O 1751.71 2.20409 3.48559 0
M  V30 18496 H 1751.05 0.53538 0.392765 0
M  V30 18497 H 1753.58 1.94024 0.649299 0
M  V30 18498 H 1753.59 2.8486 2.92093 0
M  V30 18499 H 1752.26 3.61352 2.05906 0
M  V30 18500 H 1750.84 2.09588 3.08427 0
M  V30 18501 N 1753.03 -0.787016 1.36542 0
M  V30 18502 C 1754.28 -1.54019 1.30234 0
M  V30 18503 C 1754.59 -1.95259 -0.115496 0
M  V30 18504 O 1755.79 -2.69827 -0.300966 0
M  V30 18505 C 1754.25 -2.78048 2.28512 0
M  V30 18506 C 1753.86 -2.43968 3.75744 0
M  V30 18507 C 1755.6 -3.56025 2.31185 0
M  V30 18508 C 1753.51 -3.64406 4.65792 0
M  V30 18509 H 1752.44 -0.578185 0.483961 0
M  V30 18510 H 1755.09 -0.8634 1.61919 0
M  V30 18511 H 1753.47 -3.47538 1.89824 0
M  V30 18512 H 1754.65 -1.82359 4.23181 0
M  V30 18513 H 1752.96 -1.79197 3.75869 0
M  V30 18514 H 1755.56 -4.45514 2.9567 0
M  V30 18515 H 1755.9 -3.94783 1.32107 0
M  V30 18516 H 1756.43 -2.93516 2.68502 0
M  V30 18517 H 1753.17 -3.30742 5.65942 0
M  V30 18518 H 1752.69 -4.25173 4.2307 0
M  V30 18519 H 1754.37 -4.31406 4.82181 0
M  V30 18520 N 1754.5 -1.20861 -1.01145 0
M  V30 18521 C 1755.43 -0.986058 -2.11658 0
M  V30 18522 C 1756.42 0.0867558 -1.69879 0
M  V30 18523 O 1757.6 -0.0717892 -1.94067 0
M  V30 18524 C 1754.73 -0.542938 -3.4303 0
M  V30 18525 C 1753.68 -1.55958 -3.98574 0
M  V30 18526 C 1753.01 -0.972917 -5.25774 0
M  V30 18527 C 1754.31 -2.94471 -4.31375 0
M  V30 18528 H 1756 -1.91035 -2.30534 0
M  V30 18529 H 1753.55 -0.919914 -1.10786 0
M  V30 18530 H 1755.5 -0.374446 -4.19733 0
M  V30 18531 H 1754.23 0.416988 -3.23927 0
M  V30 18532 H 1752.89 -1.71552 -3.23984 0
M  V30 18533 H 1752.53 -0.00490446 -5.03 0
M  V30 18534 H 1752.23 -1.65194 -5.63901 0
M  V30 18535 H 1753.76 -0.815607 -6.05128 0
M  V30 18536 H 1755.17 -2.82358 -4.98946 0
M  V30 18537 H 1753.57 -3.59327 -4.80629 0
M  V30 18538 H 1754.64 -3.45804 -3.39923 0
M  V30 18539 N 1755.98 1.20536 -1.01532 0
M  V30 18540 C 1756.91 2.22683 -0.542658 0
M  V30 18541 C 1757.93 1.5844 0.374267 0
M  V30 18542 O 1759.12 1.77661 0.172818 0
M  V30 18543 C 1756.22 3.38117 0.230168 0
M  V30 18544 C 1755.39 4.3195 -0.688356 0
M  V30 18545 C 1754.45 5.26187 0.0366686 0
M  V30 18546 O 1753.47 5.66182 -0.585418 0
M  V30 18547 N 1754.68 5.65481 1.31193 0
M  V30 18548 H 1757.44 2.63864 -1.42111 0
M  V30 18549 H 1755 1.35065 -0.892703 0
M  V30 18550 H 1756.99 3.98164 0.724408 0
M  V30 18551 H 1755.56 2.95837 1.00991 0
M  V30 18552 H 1754.78 3.69889 -1.36292 0
M  V30 18553 H 1756.07 4.91564 -1.3131 0
M  V30 18554 H 1755.47 5.34998 1.83829 0
M  V30 18555 H 1754.03 6.27842 1.75092 0
M  V30 18556 N 1757.46 0.791395 1.36289 0
M  V30 18557 C 1758.42 0.197069 2.28351 0
M  V30 18558 C 1759.42 -0.606748 1.48913 0
M  V30 18559 O 1760.61 -0.427453 1.68874 0
M  V30 18560 C 1757.75 -0.727009 3.33058 0
M  V30 18561 H 1758.94 1.00885 2.82422 0
M  V30 18562 H 1756.49 0.560959 1.45887 0
M  V30 18563 H 1757.23 -1.56306 2.84146 0
M  V30 18564 H 1757.01 -0.152537 3.91803 0
M  V30 18565 H 1758.5 -1.13765 4.01805 0
M  V30 18566 N 1758.94 -1.47929 0.54358 0
M  V30 18567 C 1760.36 -1.58312 0.202376 0
M  V30 18568 C 1760.56 -1.54394 -1.29479 0
M  V30 18569 O 1759.61 -1.44015 -2.07403 0
M  V30 18570 C 1760.92 -2.89389 0.816958 0
M  V30 18571 C 1762.47 -3.02946 0.786935 0
M  V30 18572 C 1762.95 -4.36704 1.38034 0
M  V30 18573 N 1764.44 -4.43306 1.34291 0
M  V30 18574 C 1765.17 -5.45339 1.77182 0
M  V30 18575 N 1764.67 -6.54255 2.27866 0
M  V30 18576 N 1766.46 -5.36302 1.68336 0
M  V30 18577 H 1758.61 -1.48719 1.51646 0
M  V30 18578 H 1760.88 -0.706966 0.631587 0
M  V30 18579 H 1760.58 -2.97953 1.86861 0
M  V30 18580 H 1760.46 -3.75989 0.30198 0
M  V30 18581 H 1762.84 -2.93988 -0.25599 0
M  V30 18582 H 1762.92 -2.17923 1.33953 0
M  V30 18583 H 1762.57 -4.46418 2.42226 0
M  V30 18584 H 1762.5 -5.20437 0.803308 0
M  V30 18585 H 1764.99 -3.65185 0.972033 0
M  V30 18586 H 1765.3 -7.28265 2.58552 0
M  V30 18587 H 1763.65 -6.55181 2.31868 0
M  V30 18588 H 1766.84 -4.50109 1.28527 0
M  V30 18589 H 1767.01 -6.15684 2.02082 0
M  V30 18590 N 1760.42 -0.27936 -1.55104 0
M  V30 18591 C 1761.65 0.339429 -2.04097 0
M  V30 18592 C 1762.06 1.49151 -1.15756 0
M  V30 18593 O 1761.42 1.81624 -0.178558 0
M  V30 18594 C 1761.47 0.816392 -3.52161 0
M  V30 18595 O 1761.19 -0.289812 -4.3714 0
M  V30 18596 C 1762.69 1.50256 -4.17059 0
M  V30 18597 H 1759.91 0.0768615 -0.666583 0
M  V30 18598 H 1762.45 -0.412691 -2.00293 0
M  V30 18599 H 1760.61 1.51859 -3.56395 0
M  V30 18600 H 1761.02 0.0776213 -5.24443 0
M  V30 18601 H 1762.5 1.78767 -5.22251 0
M  V30 18602 H 1762.97 2.4355 -3.65486 0
M  V30 18603 H 1763.58 0.844106 -4.16839 0
M  V30 18604 N 1761.9 1.57599 -0.0067085 0
M  V30 18605 C 1763.31 1.78864 0.535202 0
M  V30 18606 C 1763.66 0.914793 1.73568 0
M  V30 18607 O 1762.78 0.119075 2.16072 0
M  V30 18608 C 1763.38 3.24386 0.977709 0
M  V30 18609 C 1761.94 3.46725 1.46488 0
M  V30 18610 C 1761.08 2.74114 0.419171 0
M  V30 18611 H 1764.03 1.56982 -0.232853 0
M  V30 18612 H 1764.06 3.32867 1.84336 0
M  V30 18613 H 1763.57 3.87961 0.103778 0
M  V30 18614 H 1761.67 2.88373 2.35948 0
M  V30 18615 H 1761.78 4.55416 1.48772 0
M  V30 18616 H 1760.15 2.3893 0.882311 0
M  V30 18617 H 1760.93 3.40392 -0.445908 0
M  V30 18618 N 1763.37 -0.266145 1.55336 0
M  V30 18619 C 1764.62 -0.998308 1.76527 0
M  V30 18620 C 1764.95 -1.85691 0.568535 0
M  V30 18621 O 1764.23 -1.89602 -0.433735 0
M  V30 18622 C 1764.51 -1.87509 3.07429 0
M  V30 18623 C 1764.36 -1.04596 4.3747 0
M  V30 18624 C 1765.68 -2.86099 3.34418 0
M  V30 18625 H 1762.8 -0.361514 0.642244 0
M  V30 18626 H 1765.44 -0.270186 1.88069 0
M  V30 18627 H 1763.59 -2.49591 2.97719 0
M  V30 18628 H 1765.27 -0.445323 4.59145 0
M  V30 18629 H 1763.51 -0.349641 4.32389 0
M  V30 18630 H 1764.18 -1.69279 5.25403 0
M  V30 18631 H 1766.66 -2.34153 3.43965 0
M  V30 18632 H 1765.53 -3.44584 4.27262 0
M  V30 18633 H 1765.79 -3.61577 2.5439 0
M  V30 18634 N 1764.85 -1.48386 -0.530967 0
M  V30 18635 C 1765.78 -1.6573 -1.64486 0
M  V30 18636 C 1766.76 -0.506198 -1.62393 0
M  V30 18637 O 1767.95 -0.738623 -1.79605 0
M  V30 18638 C 1765.08 -1.69594 -3.03076 0
M  V30 18639 C 1764.03 -2.84195 -3.20027 0
M  V30 18640 C 1763.36 -2.73148 -4.59668 0
M  V30 18641 C 1764.66 -4.25504 -3.02892 0
M  V30 18642 H 1766.35 -2.58983 -1.50227 0
M  V30 18643 H 1763.9 -1.24633 -0.721286 0
M  V30 18644 H 1765.85 -1.80316 -3.80873 0
M  V30 18645 H 1764.57 -0.729193 -3.18356 0
M  V30 18646 H 1763.23 -2.73027 -2.44647 0
M  V30 18647 H 1762.88 -1.74444 -4.71782 0
M  V30 18648 H 1762.58 -3.50047 -4.71954 0
M  V30 18649 H 1764.11 -2.85836 -5.39565 0
M  V30 18650 H 1765.52 -4.37511 -3.70482 0
M  V30 18651 H 1763.92 -5.03393 -3.26673 0
M  V30 18652 H 1764.99 -4.42036 -1.99329 0
M  V30 18653 N 1766.33 0.779763 -1.36958 0
M  V30 18654 C 1767.57 1.55113 -1.33114 0
M  V30 18655 C 1767.93 1.91808 0.0859451 0
M  V30 18656 O 1769.13 2.67644 0.24903 0
M  V30 18657 C 1767.41 2.78752 -2.23679 0
M  V30 18658 S 1768.96 3.68899 -2.37611 0
M  V30 18659 H 1765.78 0.531134 -0.472671 0
M  V30 18660 H 1768.38 0.917613 -1.72627 0
M  V30 18661 H 1767.09 2.4986 -3.25573 0
M  V30 18662 H 1766.62 3.47069 -1.85221 0
M  V30 18663 H 1768.63 4.70347 -1.58075 0
M  V30 18664 N 1767.81 1.21396 1.00503 0
M  V30 18665 C 1769.05 1.0327 1.74537 0
M  V30 18666 C 1769.39 -0.432746 1.89317 0
M  V30 18667 O 1768.66 -1.32111 1.42747 0
M  V30 18668 C 1768.94 1.73045 3.15797 0
M  V30 18669 C 1768.8 3.27108 3.0874 0
M  V30 18670 C 1770.12 1.47298 4.14718 0
M  V30 18671 H 1767.24 0.376563 0.633537 0
M  V30 18672 H 1769.88 1.49571 1.17169 0
M  V30 18673 H 1768.03 1.33682 3.64776 0
M  V30 18674 H 1769.7 3.75839 2.67475 0
M  V30 18675 H 1767.94 3.57413 2.45843 0
M  V30 18676 H 1768.61 3.71096 4.08646 0
M  V30 18677 H 1771.09 1.81468 3.74444 0
M  V30 18678 H 1769.97 1.98633 5.11699 0
M  V30 18679 H 1770.23 0.402981 4.4026 0
M  V30 18680 N 1769.29 -1.19996 1.0217 0
M  V30 18681 C 1770.25 -2.21179 0.601036 0
M  V30 18682 C 1771.25 -1.57345 -0.331531 0
M  V30 18683 O 1772.44 -1.73789 -0.119521 0
M  V30 18684 C 1769.57 -3.40683 -0.121557 0
M  V30 18685 H 1770.76 -2.5991 1.49622 0
M  V30 18686 H 1768.32 -1.33548 0.812071 0
M  V30 18687 H 1769.05 -3.07461 -1.03142 0
M  V30 18688 H 1768.84 -3.88245 0.548448 0
M  V30 18689 H 1770.33 -4.1565 -0.403046 0
M  V30 18690 N 1770.76 -0.798611 -1.35867 0
M  V30 18691 C 1772.01 -0.375816 -1.99287 0
M  V30 18692 C 1772.34 1.05223 -1.63223 0
M  V30 18693 O 1771.62 1.72862 -0.891576 0
M  V30 18694 C 1771.9 -0.550197 -3.55872 0
M  V30 18695 C 1771.75 -2.0226 -4.0176 0
M  V30 18696 C 1773.07 0.0290862 -4.4009 0
M  V30 18697 H 1770.19 -0.138024 -0.72396 0
M  V30 18698 H 1772.83 -1.00666 -1.61141 0
M  V30 18699 H 1770.98 -0.0131739 -3.88498 0
M  V30 18700 H 1772.66 -2.62139 -3.7958 0
M  V30 18701 H 1770.9 -2.52191 -3.52962 0
M  V30 18702 H 1771.57 -2.09553 -5.10678 0
M  V30 18703 H 1774.05 -0.429444 -4.13878 0
M  V30 18704 H 1772.92 -0.122894 -5.48762 0
M  V30 18705 H 1773.18 1.12206 -4.27624 0
M  V30 18706 N 1772.24 1.47639 -0.551417 0
M  V30 18707 C 1773.19 2.29936 0.199514 0
M  V30 18708 C 1774.16 1.38704 0.913811 0
M  V30 18709 O 1775.34 1.67666 0.910643 0
M  V30 18710 C 1772.48 3.22544 1.22717 0
M  V30 18711 C 1771.6 4.28865 0.519527 0
M  V30 18712 C 1770.73 5.0863 1.53197 0
M  V30 18713 C 1769.77 6.06731 0.808981 0
M  V30 18714 N 1768.91 6.79476 1.76798 0
M  V30 18715 H 1773.75 2.93631 -0.508414 0
M  V30 18716 H 1771.28 1.44738 -0.262553 0
M  V30 18717 H 1773.24 3.74653 1.83551 0
M  V30 18718 H 1771.87 2.60726 1.9032 0
M  V30 18719 H 1770.92 3.79857 -0.203217 0
M  V30 18720 H 1772.24 4.98778 -0.0471224 0
M  V30 18721 H 1771.39 5.6486 2.214 0
M  V30 18722 H 1770.13 4.38605 2.13253 0
M  V30 18723 H 1769.13 5.49684 0.112991 0
M  V30 18724 H 1770.36 6.78762 0.214239 0
M  V30 18725 H 1768.31 6.12185 2.35722 0
M  V30 18726 H 1768.22 7.45539 1.25333 0
M  V30 18727 H 1769.49 7.40283 2.44133 0
M  V30 18728 N 1773.72 0.287581 1.54954 0
M  V30 18729 C 1775.14 -0.0662092 1.59463 0
M  V30 18730 C 1775.34 -1.53556 1.30471 0
M  V30 18731 O 1774.39 -2.28632 1.07161 0
M  V30 18732 C 1775.71 0.319651 2.98996 0
M  V30 18733 C 1777.25 0.2673 3.11857 0
M  V30 18734 C 1777.73 0.627784 4.53677 0
M  V30 18735 N 1779.22 0.579808 4.59557 0
M  V30 18736 C 1779.95 0.831377 5.67341 0
M  V30 18737 N 1779.45 1.14821 6.83219 0
M  V30 18738 N 1781.24 0.759337 5.56947 0
M  V30 18739 H 1773.39 1.24534 1.72062 0
M  V30 18740 H 1775.66 0.503969 0.802944 0
M  V30 18741 H 1775.36 1.34201 3.25089 0
M  V30 18742 H 1775.24 -0.333373 3.75724 0
M  V30 18743 H 1777.62 -0.745794 2.8552 0
M  V30 18744 H 1777.71 0.954759 2.37314 0
M  V30 18745 H 1777.35 1.63862 4.80741 0
M  V30 18746 H 1777.28 -0.0816007 5.26537 0
M  V30 18747 H 1779.77 0.34531 3.76319 0
M  V30 18748 H 1780.08 1.32651 7.6133 0
M  V30 18749 H 1778.43 1.18612 6.84804 0
M  V30 18750 H 1781.62 0.511563 4.65296 0
M  V30 18751 H 1781.79 0.95877 6.40868 0
M  V30 18752 N 1775.2 -1.57593 0.0150662 0
M  V30 18753 C 1776.13 -2.06239 -0.999912 0
M  V30 18754 C 1777.14 -0.983112 -1.29764 0
M  V30 18755 O 1778.33 -1.25961 -1.26476 0
M  V30 18756 C 1775.43 -2.46011 -2.33092 0
M  V30 18757 C 1774.61 -3.76851 -2.2204 0
M  V30 18758 C 1773.66 -4.03326 -3.37956 0
M  V30 18759 O 1772.69 -4.73781 -3.15469 0
M  V30 18760 N 1773.89 -3.52399 -4.61298 0
M  V30 18761 H 1776.66 -2.93936 -0.584952 0
M  V30 18762 H 1774.22 -1.60984 -0.172001 0
M  V30 18763 H 1776.21 -2.60825 -3.09439 0
M  V30 18764 H 1774.78 -1.63753 -2.66277 0
M  V30 18765 H 1774 -3.71969 -1.30509 0
M  V30 18766 H 1775.29 -4.626 -2.11845 0
M  V30 18767 H 1774.69 -2.95374 -4.82463 0
M  V30 18768 H 1773.24 -3.72516 -5.3486 0
M  V30 18769 N 1776.68 0.257904 -1.55475 0
M  V30 18770 C 1777.92 0.988933 -1.77054 0
M  V30 18771 C 1778.26 1.85387 -0.578375 0
M  V30 18772 O 1777.53 1.8983 0.423673 0
M  V30 18773 C 1777.81 1.85876 -3.08419 0
M  V30 18774 C 1777.67 1.02274 -4.38018 0
M  V30 18775 C 1778.99 2.84322 -3.3593 0
M  V30 18776 H 1776.1 0.358103 -0.644152 0
M  V30 18777 H 1778.75 0.260209 -1.8821 0
M  V30 18778 H 1776.9 2.48008 -2.99039 0
M  V30 18779 H 1778.57 0.420967 -4.59375 0
M  V30 18780 H 1776.81 0.326705 -4.32568 0
M  V30 18781 H 1777.48 1.6649 -5.26294 0
M  V30 18782 H 1779.96 2.32325 -3.45202 0
M  V30 18783 H 1778.83 3.42313 -4.29084 0
M  V30 18784 H 1779.1 3.60223 -2.56304 0
M  V30 18785 N 1778.15 1.48666 0.52309 0
M  V30 18786 C 1779.08 1.666 1.63605 0
M  V30 18787 C 1780.07 0.514803 1.62123 0
M  V30 18788 O 1781.25 0.748138 1.79211 0
M  V30 18789 C 1778.38 1.71199 3.02172 0
M  V30 18790 C 1777.33 2.85888 3.18515 0
M  V30 18791 C 1776.66 2.75582 4.58213 0
M  V30 18792 C 1777.96 4.27104 3.00631 0
M  V30 18793 H 1779.65 2.59776 1.48851 0
M  V30 18794 H 1777.2 1.25014 0.714667 0
M  V30 18795 H 1779.15 1.82333 3.79911 0
M  V30 18796 H 1777.88 0.746066 3.17964 0
M  V30 18797 H 1776.54 2.7432 2.43195 0
M  V30 18798 H 1776.18 1.76944 4.7085 0
M  V30 18799 H 1775.88 3.52545 4.70091 0
M  V30 18800 H 1777.41 2.88693 5.38041 0
M  V30 18801 H 1778.82 4.3947 3.68157 0
M  V30 18802 H 1777.22 5.05119 3.23999 0
M  V30 18803 H 1778.29 4.43087 1.96982 0
M  V30 18804 N 1779.63 -0.772489 1.37369 0
M  V30 18805 C 1780.87 -1.54405 1.33935 0
M  V30 18806 C 1781.24 -1.9185 -0.0757718 0
M  V30 18807 O 1782.44 -2.67772 -0.234832 0
M  V30 18808 C 1780.71 -2.77561 2.25154 0
M  V30 18809 S 1782.27 -3.67634 2.39564 0
M  V30 18810 H 1779.09 -0.52862 0.475481 0
M  V30 18811 H 1781.69 -0.908446 1.73111 0
M  V30 18812 H 1780.39 -2.4813 3.26894 0
M  V30 18813 H 1779.92 -3.46081 1.87059 0
M  V30 18814 H 1781.94 -4.69502 1.60567 0
M  V30 18815 N 1781.11 -1.21927 -0.998575 0
M  V30 18816 C 1782.34 -1.06501 -1.77034 0
M  V30 18817 C 1782.75 0.387776 -1.85184 0
M  V30 18818 O 1782.09 1.28067 -1.31699 0
M  V30 18819 C 1782.15 -1.59465 -3.22198 0
M  V30 18820 C 1781.82 -3.08008 -3.37609 0
M  V30 18821 C 1782.81 -4.05495 -3.25377 0
M  V30 18822 C 1780.5 -3.47347 -3.62843 0
M  V30 18823 C 1782.49 -5.40306 -3.38154 0
M  V30 18824 C 1780.18 -4.82309 -3.75262 0
M  V30 18825 C 1781.18 -5.78597 -3.62924 0
M  V30 18826 O 1780.87 -7.1111 -3.74938 0
M  V30 18827 H 1780.6 -0.374178 -0.562998 0
M  V30 18828 H 1783.15 -1.61859 -1.26455 0
M  V30 18829 H 1781.38 -0.98509 -3.73942 0
M  V30 18830 H 1783.07 -1.39785 -3.81071 0
M  V30 18831 H 1783.84 -3.76446 -3.05799 0
M  V30 18832 H 1779.72 -2.72928 -3.71526 0
M  V30 18833 H 1783.26 -6.15445 -3.28441 0
M  V30 18834 H 1779.16 -5.1104 -3.94345 0
M  V30 18835 H 1779.93 -7.18609 -3.91846 0
M  V30 18836 N 1782.59 1.19452 -1.02805 0
M  V30 18837 C 1783.52 2.22095 -0.566246 0
M  V30 18838 C 1784.53 1.58828 0.357442 0
M  V30 18839 O 1785.72 1.77835 0.153965 0
M  V30 18840 C 1782.82 3.38343 0.194294 0
M  V30 18841 C 1782 4.31195 -0.734131 0
M  V30 18842 C 1781.05 5.26197 -0.0191426 0
M  V30 18843 O 1780.08 5.65529 -0.645436 0
M  V30 18844 N 1781.28 5.66841 1.25187 0
M  V30 18845 H 1784.05 2.62342 -1.44902 0
M  V30 18846 H 1781.61 1.3411 -0.906978 0
M  V30 18847 H 1783.6 3.9891 0.682136 0
M  V30 18848 H 1782.17 2.96892 0.978474 0
M  V30 18849 H 1781.39 3.68423 -1.40208 0
M  V30 18850 H 1782.68 4.90144 -1.36516 0
M  V30 18851 H 1782.08 5.36918 1.78145 0
M  V30 18852 H 1780.63 6.29664 1.68423 0
M  V30 18853 N 1784.07 0.805805 1.35442 0
M  V30 18854 C 1785 0.230077 2.32364 0
M  V30 18855 C 1785.98 -0.644034 1.57436 0
M  V30 18856 O 1787.16 -0.574467 1.85509 0
M  V30 18857 C 1784.29 -0.622814 3.4167 0
M  V30 18858 C 1783.25 0.152739 4.27727 0
M  V30 18859 C 1782.57 -0.821803 5.28347 0
M  V30 18860 C 1783.87 1.35128 5.04517 0
M  V30 18861 H 1785.57 1.03983 2.80763 0
M  V30 18862 H 1783.11 0.501467 1.34986 0
M  V30 18863 H 1785.07 -1.03564 4.08476 0
M  V30 18864 H 1783.79 -1.46544 2.91877 0
M  V30 18865 H 1782.45 0.546732 3.625 0
M  V30 18866 H 1782.1 -1.65991 4.74822 0
M  V30 18867 H 1781.8 -0.307209 5.86796 0
M  V30 18868 H 1783.32 -1.23285 5.98024 0
M  V30 18869 H 1784.73 1.01337 5.64273 0
M  V30 18870 H 1783.13 1.80031 5.72459 0
M  V30 18871 H 1784.2 2.13833 4.35205 0
M  V30 18872 N 1785.54 -1.47344 0.559239 0
M  V30 18873 C 1786.79 -2.02068 0.035872 0
M  V30 18874 C 1787.11 -1.43573 -1.31953 0
M  V30 18875 O 1786.38 -0.611672 -1.86106 0
M  V30 18876 H 1784.96 -0.746929 0.0102713 0
M  V30 18877 H 1787.63 -1.80724 0.729707 0
M  V30 18878 H 1786.72 -3.12059 -0.0507123 0
M  V30 18879 N 1787.02 -0.295795 -1.54799 0
M  V30 18880 C 1788.43 0.19789 -1.85648 0
M  V30 18881 C 1788.78 1.53834 -1.21776 0
M  V30 18882 O 1787.91 2.10218 -0.513554 0
M  V30 18883 C 1788.5 0.365844 -3.36819 0
M  V30 18884 C 1787.06 0.80375 -3.67718 0
M  V30 18885 C 1786.21 -0.0909572 -2.77151 0
M  V30 18886 H 1789.16 -0.516968 -1.50044 0
M  V30 18887 H 1789.18 1.20123 -3.61041 0
M  V30 18888 H 1788.69 -0.60991 -3.83278 0
M  V30 18889 H 1786.8 1.79024 -3.26774 0
M  V30 18890 H 1786.91 0.626745 -4.74983 0
M  V30 18891 H 1785.27 0.428882 -2.51063 0
M  V30 18892 H 1786.06 -1.06297 -3.26429 0
M  V30 18893 N 1788.5 1.57583 -0.0234236 0
M  V30 18894 C 1789.75 1.91186 0.655152 0
M  V30 18895 C 1790.07 0.89988 1.72995 0
M  V30 18896 O 1789.34 -0.0594278 1.9581 0
M  V30 18897 H 1787.92 0.705686 0.244982 0
M  V30 18898 H 1790.58 1.94775 -0.0698824 0
M  V30 18899 H 1789.68 2.91636 1.11152 0
M  V30 18900 N 1789.98 -0.249655 1.5561 0
M  V30 18901 C 1791.39 -0.818934 1.67781 0
M  V30 18902 C 1791.74 -1.86134 0.620374 0
M  V30 18903 O 1790.87 -2.15133 -0.233869 0
M  V30 18904 C 1791.46 -1.49219 3.0417 0
M  V30 18905 C 1790.02 -2.0092 3.18289 0
M  V30 18906 C 1789.17 -0.859333 2.63649 0
M  V30 18907 H 1792.12 -0.0255186 1.58679 0
M  V30 18908 H 1792.14 -2.36011 2.98461 0
M  V30 18909 H 1791.65 -0.733268 3.8111 0
M  V30 18910 H 1789.75 -2.79701 2.46167 0
M  V30 18911 H 1789.87 -2.20848 4.25163 0
M  V30 18912 H 1788.23 -1.2591 2.21402 0
M  V30 18913 H 1789.01 -0.113545 3.43112 0
M  V30 18914 N 1791.46 -1.48941 -0.515198 0
M  V30 18915 C 1792.71 -1.57398 -1.26768 0
M  V30 18916 C 1793.03 -0.256213 -1.93309 0
M  V30 18917 O 1792.3 0.723408 -1.82054 0
M  V30 18918 H 1790.88 -0.579895 -0.470883 0
M  V30 18919 H 1793.54 -1.85489 -0.598315 0
M  V30 18920 H 1792.63 -2.36272 -2.03916 0
M  V30 18921 N 1792.94 0.765193 -1.37777 0
M  V30 18922 C 1794.35 1.34186 -1.29811 0
M  V30 18923 C 1794.7 1.96133 0.0513426 0
M  V30 18924 O 1793.82 1.94272 0.953273 0
M  V30 18925 C 1794.42 2.43975 -2.35078 0
M  V30 18926 C 1792.98 2.97393 -2.30726 0
M  V30 18927 C 1792.12 1.70667 -2.18559 0
M  V30 18928 H 1795.07 0.564948 -1.48304 0
M  V30 18929 H 1795.1 3.23622 -2.00123 0
M  V30 18930 H 1794.61 1.98859 -3.33282 0
M  V30 18931 H 1792.71 3.46867 -1.36067 0
M  V30 18932 H 1792.82 3.52561 -3.24403 0
M  V30 18933 H 1791.19 1.93846 -1.65215 0
M  V30 18934 H 1791.97 1.27645 -3.18687 0
M  V30 18935 N 1794.41 1.22455 0.992094 0
M  V30 18936 C 1795.66 1.06121 1.73522 0
M  V30 18937 C 1796.01 -0.399412 1.88209 0
M  V30 18938 O 1795.31 -1.2921 1.41476 0
M  V30 18939 C 1795.5 1.70683 3.1401 0
M  V30 18940 C 1795.33 3.22872 3.13023 0
M  V30 18941 C 1794.1 3.91981 3.18872 0
M  V30 18942 C 1796.3 4.19796 2.97113 0
M  V30 18943 N 1794.28 5.3125 3.07648 0
M  V30 18944 C 1795.65 5.45901 2.93926 0
M  V30 18945 C 1797.71 4.10678 2.8151 0
M  V30 18946 C 1796.41 6.63936 2.76734 0
M  V30 18947 C 1798.44 5.28364 2.65679 0
M  V30 18948 C 1797.8 6.53388 2.6318 0
M  V30 18949 H 1793.9 0.442766 0.644579 0
M  V30 18950 H 1796.48 1.55008 1.17816 0
M  V30 18951 H 1794.65 1.24345 3.67958 0
M  V30 18952 H 1796.38 1.47434 3.76889 0
M  V30 18953 H 1793.14 3.42985 3.26586 0
M  V30 18954 H 1793.56 6.04231 3.05343 0
M  V30 18955 H 1798.2 3.14803 2.8224 0
M  V30 18956 H 1795.92 7.59959 2.7475 0
M  V30 18957 H 1799.51 5.23141 2.54587 0
M  V30 18958 H 1798.39 7.42919 2.51079 0
M  V30 18959 N 1795.89 -1.18905 1.03437 0
M  V30 18960 C 1796.82 -2.21792 0.578016 0
M  V30 18961 C 1797.84 -1.59015 -0.349014 0
M  V30 18962 O 1799.03 -1.77914 -0.144532 0
M  V30 18963 C 1796.13 -3.38441 -0.176348 0
M  V30 18964 C 1795.3 -4.308 0.756988 0
M  V30 18965 C 1794.36 -5.26179 0.0470478 0
M  V30 18966 O 1793.38 -5.65179 0.675418 0
M  V30 18967 N 1794.59 -5.67497 -1.2218 0
M  V30 18968 H 1797.35 -2.6157 1.46291 0
M  V30 18969 H 1794.91 -1.33627 0.914078 0
M  V30 18970 H 1796.9 -3.99266 -0.660972 0
M  V30 18971 H 1795.47 -2.97406 -0.962715 0
M  V30 18972 H 1794.69 -3.67674 1.4216 0
M  V30 18973 H 1795.98 -4.89413 1.39113 0
M  V30 18974 H 1795.38 -5.37855 -1.75295 0
M  V30 18975 H 1793.94 -6.30548 -1.65081 0
M  V30 18976 N 1797.37 -0.812977 -1.35013 0
M  V30 18977 C 1798.79 -0.497497 -1.51648 0
M  V30 18978 C 1798.99 0.980162 -1.76054 0
M  V30 18979 O 1798.04 1.76498 -1.80567 0
M  V30 18980 C 1799.35 -1.3484 -2.68772 0
M  V30 18981 C 1800.9 -1.3445 -2.82652 0
M  V30 18982 C 1801.38 -2.17966 -4.02808 0
M  V30 18983 N 1802.87 -2.15537 -4.09998 0
M  V30 18984 C 1803.6 -2.76912 -5.02103 0
M  V30 18985 N 1803.1 -3.47239 -5.99497 0
M  V30 18986 N 1804.89 -2.66519 -4.94898 0
M  V30 18987 H 1797.04 -1.76987 -1.17429 0
M  V30 18988 H 1799.31 -0.753654 -0.575073 0
M  V30 18989 H 1799.01 -2.39732 -2.57336 0
M  V30 18990 H 1798.89 -1.0061 -3.63535 0
M  V30 18991 H 1801.27 -0.303409 -2.93536 0
M  V30 18992 H 1801.35 -1.72671 -1.88728 0
M  V30 18993 H 1801 -3.2212 -3.92685 0
M  V30 18994 H 1800.93 -1.77102 -4.95926 0
M  V30 18995 H 1803.42 -1.64373 -3.40279 0
M  V30 18996 H 1803.73 -3.91341 -6.66387 0
M  V30 18997 H 1802.08 -3.51344 -5.99652 0
M  V30 18998 H 1805.27 -2.1116 -4.17767 0
M  V30 18999 H 1805.44 -3.14639 -5.66486 0
M  V30 19000 N 1798.85 1.47045 -0.567045 0
M  V30 19001 C 1800.26 1.5797 -0.227536 0
M  V30 19002 C 1800.46 1.56434 1.27006 0
M  V30 19003 O 1799.52 1.47297 2.05085 0
M  V30 19004 C 1800.83 2.88053 -0.862894 0
M  V30 19005 C 1802.38 3.01656 -0.835032 0
M  V30 19006 C 1802.86 4.34453 -1.44964 0
M  V30 19007 N 1804.35 4.41113 -1.41327 0
M  V30 19008 C 1805.08 5.42451 -1.85835 0
M  V30 19009 N 1804.58 6.50547 -2.38245 0
M  V30 19010 N 1806.37 5.33556 -1.76847 0
M  V30 19011 H 1798.52 1.46287 -1.53993 0
M  V30 19012 H 1800.78 0.696829 -0.642755 0
M  V30 19013 H 1800.49 2.94942 -1.91578 0
M  V30 19014 H 1800.36 3.75461 -0.361758 0
M  V30 19015 H 1802.75 2.94358 0.209187 0
M  V30 19016 H 1802.83 2.15764 -1.37403 0
M  V30 19017 H 1802.48 4.42508 -2.49298 0
M  V30 19018 H 1802.41 5.19093 -0.886003 0
M  V30 19019 H 1804.9 3.63592 -1.03001 0
M  V30 19020 H 1805.21 7.2406 -2.70105 0
M  V30 19021 H 1803.56 6.51409 -2.42262 0
M  V30 19022 H 1806.75 4.48008 -1.35671 0
M  V30 19023 H 1806.92 6.12391 -2.11851 0
M  V30 19024 N 1800.33 0.304 1.5464 0
M  V30 19025 C 1801.57 -0.305185 1.99378 0
M  V30 19026 C 1801.89 -1.54773 1.19602 0
M  V30 19027 O 1803.09 -2.23169 1.54621 0
M  V30 19028 C 1801.55 -0.594303 3.54959 0
M  V30 19029 C 1801.16 0.630078 4.43547 0
M  V30 19030 C 1802.9 -1.16452 4.08215 0
M  V30 19031 C 1800.81 0.313946 5.90566 0
M  V30 19032 H 1799.74 -0.11781 0.744739 0
M  V30 19033 H 1802.39 0.413174 1.78788 0
M  V30 19034 H 1800.77 -1.37233 3.71461 0
M  V30 19035 H 1801.95 1.40619 4.3882 0
M  V30 19036 H 1800.26 1.11914 4.01079 0
M  V30 19037 H 1802.86 -1.41534 5.15628 0
M  V30 19038 H 1803.2 -2.10773 3.58999 0
M  V30 19039 H 1803.73 -0.448123 3.95268 0
M  V30 19040 H 1800.47 1.2258 6.43937 0
M  V30 19041 H 1799.99 -0.424841 5.98294 0
M  V30 19042 H 1801.67 -0.083395 6.46946 0
M  V30 19043 N 1801.8 -1.57568 0.0317802 0
M  V30 19044 C 1803.22 -1.56264 -0.324633 0
M  V30 19045 C 1803.42 -1.03765 -1.72728 0
M  V30 19046 O 1802.48 -0.685566 -2.43015 0
M  V30 19047 C 1803.79 -3.00214 -0.170806 0
M  V30 19048 C 1805.34 -3.12052 -0.243373 0
M  V30 19049 C 1805.81 -4.57847 -0.118304 0
M  V30 19050 N 1807.3 -4.62869 -0.175203 0
M  V30 19051 C 1808.04 -5.73309 -0.102252 0
M  V30 19052 N 1807.53 -6.92797 0.0219373 0
M  V30 19053 N 1809.33 -5.61882 -0.156432 0
M  V30 19054 H 1801.48 -1.90022 0.948968 0
M  V30 19055 H 1803.74 -0.874208 0.366693 0
M  V30 19056 H 1803.45 -3.42585 0.795517 0
M  V30 19057 H 1803.32 -3.65302 -0.939907 0
M  V30 19058 H 1805.71 -2.69593 -1.20016 0
M  V30 19059 H 1805.79 -2.49681 0.55615 0
M  V30 19060 H 1805.43 -5.00988 0.835072 0
M  V30 19061 H 1805.36 -5.18202 -0.936726 0
M  V30 19062 H 1807.85 -3.76925 -0.271225 0
M  V30 19063 H 1808.17 -7.72768 0.0708376 0
M  V30 19064 H 1806.51 -6.94977 0.0567564 0
M  V30 19065 H 1809.7 -4.67422 -0.251873 0
M  V30 19066 H 1809.88 -6.47929 -0.0961177 0
M  V30 19067 N 1803.28 0.241399 -1.5574 0
M  V30 19068 C 1804.19 1.32034 -1.93918 0
M  V30 19069 C 1805.21 1.52363 -0.840331 0
M  V30 19070 O 1806.38 1.65879 -1.1422 0
M  V30 19071 C 1803.45 2.6539 -2.2309 0
M  V30 19072 C 1802.51 2.53536 -3.46436 0
M  V30 19073 C 1801.74 3.80532 -3.74208 0
M  V30 19074 O 1801.97 4.82662 -3.03964 0
M  V30 19075 O 1800.9 3.78834 -4.67727 0
M  V30 19076 H 1804.73 1.02647 -2.85827 0
M  V30 19077 H 1802.31 0.442616 -1.42693 0
M  V30 19078 H 1804.19 3.44184 -2.43137 0
M  V30 19079 H 1802.87 2.94499 -1.34358 0
M  V30 19080 H 1801.78 1.73009 -3.3169 0
M  V30 19081 H 1803.11 2.29371 -4.35488 0
M  V30 19082 N 1804.76 1.49212 0.507292 0
M  V30 19083 C 1805.69 1.68326 1.61829 0
M  V30 19084 C 1806.67 0.531969 1.61568 0
M  V30 19085 O 1807.86 0.767104 1.78407 0
M  V30 19086 C 1804.99 1.74394 3.0034 0
M  V30 19087 C 1803.94 2.89251 3.15465 0
M  V30 19088 C 1803.27 2.80426 4.55264 0
M  V30 19089 C 1804.57 4.30269 2.96085 0
M  V30 19090 H 1806.26 2.6134 1.46087 0
M  V30 19091 H 1803.81 1.25765 0.701367 0
M  V30 19092 H 1805.76 1.86353 3.77956 0
M  V30 19093 H 1804.48 0.779748 3.17155 0
M  V30 19094 H 1803.14 2.76884 2.40272 0
M  V30 19095 H 1802.79 1.81928 4.68947 0
M  V30 19096 H 1802.49 3.57511 4.66326 0
M  V30 19097 H 1804.01 2.94384 5.34949 0
M  V30 19098 H 1805.43 4.4335 3.63475 0
M  V30 19099 H 1803.83 5.08527 3.18623 0
M  V30 19100 H 1804.9 4.45151 1.92272 0
M  V30 19101 N 1806.24 -0.757876 1.38181 0
M  V30 19102 C 1807.17 -1.88108 1.3095 0
M  V30 19103 C 1808.18 -1.61272 0.222551 0
M  V30 19104 O 1809.37 -1.71931 0.479782 0
M  V30 19105 C 1806.47 -3.2365 1.00518 0
M  V30 19106 C 1805.65 -3.78024 2.20037 0
M  V30 19107 C 1804.7 -4.92073 1.86416 0
M  V30 19108 O 1803.73 -5.0693 2.58864 0
M  V30 19109 N 1804.93 -5.74728 0.816553 0
M  V30 19110 H 1807.7 -1.94823 2.27737 0
M  V30 19111 H 1805.26 -0.937616 1.31986 0
M  V30 19112 H 1807.25 -3.97483 0.760861 0
M  V30 19113 H 1805.82 -3.12348 0.125418 0
M  V30 19114 H 1805.04 -2.95807 2.60561 0
M  V30 19115 H 1806.33 -4.11085 2.99811 0
M  V30 19116 H 1805.73 -5.65289 0.215659 0
M  V30 19117 H 1804.28 -6.48728 0.63211 0
M  V30 19118 N 1807.72 -1.22979 -0.985586 0
M  V30 19119 C 1808.68 -1.00763 -2.05862 0
M  V30 19120 C 1809.68 0.02864 -1.60774 0
M  V30 19121 O 1810.87 -0.210593 -1.72922 0
M  V30 19122 C 1808 -0.523547 -3.36856 0
M  V30 19123 H 1809.19 -1.95982 -2.27004 0
M  V30 19124 H 1806.75 -1.0495 -1.15824 0
M  V30 19125 H 1807.48 0.432658 -3.21401 0
M  V30 19126 H 1807.27 -1.27127 -3.70919 0
M  V30 19127 H 1808.76 -0.388591 -4.15788 0
M  V30 19128 N 1809.19 1.18355 -1.04066 0
M  V30 19129 C 1810.61 1.69995 -0.771919 0
M  V30 19130 C 1810.96 1.83011 0.707213 0
M  V30 19131 O 1810.08 1.5096 1.55048 0
M  V30 19132 C 1810.68 3.08765 -1.39461 0
M  V30 19133 C 1809.24 3.57617 -1.17418 0
M  V30 19134 C 1808.38 2.34168 -1.48528 0
M  V30 19135 H 1811.33 1.0303 -1.20708 0
M  V30 19136 H 1811.35 3.72042 -0.79782 0
M  V30 19137 H 1810.87 2.9926 -2.47113 0
M  V30 19138 H 1808.97 3.72418 -0.116398 0
M  V30 19139 H 1809.08 4.41048 -1.87119 0
M  V30 19140 H 1807.44 2.38081 -0.904972 0
M  V30 19141 H 1808.23 2.27282 -2.57289 0
M  V30 19142 N 1810.67 0.820125 1.3458 0
M  V30 19143 C 1811.64 0.245462 2.27882 0
M  V30 19144 C 1812.64 -0.575025 1.50167 0
M  V30 19145 O 1813.83 -0.391536 1.69743 0
M  V30 19146 C 1810.96 -0.656199 3.34525 0
M  V30 19147 H 1812.15 1.06853 2.80218 0
M  V30 19148 H 1809.7 0.591777 1.44664 0
M  V30 19149 H 1810.44 -1.50244 2.87398 0
M  V30 19150 H 1810.22 -0.0693951 3.92039 0
M  V30 19151 H 1811.71 -1.05216 4.04128 0
M  V30 19152 N 1812.15 -1.46743 0.574835 0
M  V30 19153 C 1813.38 -2.06805 0.0627992 0
M  V30 19154 C 1813.79 -1.42482 -1.23872 0
M  V30 19155 O 1813.15 -0.527375 -1.74714 0
M  V30 19156 C 1813.2 -3.61307 -0.117983 0
M  V30 19157 O 1812.92 -4.23222 1.13201 0
M  V30 19158 C 1814.42 -4.3828 -0.665277 0
M  V30 19159 H 1811.64 -0.668835 0.0538616 0
M  V30 19160 H 1814.19 -1.88488 0.793265 0
M  V30 19161 H 1812.34 -3.79078 -0.798641 0
M  V30 19162 H 1812.76 -5.15992 0.940853 0
M  V30 19163 H 1814.23 -5.47004 -0.740985 0
M  V30 19164 H 1814.71 -4.05777 -1.68052 0
M  V30 19165 H 1815.31 -4.25295 -0.0197462 0
M  V30 19166 N 1813.63 -0.312197 -1.54477 0
M  V30 19167 C 1814.87 0.294208 -2.00655 0
M  V30 19168 C 1815.21 1.52674 -1.20018 0
M  V30 19169 O 1814.48 1.92481 -0.279517 0
M  V30 19170 C 1814.77 0.639677 -3.54373 0
M  V30 19171 C 1814.62 -0.602773 -4.45743 0
M  V30 19172 C 1815.94 1.46181 -4.15113 0
M  V30 19173 H 1813.06 0.10546 -0.729416 0
M  V30 19174 H 1815.7 -0.426519 -1.85151 0
M  V30 19175 H 1813.85 1.25371 -3.67715 0
M  V30 19176 H 1815.52 -1.24116 -4.44289 0
M  V30 19177 H 1813.76 -1.23386 -4.15882 0
M  V30 19178 H 1814.43 -0.316748 -5.5109 0
M  V30 19179 H 1816.91 0.942887 -4.05276 0
M  V30 19180 H 1815.79 1.67231 -5.22805 0
M  V30 19181 H 1816.05 2.45448 -3.67706 0
M  V30 19182 N 1815.11 1.57549 -0.040136 0
M  V30 19183 C 1816.04 2.07803 0.966975 0
M  V30 19184 C 1817.05 1.00363 1.28184 0
M  V30 19185 O 1818.24 1.27957 1.24456 0
M  V30 19186 C 1815.34 2.49688 2.29149 0
M  V30 19187 C 1814.51 3.80336 2.16017 0
M  V30 19188 C 1813.57 4.08652 3.31497 0
M  V30 19189 O 1812.6 4.78739 3.07892 0
M  V30 19190 N 1813.8 3.59693 4.55633 0
M  V30 19191 H 1816.57 2.94829 0.538115 0
M  V30 19192 H 1814.13 1.61237 0.146368 0
M  V30 19193 H 1816.12 2.65715 3.0525 0
M  V30 19194 H 1814.69 1.67969 2.63638 0
M  V30 19195 H 1813.91 3.73998 1.24575 0
M  V30 19196 H 1815.2 4.65912 2.04458 0
M  V30 19197 H 1814.59 3.03012 4.77703 0
M  V30 19198 H 1813.15 3.80978 5.28866 0
M  V30 19199 N 1816.58 -0.233136 1.55866 0
M  V30 19200 C 1817.81 -0.980602 1.82754 0
M  V30 19201 C 1818.23 -1.77624 0.618988 0
M  V30 19202 O 1817.59 -1.76074 -0.432148 0
M  V30 19203 C 1817.64 -1.88319 3.07519 0
M  V30 19204 O 1816.74 -2.97692 2.85401 0
M  V30 19205 H 1816.09 -0.278295 0.602867 0
M  V30 19206 H 1818.62 -0.249956 2.03067 0
M  V30 19207 H 1818.63 -2.29523 3.37318 0
M  V30 19208 H 1817.3 -1.29831 3.95116 0
M  V30 19209 H 1815.88 -2.60517 2.66805 0
M  V30 19210 N 1818.06 -1.49479 -0.499372 0
M  V30 19211 C 1818.99 -1.69182 -1.60934 0
M  V30 19212 C 1819.97 -0.54053 -1.61283 0
M  V30 19213 O 1821.16 -0.776554 -1.77998 0
M  V30 19214 C 1818.29 -1.75985 -2.99411 0
M  V30 19215 C 1817.24 -2.9092 -3.13926 0
M  V30 19216 C 1816.57 -2.82837 -4.5377 0
M  V30 19217 C 1817.87 -4.31833 -2.93799 0
M  V30 19218 H 1819.56 -2.62112 -1.44699 0
M  V30 19219 H 1817.11 -1.26135 -0.694688 0
M  V30 19220 H 1819.06 -1.88354 -3.76962 0
M  V30 19221 H 1817.79 -0.796557 -3.16737 0
M  V30 19222 H 1816.45 -2.78155 -2.388 0
M  V30 19223 H 1816.09 -1.84412 -4.67976 0
M  V30 19224 H 1815.79 -3.59979 -4.64423 0
M  V30 19225 H 1817.32 -2.97217 -5.3338 0
M  V30 19226 H 1818.73 -4.45271 -3.61119 0
M  V30 19227 H 1817.13 -5.10209 -3.15922 0
M  V30 19228 H 1818.2 -4.46165 -1.89908 0
M  V30 19229 N 1819.54 0.750537 -1.38581 0
M  V30 19230 C 1820.79 1.50676 -1.34689 0
M  V30 19231 C 1821.11 1.94903 0.0615414 0
M  V30 19232 O 1820.38 1.67867 1.00982 0
M  V30 19233 H 1818.96 0.558914 -0.495605 0
M  V30 19234 H 1821.62 0.891979 -1.73291 0
M  V30 19235 H 1820.72 2.39623 -1.99969 0
M  V30 19236 N 1821.02 1.235 0.979051 0
M  V30 19237 C 1821.95 1.04183 2.08969 0
M  V30 19238 C 1822.93 -0.041685 1.70049 0
M  V30 19239 O 1824.12 0.123217 1.93809 0
M  V30 19240 C 1821.25 0.633696 3.4147 0
M  V30 19241 C 1820.2 1.66471 3.94299 0
M  V30 19242 C 1819.53 1.11198 5.2301 0
M  V30 19243 C 1820.83 3.05804 4.23416 0
M  V30 19244 H 1822.52 1.9708 2.25388 0
M  V30 19245 H 1820.07 0.948963 1.08308 0
M  V30 19246 H 1822.02 0.485599 4.18593 0
M  V30 19247 H 1820.74 -0.330958 3.24919 0
M  V30 19248 H 1819.4 1.80082 3.19321 0
M  V30 19249 H 1819.05 0.138264 5.0281 0
M  V30 19250 H 1818.75 1.80087 5.59323 0
M  V30 19251 H 1820.27 0.975759 6.02753 0
M  V30 19252 H 1821.69 2.95487 4.91284 0
M  V30 19253 H 1820.08 3.71944 4.70933 0
M  V30 19254 H 1821.15 3.54695 3.30635 0
M  V30 19255 N 1822.5 -1.17802 1.04693 0
M  V30 19256 C 1823.43 -2.23847 0.664448 0
M  V30 19257 C 1824.41 -1.66761 -0.335356 0
M  V30 19258 O 1825.59 -1.93017 -0.214062 0
M  V30 19259 C 1822.72 -3.47284 0.0331587 0
M  V30 19260 C 1821.68 -4.1716 0.95718 0
M  V30 19261 C 1821 -5.34362 0.190034 0
M  V30 19262 C 1822.3 -4.69951 2.2791 0
M  V30 19263 H 1824 -2.56095 1.55099 0
M  V30 19264 H 1821.54 -1.23097 0.747196 0
M  V30 19265 H 1823.5 -4.2068 -0.246178 0
M  V30 19266 H 1822.22 -3.14288 -0.888294 0
M  V30 19267 H 1820.88 -3.45669 1.221 0
M  V30 19268 H 1820.53 -4.97615 -0.734025 0
M  V30 19269 H 1820.23 -5.8205 0.805684 0
M  V30 19270 H 1821.75 -6.10545 -0.0821372 0
M  V30 19271 H 1823.17 -5.3501 2.06003 0
M  V30 19272 H 1821.56 -5.28198 2.84828 0
M  V30 19273 H 1822.63 -3.87032 2.9212 0
M  V30 19274 N 1823.98 -0.827251 -1.34143 0
M  V30 19275 C 1825.22 -0.41656 -1.9776 0
M  V30 19276 C 1825.54 1.02488 -1.65895 0
M  V30 19277 O 1824.81 1.71219 -0.951891 0
M  V30 19278 H 1823.39 -0.151044 -0.73157 0
M  V30 19279 H 1826.06 -1.05765 -1.63706 0
M  V30 19280 H 1825.15 -0.539101 -3.07409 0
M  V30 19281 N 1825.45 1.46436 -0.582609 0
M  V30 19282 C 1826.73 1.956 -0.00129167 0
M  V30 19283 C 1827.11 1.52526 1.45942 0
M  V30 19284 O 1826.46 0.775911 2.14923 0
M  V30 19285 C 1826.67 3.4857 -0.173243 0
M  V30 19286 C 1828.02 4.2458 -0.0410173 0
M  V30 19287 O 1829.04 3.56054 -0.102074 0
M  V30 19288 O 1827.9 5.46418 0.0947564 0
M  V30 19289 H 1824.99 0.825495 0.0498706 0
M  V30 19290 H 1827.54 1.5672 -0.650921 0
M  V30 19291 H 1826.31 3.72808 -1.1887 0
M  V30 19292 H 1825.93 3.94279 0.512822 0
M  V30 19293 N 1826.93 0.320385 1.54309 0
M  V30 19294 C 1828.35 -0.0323699 1.59567 0
M  V30 19295 C 1828.55 -1.50754 1.33699 0
M  V30 19296 O 1827.6 -2.26308 1.11987 0
M  V30 19297 C 1828.92 0.383001 2.98251 0
M  V30 19298 C 1830.46 0.33339 3.11219 0
M  V30 19299 C 1830.94 0.723874 4.52243 0
M  V30 19300 N 1832.43 0.677156 4.58224 0
M  V30 19301 C 1833.17 0.951531 5.6545 0
M  V30 19302 N 1832.66 1.29288 6.8063 0
M  V30 19303 N 1834.45 0.877303 5.55211 0
M  V30 19304 H 1826.61 1.28155 1.69381 0
M  V30 19305 H 1828.87 0.520887 0.792074 0
M  V30 19306 H 1828.57 1.41067 3.22169 0
M  V30 19307 H 1828.45 -0.253601 3.76347 0
M  V30 19308 H 1830.84 -0.685063 2.87038 0
M  V30 19309 H 1830.92 1.00488 2.35236 0
M  V30 19310 H 1830.56 1.74023 4.77157 0
M  V30 19311 H 1830.49 0.0301039 5.26591 0
M  V30 19312 H 1832.98 0.425055 3.75502 0
M  V30 19313 H 1833.29 1.4877 7.58345 0
M  V30 19314 H 1831.64 1.33111 6.82134 0
M  V30 19315 H 1834.83 0.610144 4.64107 0
M  V30 19316 H 1835 1.09449 6.3869 0
M  V30 19317 N 1828.41 -1.57525 0.0484906 0
M  V30 19318 C 1829.34 -2.14405 -0.924811 0
M  V30 19319 C 1830.32 -1.06503 -1.32631 0
M  V30 19320 O 1831.51 -1.3443 -1.4015 0
M  V30 19321 C 1828.64 -2.68686 -2.20057 0
M  V30 19322 C 1827.59 -3.81547 -1.93922 0
M  V30 19323 C 1826.92 -4.22334 -3.27929 0
M  V30 19324 C 1828.22 -5.06801 -1.26295 0
M  V30 19325 H 1829.91 -2.95983 -0.45105 0
M  V30 19326 H 1827.46 -1.42378 -0.215514 0
M  V30 19327 H 1829.41 -3.07117 -2.88543 0
M  V30 19328 H 1828.13 -1.84296 -2.69634 0
M  V30 19329 H 1826.79 -3.43585 -1.27848 0
M  V30 19330 H 1826.44 -3.34899 -3.75302 0
M  V30 19331 H 1826.14 -4.984 -3.11242 0
M  V30 19332 H 1827.66 -4.63363 -3.97652 0
M  V30 19333 H 1829.08 -5.42695 -1.84812 0
M  V30 19334 H 1827.47 -5.87991 -1.19943 0
M  V30 19335 H 1828.54 -4.84313 -0.238605 0
M  V30 19336 N 1829.89 0.224867 -1.55988 0
M  V30 19337 C 1831.13 0.956853 -1.8062 0
M  V30 19338 C 1831.49 1.81663 -0.621483 0
M  V30 19339 O 1832.69 2.58211 -0.747043 0
M  V30 19340 C 1830.96 1.77638 -3.10128 0
M  V30 19341 S 1832.52 2.56445 -3.56063 0
M  V30 19342 H 1829.34 0.321476 -0.634172 0
M  V30 19343 H 1831.94 0.222719 -1.94227 0
M  V30 19344 H 1830.65 1.13484 -3.94398 0
M  V30 19345 H 1830.18 2.55287 -2.99319 0
M  V30 19346 H 1832.19 3.79954 -3.19139 0
M  V30 19347 N 1831.37 1.49742 0.491438 0
M  V30 19348 C 1832.61 1.59947 1.24679 0
M  V30 19349 C 1832.94 0.289598 1.92029 0
M  V30 19350 O 1832.22 -0.707544 1.81174 0
M  V30 19351 C 1832.5 2.7655 2.30634 0
M  V30 19352 C 1832.36 4.1736 1.67723 0
M  V30 19353 C 1833.67 2.88764 3.3212 0
M  V30 19354 H 1830.79 0.582173 0.451934 0
M  V30 19355 H 1833.44 1.8206 0.543517 0
M  V30 19356 H 1831.59 2.57826 2.90616 0
M  V30 19357 H 1833.26 4.47623 1.11495 0
M  V30 19358 H 1831.5 4.22562 0.981 0
M  V30 19359 H 1832.17 4.94838 2.44621 0
M  V30 19360 H 1834.65 3.05838 2.82139 0
M  V30 19361 H 1833.52 3.7201 4.03608 0
M  V30 19362 H 1833.78 1.98517 3.95023 0
M  V30 19363 N 1832.84 -0.743177 1.38977 0
M  V30 19364 C 1834.09 -1.49959 1.35486 0
M  V30 19365 C 1834.41 -1.94933 -0.0512044 0
M  V30 19366 O 1833.68 -1.684 -1.0009 0
M  V30 19367 H 1832.26 -0.556277 0.498562 0
M  V30 19368 H 1834.93 -0.882776 1.73762 0
M  V30 19369 H 1834.02 -2.38559 2.01237 0
M  V30 19370 N 1834.32 -1.24018 -0.972487 0
M  V30 19371 C 1835.29 -1.02941 -2.04782 0
M  V30 19372 C 1836.29 0.0115861 -1.60796 0
M  V30 19373 O 1837.48 -0.228922 -1.72689 0
M  V30 19374 C 1834.61 -0.559246 -3.36282 0
M  V30 19375 H 1835.8 -1.98379 -2.24913 0
M  V30 19376 H 1833.35 -1.06173 -1.14704 0
M  V30 19377 H 1834.09 0.398545 -3.21842 0
M  V30 19378 H 1833.87 -1.31054 -3.6955 0
M  V30 19379 H 1835.36 -0.432669 -4.15353 0
M  V30 19380 N 1835.8 1.17245 -1.05316 0
M  V30 19381 C 1836.76 2.19508 -0.659467 0
M  V30 19382 C 1837.76 1.58169 0.289697 0
M  V30 19383 O 1838.95 1.74045 0.0734019 0
M  V30 19384 C 1836.09 3.40886 0.0311886 0
M  V30 19385 H 1837.28 2.55852 -1.5646 0
M  V30 19386 H 1834.83 1.31348 -0.847193 0
M  V30 19387 H 1835.57 3.10088 0.949535 0
M  V30 19388 H 1835.35 3.86655 -0.651191 0
M  V30 19389 H 1836.84 4.16573 0.292702 0
M  V30 19390 N 1837.28 0.834353 1.33702 0
M  V30 19391 C 1838.53 0.427042 1.97537 0
M  V30 19392 C 1838.85 -1.01607 1.66436 0
M  V30 19393 O 1838.12 -1.70711 0.960958 0
M  V30 19394 H 1836.7 0.154921 0.730759 0
M  V30 19395 H 1839.36 1.06632 1.63143 0
M  V30 19396 H 1838.46 0.555396 3.07118 0
M  V30 19397 N 1838.76 -1.46125 0.590367 0
M  V30 19398 C 1840 -2.01947 0.0787256 0
M  V30 19399 C 1840.33 -1.4634 -1.28878 0
M  V30 19400 O 1839.6 -0.651011 -1.84767 0
M  V30 19401 H 1838.18 -0.746543 0.0261125 0
M  V30 19402 H 1840.84 -1.79136 0.767877 0
M  V30 19403 H 1839.93 -3.12096 0.0154914 0
M  V30 19404 N 1840.23 -0.328564 -1.54137 0
M  V30 19405 C 1841.48 0.272505 -2.00658 0
M  V30 19406 C 1841.81 1.51748 -1.21666 0
M  V30 19407 O 1841.06 1.93566 -0.288224 0
M  V30 19408 C 1841.36 0.646813 -3.51498 0
M  V30 19409 C 1841.03 -0.499561 -4.48124 0
M  V30 19410 C 1839.69 -0.8142 -4.74262 0
M  V30 19411 C 1842.04 -1.26936 -5.05506 0
M  V30 19412 C 1839.37 -1.90127 -5.55039 0
M  V30 19413 C 1841.72 -2.34656 -5.87469 0
M  V30 19414 C 1840.39 -2.66696 -6.11906 0
M  V30 19415 H 1839.66 0.0997168 -0.73426 0
M  V30 19416 H 1842.3 -0.453377 -1.86056 0
M  V30 19417 H 1840.61 1.45319 -3.63854 0
M  V30 19418 H 1842.31 1.12352 -3.84939 0
M  V30 19419 H 1838.9 -0.244255 -4.27903 0
M  V30 19420 H 1843.08 -1.03954 -4.85291 0
M  V30 19421 H 1838.34 -2.15392 -5.72203 0
M  V30 19422 H 1842.51 -2.94745 -6.3095 0
M  V30 19423 H 1840.14 -3.51058 -6.74287 0
M  V30 19424 N 1841.71 1.57497 -0.0568439 0
M  V30 19425 C 1842.68 2.10755 0.900823 0
M  V30 19426 C 1843.68 1.02835 1.23619 0
M  V30 19427 O 1844.87 1.28885 1.17194 0
M  V30 19428 C 1842 2.5965 2.20895 0
M  V30 19429 H 1843.19 2.96669 0.439041 0
M  V30 19430 H 1840.74 1.55121 0.191646 0
M  V30 19431 H 1841.48 1.77147 2.71642 0
M  V30 19432 H 1841.26 3.3852 1.97855 0
M  V30 19433 H 1842.75 3.00982 2.89482 0
M  V30 19434 N 1843.19 -0.216591 1.56105 0
M  V30 19435 C 1844.12 -1.27155 1.95841 0
M  V30 19436 C 1845.1 -1.48626 0.827313 0
M  V30 19437 O 1846.29 -1.60725 1.09 0
M  V30 19438 C 1843.42 -2.62032 2.27939 0
M  V30 19439 C 1842.37 -2.55211 3.43586 0
M  V30 19440 C 1841.7 -3.94163 3.61303 0
M  V30 19441 C 1843 -2.09566 4.78413 0
M  V30 19442 H 1844.69 -0.941435 2.84214 0
M  V30 19443 H 1842.24 -0.451427 1.36741 0
M  V30 19444 H 1844.19 -3.35997 2.5433 0
M  V30 19445 H 1842.91 -2.96742 1.36426 0
M  V30 19446 H 1841.57 -1.83703 3.17252 0
M  V30 19447 H 1841.22 -4.26188 2.67156 0
M  V30 19448 H 1840.92 -3.90479 4.3909 0
M  V30 19449 H 1842.44 -4.69782 3.90047 0
M  V30 19450 H 1843.86 -2.73277 5.03977 0
M  V30 19451 H 1842.26 -2.16931 5.59518 0
M  V30 19452 H 1843.33 -1.0481 4.73437 0
M  V30 19453 N 1844.67 -1.5 -0.48349 0
M  V30 19454 C 1845.9 -1.63867 -1.25821 0
M  V30 19455 C 1846.31 -0.316335 -1.86537 0
M  V30 19456 O 1845.65 0.710307 -1.69412 0
M  V30 19457 C 1845.71 -2.66251 -2.41559 0
M  V30 19458 C 1845.38 -4.10141 -2.01577 0
M  V30 19459 C 1846.37 -4.964 -1.5454 0
M  V30 19460 C 1844.06 -4.55983 -2.10677 0
M  V30 19461 C 1846.05 -6.26546 -1.17129 0
M  V30 19462 C 1843.74 -5.86137 -1.72877 0
M  V30 19463 C 1844.74 -6.71243 -1.2618 0
M  V30 19464 O 1844.42 -7.98969 -0.888988 0
M  V30 19465 H 1844.16 -0.554155 -0.387154 0
M  V30 19466 H 1846.71 -1.96893 -0.585005 0
M  V30 19467 H 1844.94 -2.28442 -3.12011 0
M  V30 19468 H 1846.63 -2.69466 -3.03551 0
M  V30 19469 H 1847.4 -4.62205 -1.46942 0
M  V30 19470 H 1843.27 -3.89895 -2.45974 0
M  V30 19471 H 1846.82 -6.92927 -0.806093 0
M  V30 19472 H 1842.72 -6.19857 -1.80131 0
M  V30 19473 H 1843.48 -8.12133 -1.01893 0
M  V30 19474 N 1846.15 0.735796 -1.39369 0
M  V30 19475 C 1847.56 1.31402 -1.32628 0
M  V30 19476 C 1847.91 1.96198 0.00972836 0
M  V30 19477 O 1847.03 1.9625 0.91185 0
M  V30 19478 C 1847.63 2.38934 -2.402 0
M  V30 19479 C 1846.19 2.92432 -2.36982 0
M  V30 19480 C 1845.33 1.65992 -2.2213 0
M  V30 19481 H 1848.29 0.533364 -1.49469 0
M  V30 19482 H 1848.31 3.19304 -2.06942 0
M  V30 19483 H 1847.82 1.91745 -3.37425 0
M  V30 19484 H 1845.92 3.43903 -1.43394 0
M  V30 19485 H 1846.03 3.456 -3.31809 0
M  V30 19486 H 1844.4 1.90298 -1.69289 0
M  V30 19487 H 1845.18 1.20857 -3.21323 0
M  V30 19488 N 1847.63 1.24532 0.965897 0
M  V30 19489 C 1848.56 1.06393 2.07853 0
M  V30 19490 C 1849.54 -0.0236467 1.70084 0
M  V30 19491 O 1850.72 0.143767 1.93667 0
M  V30 19492 C 1847.85 0.669877 3.40778 0
M  V30 19493 C 1846.81 1.70643 3.92511 0
M  V30 19494 C 1846.13 1.16738 5.21801 0
M  V30 19495 C 1847.43 3.10278 4.20149 0
M  V30 19496 H 1849.13 1.99459 2.23285 0
M  V30 19497 H 1846.67 0.960397 1.07296 0
M  V30 19498 H 1848.62 0.52997 4.18054 0
M  V30 19499 H 1847.35 -0.296477 3.25252 0
M  V30 19500 H 1846.01 1.83458 3.17393 0
M  V30 19501 H 1845.66 0.191586 5.02635 0
M  V30 19502 H 1845.36 1.86009 5.57382 0
M  V30 19503 H 1846.88 1.03963 6.01684 0
M  V30 19504 H 1848.29 3.00681 4.88123 0
M  V30 19505 H 1846.69 3.76918 4.66962 0
M  V30 19506 H 1847.76 3.58182 3.26854 0
M  V30 19507 N 1849.1 -1.16685 1.05936 0
M  V30 19508 C 1850.03 -2.23129 0.688153 0
M  V30 19509 C 1851.01 -1.67108 -0.31765 0
M  V30 19510 O 1852.2 -1.93233 -0.193578 0
M  V30 19511 C 1849.33 -3.47229 0.069991 0
M  V30 19512 C 1848.28 -4.16121 1.00137 0
M  V30 19513 C 1847.61 -5.34131 0.246699 0
M  V30 19514 C 1848.91 -4.67508 2.32882 0
M  V30 19515 H 1850.6 -2.54436 1.57806 0
M  V30 19516 H 1848.15 -1.22298 0.76021 0
M  V30 19517 H 1850.1 -4.20918 -0.201545 0
M  V30 19518 H 1848.83 -3.15212 -0.854909 0
M  V30 19519 H 1847.49 -3.44355 1.25759 0
M  V30 19520 H 1847.13 -4.98366 -0.681204 0
M  V30 19521 H 1846.83 -5.81163 0.867373 0
M  V30 19522 H 1848.36 -6.10598 -0.0173762 0
M  V30 19523 H 1849.77 -5.32795 2.11666 0
M  V30 19524 H 1848.17 -5.25147 2.90414 0
M  V30 19525 H 1849.24 -3.83912 2.96209 0
M  V30 19526 N 1850.58 -0.841432 -1.33258 0
M  V30 19527 C 1851.53 -0.265077 -2.31085 0
M  V30 19528 C 1852.52 0.604339 -1.58253 0
M  V30 19529 O 1853.73 0.493615 -1.731 0
M  V30 19530 H 1850.1 -0.0669974 -0.74901 0
M  V30 19531 H 1852.08 -1.10464 -2.77201 0
M  V30 19532 C 1850.82 0.542926 -3.43435 0
M  V30 19533 H 1850.15 -0.116767 -3.99629 0
M  V30 19534 H 1851.59 0.912004 -4.14075 0
M  V30 19535 C 1850.05 1.72284 -2.89517 0
M  V30 19536 O 1850.58 2.82161 -2.85916 0
M  V30 19537 N 1848.78 1.54557 -2.4609 0
M  V30 19538 H 1848.33 0.651752 -2.49219 0
M  V30 19539 H 1848.29 2.33651 -2.10367 0
M  V30 19540 N 1852.06 1.4581 -0.598108 0
M  V30 19541 C 1852.97 2.34249 0.12834 0
M  V30 19542 C 1853.99 1.50677 0.870202 0
M  V30 19543 O 1855.16 1.83505 0.829924 0
M  V30 19544 C 1852.23 3.28135 1.1193 0
M  V30 19545 C 1851.29 4.27611 0.380432 0
M  V30 19546 C 1850.52 5.17012 1.32419 0
M  V30 19547 O 1850.74 5.09648 2.56154 0
M  V30 19548 O 1849.68 5.962 0.826397 0
M  V30 19549 H 1853.5 2.9775 -0.598199 0
M  V30 19550 H 1851.09 1.45037 -0.358416 0
M  V30 19551 H 1852.97 3.86014 1.6903 0
M  V30 19552 H 1851.65 2.6721 1.82703 0
M  V30 19553 H 1850.55 3.73375 -0.23279 0
M  V30 19554 H 1851.89 4.91365 -0.286627 0
M  V30 19555 N 1853.54 0.336733 1.53961 0
M  V30 19556 C 1854.5 -0.510638 2.23439 0
M  V30 19557 C 1855.5 -1.03304 1.23227 0
M  V30 19558 O 1856.69 -0.923373 1.47714 0
M  V30 19559 C 1853.82 -1.71063 2.94873 0
M  V30 19560 H 1855.02 0.0969205 2.99743 0
M  V30 19561 H 1852.57 0.0879867 1.56052 0
M  V30 19562 H 1853.3 -2.35707 2.22739 0
M  V30 19563 H 1853.09 -1.34331 3.68371 0
M  V30 19564 H 1854.58 -2.31182 3.47771 0
M  V30 19565 N 1855.02 -1.57465 0.0651956 0
M  V30 19566 C 1855.98 -2.1123 -0.889634 0
M  V30 19567 C 1856.98 -1.03489 -1.23072 0
M  V30 19568 O 1858.17 -1.29505 -1.16508 0
M  V30 19569 C 1855.3 -2.60818 -2.19515 0
M  V30 19570 H 1856.49 -2.96898 -0.423301 0
M  V30 19571 H 1854.05 -1.5522 -0.183417 0
M  V30 19572 H 1854.78 -1.78585 -2.70699 0
M  V30 19573 H 1854.57 -3.39564 -1.96057 0
M  V30 19574 H 1856.06 -3.02513 -2.87881 0
M  V30 19575 N 1856.49 0.20831 -1.56217 0
M  V30 19576 C 1857.9 0.774162 -1.69893 0
M  V30 19577 C 1858.26 1.84424 -0.669506 0
M  V30 19578 O 1857.38 2.15677 0.176748 0
M  V30 19579 C 1857.98 1.41102 -3.08019 0
M  V30 19580 C 1856.53 1.9241 -3.23505 0
M  V30 19581 C 1855.68 0.789129 -2.65835 0
M  V30 19582 H 1858.63 -0.0165614 -1.58691 0
M  V30 19583 H 1858.65 2.28015 -3.04614 0
M  V30 19584 H 1858.17 0.631966 -3.8292 0
M  V30 19585 H 1856.27 2.73076 -2.53496 0
M  V30 19586 H 1856.38 2.09497 -4.30868 0
M  V30 19587 H 1854.74 1.19995 -2.24663 0
M  V30 19588 H 1855.53 0.0225345 -3.43293 0
M  V30 19589 N 1857.97 1.50255 0.475528 0
M  V30 19590 C 1858.9 1.71721 1.58222 0
M  V30 19591 C 1859.88 0.56612 1.60403 0
M  V30 19592 O 1861.07 0.804774 1.7674 0
M  V30 19593 C 1858.2 1.80726 2.96573 0
M  V30 19594 C 1857.15 2.95877 3.09258 0
M  V30 19595 C 1856.48 2.9002 4.49213 0
M  V30 19596 C 1857.78 4.36452 2.86891 0
M  V30 19597 H 1859.47 2.6438 1.40511 0
M  V30 19598 H 1857.02 1.27224 0.674533 0
M  V30 19599 H 1858.97 1.94328 3.73918 0
M  V30 19600 H 1857.69 0.846846 3.1543 0
M  V30 19601 H 1856.35 2.81918 2.34345 0
M  V30 19602 H 1856 1.91834 4.64982 0
M  V30 19603 H 1855.7 3.67322 4.58637 0
M  V30 19604 H 1857.23 3.05665 5.28584 0
M  V30 19605 H 1858.64 4.5096 3.53989 0
M  V30 19606 H 1857.04 5.15171 3.07765 0
M  V30 19607 H 1858.11 4.49129 1.82786 0
M  V30 19608 N 1859.45 -0.728395 1.39758 0
M  V30 19609 C 1860.41 -1.82415 1.38772 0
M  V30 19610 C 1861.41 -1.58278 0.283678 0
M  V30 19611 O 1862.6 -1.65556 0.541927 0
M  V30 19612 C 1859.73 -3.20309 1.16684 0
M  V30 19613 H 1860.93 -1.8469 2.36283 0
M  V30 19614 H 1858.48 -0.932729 1.25419 0
M  V30 19615 H 1859.22 -3.2369 0.198817 0
M  V30 19616 H 1859 -3.39226 1.96643 0
M  V30 19617 H 1860.49 -4.0036 1.18751 0
M  V30 19618 N 1860.93 -1.25042 -0.959279 0
M  V30 19619 C 1861.86 -1.07494 -2.07285 0
M  V30 19620 C 1862.84 0.0146264 -1.70094 0
M  V30 19621 O 1864.02 -0.154035 -1.93588 0
M  V30 19622 C 1861.15 -0.68794 -3.40418 0
M  V30 19623 C 1860.11 -1.72722 -3.91601 0
M  V30 19624 C 1859.43 -1.19504 -5.21175 0
M  V30 19625 C 1860.73 -3.12502 -4.18497 0
M  V30 19626 H 1862.43 -2.00641 -2.22224 0
M  V30 19627 H 1859.97 -0.966074 -1.06785 0
M  V30 19628 H 1861.93 -0.552133 -4.17767 0
M  V30 19629 H 1860.65 0.279224 -3.25404 0
M  V30 19630 H 1859.31 -1.85139 -3.16416 0
M  V30 19631 H 1858.96 -0.218239 -5.02526 0
M  V30 19632 H 1858.66 -1.88962 -5.56387 0
M  V30 19633 H 1860.18 -1.07153 -6.01124 0
M  V30 19634 H 1861.6 -3.03266 -4.86521 0
M  V30 19635 H 1859.99 -3.79389 -4.64956 0
M  V30 19636 H 1861.06 -3.5991 -3.2495 0
M  V30 19637 N 1862.41 1.16121 -1.06553 0
M  V30 19638 C 1863.65 1.86346 -0.782279 0
M  V30 19639 C 1863.98 1.82255 0.693395 0
M  V30 19640 O 1863.25 1.2579 1.50179 0
M  V30 19641 H 1861.83 0.689921 -0.286388 0
M  V30 19642 H 1864.49 1.40805 -1.34758 0
M  V30 19643 H 1863.58 2.91712 -1.10954 0
M  V30 19644 N 1863.88 0.848487 1.3281 0
M  V30 19645 C 1864.85 0.293744 2.2731 0
M  V30 19646 C 1865.85 -0.543043 1.51353 0
M  V30 19647 O 1867.04 -0.355443 1.70535 0
M  V30 19648 C 1864.17 -0.585094 3.35841 0
M  V30 19649 H 1865.36 1.12773 2.77889 0
M  V30 19650 H 1862.92 0.622329 1.43376 0
M  V30 19651 H 1863.65 -1.44114 2.9052 0
M  V30 19652 H 1863.44 0.0137777 3.92098 0
M  V30 19653 H 1864.93 -0.966203 4.06269 0
M  V30 19654 N 1865.36 -1.4549 0.605832 0
M  V30 19655 C 1866.61 -2.01852 0.10014 0
M  V30 19656 C 1866.93 -1.47699 -1.27319 0
M  V30 19657 O 1866.2 -0.670571 -1.84066 0
M  V30 19658 H 1864.78 -0.746225 0.0340291 0
M  V30 19659 H 1867.44 -1.78311 0.786834 0
M  V30 19660 H 1866.54 -3.12062 0.0485925 0
M  V30 19661 N 1866.84 -0.344893 -1.5378 0
M  V30 19662 C 1867.77 0.503579 -2.28005 0
M  V30 19663 C 1868.75 1.10149 -1.29619 0
M  V30 19664 O 1869.94 1.12263 -1.58463 0
M  V30 19665 C 1867.07 1.65398 -3.05386 0
M  V30 19666 C 1866.02 1.18434 -4.11288 0
M  V30 19667 C 1865.35 2.42336 -4.76631 0
M  V30 19668 C 1866.65 0.283853 -5.21528 0
M  V30 19669 H 1868.34 -0.115619 -2.99177 0
M  V30 19670 H 1865.89 -0.0570472 -1.43887 0
M  V30 19671 H 1867.84 2.25401 -3.56051 0
M  V30 19672 H 1866.56 2.3001 -2.31869 0
M  V30 19673 H 1865.22 0.607115 -3.61538 0
M  V30 19674 H 1864.87 3.05358 -3.99707 0
M  V30 19675 H 1864.57 2.11594 -5.4818 0
M  V30 19676 H 1866.09 3.03063 -5.3008 0
M  V30 19677 H 1867.51 0.790766 -5.6782 0
M  V30 19678 H 1865.91 0.0682509 -6.00061 0
M  V30 19679 H 1866.98 -0.679653 -4.80113 0
M  V30 19680 N 1868.32 1.57428 -0.0735454 0
M  V30 19681 C 1869.56 1.93843 0.596054 0
M  V30 19682 C 1869.9 0.953931 1.69156 0
M  V30 19683 O 1869.17 -0.0165729 1.94493 0
M  V30 19684 C 1869.46 3.40516 1.17137 0
M  V30 19685 C 1869.31 4.49725 0.0823861 0
M  V30 19686 C 1870.63 3.88042 2.07634 0
M  V30 19687 H 1867.75 0.70488 0.215204 0
M  V30 19688 H 1870.39 1.89484 -0.139871 0
M  V30 19689 H 1868.54 3.44361 1.79855 0
M  V30 19690 H 1870.21 4.58 -0.55078 0
M  V30 19691 H 1868.45 4.29813 -0.586788 0
M  V30 19692 H 1869.12 5.49494 0.525354 0
M  V30 19693 H 1871.6 3.86214 1.54849 0
M  V30 19694 H 1870.48 4.91277 2.44822 0
M  V30 19695 H 1870.74 3.26084 2.98532 0
M  V30 19696 N 1869.8 -0.200022 1.56326 0
M  V30 19697 C 1871.21 -0.765141 1.70301 0
M  V30 19698 C 1871.56 -1.84066 0.679277 0
M  V30 19699 O 1870.68 -2.15768 -0.165308 0
M  V30 19700 C 1871.28 -1.39466 3.08763 0
M  V30 19701 C 1869.84 -1.90692 3.2452 0
M  V30 19702 C 1868.98 -0.77502 2.66249 0
M  V30 19703 H 1871.94 0.024977 1.5868 0
M  V30 19704 H 1871.96 -2.26396 3.05819 0
M  V30 19705 H 1871.47 -0.61165 3.8325 0
M  V30 19706 H 1869.57 -2.71728 2.54941 0
M  V30 19707 H 1869.68 -2.0721 4.31973 0
M  V30 19708 H 1868.05 -1.18802 2.25296 0
M  V30 19709 H 1868.83 -0.00432851 3.433 0
M  V30 19710 N 1871.27 -1.50505 -0.467553 0
M  V30 19711 C 1872.18 -1.72419 -1.59087 0
M  V30 19712 C 1873.2 -0.607403 -1.63054 0
M  V30 19713 O 1874.38 -0.886148 -1.80857 0
M  V30 19714 C 1871.44 -1.81686 -2.95281 0
M  V30 19715 C 1870.5 -3.05435 -3.01675 0
M  V30 19716 C 1869.74 -3.1425 -4.31373 0
M  V30 19717 O 1869.96 -2.29766 -5.22076 0
M  V30 19718 O 1868.89 -4.07005 -4.43431 0
M  V30 19719 H 1872.72 -2.67649 -1.43519 0
M  V30 19720 H 1870.3 -1.34643 -0.647422 0
M  V30 19721 H 1872.19 -1.89941 -3.76165 0
M  V30 19722 H 1870.86 -0.896404 -3.11041 0
M  V30 19723 H 1869.77 -3.02678 -2.19856 0
M  V30 19724 H 1871.1 -3.97071 -2.90853 0
M  V30 19725 N 1872.75 0.720973 -1.40142 0
M  V30 19726 C 1873.66 1.86527 -1.42284 0
M  V30 19727 C 1874.68 1.71106 -0.316044 0
M  V30 19728 O 1875.85 1.93465 -0.55977 0
M  V30 19729 C 1872.92 3.2227 -1.27841 0
M  V30 19730 C 1871.98 3.49984 -2.48616 0
M  V30 19731 C 1871.21 4.7925 -2.34852 0
M  V30 19732 O 1871.44 5.53963 -1.35945 0
M  V30 19733 O 1870.37 5.07179 -3.24119 0
M  V30 19734 H 1874.2 1.87675 -2.38771 0
M  V30 19735 H 1871.78 0.870677 -1.21407 0
M  V30 19736 H 1873.66 4.03362 -1.21973 0
M  V30 19737 H 1872.34 3.21861 -0.344566 0
M  V30 19738 H 1871.25 2.68922 -2.60061 0
M  V30 19739 H 1872.58 3.55184 -3.40742 0
M  V30 19740 N 1874.23 1.25549 0.952634 0
M  V30 19741 C 1875.16 1.08592 2.06712 0
M  V30 19742 C 1876.14 -0.00560571 1.70099 0
M  V30 19743 O 1877.33 0.164299 1.93504 0
M  V30 19744 C 1874.46 0.705984 3.40049 0
M  V30 19745 C 1873.41 1.74797 3.90679 0
M  V30 19746 C 1872.74 1.22266 5.20533 0
M  V30 19747 C 1874.04 3.14717 4.16834 0
M  V30 19748 H 1875.73 2.01816 2.21157 0
M  V30 19749 H 1873.28 0.971723 1.06271 0
M  V30 19750 H 1875.23 0.57428 4.17469 0
M  V30 19751 H 1873.95 -0.261964 3.25548 0
M  V30 19752 H 1872.61 1.86815 3.1543 0
M  V30 19753 H 1872.26 0.244887 5.02404 0
M  V30 19754 H 1871.96 1.9191 5.55377 0
M  V30 19755 H 1873.48 1.10339 6.00548 0
M  V30 19756 H 1874.9 3.05842 4.84906 0
M  V30 19757 H 1873.3 3.81849 4.62938 0
M  V30 19758 H 1874.37 3.61629 3.23037 0
M  V30 19759 N 1875.71 -1.15554 1.07168 0
M  V30 19760 C 1877.12 -1.67889 0.816719 0
M  V30 19761 C 1877.47 -1.84821 -0.658442 0
M  V30 19762 O 1876.6 -1.55018 -1.50991 0
M  V30 19763 C 1877.19 -3.04959 1.47598 0
M  V30 19764 C 1875.75 -3.54378 1.26858 0
M  V30 19765 C 1874.9 -2.30148 1.54684 0
M  V30 19766 H 1877.85 -0.997938 1.23397 0
M  V30 19767 H 1877.87 -3.69796 0.89618 0
M  V30 19768 H 1877.38 -2.92603 2.54961 0
M  V30 19769 H 1875.48 -3.71979 0.215097 0
M  V30 19770 H 1875.59 -4.35932 1.98747 0
M  V30 19771 H 1873.96 -2.35597 0.967776 0
M  V30 19772 H 1874.74 -2.20381 2.63225 0
M  V30 19773 N 1877.19 -0.855519 -1.32358 0
M  V30 19774 C 1878.6 -0.513833 -1.7949 0
M  V30 19775 C 1878.95 0.968373 -1.70637 0
M  V30 19776 O 1878.07 1.75541 -1.26547 0
M  V30 19777 C 1878.67 -0.925925 -3.25902 0
M  V30 19778 C 1877.23 -0.636124 -3.70986 0
M  V30 19779 C 1876.38 -1.12519 -2.53446 0
M  V30 19780 H 1879.33 -1.04264 -1.19644 0
M  V30 19781 H 1879.35 -0.242659 -3.79725 0
M  V30 19782 H 1878.86 -2.00473 -3.32313 0
M  V30 19783 H 1876.96 0.431924 -3.70088 0
M  V30 19784 H 1877.07 -1.20302 -4.6375 0
M  V30 19785 H 1875.44 -0.545429 -2.48791 0
M  V30 19786 H 1876.22 -2.21112 -2.62611 0
M  V30 19787 N 1878.67 1.45167 -0.61354 0
M  V30 19788 C 1879.89 2.07076 -0.115821 0
M  V30 19789 C 1880.32 1.45415 1.19315 0
M  V30 19790 O 1879.67 0.549046 1.72786 0
M  V30 19791 C 1879.72 3.606 0.00406239 0
M  V30 19792 O 1878.83 3.98737 1.05273 0
M  V30 19793 H 1878.17 0.659547 -0.0767679 0
M  V30 19794 H 1880.7 1.86325 -0.845236 0
M  V30 19795 H 1880.71 4.07508 0.200356 0
M  V30 19796 H 1879.38 4.04865 -0.951695 0
M  V30 19797 H 1877.96 3.6349 0.832424 0
M  V30 19798 N 1880.14 0.353044 1.53595 0
M  V30 19799 C 1881.56 0.0014839 1.596 0
M  V30 19800 C 1881.76 -1.47884 1.36867 0
M  V30 19801 O 1880.82 -2.23881 1.16762 0
M  V30 19802 C 1882.13 0.446178 2.97371 0
M  V30 19803 C 1883.68 0.399329 3.10442 0
M  V30 19804 C 1884.15 0.819639 4.50606 0
M  V30 19805 N 1885.64 0.7742 4.56684 0
M  V30 19806 C 1886.38 1.07126 5.63304 0
M  V30 19807 N 1885.87 1.43696 6.77734 0
M  V30 19808 N 1887.67 0.994874 5.53226 0
M  V30 19809 H 1879.82 1.31719 1.66625 0
M  V30 19810 H 1882.08 0.537571 0.780847 0
M  V30 19811 H 1881.79 1.47869 3.19105 0
M  V30 19812 H 1881.66 -0.173715 3.768 0
M  V30 19813 H 1884.05 -0.624023 2.88427 0
M  V30 19814 H 1884.13 1.05455 2.33051 0
M  V30 19815 H 1883.77 1.84105 4.73358 0
M  V30 19816 H 1883.7 0.141795 5.26409 0
M  V30 19817 H 1886.19 0.504609 3.74516 0
M  V30 19818 H 1886.51 1.64822 7.55019 0
M  V30 19819 H 1884.85 1.4755 6.79157 0
M  V30 19820 H 1888.04 0.70845 4.62708 0
M  V30 19821 H 1888.22 1.22972 6.36225 0
M  V30 19822 N 1881.62 -1.57387 0.0818932 0
M  V30 19823 C 1882.87 -1.93486 -0.583744 0
M  V30 19824 C 1883.19 -0.963466 -1.69536 0
M  V30 19825 O 1882.46 -0.0132866 -1.95895 0
M  V30 19826 H 1881.04 -0.714292 -0.218622 0
M  V30 19827 H 1883.7 -1.94381 0.142124 0
M  V30 19828 H 1882.8 -2.9556 -1.00252 0
M  V30 19829 N 1883.1 0.191729 -1.56429 0
M  V30 19830 C 1884.35 0.909797 -1.80464 0
M  V30 19831 C 1884.67 1.83652 -0.655516 0
M  V30 19832 O 1883.94 1.93169 0.325946 0
M  V30 19833 H 1882.52 0.338944 -0.665677 0
M  V30 19834 H 1885.18 0.196432 -1.93908 0
M  V30 19835 H 1884.28 1.49891 -2.7375 0
M  V30 19836 N 1884.58 1.50751 0.459565 0
M  V30 19837 C 1885.51 1.73389 1.56392 0
M  V30 19838 C 1886.49 0.583101 1.59793 0
M  V30 19839 O 1887.67 0.823474 1.75876 0
M  V30 19840 C 1884.8 1.83861 2.94639 0
M  V30 19841 C 1883.76 2.9914 3.06103 0
M  V30 19842 C 1883.08 2.94768 4.46112 0
M  V30 19843 C 1884.38 4.39471 2.82246 0
M  V30 19844 H 1886.08 2.65856 1.37699 0
M  V30 19845 H 1883.62 1.27933 0.661001 0
M  V30 19846 H 1885.58 1.98283 3.71836 0
M  V30 19847 H 1884.3 0.880254 3.14514 0
M  V30 19848 H 1882.96 2.84388 2.31342 0
M  V30 19849 H 1882.61 1.96755 4.62922 0
M  V30 19850 H 1882.31 3.72166 4.54716 0
M  V30 19851 H 1883.83 3.11254 5.25313 0
M  V30 19852 H 1885.25 4.54689 3.49186 0
M  V30 19853 H 1883.64 5.18406 3.02283 0
M  V30 19854 H 1884.71 4.51043 1.78012 0
M  V30 19855 N 1886.06 -0.713531 1.40522 0
M  V30 19856 C 1887.3 -1.47052 1.38637 0
M  V30 19857 C 1887.62 -1.94998 -0.00984474 0
M  V30 19858 O 1886.89 -1.70486 -0.964959 0
M  V30 19859 H 1885.47 -0.545577 0.51025 0
M  V30 19860 H 1888.14 -0.84572 1.75595 0
M  V30 19861 H 1887.23 -2.34237 2.06251 0
M  V30 19862 N 1887.53 -1.26053 -0.945962 0
M  V30 19863 C 1888.44 -1.08959 -2.07762 0
M  V30 19864 C 1889.46 -0.0243726 -1.73983 0
M  V30 19865 O 1890.64 -0.227113 -2.00115 0
M  V30 19866 C 1887.7 -0.719365 -3.39155 0
M  V30 19867 C 1886.76 -1.86347 -3.86747 0
M  V30 19868 C 1885.99 -1.51082 -5.11869 0
M  V30 19869 O 1886.22 -0.410377 -5.68922 0
M  V30 19870 O 1885.15 -2.34395 -5.54385 0
M  V30 19871 H 1888.98 -2.03884 -2.25089 0
M  V30 19872 H 1886.56 -1.05071 -1.0621 0
M  V30 19873 H 1888.44 -0.525412 -4.18112 0
M  V30 19874 H 1887.12 0.20054 -3.23078 0
M  V30 19875 H 1886.03 -2.11235 -3.08756 0
M  V30 19876 H 1887.36 -2.76293 -4.07336 0
M  V30 19877 N 1889.01 1.14984 -1.07779 0
M  V30 19878 C 1889.97 2.1806 -0.705879 0
M  V30 19879 C 1890.97 1.58748 0.256082 0
M  V30 19880 O 1892.16 1.74162 0.0364678 0
M  V30 19881 C 1889.3 3.40875 -0.0411253 0
M  V30 19882 H 1890.49 2.52476 -1.61852 0
M  V30 19883 H 1888.04 1.29522 -0.874863 0
M  V30 19884 H 1888.78 3.12032 0.883548 0
M  V30 19885 H 1888.56 3.85186 -0.73306 0
M  V30 19886 H 1890.05 4.171 0.204275 0
M  V30 19887 N 1890.49 0.862526 1.31902 0
M  V30 19888 C 1891.42 0.328423 2.31179 0
M  V30 19889 C 1892.4 -0.57668 1.60026 0
M  V30 19890 O 1893.59 -0.49527 1.87778 0
M  V30 19891 C 1890.72 -0.47734 3.44004 0
M  V30 19892 C 1889.67 0.334015 4.26695 0
M  V30 19893 C 1889 -0.596973 5.31357 0
M  V30 19894 C 1890.3 1.56405 4.98332 0
M  V30 19895 H 1891.99 1.15797 2.761 0
M  V30 19896 H 1889.54 0.558268 1.32738 0
M  V30 19897 H 1891.49 -0.861461 4.12501 0
M  V30 19898 H 1890.21 -1.34033 2.9783 0
M  V30 19899 H 1888.87 0.699989 3.59855 0
M  V30 19900 H 1888.52 -1.45703 4.81435 0
M  V30 19901 H 1888.22 -0.0580517 5.87571 0
M  V30 19902 H 1889.74 -0.978099 6.02715 0
M  V30 19903 H 1891.16 1.25178 5.59467 0
M  V30 19904 H 1889.55 2.04149 5.64308 0
M  V30 19905 H 1890.62 2.32099 4.25744 0
M  V30 19906 N 1891.97 -1.4484 0.62123 0
M  V30 19907 C 1893.22 -2.01734 0.121544 0
M  V30 19908 C 1893.54 -1.49041 -1.25745 0
M  V30 19909 O 1892.81 -0.690056 -1.83344 0
M  V30 19910 H 1891.39 -0.745822 0.0419419 0
M  V30 19911 H 1894.05 -1.77467 0.805702 0
M  V30 19912 H 1893.15 -3.11993 0.0816882 0
M  V30 19913 N 1893.45 -0.361184 -1.53405 0
M  V30 19914 C 1894.41 0.475026 -2.24223 0
M  V30 19915 C 1895.41 1.01331 -1.24855 0
M  V30 19916 O 1896.6 0.899756 -1.49164 0
M  V30 19917 C 1893.73 1.6635 -2.97557 0
M  V30 19918 H 1894.92 -0.144595 -2.99551 0
M  V30 19919 H 1892.48 -0.112802 -1.55892 0
M  V30 19920 H 1893.21 2.32133 -2.26461 0
M  V30 19921 H 1893 1.28454 -3.70462 0
M  V30 19922 H 1894.49 2.2562 -3.51405 0
M  V30 19923 N 1894.92 1.57341 -0.0902386 0
M  V30 19924 C 1896.17 1.94464 0.575461 0
M  V30 19925 C 1896.5 0.971819 1.68135 0
M  V30 19926 O 1895.78 0.00405665 1.945 0
M  V30 19927 C 1896.06 3.41739 1.13518 0
M  V30 19928 C 1895.91 4.49787 0.0346821 0
M  V30 19929 C 1897.23 3.90222 2.03506 0
M  V30 19930 H 1894.35 0.707123 0.207716 0
M  V30 19931 H 1896.99 1.89325 -0.15996 0
M  V30 19932 H 1895.14 3.46249 1.76192 0
M  V30 19933 H 1896.82 4.5739 -0.599326 0
M  V30 19934 H 1895.06 4.29166 -0.632342 0
M  V30 19935 H 1895.73 5.50021 0.467044 0
M  V30 19936 H 1898.21 3.87834 1.50744 0
M  V30 19937 H 1897.08 4.93846 2.39598 0
M  V30 19938 H 1897.34 3.29232 2.95057 0
M  V30 19939 N 1896.4 -0.183431 1.56529 0
M  V30 19940 C 1897.31 -1.24746 1.98684 0
M  V30 19941 C 1898.33 -1.49139 0.8963 0
M  V30 19942 O 1899.5 -1.61525 1.20298 0
M  V30 19943 C 1896.57 -2.56927 2.32786 0
M  V30 19944 C 1895.63 -2.40503 3.55607 0
M  V30 19945 C 1894.86 -3.66381 3.88073 0
M  V30 19946 O 1895.09 -4.71048 3.21668 0
M  V30 19947 O 1894.02 -3.61214 4.81465 0
M  V30 19948 H 1897.85 -0.919676 2.8944 0
M  V30 19949 H 1895.43 -0.389352 1.44237 0
M  V30 19950 H 1897.31 -3.34923 2.55744 0
M  V30 19951 H 1895.99 -2.89309 1.45196 0
M  V30 19952 H 1894.9 -1.6058 3.37883 0
M  V30 19953 H 1896.23 -2.1305 4.43701 0
M  V30 19954 N 1897.88 -1.50992 -0.451564 0
M  V30 19955 C 1898.81 -1.74216 -1.5547 0
M  V30 19956 C 1899.79 -0.591568 -1.59482 0
M  V30 19957 O 1900.98 -0.83279 -1.75437 0
M  V30 19958 C 1898.11 -1.85421 -2.9366 0
M  V30 19959 C 1897.06 -3.0076 -3.04512 0
M  V30 19960 C 1896.39 -2.9713 -4.44542 0
M  V30 19961 C 1897.69 -4.40961 -2.79911 0
M  V30 19962 H 1899.38 -2.66582 -1.36287 0
M  V30 19963 H 1896.93 -1.28281 -0.654207 0
M  V30 19964 H 1898.88 -2.00252 -3.70779 0
M  V30 19965 H 1897.6 -0.896921 -3.14043 0
M  V30 19966 H 1896.26 -2.85611 -2.2983 0
M  V30 19967 H 1895.91 -1.99207 -4.61872 0
M  V30 19968 H 1895.61 -3.74572 -4.52736 0
M  V30 19969 H 1897.13 -3.14035 -5.23655 0
M  V30 19970 H 1898.55 -4.56534 -3.4677 0
M  V30 19971 H 1896.95 -5.20002 -2.9953 0
M  V30 19972 H 1898.02 -4.51981 -1.75618 0
M  V30 19973 N 1899.36 0.706069 -1.40899 0
M  V30 19974 C 1900.58 1.50008 -1.43221 0
M  V30 19975 C 1901.01 1.88065 -0.0362158 0
M  V30 19976 O 1900.37 1.5392 0.958036 0
M  V30 19977 C 1900.41 2.74578 -2.33751 0
M  V30 19978 O 1899.52 3.71657 -1.78731 0
M  V30 19979 H 1898.86 0.451899 -0.486501 0
M  V30 19980 H 1901.39 0.868772 -1.85239 0
M  V30 19981 H 1901.4 3.23002 -2.49266 0
M  V30 19982 H 1900.07 2.46214 -3.35189 0
M  V30 19983 H 1898.65 3.30544 -1.72612 0
M  V30 19984 N 1900.84 1.26553 0.939264 0
M  V30 19985 C 1901.77 1.10778 2.05549 0
M  V30 19986 C 1902.75 0.0124359 1.70095 0
M  V30 19987 O 1903.93 0.184814 1.93319 0
M  V30 19988 C 1901.06 0.742011 3.39281 0
M  V30 19989 C 1900.02 1.78931 3.88803 0
M  V30 19990 C 1899.34 1.2778 5.19207 0
M  V30 19991 C 1900.64 3.1912 4.13473 0
M  V30 19992 H 1902.34 2.04151 2.19004 0
M  V30 19993 H 1899.88 0.98294 1.05234 0
M  V30 19994 H 1901.84 0.618526 4.16836 0
M  V30 19995 H 1900.56 -0.22742 3.25807 0
M  V30 19996 H 1899.22 1.9015 3.13431 0
M  V30 19997 H 1898.87 0.298159 5.02116 0
M  V30 19998 H 1898.57 1.9779 5.53311 0
M  V30 19999 H 1900.09 1.16703 5.99344 0
M  V30 20000 H 1901.5 3.10967 4.81635 0
M  V30 20001 H 1899.9 3.86738 4.58862 0
M  V30 20002 H 1900.97 3.65034 3.19183 0
M  V30 20003 N 1902.31 -1.14411 1.08387 0
M  V30 20004 C 1903.54 -1.89848 0.835015 0
M  V30 20005 C 1903.96 -1.78034 -0.607091 0
M  V30 20006 O 1903.32 -1.12039 -1.42538 0
M  V30 20007 C 1903.37 -3.37818 1.26141 0
M  V30 20008 O 1902.47 -4.10325 0.41322 0
M  V30 20009 H 1901.82 -0.590682 0.303299 0
M  V30 20010 H 1904.35 -1.44823 1.44525 0
M  V30 20011 H 1904.36 -3.88631 1.24218 0
M  V30 20012 H 1903.03 -3.45735 2.31172 0
M  V30 20013 H 1901.61 -3.69589 0.495854 0
M  V30 20014 N 1903.79 -0.869509 -1.31443 0
M  V30 20015 C 1904.7 -0.328352 -2.32291 0
M  V30 20016 C 1905.72 0.561491 -1.64691 0
M  V30 20017 O 1906.89 0.458316 -1.96116 0
M  V30 20018 C 1903.96 0.461733 -3.43612 0
M  V30 20019 C 1903.02 -0.456015 -4.26871 0
M  V30 20020 C 1902.25 0.296458 -5.32876 0
M  V30 20021 O 1902.48 1.5246 -5.49647 0
M  V30 20022 O 1901.41 -0.345443 -6.00908 0
M  V30 20023 H 1905.24 -1.16424 -2.80498 0
M  V30 20024 H 1902.82 -0.632869 -1.35333 0
M  V30 20025 H 1904.7 0.90965 -4.11465 0
M  V30 20026 H 1903.38 1.27418 -2.97567 0
M  V30 20027 H 1902.29 -0.952421 -3.61773 0
M  V30 20028 H 1903.62 -1.23404 -4.76479 0
M  V30 20029 N 1905.27 1.44508 -0.628902 0
M  V30 20030 C 1906.52 2.02066 -0.132502 0
M  V30 20031 C 1906.85 1.49446 1.24483 0
M  V30 20032 O 1906.1 0.667881 1.83951 0
M  V30 20033 C 1906.4 3.57339 -0.0660437 0
M  V30 20034 C 1906.07 4.29203 -1.38186 0
M  V30 20035 C 1904.73 4.48552 -1.74225 0
M  V30 20036 C 1907.08 4.70108 -2.25051 0
M  V30 20037 C 1904.41 5.06066 -2.96839 0
M  V30 20038 C 1906.76 5.2898 -3.46934 0
M  V30 20039 C 1905.42 5.46549 -3.83198 0
M  V30 20040 H 1904.69 0.739412 -0.048486 0
M  V30 20041 H 1907.34 1.73302 -0.814773 0
M  V30 20042 H 1905.65 3.85504 0.699588 0
M  V30 20043 H 1907.34 3.99602 0.334526 0
M  V30 20044 H 1903.93 4.14471 -1.09141 0
M  V30 20045 H 1908.12 4.54874 -1.98503 0
M  V30 20046 H 1903.37 5.17856 -3.25016 0
M  V30 20047 H 1907.55 5.59626 -4.14478 0
M  V30 20048 H 1905.17 5.90881 -4.78292 0
M  V30 20049 N 1906.75 0.369315 1.53212 0
M  V30 20050 C 1907.68 -0.467242 2.28777 0
M  V30 20051 C 1908.66 -1.08073 1.31355 0
M  V30 20052 O 1909.85 -1.09728 1.60229 0
M  V30 20053 C 1906.98 -1.60519 3.07979 0
M  V30 20054 C 1905.93 -1.11876 4.1312 0
M  V30 20055 C 1905.26 -2.34723 4.80426 0
M  V30 20056 C 1906.56 -0.200846 5.21914 0
M  V30 20057 H 1908.25 0.163201 2.98955 0
M  V30 20058 H 1905.8 0.0799312 1.43778 0
M  V30 20059 H 1907.75 -2.19708 3.59592 0
M  V30 20060 H 1906.47 -2.26292 2.35499 0
M  V30 20061 H 1905.13 -0.549521 3.62458 0
M  V30 20062 H 1904.78 -2.98961 4.04514 0
M  V30 20063 H 1904.48 -2.02846 5.51477 0
M  V30 20064 H 1906 -2.94592 5.34835 0
M  V30 20065 H 1907.42 -0.700331 5.69006 0
M  V30 20066 H 1905.81 0.0272222 6.00094 0
M  V30 20067 H 1906.88 0.755948 4.78971 0
M  V30 20068 N 1908.23 -1.57291 0.0985816 0
M  V30 20069 C 1909.16 -2.17239 -0.856131 0
M  V30 20070 C 1910.14 -1.10669 -1.29176 0
M  V30 20071 O 1911.32 -1.38821 -1.35803 0
M  V30 20072 C 1908.45 -2.75551 -2.11398 0
M  V30 20073 C 1907.41 -3.87524 -1.81685 0
M  V30 20074 C 1906.73 -4.32553 -3.14327 0
M  V30 20075 C 1908.03 -5.10562 -1.10108 0
M  V30 20076 H 1909.73 -2.97268 -0.356657 0
M  V30 20077 H 1907.27 -1.42992 -0.170108 0
M  V30 20078 H 1909.23 -3.16141 -2.78627 0
M  V30 20079 H 1907.95 -1.92781 -2.63634 0
M  V30 20080 H 1906.61 -3.47478 -1.16853 0
M  V30 20081 H 1906.26 -3.46669 -3.64458 0
M  V30 20082 H 1905.96 -5.08049 -2.95228 0
M  V30 20083 H 1907.48 -4.7578 -3.82709 0
M  V30 20084 H 1908.9 -5.483 -1.67453 0
M  V30 20085 H 1907.29 -5.91509 -1.01176 0
M  V30 20086 H 1908.36 -4.84827 -0.0844041 0
M  V30 20087 N 1909.71 0.175127 -1.56624 0
M  V30 20088 C 1910.64 1.21918 -1.99144 0
M  V30 20089 C 1911.62 1.4638 -0.866428 0
M  V30 20090 O 1912.8 1.57779 -1.13223 0
M  V30 20091 C 1909.93 2.55897 -2.34807 0
M  V30 20092 C 1908.89 2.46011 -3.50232 0
M  V30 20093 C 1908.21 3.84445 -3.71626 0
M  V30 20094 C 1909.51 1.96808 -4.83801 0
M  V30 20095 H 1911.21 0.86575 -2.8661 0
M  V30 20096 H 1908.75 0.415014 -1.3789 0
M  V30 20097 H 1910.7 3.29136 -2.63149 0
M  V30 20098 H 1909.43 2.9302 -1.44245 0
M  V30 20099 H 1908.09 1.75227 -3.22011 0
M  V30 20100 H 1907.74 4.18955 -2.78362 0
M  V30 20101 H 1907.44 3.787 -4.49288 0
M  V30 20102 H 1908.96 4.59276 -4.02366 0
M  V30 20103 H 1910.37 2.59819 -5.11045 0
M  V30 20104 H 1908.77 2.0202 -5.65073 0
M  V30 20105 H 1909.84 0.922209 -4.7605 0
M  V30 20106 N 1911.18 1.5123 0.44355 0
M  V30 20107 C 1912.43 1.6359 1.1935 0
M  V30 20108 C 1912.76 0.349172 1.9134 0
M  V30 20109 O 1912.01 -0.66645 1.84003 0
M  V30 20110 C 1912.31 2.78511 2.23978 0
M  V30 20111 C 1911.98 4.18013 1.69045 0
M  V30 20112 C 1910.64 4.55964 1.53786 0
M  V30 20113 C 1912.99 5.05088 1.28591 0
M  V30 20114 C 1910.32 5.78703 0.965374 0
M  V30 20115 C 1912.67 6.284 0.72774 0
M  V30 20116 C 1911.34 6.6513 0.562001 0
M  V30 20117 H 1910.61 0.59862 0.436733 0
M  V30 20118 H 1913.25 1.85245 0.485449 0
M  V30 20119 H 1911.56 2.51054 3.00798 0
M  V30 20120 H 1913.26 2.85275 2.81814 0
M  V30 20121 H 1909.85 3.88087 1.81896 0
M  V30 20122 H 1914.03 4.76378 1.39202 0
M  V30 20123 H 1909.29 6.05813 0.824671 0
M  V30 20124 H 1913.46 6.95217 0.405735 0
M  V30 20125 H 1911.09 7.60111 0.116266 0
M  V30 20126 N 1912.66 -0.698586 1.41271 0
M  V30 20127 C 1913.89 -1.48743 1.43816 0
M  V30 20128 C 1914.3 -1.88752 0.0425858 0
M  V30 20129 O 1913.66 -1.56584 -0.937425 0
M  V30 20130 C 1913.71 -2.75192 2.34418 0
M  V30 20131 O 1913.43 -2.36869 3.68544 0
M  V30 20132 C 1914.93 -3.68957 2.45735 0
M  V30 20133 H 1912.15 -0.458477 0.489938 0
M  V30 20134 H 1914.7 -0.860372 1.85521 0
M  V30 20135 H 1912.85 -3.34142 1.9603 0
M  V30 20136 H 1913.27 -3.18354 4.16834 0
M  V30 20137 H 1914.74 -4.54473 3.13302 0
M  V30 20138 H 1915.22 -4.13237 1.48767 0
M  V30 20139 H 1915.82 -3.15912 2.84745 0
M  V30 20140 N 1914.14 -1.27049 -0.93254 0
M  V30 20141 C 1915.37 -1.15903 -1.71389 0
M  V30 20142 C 1915.78 0.284726 -1.86641 0
M  V30 20143 O 1915.14 1.19428 -1.37997 0
M  V30 20144 C 1915.19 -1.83254 -3.11609 0
M  V30 20145 O 1914.91 -3.21988 -2.97078 0
M  V30 20146 C 1916.41 -1.78172 -4.05918 0
M  V30 20147 H 1913.63 -0.403197 -0.536352 0
M  V30 20148 H 1916.18 -1.67831 -1.16846 0
M  V30 20149 H 1914.33 -1.35243 -3.63026 0
M  V30 20150 H 1914.75 -3.55447 -3.85691 0
M  V30 20151 H 1916.22 -2.29919 -5.01838 0
M  V30 20152 H 1916.7 -0.750036 -4.32748 0
M  V30 20153 H 1917.3 -2.25774 -3.60425 0
M  V30 20154 N 1915.62 1.13835 -1.08993 0
M  V30 20155 C 1916.58 2.17299 -0.728968 0
M  V30 20156 C 1917.58 1.5901 0.23923 0
M  V30 20157 O 1918.77 1.74191 0.0179935 0
M  V30 20158 C 1915.9 3.40812 -0.0772774 0
M  V30 20159 H 1917.1 2.50745 -1.64521 0
M  V30 20160 H 1914.65 1.28586 -0.888552 0
M  V30 20161 H 1915.38 3.12952 0.850403 0
M  V30 20162 H 1915.17 3.84387 -0.773873 0
M  V30 20163 H 1916.66 4.17293 0.160024 0
M  V30 20164 N 1917.1 0.876467 1.3098 0
M  V30 20165 C 1918.34 0.489671 1.96078 0
M  V30 20166 C 1918.66 -0.962603 1.69585 0
M  V30 20167 O 1917.93 -1.67568 1.01478 0
M  V30 20168 H 1916.51 0.178091 0.72546 0
M  V30 20169 H 1919.18 1.11768 1.59668 0
M  V30 20170 H 1918.27 0.652822 3.05196 0
M  V30 20171 N 1918.57 -1.44173 0.636557 0
M  V30 20172 C 1919.82 -2.01209 0.140639 0
M  V30 20173 C 1920.14 -1.50704 -1.2469 0
M  V30 20174 O 1921.34 -1.99904 -1.83713 0
M  V30 20175 C 1919.8 -3.5934 0.20066 0
M  V30 20176 C 1919.41 -4.18841 1.58985 0
M  V30 20177 C 1921.15 -4.23829 -0.238514 0
M  V30 20178 C 1919.06 -5.69213 1.60469 0
M  V30 20179 H 1917.99 -0.752418 0.0488124 0
M  V30 20180 H 1920.64 -1.65329 0.796151 0
M  V30 20181 H 1919.02 -3.92544 -0.522054 0
M  V30 20182 H 1920.19 -3.97165 2.33658 0
M  V30 20183 H 1918.51 -3.66659 1.97357 0
M  V30 20184 H 1921.11 -5.34129 -0.247033 0
M  V30 20185 H 1921.45 -3.96556 -1.26685 0
M  V30 20186 H 1921.98 -3.95449 0.431887 0
M  V30 20187 H 1918.72 -6.01229 2.61158 0
M  V30 20188 H 1918.24 -5.92995 0.900975 0
M  V30 20189 H 1919.92 -6.3295 1.34104 0
M  V30 20190 N 1920.05 -0.377435 -1.53014 0
M  V30 20191 C 1921.28 0.208641 -2.05544 0
M  V30 20192 C 1921.69 1.42037 -1.24988 0
M  V30 20193 O 1921.03 1.81451 -0.286565 0
M  V30 20194 C 1921.09 0.654786 -3.53487 0
M  V30 20195 C 1920.76 -0.441865 -4.54859 0
M  V30 20196 C 1921.76 -1.29552 -5.035 0
M  V30 20197 C 1919.44 -0.605501 -4.98637 0
M  V30 20198 C 1921.43 -2.29804 -5.94533 0
M  V30 20199 C 1919.12 -1.61137 -5.89473 0
M  V30 20200 C 1920.12 -2.45607 -6.37312 0
M  V30 20201 O 1919.81 -3.44477 -7.26355 0
M  V30 20202 H 1919.54 0.0379445 -0.674934 0
M  V30 20203 H 1922.09 -0.537644 -1.98239 0
M  V30 20204 H 1920.32 1.45286 -3.5837 0
M  V30 20205 H 1922.01 1.16519 -3.88816 0
M  V30 20206 H 1922.78 -1.18035 -4.70418 0
M  V30 20207 H 1918.66 0.042229 -4.60981 0
M  V30 20208 H 1922.2 -2.95771 -6.31795 0
M  V30 20209 H 1918.1 -1.72697 -6.21969 0
M  V30 20210 H 1918.87 -3.40345 -7.44384 0
M  V30 20211 N 1921.53 1.57237 -0.106922 0
M  V30 20212 C 1922.78 1.95064 0.554803 0
M  V30 20213 C 1923.11 0.989597 1.67095 0
M  V30 20214 O 1922.38 0.0246857 1.94484 0
M  V30 20215 C 1922.67 3.42924 1.09887 0
M  V30 20216 C 1922.52 4.49798 -0.0130257 0
M  V30 20217 C 1923.84 3.92358 1.99356 0
M  V30 20218 H 1920.96 0.709287 0.200204 0
M  V30 20219 H 1923.6 1.89145 -0.180032 0
M  V30 20220 H 1921.75 3.48098 1.7251 0
M  V30 20221 H 1923.42 4.56729 -0.647804 0
M  V30 20222 H 1921.67 4.28472 -0.677825 0
M  V30 20223 H 1922.34 5.50485 0.40868 0
M  V30 20224 H 1924.81 3.89411 1.46622 0
M  V30 20225 H 1923.69 4.9636 2.34346 0
M  V30 20226 H 1923.95 3.32343 2.91549 0
M  V30 20227 N 1923.01 -0.166818 1.56715 0
M  V30 20228 C 1924.29 -0.910255 1.73129 0
M  V30 20229 C 1924.67 -2.002 0.669555 0
M  V30 20230 O 1924.01 -2.2632 -0.314899 0
M  V30 20231 C 1924.22 -1.47087 3.16491 0
M  V30 20232 C 1925.57 -1.94204 3.77584 0
M  V30 20233 O 1926.6 -1.56872 3.19796 0
M  V30 20234 O 1925.45 -2.62988 4.79061 0
M  V30 20235 H 1922.55 -0.428766 0.70717 0
M  V30 20236 H 1925.09 -0.154295 1.68997 0
M  V30 20237 H 1923.87 -0.685322 3.85252 0
M  V30 20238 H 1923.49 -2.29089 3.24967 0
M  V30 20239 N 1924.49 -1.51463 -0.435524 0
M  V30 20240 C 1925.73 -1.63897 -1.18247 0
M  V30 20241 C 1926.06 -0.358322 -1.9168 0
M  V30 20242 O 1925.33 0.625888 -1.85633 0
M  V30 20243 H 1923.91 -0.60404 -0.439482 0
M  V30 20244 H 1926.57 -1.884 -0.49915 0
M  V30 20245 H 1925.66 -2.46749 -1.91105 0
M  V30 20246 N 1925.96 0.691085 -1.4164 0
M  V30 20247 C 1926.93 1.78671 -1.43559 0
M  V30 20248 C 1927.93 1.5747 -0.325543 0
M  V30 20249 O 1929.12 1.64061 -0.585631 0
M  V30 20250 C 1926.25 3.17102 -1.25135 0
M  V30 20251 H 1927.44 1.78361 -2.41096 0
M  V30 20252 H 1925 0.899148 -1.27848 0
M  V30 20253 H 1925.73 3.23049 -0.284567 0
M  V30 20254 H 1925.52 3.33893 -2.05567 0
M  V30 20255 H 1927.01 3.97071 -1.29324 0
M  V30 20256 N 1927.44 1.27542 0.925789 0
M  V30 20257 C 1928.69 1.13767 1.67038 0
M  V30 20258 C 1929.01 -0.316603 1.92413 0
M  V30 20259 O 1928.28 -1.22124 1.53175 0
M  V30 20260 H 1926.86 0.41803 0.61908 0
M  V30 20261 H 1929.52 1.60097 1.11153 0
M  V30 20262 H 1928.62 1.66818 2.63777 0
M  V30 20263 N 1928.92 -1.13255 1.09595 0
M  V30 20264 C 1930.34 -1.36563 0.825994 0
M  V30 20265 C 1930.54 -1.93595 -0.558844 0
M  V30 20266 O 1929.59 -2.15654 -1.31338 0
M  V30 20267 C 1930.91 -2.31535 1.91864 0
M  V30 20268 C 1932.45 -2.45147 1.94607 0
M  V30 20269 C 1932.93 -3.43427 3.03021 0
M  V30 20270 N 1934.42 -3.50979 3.02271 0
M  V30 20271 C 1935.15 -4.2691 3.82799 0
M  V30 20272 N 1934.65 -5.05981 4.73239 0
M  V30 20273 N 1936.44 -4.22229 3.71051 0
M  V30 20274 H 1928.59 -0.745889 1.98872 0
M  V30 20275 H 1930.86 -0.390727 0.863734 0
M  V30 20276 H 1930.56 -1.96788 2.91492 0
M  V30 20277 H 1930.44 -3.3157 1.79837 0
M  V30 20278 H 1932.82 -2.7918 0.956178 0
M  V30 20279 H 1932.91 -1.45031 2.10712 0
M  V30 20280 H 1932.55 -3.10126 4.02225 0
M  V30 20281 H 1932.48 -4.43352 2.84159 0
M  V30 20282 H 1934.97 -2.94562 2.36731 0
M  V30 20283 H 1935.28 -5.61231 5.31262 0
M  V30 20284 H 1933.63 -5.05208 4.77274 0
M  V30 20285 H 1936.82 -3.59534 2.99755 0
M  V30 20286 H 1936.99 -4.81152 4.34047 0
M  V30 20287 N 1930.4 -0.883401 -1.30514 0
M  V30 20288 C 1931.35 -0.347254 -2.28173 0
M  V30 20289 C 1932.32 0.561698 -1.56314 0
M  V30 20290 O 1933.5 0.490454 -1.84389 0
M  V30 20291 C 1930.64 0.433573 -3.42366 0
M  V30 20292 C 1929.75 -0.504417 -4.29045 0
M  V30 20293 C 1928.89 0.291853 -5.30398 0
M  V30 20294 C 1927.93 -0.641708 -6.08727 0
M  V30 20295 N 1927.06 0.119139 -7.01999 0
M  V30 20296 H 1931.9 -1.1852 -2.73417 0
M  V30 20297 H 1929.44 -0.595824 -1.34493 0
M  V30 20298 H 1931.4 0.902186 -4.07328 0
M  V30 20299 H 1930.03 1.23611 -2.98195 0
M  V30 20300 H 1929.08 -1.09152 -3.64404 0
M  V30 20301 H 1930.39 -1.21969 -4.83658 0
M  V30 20302 H 1929.55 0.822389 -6.011 0
M  V30 20303 H 1928.29 1.04035 -4.76475 0
M  V30 20304 H 1927.29 -1.18389 -5.36902 0
M  V30 20305 H 1928.52 -1.38927 -6.64738 0
M  V30 20306 H 1926.46 0.850204 -6.50467 0
M  V30 20307 H 1926.38 -0.536537 -7.54094 0
M  V30 20308 H 1927.65 0.63047 -7.76946 0
M  V30 20309 N 1931.88 1.43833 -0.644194 0
M  V30 20310 C 1933.1 2.06784 -0.159719 0
M  V30 20311 C 1933.53 1.47913 1.16204 0
M  V30 20312 O 1932.88 0.585574 1.71583 0
M  V30 20313 C 1932.93 3.60527 -0.0724271 0
M  V30 20314 O 1932.04 4.0088 0.967917 0
M  V30 20315 H 1931.38 0.657771 -0.0907406 0
M  V30 20316 H 1933.91 1.8449 -0.884568 0
M  V30 20317 H 1933.92 4.07841 0.113872 0
M  V30 20318 H 1932.59 4.02755 -1.03736 0
M  V30 20319 H 1931.17 3.65174 0.755135 0
M  V30 20320 N 1933.35 0.385544 1.52811 0
M  V30 20321 C 1934.77 0.0353371 1.59561 0
M  V30 20322 C 1934.97 -1.44948 1.39973 0
M  V30 20323 O 1934.03 -2.21354 1.21484 0
M  V30 20324 C 1935.34 0.509155 2.96358 0
M  V30 20325 C 1936.89 0.465088 3.09525 0
M  V30 20326 C 1937.36 0.915035 4.48766 0
M  V30 20327 N 1938.85 0.870895 4.54939 0
M  V30 20328 C 1939.59 1.1905 5.60905 0
M  V30 20329 N 1939.08 1.58039 6.74534 0
M  V30 20330 N 1940.88 1.112 5.50991 0
M  V30 20331 H 1933.03 1.35224 1.63793 0
M  V30 20332 H 1935.29 0.554013 0.769268 0
M  V30 20333 H 1935 1.54604 3.15896 0
M  V30 20334 H 1934.87 -0.0937516 3.77083 0
M  V30 20335 H 1937.26 -0.562704 2.89685 0
M  V30 20336 H 1937.34 1.10375 2.30762 0
M  V30 20337 H 1936.98 1.94104 4.69346 0
M  V30 20338 H 1936.91 0.253422 5.2599 0
M  V30 20339 H 1939.4 0.583936 3.73361 0
M  V30 20340 H 1939.72 1.808 7.51353 0
M  V30 20341 H 1938.06 1.61922 6.75874 0
M  V30 20342 H 1941.25 0.806438 4.61101 0
M  V30 20343 H 1941.43 1.3644 6.33473 0
M  V30 20344 N 1934.83 -1.57178 0.115259 0
M  V30 20345 C 1936.08 -1.94681 -0.542571 0
M  V30 20346 C 1936.4 -0.999211 -1.67454 0
M  V30 20347 O 1935.67 -0.054836 -1.95823 0
M  V30 20348 H 1934.25 -0.718769 -0.203421 0
M  V30 20349 H 1936.91 -1.94036 0.183323 0
M  V30 20350 H 1936.01 -2.9762 -0.939599 0
M  V30 20351 N 1936.31 0.158505 -1.56801 0
M  V30 20352 C 1937.26 1.20094 -1.93808 0
M  V30 20353 C 1938.25 1.39146 -0.807916 0
M  V30 20354 O 1939.44 1.40901 -1.07125 0
M  V30 20355 C 1936.57 2.53736 -2.31243 0
M  V30 20356 C 1935.65 2.38324 -3.50803 0
M  V30 20357 N 1936.04 1.92648 -4.67676 0
M  V30 20358 C 1934.34 2.69112 -3.55661 0
M  V30 20359 C 1935.04 1.90005 -5.49793 0
M  V30 20360 N 1934.02 2.3289 -4.91186 0
M  V30 20361 H 1937.82 0.839694 -2.81649 0
M  V30 20362 H 1935.33 0.366668 -1.58207 0
M  V30 20363 H 1937.33 3.29079 -2.55955 0
M  V30 20364 H 1935.99 2.90652 -1.44747 0
M  V30 20365 H 1937 1.62788 -4.91651 0
M  V30 20366 H 1933.68 3.0998 -2.79676 0
M  V30 20367 H 1935.07 1.5628 -6.53472 0
M  V30 20368 N 1937.79 1.51692 0.427485 0
M  V30 20369 C 1938.7 1.76576 1.5446 0
M  V30 20370 C 1939.72 0.650421 1.61386 0
M  V30 20371 O 1940.89 0.933787 1.78444 0
M  V30 20372 C 1937.96 1.89451 2.90361 0
M  V30 20373 C 1937.02 3.13326 2.93471 0
M  V30 20374 C 1936.25 3.25577 4.22889 0
M  V30 20375 O 1936.47 2.43528 5.15801 0
M  V30 20376 O 1935.41 4.18618 4.32484 0
M  V30 20377 H 1939.23 2.7136 1.36373 0
M  V30 20378 H 1936.82 1.36312 0.611496 0
M  V30 20379 H 1938.7 1.99848 3.70997 0
M  V30 20380 H 1937.38 0.978556 3.08555 0
M  V30 20381 H 1936.28 3.08401 2.11754 0
M  V30 20382 H 1937.62 4.04643 2.80223 0
M  V30 20383 N 1939.27 -0.683564 1.42004 0
M  V30 20384 C 1940.2 -1.8095 1.47578 0
M  V30 20385 C 1941.18 -1.66804 0.333208 0
M  V30 20386 O 1942.36 -1.86357 0.546314 0
M  V30 20387 C 1939.49 -3.19182 1.36895 0
M  V30 20388 C 1938.45 -3.4805 2.49089 0
M  V30 20389 C 1937.77 -4.85764 2.23467 0
M  V30 20390 C 1939.07 -3.4582 3.91415 0
M  V30 20391 H 1940.77 -1.76543 2.41812 0
M  V30 20392 H 1938.31 -0.84794 1.16387 0
M  V30 20393 H 1940.27 -3.97674 1.39404 0
M  V30 20394 H 1938.99 -3.24245 0.391513 0
M  V30 20395 H 1937.65 -2.71915 2.45882 0
M  V30 20396 H 1937.3 -4.87467 1.24037 0
M  V30 20397 H 1937 -5.06043 2.98654 0
M  V30 20398 H 1938.52 -5.66551 2.27711 0
M  V30 20399 H 1939.94 -4.14297 3.96272 0
M  V30 20400 H 1938.33 -3.77633 4.66383 0
M  V30 20401 H 1939.4 -2.4456 4.1871 0
M  V30 20402 N 1940.75 -1.28031 -0.919012 0
M  V30 20403 C 1941.68 -1.14034 -2.03761 0
M  V30 20404 C 1942.66 -0.039495 -1.70054 0
M  V30 20405 O 1943.84 -0.215546 -1.93 0
M  V30 20406 C 1940.97 -0.795894 -3.38057 0
M  V30 20407 C 1939.93 -1.85093 -3.85907 0
M  V30 20408 C 1939.25 -1.36024 -5.17109 0
M  V30 20409 C 1940.55 -3.25658 -4.08343 0
M  V30 20410 H 1942.25 -2.07609 -2.15729 0
M  V30 20411 H 1939.79 -0.999558 -1.03657 0
M  V30 20412 H 1941.74 -0.684762 -4.15799 0
M  V30 20413 H 1940.47 0.175558 -3.26128 0
M  V30 20414 H 1939.13 -1.95112 -3.10366 0
M  V30 20415 H 1938.78 -0.378004 -5.01578 0
M  V30 20416 H 1938.48 -2.06568 -5.50094 0
M  V30 20417 H 1940 -1.26223 -5.97411 0
M  V30 20418 H 1941.41 -3.1859 -4.76627 0
M  V30 20419 H 1939.81 -3.93989 -4.52651 0
M  V30 20420 H 1940.88 -3.70066 -3.13335 0
M  V30 20421 N 1942.22 1.12672 -1.10194 0
M  V30 20422 C 1943.47 1.84605 -0.85397 0
M  V30 20423 C 1943.82 1.82345 0.613845 0
M  V30 20424 O 1943.12 1.25627 1.44667 0
M  V30 20425 C 1943.31 3.31602 -1.33322 0
M  V30 20426 C 1943.14 3.48177 -2.8461 0
M  V30 20427 C 1941.91 3.61958 -3.52582 0
M  V30 20428 C 1944.11 3.43553 -3.82722 0
M  V30 20429 N 1942.09 3.66874 -4.92216 0
M  V30 20430 C 1943.46 3.54933 -5.08352 0
M  V30 20431 C 1945.52 3.27003 -3.75465 0
M  V30 20432 C 1944.22 3.51472 -6.27583 0
M  V30 20433 C 1946.25 3.24853 -4.94191 0
M  V30 20434 C 1945.61 3.36792 -6.18669 0
M  V30 20435 H 1941.71 0.69135 -0.365458 0
M  V30 20436 H 1944.29 1.3491 -1.40383 0
M  V30 20437 H 1942.46 3.79845 -0.810711 0
M  V30 20438 H 1944.19 3.9138 -1.02975 0
M  V30 20439 H 1940.95 3.63969 -3.03024 0
M  V30 20440 H 1941.37 3.73003 -5.64976 0
M  V30 20441 H 1946.01 3.16668 -2.80145 0
M  V30 20442 H 1943.73 3.60577 -7.23194 0
M  V30 20443 H 1947.32 3.13232 -4.90282 0
M  V30 20444 H 1946.2 3.35099 -7.08998 0
M  V30 20445 N 1943.7 0.89031 1.30043 0
M  V30 20446 C 1945.11 0.561241 1.78065 0
M  V30 20447 C 1945.46 -0.922791 1.73144 0
M  V30 20448 O 1944.59 -1.72124 1.31157 0
M  V30 20449 C 1945.18 1.01201 3.23332 0
M  V30 20450 C 1943.74 0.734261 3.69169 0
M  V30 20451 C 1942.89 1.19199 2.50373 0
M  V30 20452 H 1945.84 1.074 1.16838 0
M  V30 20453 H 1945.86 0.343251 3.78949 0
M  V30 20454 H 1945.37 2.09213 3.26881 0
M  V30 20455 H 1943.47 -0.33365 3.71103 0
M  V30 20456 H 1943.59 1.32556 4.60397 0
M  V30 20457 H 1941.95 0.6112 2.47258 0
M  V30 20458 H 1942.73 2.27997 2.56656 0
M  V30 20459 N 1945.18 -1.43489 0.651812 0
M  V30 20460 C 1946.14 -2.29179 -0.0311937 0
M  V30 20461 C 1947.14 -1.42135 -0.751953 0
M  V30 20462 O 1948.33 -1.63781 -0.593416 0
M  V30 20463 C 1945.46 -3.24168 -1.0549 0
M  V30 20464 H 1946.66 -2.91061 0.722741 0
M  V30 20465 H 1944.21 -1.50746 0.412968 0
M  V30 20466 H 1944.95 -2.67177 -1.83812 0
M  V30 20467 H 1944.73 -3.88339 -0.541752 0
M  V30 20468 H 1946.22 -3.88487 -1.53193 0
M  V30 20469 N 1946.66 -0.393643 -1.52605 0
M  V30 20470 C 1947.62 0.427358 -2.25181 0
M  V30 20471 C 1948.62 0.986595 -1.26976 0
M  V30 20472 O 1949.81 0.867913 -1.51039 0
M  V30 20473 C 1946.94 1.60001 -3.01019 0
M  V30 20474 H 1948.14 -0.208101 -2.99177 0
M  V30 20475 H 1945.69 -0.145844 -1.55618 0
M  V30 20476 H 1946.42 2.27278 -2.31334 0
M  V30 20477 H 1946.21 1.20567 -3.73103 0
M  V30 20478 H 1947.7 2.18115 -3.56112 0
M  V30 20479 N 1948.14 1.57115 -0.123593 0
M  V30 20480 C 1949.55 1.82342 0.401051 0
M  V30 20481 C 1949.9 1.04102 1.66304 0
M  V30 20482 O 1949.02 0.279024 2.14594 0
M  V30 20483 C 1949.62 3.30745 0.734394 0
M  V30 20484 C 1948.18 3.56636 1.20365 0
M  V30 20485 C 1947.32 2.76468 0.214686 0
M  V30 20486 H 1950.27 1.54823 -0.348657 0
M  V30 20487 H 1950.3 3.45624 1.59137 0
M  V30 20488 H 1949.81 3.87662 -0.184288 0
M  V30 20489 H 1947.91 3.05081 2.13908 0
M  V30 20490 H 1948.02 4.65197 1.1458 0
M  V30 20491 H 1946.39 2.44816 0.702648 0
M  V30 20492 H 1947.17 3.36146 -0.697174 0
M  V30 20493 N 1949.61 -0.150187 1.56883 0
M  V30 20494 C 1950.55 -1.21495 1.93169 0
M  V30 20495 C 1951.52 -1.41721 0.797116 0
M  V30 20496 O 1952.71 -1.56385 1.05243 0
M  V30 20497 C 1949.84 -2.5744 2.20096 0
M  V30 20498 C 1948.88 -2.53828 3.42744 0
M  V30 20499 S 1949.71 -2.00835 4.96413 0
M  V30 20500 C 1950.87 -3.38515 5.26458 0
M  V30 20501 H 1951.1 -0.905357 2.83179 0
M  V30 20502 H 1948.64 -0.355666 1.50248 0
M  V30 20503 H 1950.59 -3.35675 2.3629 0
M  V30 20504 H 1949.26 -2.85591 1.30755 0
M  V30 20505 H 1948.45 -3.53894 3.58852 0
M  V30 20506 H 1948.05 -1.837 3.25776 0
M  V30 20507 H 1950.34 -4.34611 5.19731 0
M  V30 20508 H 1951.29 -3.27263 6.27937 0
M  V30 20509 H 1951.69 -3.35503 4.5398 0
M  V30 20510 N 1951.09 -1.51916 -0.419434 0
M  V30 20511 C 1952.34 -1.65142 -1.16502 0
M  V30 20512 C 1952.66 -0.378632 -1.91289 0
M  V30 20513 O 1951.93 0.606164 -1.86286 0
M  V30 20514 H 1950.51 -0.608667 -0.433051 0
M  V30 20515 H 1953.17 -1.88919 -0.47914 0
M  V30 20516 H 1952.27 -2.48762 -1.88477 0
M  V30 20517 N 1952.57 0.676023 -1.42365 0
M  V30 20518 C 1953.82 1.43672 -1.43979 0
M  V30 20519 C 1954.17 1.92322 -0.0547645 0
M  V30 20520 O 1953.46 1.67912 0.922834 0
M  V30 20521 C 1953.66 2.65018 -2.39792 0
M  V30 20522 C 1953.49 2.28241 -3.87474 0
M  V30 20523 C 1952.26 2.1766 -4.56018 0
M  V30 20524 C 1954.46 1.89966 -4.7793 0
M  V30 20525 N 1952.44 1.73974 -5.88733 0
M  V30 20526 C 1953.81 1.57189 -5.99743 0
M  V30 20527 C 1955.86 1.76947 -4.65397 0
M  V30 20528 C 1954.57 1.127 -7.10416 0
M  V30 20529 C 1956.59 1.33863 -5.76051 0
M  V30 20530 C 1955.95 1.02009 -6.96974 0
M  V30 20531 H 1952.05 0.522266 -0.582033 0
M  V30 20532 H 1954.64 0.780248 -1.78382 0
M  V30 20533 H 1952.81 3.28356 -2.07453 0
M  V30 20534 H 1954.54 3.31603 -2.31995 0
M  V30 20535 H 1951.3 2.36689 -4.10214 0
M  V30 20536 H 1951.72 1.54557 -6.59121 0
M  V30 20537 H 1956.36 2.00221 -3.72386 0
M  V30 20538 H 1954.08 0.881725 -8.03275 0
M  V30 20539 H 1957.67 1.24312 -5.68364 0
M  V30 20540 H 1956.55 0.691772 -7.81143 0
M  V30 20541 N 1954.05 1.28517 0.912209 0
M  V30 20542 C 1955.3 1.15532 1.65822 0
M  V30 20543 C 1955.62 -0.296177 1.92738 0
M  V30 20544 O 1954.89 -1.20492 1.54462 0
M  V30 20545 H 1953.47 0.424573 0.614611 0
M  V30 20546 H 1956.13 1.61267 1.09448 0
M  V30 20547 H 1955.23 1.69606 2.61993 0
M  V30 20548 N 1955.53 -1.12086 1.1079 0
M  V30 20549 C 1956.76 -1.87222 0.873594 0
M  V30 20550 C 1957.16 -1.80099 -0.579728 0
M  V30 20551 O 1956.51 -1.17551 -1.41165 0
M  V30 20552 C 1956.57 -3.37136 1.24817 0
M  V30 20553 C 1956.23 -3.68031 2.70928 0
M  V30 20554 C 1957.23 -3.66084 3.69159 0
M  V30 20555 C 1954.92 -3.9725 3.07405 0
M  V30 20556 C 1956.91 -3.9292 5.01889 0
M  V30 20557 C 1954.6 -4.23745 4.40322 0
M  V30 20558 C 1955.59 -4.21567 5.37373 0
M  V30 20559 O 1955.28 -4.47403 6.67897 0
M  V30 20560 H 1955.01 -0.599114 0.31311 0
M  V30 20561 H 1957.57 -1.42723 1.47714 0
M  V30 20562 H 1955.8 -3.82207 0.587742 0
M  V30 20563 H 1957.49 -3.93623 0.990758 0
M  V30 20564 H 1958.25 -3.4357 3.42323 0
M  V30 20565 H 1954.13 -3.98085 2.32486 0
M  V30 20566 H 1957.68 -3.91136 5.77632 0
M  V30 20567 H 1953.57 -4.45734 4.66895 0
M  V30 20568 H 1954.34 -4.65004 6.73583 0
M  V30 20569 N 1957 -0.897194 -1.29569 0
M  V30 20570 C 1957.97 -0.377906 -2.26063 0
M  V30 20571 C 1958.97 0.486495 -1.53264 0
M  V30 20572 O 1960.16 0.291905 -1.71737 0
M  V30 20573 C 1957.29 0.460046 -3.37782 0
M  V30 20574 H 1958.48 -1.23009 -2.73512 0
M  V30 20575 H 1956.04 -0.675114 -1.40968 0
M  V30 20576 H 1956.77 1.33232 -2.95668 0
M  V30 20577 H 1956.56 -0.159293 -3.91776 0
M  V30 20578 H 1958.05 0.814753 -4.09575 0
M  V30 20579 N 1958.48 1.43142 -0.659413 0
M  V30 20580 C 1959.45 2.29192 0.0190393 0
M  V30 20581 C 1960.45 1.42532 0.744404 0
M  V30 20582 O 1961.64 1.64093 0.584722 0
M  V30 20583 C 1958.77 3.24723 1.03769 0
M  V30 20584 H 1959.96 2.90674 -0.738166 0
M  V30 20585 H 1957.51 1.50525 -0.420956 0
M  V30 20586 H 1958.25 2.68149 1.82392 0
M  V30 20587 H 1958.03 3.88621 0.52115 0
M  V30 20588 H 1959.52 3.89294 1.5113 0
M  V30 20589 N 1959.96 0.40173 1.52394 0
M  V30 20590 C 1961.37 -0.0695308 1.8657 0
M  V30 20591 C 1961.72 -1.4508 1.32084 0
M  V30 20592 O 1960.85 -2.06181 0.657149 0
M  V30 20593 C 1961.44 -0.132947 3.38539 0
M  V30 20594 C 1960 -0.548527 3.72382 0
M  V30 20595 C 1959.15 0.281664 2.75866 0
M  V30 20596 H 1962.1 0.619102 1.46126 0
M  V30 20597 H 1962.12 -0.949667 3.68458 0
M  V30 20598 H 1961.63 0.872493 3.78166 0
M  V30 20599 H 1959.73 -1.56088 3.3833 0
M  V30 20600 H 1959.85 -0.29805 4.78172 0
M  V30 20601 H 1958.21 -0.254911 2.53421 0
M  V30 20602 H 1958.99 1.28531 3.18331 0
M  V30 20603 N 1961.44 -1.57047 0.131923 0
M  V30 20604 C 1962.67 -1.99699 -0.52952 0
M  V30 20605 C 1963.08 -1.01077 -1.59938 0
M  V30 20606 O 1962.42 0.00256808 -1.837 0
M  V30 20607 C 1962.48 -3.38777 -1.20293 0
M  V30 20608 C 1962.15 -4.56145 -0.279483 0
M  V30 20609 C 1963.14 -5.17614 0.486981 0
M  V30 20610 C 1960.83 -5.01953 -0.186784 0
M  V30 20611 C 1962.82 -6.2329 1.33375 0
M  V30 20612 C 1960.51 -6.07486 0.6636 0
M  V30 20613 C 1961.51 -6.68023 1.42248 0
M  V30 20614 O 1961.19 -7.71516 2.25873 0
M  V30 20615 H 1960.93 -0.660552 -0.143691 0
M  V30 20616 H 1963.48 -2.0423 0.218962 0
M  V30 20617 H 1961.71 -3.31039 -1.99875 0
M  V30 20618 H 1963.4 -3.65634 -1.76258 0
M  V30 20619 H 1964.17 -4.83132 0.425311 0
M  V30 20620 H 1960.04 -4.54572 -0.76718 0
M  V30 20621 H 1963.59 -6.7047 1.92655 0
M  V30 20622 H 1959.49 -6.41397 0.726617 0
M  V30 20623 H 1960.25 -7.8867 2.18955 0
M  V30 20624 N 1962.92 0.141865 -1.5696 0
M  V30 20625 C 1963.85 1.17667 -2.01685 0
M  V30 20626 C 1964.83 1.44509 -0.897282 0
M  V30 20627 O 1966.01 1.55342 -1.16544 0
M  V30 20628 C 1963.14 2.50859 -2.40182 0
M  V30 20629 C 1962.1 2.38527 -3.55371 0
M  V30 20630 C 1961.42 3.76476 -3.79697 0
M  V30 20631 C 1962.72 1.86502 -4.87867 0
M  V30 20632 H 1964.42 0.804761 -2.88382 0
M  V30 20633 H 1961.96 0.385672 -1.38739 0
M  V30 20634 H 1963.92 3.2348 -2.70071 0
M  V30 20635 H 1962.64 2.89895 -1.50428 0
M  V30 20636 H 1961.3 1.68357 -3.25656 0
M  V30 20637 H 1960.95 4.12957 -2.87186 0
M  V30 20638 H 1960.65 3.69085 -4.5722 0
M  V30 20639 H 1962.17 4.50638 -4.12017 0
M  V30 20640 H 1963.58 2.48921 -5.16441 0
M  V30 20641 H 1961.98 1.89989 -5.69231 0
M  V30 20642 H 1963.05 0.821025 -4.77899 0
M  V30 20643 N 1964.39 1.52136 0.411372 0
M  V30 20644 C 1965.62 1.6993 1.18031 0
M  V30 20645 C 1966.04 0.407806 1.84343 0
M  V30 20646 O 1965.39 -0.615981 1.7179 0
M  V30 20647 C 1965.45 2.83333 2.2451 0
M  V30 20648 O 1965.17 4.07482 1.60905 0
M  V30 20649 C 1966.67 3.12618 3.143 0
M  V30 20650 H 1963.89 0.569546 0.354765 0
M  V30 20651 H 1966.43 1.98683 0.484277 0
M  V30 20652 H 1964.59 2.57106 2.89785 0
M  V30 20653 H 1965 4.70657 2.31478 0
M  V30 20654 H 1966.47 3.95486 3.85091 0
M  V30 20655 H 1966.95 2.26078 3.76544 0
M  V30 20656 H 1967.56 3.40602 2.54697 0
M  V30 20657 N 1965.87 -0.668464 1.42721 0
M  V30 20658 C 1967.12 -1.43061 1.43741 0
M  V30 20659 C 1967.45 -1.9412 0.0558656 0
M  V30 20660 O 1966.73 -1.71317 -0.920904 0
M  V30 20661 C 1967.01 -2.62307 2.46712 0
M  V30 20662 C 1966.86 -2.16839 3.94082 0
M  V30 20663 C 1968.18 -3.64525 2.46596 0
M  V30 20664 H 1965.3 -0.518854 0.523412 0
M  V30 20665 H 1967.94 -0.759144 1.74175 0
M  V30 20666 H 1966.09 -3.19593 2.20891 0
M  V30 20667 H 1967.77 -1.64672 4.30907 0
M  V30 20668 H 1966.01 -1.48352 4.07645 0
M  V30 20669 H 1966.68 -3.02521 4.6172 0
M  V30 20670 H 1969.16 -3.16968 2.69574 0
M  V30 20671 H 1968.03 -4.45532 3.20613 0
M  V30 20672 H 1968.29 -4.16084 1.49421 0
M  V30 20673 N 1967.35 -1.28999 -0.905381 0
M  V30 20674 C 1968.6 -1.1664 -1.65534 0
M  V30 20675 C 1968.93 0.283294 -1.92426 0
M  V30 20676 O 1968.18 1.22166 -1.52885 0
M  V30 20677 C 1968.48 -1.91909 -3.01506 0
M  V30 20678 C 1968.15 -3.4166 -2.94243 0
M  V30 20679 C 1966.81 -3.82501 -2.91969 0
M  V30 20680 C 1969.16 -4.37112 -2.8387 0
M  V30 20681 C 1966.49 -5.1712 -2.77135 0
M  V30 20682 C 1968.84 -5.71814 -2.70576 0
M  V30 20683 C 1967.5 -6.1192 -2.66665 0
M  V30 20684 H 1966.77 -0.426816 -0.60573 0
M  V30 20685 H 1969.42 -1.5987 -1.05422 0
M  V30 20686 H 1967.73 -1.41252 -3.65452 0
M  V30 20687 H 1969.42 -1.79756 -3.58453 0
M  V30 20688 H 1966.01 -3.09194 -2.96812 0
M  V30 20689 H 1970.2 -4.06516 -2.84708 0
M  V30 20690 H 1965.45 -5.47311 -2.72508 0
M  V30 20691 H 1969.63 -6.45431 -2.61519 0
M  V30 20692 H 1967.25 -7.16182 -2.54928 0
M  V30 20693 N 1968.83 1.11497 -1.11383 0
M  V30 20694 C 1970.05 1.87567 -0.885056 0
M  V30 20695 C 1970.48 1.79581 0.559675 0
M  V30 20696 O 1969.84 1.15779 1.39517 0
M  V30 20697 C 1969.89 3.34354 -1.35053 0
M  V30 20698 O 1968.99 4.09085 -0.521865 0
M  V30 20699 H 1968.33 0.582433 -0.318853 0
M  V30 20700 H 1970.86 1.4094 -1.48314 0
M  V30 20701 H 1970.87 3.85201 -1.34478 0
M  V30 20702 H 1969.55 3.39484 -2.40257 0
M  V30 20703 H 1968.12 3.68144 -0.593669 0
M  V30 20704 N 1970.31 0.904053 1.29092 0
M  V30 20705 C 1971.22 0.389825 2.31339 0
M  V30 20706 C 1972.23 -0.517628 1.66122 0
M  V30 20707 O 1973.41 -0.406158 1.97262 0
M  V30 20708 C 1970.47 -0.370468 3.44715 0
M  V30 20709 C 1969.54 0.569032 4.25512 0
M  V30 20710 C 1968.77 -0.155071 5.33475 0
M  V30 20711 O 1968.99 -1.37834 5.53496 0
M  V30 20712 O 1967.93 0.504642 5.99781 0
M  V30 20713 H 1971.75 1.2382 2.77313 0
M  V30 20714 H 1969.34 0.668528 1.33608 0
M  V30 20715 H 1971.22 -0.800237 4.13732 0
M  V30 20716 H 1969.89 -1.19484 3.00841 0
M  V30 20717 H 1968.8 1.048 3.59121 0
M  V30 20718 H 1970.13 1.35994 4.7304 0
M  V30 20719 N 1971.79 -1.4279 0.666995 0
M  V30 20720 C 1972.73 -2.32583 -0.0279199 0
M  V30 20721 C 1973.73 -1.49387 -0.79874 0
M  V30 20722 O 1974.93 -1.65509 -0.707585 0
M  V30 20723 H 1971.31 -0.751485 -0.0278204 0
M  V30 20724 H 1973.28 -2.88901 0.746913 0
M  V30 20725 C 1972.03 -3.33869 -0.970921 0
M  V30 20726 H 1971.35 -3.9792 -0.387213 0
M  V30 20727 H 1972.79 -3.99301 -1.42599 0
M  V30 20728 C 1971.25 -2.65527 -2.07358 0
M  V30 20729 O 1971.78 -2.48123 -3.15908 0
M  V30 20730 N 1969.99 -2.24677 -1.84305 0
M  V30 20731 H 1969.53 -2.39032 -0.960283 0
M  V30 20732 H 1969.49 -1.79282 -2.58274 0
M  V30 20733 N 1973.26 -0.409806 -1.52179 0
M  V30 20734 C 1974.49 0.167702 -2.06721 0
M  V30 20735 C 1974.91 1.38034 -1.27782 0
M  V30 20736 O 1974.27 1.7866 -0.308244 0
M  V30 20737 C 1974.32 0.495862 -3.57174 0
M  V30 20738 O 1973.42 1.58675 -3.80652 0
M  V30 20739 H 1972.76 0.013908 -0.663854 0
M  V30 20740 H 1975.29 -0.583201 -1.96112 0
M  V30 20741 H 1975.3 0.754301 -4.00967 0
M  V30 20742 H 1973.98 -0.390588 -4.14062 0
M  V30 20743 H 1972.56 1.32042 -3.48739 0
M  V30 20744 N 1974.74 1.56975 -0.14025 0
M  V30 20745 C 1975.99 1.95081 0.512469 0
M  V30 20746 C 1976.3 1.02722 1.66456 0
M  V30 20747 O 1977.51 1.3038 2.38146 0
M  V30 20748 C 1975.97 3.46775 0.963057 0
M  V30 20749 C 1975.57 4.47708 -0.161733 0
M  V30 20750 C 1977.32 3.93761 1.58595 0
M  V30 20751 C 1975.22 5.90604 0.306746 0
M  V30 20752 H 1974.15 0.72829 0.195216 0
M  V30 20753 H 1976.81 1.82134 -0.223514 0
M  V30 20754 H 1975.19 3.55032 1.7541 0
M  V30 20755 H 1976.36 4.51141 -0.938529 0
M  V30 20756 H 1974.68 4.10599 -0.692608 0
M  V30 20757 H 1977.27 4.97954 1.94796 0
M  V30 20758 H 1977.62 3.34931 2.47238 0
M  V30 20759 H 1978.15 3.88394 0.859928 0
M  V30 20760 H 1974.89 6.53238 -0.544152 0
M  V30 20761 H 1974.41 5.90546 1.04956 0
M  V30 20762 H 1976.09 6.42509 0.760989 0
M  V30 20763 N 1976.22 -0.133539 1.57033 0
M  V30 20764 C 1977.5 -0.873327 1.75021 0
M  V30 20765 C 1977.88 -1.98735 0.71187 0
M  V30 20766 O 1977.22 -2.26937 -0.266823 0
M  V30 20767 C 1977.43 -1.40341 3.19539 0
M  V30 20768 C 1978.78 -1.86151 3.81619 0
M  V30 20769 O 1979.81 -1.50053 3.23052 0
M  V30 20770 O 1978.67 -2.52767 4.84532 0
M  V30 20771 H 1975.76 -0.413669 0.716105 0
M  V30 20772 H 1978.31 -0.118413 1.69286 0
M  V30 20773 H 1977.08 -0.60345 3.86619 0
M  V30 20774 H 1976.7 -2.22145 3.29754 0
M  V30 20775 N 1977.7 -1.52352 -0.403298 0
M  V30 20776 C 1978.94 -1.66944 -1.15141 0
M  V30 20777 C 1979.28 -0.401064 -1.90013 0
M  V30 20778 O 1978.55 0.60071 -1.84991 0
M  V30 20779 C 1978.83 -2.89526 -2.14118 0
M  V30 20780 C 1978.69 -4.26428 -1.43104 0
M  V30 20781 C 1980.01 -3.07636 -3.14719 0
M  V30 20782 H 1977.13 -0.607531 -0.417223 0
M  V30 20783 H 1979.77 -1.84919 -0.436447 0
M  V30 20784 H 1977.92 -2.74332 -2.7509 0
M  V30 20785 H 1979.59 -4.53362 -0.852075 0
M  V30 20786 H 1977.83 -4.27563 -0.732965 0
M  V30 20787 H 1978.5 -5.08258 -2.15355 0
M  V30 20788 H 1980.98 -3.21767 -2.63828 0
M  V30 20789 H 1979.86 -3.94909 -3.81232 0
M  V30 20790 H 1980.12 -2.2121 -3.82777 0
M  V30 20791 N 1979.18 0.660885 -1.43074 0
M  V30 20792 C 1980.42 1.42086 -1.44284 0
M  V30 20793 C 1980.75 1.94394 -0.0643177 0
M  V30 20794 O 1980.01 1.72217 0.929509 0
M  V30 20795 C 1980.3 2.6246 -2.42589 0
M  V30 20796 C 1979.97 2.28615 -3.88647 0
M  V30 20797 C 1978.63 2.19096 -4.28428 0
M  V30 20798 C 1980.98 2.0139 -4.8072 0
M  V30 20799 C 1978.31 1.80498 -5.58245 0
M  V30 20800 C 1980.66 1.64293 -6.10893 0
M  V30 20801 C 1979.33 1.53294 -6.49659 0
M  V30 20802 H 1978.6 0.519929 -0.527973 0
M  V30 20803 H 1981.25 0.752296 -1.76104 0
M  V30 20804 H 1979.55 3.34413 -2.04145 0
M  V30 20805 H 1981.25 3.20662 -2.40784 0
M  V30 20806 H 1977.84 2.36931 -3.57158 0
M  V30 20807 H 1982.02 2.0767 -4.50763 0
M  V30 20808 H 1977.28 1.70563 -5.87127 0
M  V30 20809 H 1981.45 1.42256 -6.81716 0
M  V30 20810 H 1979.08 1.23156 -7.50158 0
M  V30 20811 N 1980.65 1.29477 0.898527 0
M  V30 20812 C 1981.93 1.08195 1.62952 0
M  V30 20813 C 1982.31 -0.373506 2.07769 0
M  V30 20814 O 1981.66 -1.36252 1.83433 0
M  V30 20815 C 1981.87 2.07056 2.80943 0
M  V30 20816 C 1983.22 2.38038 3.51601 0
M  V30 20817 O 1984.24 2.0526 2.91113 0
M  V30 20818 O 1983.1 2.94048 4.60649 0
M  V30 20819 H 1980.19 0.414597 0.715569 0
M  V30 20820 H 1982.74 1.40853 0.946492 0
M  V30 20821 H 1981.51 3.05083 2.45031 0
M  V30 20822 H 1981.14 1.75134 3.56951 0
M  V30 20823 N 1982.13 -1.10905 1.11972 0
M  V30 20824 C 1983.38 -1.83033 0.873311 0
M  V30 20825 C 1983.71 -1.84716 -0.599472 0
M  V30 20826 O 1982.99 -1.30427 -1.44288 0
M  V30 20827 C 1983.27 -3.29941 1.44261 0
M  V30 20828 C 1983.12 -3.36619 2.98341 0
M  V30 20829 C 1984.44 -4.26179 1.09815 0
M  V30 20830 H 1981.56 -0.664529 0.318701 0
M  V30 20831 H 1984.2 -1.30012 1.38553 0
M  V30 20832 H 1982.35 -3.75223 1.00697 0
M  V30 20833 H 1984.02 -2.99854 3.5055 0
M  V30 20834 H 1982.27 -2.76668 3.34122 0
M  V30 20835 H 1982.94 -4.40043 3.33266 0
M  V30 20836 H 1985.41 -3.89105 1.47433 0
M  V30 20837 H 1984.29 -5.27343 1.52318 0
M  V30 20838 H 1984.55 -4.42099 0.00966838 0
M  V30 20839 N 1983.61 -0.910886 -1.2861 0
M  V30 20840 C 1985.03 -0.608615 -1.4754 0
M  V30 20841 C 1985.23 0.846869 -1.8284 0
M  V30 20842 O 1984.28 1.62618 -1.93162 0
M  V30 20843 C 1985.6 -1.54405 -2.5803 0
M  V30 20844 C 1987.14 -1.55046 -2.719 0
M  V30 20845 C 1987.62 -2.47245 -3.85531 0
M  V30 20846 N 1989.11 -2.45356 -3.9288 0
M  V30 20847 C 1989.84 -3.13394 -4.80179 0
M  V30 20848 N 1989.34 -3.90751 -5.72088 0
M  V30 20849 N 1991.13 -3.02495 -4.73765 0
M  V30 20850 H 1983.28 -1.8521 -1.03977 0
M  V30 20851 H 1985.55 -0.794235 -0.517585 0
M  V30 20852 H 1985.25 -2.5816 -2.38844 0
M  V30 20853 H 1985.13 -1.27299 -3.5507 0
M  V30 20854 H 1987.51 -0.520311 -2.90477 0
M  V30 20855 H 1987.6 -1.86195 -1.754 0
M  V30 20856 H 1987.24 -3.50361 -3.67709 0
M  V30 20857 H 1987.17 -2.134 -4.81423 0
M  V30 20858 H 1989.66 -1.89161 -3.27149 0
M  V30 20859 H 1989.97 -4.39694 -6.35523 0
M  V30 20860 H 1988.32 -3.94857 -5.71938 0
M  V30 20861 H 1991.51 -2.41567 -4.00953 0
M  V30 20862 H 1991.68 -3.55793 -5.41586 0
M  V30 20863 N 1985.09 1.42434 -0.674558 0
M  V30 20864 C 1986.5 1.55847 -0.344087 0
M  V30 20865 C 1986.7 1.65424 1.15053 0
M  V30 20866 O 1985.76 1.62103 1.93594 0
M  V30 20867 C 1987.07 2.80859 -1.07419 0
M  V30 20868 C 1988.62 2.94631 -1.05649 0
M  V30 20869 C 1989.1 4.22503 -1.76791 0
M  V30 20870 N 1990.59 4.29415 -1.73658 0
M  V30 20871 C 1991.32 5.27171 -2.25561 0
M  V30 20872 N 1990.82 6.31082 -2.85845 0
M  V30 20873 N 1992.61 5.18968 -2.15937 0
M  V30 20874 H 1984.76 1.34461 -1.6442 0
M  V30 20875 H 1987.03 0.647231 -0.692673 0
M  V30 20876 H 1986.73 2.79919 -2.12928 0
M  V30 20877 H 1986.61 3.71743 -0.63927 0
M  V30 20878 H 1988.99 2.95098 -0.00973704 0
M  V30 20879 H 1989.07 2.04977 -1.53029 0
M  V30 20880 H 1988.72 4.22796 -2.81435 0
M  V30 20881 H 1988.65 5.11091 -1.26861 0
M  V30 20882 H 1991.14 3.5495 -1.29687 0
M  V30 20883 H 1991.45 7.02029 -3.2307 0
M  V30 20884 H 1989.8 6.31644 -2.89914 0
M  V30 20885 H 1992.99 4.3671 -1.6853 0
M  V30 20886 H 1993.16 5.9499 -2.56693 0
M  V30 20887 N 1986.57 0.417871 1.51959 0
M  V30 20888 C 1987.53 -0.391479 2.25832 0
M  V30 20889 C 1988.53 -0.96627 1.2853 0
M  V30 20890 O 1989.72 -0.843774 1.52401 0
M  V30 20891 C 1986.85 -1.55192 3.03526 0
M  V30 20892 H 1988.04 0.255672 2.98808 0
M  V30 20893 H 1985.6 0.170583 1.55366 0
M  V30 20894 H 1986.33 -2.23569 2.3492 0
M  V30 20895 H 1986.12 -1.14616 3.74974 0
M  V30 20896 H 1987.61 -2.12422 3.59537 0
M  V30 20897 N 1988.04 -1.56898 0.148573 0
M  V30 20898 C 1988.95 -2.2041 -0.80353 0
M  V30 20899 C 1989.97 -1.18886 -1.27052 0
M  V30 20900 O 1991.15 -1.51468 -1.32738 0
M  V30 20901 C 1988.21 -2.81447 -2.02456 0
M  V30 20902 C 1987.27 -3.98102 -1.60665 0
M  V30 20903 C 1986.51 -4.56219 -2.76948 0
M  V30 20904 O 1986.73 -4.13215 -3.93204 0
M  V30 20905 O 1985.66 -5.46455 -2.52329 0
M  V30 20906 H 1989.49 -3.02284 -0.292881 0
M  V30 20907 H 1987.07 -1.49193 -0.0785299 0
M  V30 20908 H 1988.96 -3.20235 -2.73911 0
M  V30 20909 H 1987.63 -2.02585 -2.5247 0
M  V30 20910 H 1986.54 -3.64027 -0.862287 0
M  V30 20911 H 1987.87 -4.78489 -1.15365 0
M  V30 20912 N 1989.52 0.125209 -1.57102 0
M  V30 20913 C 1990.77 0.830372 -1.85678 0
M  V30 20914 C 1991.12 1.77786 -0.735511 0
M  V30 20915 O 1990.42 1.89759 0.264965 0
M  V30 20916 C 1990.61 1.62349 -3.18398 0
M  V30 20917 C 1990.44 0.754303 -4.43329 0
M  V30 20918 C 1989.21 0.411522 -5.03621 0
M  V30 20919 C 1991.41 0.0747326 -5.14246 0
M  V30 20920 N 1989.39 -0.468983 -6.12106 0
M  V30 20921 C 1990.76 -0.665023 -6.16423 0
M  V30 20922 C 1992.82 -0.00233295 -4.979 0
M  V30 20923 C 1991.52 -1.4746 -7.04023 0
M  V30 20924 C 1993.54 -0.798713 -5.85982 0
M  V30 20925 C 1992.91 -1.52668 -6.87657 0
M  V30 20926 H 1989.01 0.280983 -0.729776 0
M  V30 20927 H 1991.59 0.0944536 -1.94471 0
M  V30 20928 H 1989.76 2.33049 -3.10713 0
M  V30 20929 H 1991.49 2.27351 -3.34804 0
M  V30 20930 H 1988.25 0.75234 -4.67586 0
M  V30 20931 H 1988.67 -0.900902 -6.70979 0
M  V30 20932 H 1993.31 0.546129 -4.19258 0
M  V30 20933 H 1991.03 -2.03424 -7.82077 0
M  V30 20934 H 1994.62 -0.86062 -5.75399 0
M  V30 20935 H 1993.5 -2.13301 -7.54634 0
M  V30 20936 N 1991 1.52564 0.395213 0
M  V30 20937 C 1992.25 1.67552 1.14254 0
M  V30 20938 C 1992.58 0.411135 1.89798 0
M  V30 20939 O 1991.85 -0.590891 1.85307 0
M  V30 20940 C 1992.14 2.90657 2.1258 0
M  V30 20941 C 1991.99 4.27181 1.40841 0
M  V30 20942 C 1993.31 3.09301 3.13083 0
M  V30 20943 H 1990.43 0.609735 0.413995 0
M  V30 20944 H 1993.07 1.85148 0.426634 0
M  V30 20945 H 1991.22 2.75787 2.73631 0
M  V30 20946 H 1992.89 4.53808 0.82802 0
M  V30 20947 H 1991.14 4.27946 0.71028 0
M  V30 20948 H 1991.81 5.09393 2.12656 0
M  V30 20949 H 1994.28 3.23162 2.62118 0
M  V30 20950 H 1993.16 3.96925 3.79133 0
M  V30 20951 H 1993.42 2.23237 3.81599 0
M  V30 20952 N 1992.48 -0.653289 1.43422 0
M  V30 20953 C 1993.41 -1.77877 1.44543 0
M  V30 20954 C 1994.42 -1.59177 0.341566 0
M  V30 20955 O 1995.61 -1.67899 0.605995 0
M  V30 20956 C 1992.71 -3.15302 1.24249 0
M  V30 20957 C 1991.89 -3.60661 2.47472 0
M  V30 20958 C 1990.94 -4.76889 2.22403 0
M  V30 20959 O 1989.97 -4.86332 2.95754 0
M  V30 20960 N 1991.17 -5.67088 1.24062 0
M  V30 20961 H 1993.94 -1.77394 2.41561 0
M  V30 20962 H 1991.5 -0.837129 1.38578 0
M  V30 20963 H 1993.49 -3.90744 1.05361 0
M  V30 20964 H 1992.06 -3.10557 0.356765 0
M  V30 20965 H 1991.28 -2.75664 2.81785 0
M  V30 20966 H 1992.57 -3.87713 3.29478 0
M  V30 20967 H 1991.97 -5.62132 0.634383 0
M  V30 20968 H 1990.52 -6.42252 1.11158 0
M  V30 20969 N 1993.96 -1.29952 -0.891648 0
M  V30 20970 C 1995.18 -1.21297 -1.67615 0
M  V30 20971 C 1995.6 0.225203 -1.87452 0
M  V30 20972 O 1994.96 1.14977 -1.41727 0
M  V30 20973 C 1995.01 -1.93074 -3.05622 0
M  V30 20974 O 1994.73 -3.31276 -2.86684 0
M  V30 20975 C 1996.23 -1.90996 -4.00044 0
M  V30 20976 H 1993.45 -0.420057 -0.523253 0
M  V30 20977 H 1995.99 -1.71463 -1.11448 0
M  V30 20978 H 1994.15 -1.46724 -3.5854 0
M  V30 20979 H 1994.56 -3.67538 -3.74187 0
M  V30 20980 H 1996.04 -2.45768 -4.94269 0
M  V30 20981 H 1996.51 -0.887331 -4.30143 0
M  V30 20982 H 1997.12 -2.37127 -3.53059 0
M  V30 20983 N 1995.44 1.1031 -1.12559 0
M  V30 20984 C 1996.68 1.82567 -0.883005 0
M  V30 20985 C 1997.01 1.85031 0.589667 0
M  V30 20986 O 1996.29 1.3119 1.43595 0
M  V30 20987 C 1996.57 3.29171 -1.46009 0
M  V30 20988 C 1996.43 3.35032 -3.00122 0
M  V30 20989 C 1997.74 4.25591 -1.12073 0
M  V30 20990 H 1994.86 0.662829 -0.322221 0
M  V30 20991 H 1997.51 1.29276 -1.3924 0
M  V30 20992 H 1995.66 3.74684 -1.02685 0
M  V30 20993 H 1997.33 2.9799 -3.52135 0
M  V30 20994 H 1995.57 2.74892 -3.35584 0
M  V30 20995 H 1996.24 4.3827 -3.35595 0
M  V30 20996 H 1998.72 3.88318 -1.49494 0
M  V30 20997 H 1997.59 5.26528 -1.55112 0
M  V30 20998 H 1997.85 4.42088 -0.0331138 0
M  V30 20999 N 1996.91 0.917694 1.28125 0
M  V30 21000 C 1998.32 0.598885 1.76834 0
M  V30 21001 C 1998.68 -0.885857 1.75063 0
M  V30 21002 O 1997.8 -1.69304 1.34778 0
M  V30 21003 C 1998.4 1.08036 3.21113 0
M  V30 21004 C 1996.95 0.812402 3.67528 0
M  V30 21005 C 1996.1 1.24483 2.47789 0
M  V30 21006 H 1999.05 1.09854 1.14533 0
M  V30 21007 H 1999.07 0.423555 3.78135 0
M  V30 21008 H 1998.59 2.161 3.2237 0
M  V30 21009 H 1996.69 -0.254859 3.71727 0
M  V30 21010 H 1996.8 1.42291 4.57482 0
M  V30 21011 H 1995.16 0.663509 2.45906 0
M  V30 21012 H 1995.95 2.3339 2.51762 0
M  V30 21013 N 1998.39 -1.42074 0.682102 0
M  V30 21014 C 1999.32 -2.33489 0.0224223 0
M  V30 21015 C 2000.3 -1.51082 -0.781557 0
M  V30 21016 O 2001.49 -1.79662 -0.737243 0
M  V30 21017 C 1998.62 -3.34773 -0.92434 0
M  V30 21018 C 1997.57 -4.2739 -0.228431 0
M  V30 21019 C 1996.9 -5.1894 -1.28863 0
M  V30 21020 C 1998.2 -5.14539 0.897035 0
M  V30 21021 H 1999.89 -2.88901 0.785898 0
M  V30 21022 H 1997.44 -1.38913 0.379376 0
M  V30 21023 H 1999.39 -3.97641 -1.39497 0
M  V30 21024 H 1998.11 -2.77681 -1.71932 0
M  V30 21025 H 1996.77 -3.65927 0.222034 0
M  V30 21026 H 1996.42 -4.5817 -2.07579 0
M  V30 21027 H 1996.12 -5.81736 -0.828084 0
M  V30 21028 H 1997.65 -5.84683 -1.76005 0
M  V30 21029 H 1999.06 -5.71051 0.507296 0
M  V30 21030 H 1997.46 -5.86206 1.28383 0
M  V30 21031 H 1998.53 -4.52505 1.74263 0
M  V30 21032 N 1999.87 -0.425924 -1.51735 0
M  V30 21033 C 2000.82 0.391248 -2.2746 0
M  V30 21034 C 2001.79 1.02669 -1.30569 0
M  V30 21035 O 2002.97 1.04777 -1.59457 0
M  V30 21036 C 2000.11 1.4928 -3.11142 0
M  V30 21037 C 1999.22 0.876622 -4.23012 0
M  V30 21038 C 1998.36 1.95227 -4.94024 0
M  V30 21039 C 1997.4 1.31392 -5.97832 0
M  V30 21040 N 1996.54 2.33043 -6.62296 0
M  V30 21041 H 2001.38 -0.26089 -2.96856 0
M  V30 21042 H 1998.91 -0.1405 -1.46427 0
M  V30 21043 H 2000.87 2.14262 -3.57977 0
M  V30 21044 H 1999.5 2.11473 -2.43884 0
M  V30 21045 H 1998.55 0.115399 -3.80225 0
M  V30 21046 H 1999.86 0.370471 -4.97422 0
M  V30 21047 H 1999.02 2.67897 -5.44349 0
M  V30 21048 H 1997.76 2.49212 -4.19219 0
M  V30 21049 H 1996.76 0.572626 -5.4681 0
M  V30 21050 H 1997.99 0.781544 -6.74588 0
M  V30 21051 H 1995.93 2.86129 -5.9031 0
M  V30 21052 H 1995.85 1.87287 -7.32434 0
M  V30 21053 H 1997.12 3.05231 -7.17255 0
M  V30 21054 N 2001.35 1.56817 -0.156891 0
M  V30 21055 C 2002.29 2.17256 0.779004 0
M  V30 21056 C 2003.26 1.1083 1.23717 0
M  V30 21057 O 2004.45 1.38917 1.30793 0
M  V30 21058 C 2001.59 2.80612 2.00876 0
M  V30 21059 C 2000.7 4.01457 1.59549 0
M  V30 21060 C 1999.84 4.52782 2.7778 0
M  V30 21061 C 1998.88 5.66071 2.32874 0
M  V30 21062 N 1998.01 6.11969 3.44148 0
M  V30 21063 H 2002.85 2.96891 0.256809 0
M  V30 21064 H 2000.39 1.46649 0.115039 0
M  V30 21065 H 2002.35 3.15494 2.72983 0
M  V30 21066 H 2000.98 2.03604 2.5049 0
M  V30 21067 H 2000.03 3.7249 0.771705 0
M  V30 21068 H 2001.34 4.83505 1.22576 0
M  V30 21069 H 2000.5 4.89771 3.58064 0
M  V30 21070 H 1999.24 3.69763 3.18005 0
M  V30 21071 H 1998.24 5.28648 1.51034 0
M  V30 21072 H 1999.47 6.50882 1.93724 0
M  V30 21073 H 1997.41 5.31883 3.83975 0
M  V30 21074 H 1997.33 6.88968 3.11222 0
M  V30 21075 H 1998.6 6.53605 4.24759 0
M  V30 21076 N 2002.83 -0.116876 1.57166 0
M  V30 21077 C 2004.07 -0.825509 1.85238 0
M  V30 21078 C 2004.4 -1.79427 0.742936 0
M  V30 21079 O 2003.68 -1.92873 -0.251043 0
M  V30 21080 C 2003.96 -1.57353 3.23901 0
M  V30 21081 C 2003.82 -0.624227 4.45447 0
M  V30 21082 C 2005.13 -2.52922 3.60164 0
M  V30 21083 H 2002.25 -0.298653 0.673777 0
M  V30 21084 H 2004.9 -0.0897002 1.89788 0
M  V30 21085 H 2003.05 -2.20078 3.20153 0
M  V30 21086 H 2004.72 -0.00566556 4.613 0
M  V30 21087 H 2002.96 0.0640779 4.33753 0
M  V30 21088 H 2003.63 -1.1843 5.39146 0
M  V30 21089 H 2006.11 -2.00302 3.64717 0
M  V30 21090 H 2004.98 -3.02291 4.58161 0
M  V30 21091 H 2005.24 -3.35684 2.87695 0
M  V30 21092 N 2004.3 -1.52772 -0.387116 0
M  V30 21093 C 2005.72 -1.42064 -0.727316 0
M  V30 21094 C 2005.92 -0.542559 -1.94058 0
M  V30 21095 O 2004.98 -0.0167267 -2.52494 0
M  V30 21096 C 2006.29 -2.84942 -0.960651 0
M  V30 21097 C 2007.84 -2.94432 -1.06201 0
M  V30 21098 C 2008.31 -4.38326 -1.32796 0
M  V30 21099 N 2009.8 -4.41659 -1.39613 0
M  V30 21100 C 2010.54 -5.50081 -1.6186 0
M  V30 21101 N 2010.03 -6.68585 -1.81566 0
M  V30 21102 N 2011.83 -5.37627 -1.64055 0
M  V30 21103 H 2003.98 -2.08382 0.411202 0
M  V30 21104 H 2006.24 -0.940144 0.121792 0
M  V30 21105 H 2005.95 -3.51416 -0.141246 0
M  V30 21106 H 2005.82 -3.27309 -1.87479 0
M  V30 21107 H 2008.21 -2.28125 -1.87198 0
M  V30 21108 H 2008.29 -2.55491 -0.125731 0
M  V30 21109 H 2007.93 -5.05199 -0.523081 0
M  V30 21110 H 2007.86 -4.74821 -2.27711 0
M  V30 21111 H 2010.35 -3.56245 -1.26086 0
M  V30 21112 H 2010.67 -7.4699 -1.98053 0
M  V30 21113 H 2009.01 -6.7161 -1.78786 0
M  V30 21114 H 2012.2 -4.44016 -1.48213 0
M  V30 21115 H 2012.38 -6.22193 -1.81053 0
M  V30 21116 N 2005.78 0.645673 -1.43767 0
M  V30 21117 C 2007.19 1.22702 -1.40717 0
M  V30 21118 C 2007.54 1.95862 -0.115066 0
M  V30 21119 O 2006.67 2.01652 0.785197 0
M  V30 21120 C 2007.26 2.23174 -2.54909 0
M  V30 21121 C 2005.82 2.76769 -2.551 0
M  V30 21122 C 2004.97 1.5153 -2.32237 0
M  V30 21123 H 2007.92 0.437227 -1.52558 0
M  V30 21124 H 2007.94 3.05497 -2.2683 0
M  V30 21125 H 2007.45 1.69898 -3.48936 0
M  V30 21126 H 2005.55 3.34087 -1.64974 0
M  V30 21127 H 2005.67 3.23799 -3.53116 0
M  V30 21128 H 2004.03 1.79146 -1.81049 0
M  V30 21129 H 2004.81 1.00177 -3.28359 0
M  V30 21130 N 2007.26 1.30423 0.884744 0
M  V30 21131 C 2008.19 1.19397 2.00666 0
M  V30 21132 C 2009.17 0.084568 1.6989 0
M  V30 21133 O 2010.36 0.266641 1.92361 0
M  V30 21134 C 2007.49 0.885244 3.35828 0
M  V30 21135 C 2006.44 1.9526 3.80864 0
M  V30 21136 C 2005.77 1.49687 5.13321 0
M  V30 21137 C 2007.07 3.3637 3.99566 0
M  V30 21138 H 2008.76 2.13256 2.10148 0
M  V30 21139 H 2006.31 1.02669 1.00971 0
M  V30 21140 H 2008.26 0.794764 4.13837 0
M  V30 21141 H 2006.98 -0.0890295 3.26479 0
M  V30 21142 H 2005.64 2.03272 3.05084 0
M  V30 21143 H 2005.29 0.510855 5.00399 0
M  V30 21144 H 2004.99 2.2108 5.44424 0
M  V30 21145 H 2006.51 1.42018 5.93855 0
M  V30 21146 H 2007.93 3.31115 4.68012 0
M  V30 21147 H 2006.32 4.05852 4.42046 0
M  V30 21148 H 2007.39 3.78244 3.03414 0
M  V30 21149 N 2008.74 -1.09711 1.13142 0
M  V30 21150 C 2009.69 -2.18355 0.801498 0
M  V30 21151 C 2010.68 -1.68031 -0.214907 0
M  V30 21152 O 2011.89 -1.79855 -0.0723523 0
M  V30 21153 H 2008.26 -0.712202 0.241398 0
M  V30 21154 H 2010.23 -2.43416 1.72601 0
M  V30 21155 C 2008.98 -3.46566 0.280613 0
M  V30 21156 H 2008.3 -3.85656 1.05403 0
M  V30 21157 H 2009.74 -4.23908 0.0881579 0
M  V30 21158 C 2008.2 -3.21932 -0.993053 0
M  V30 21159 O 2008.73 -3.44292 -2.06944 0
M  V30 21160 N 2006.94 -2.75553 -0.922971 0
M  V30 21161 H 2006.49 -2.57557 -0.0468975 0
M  V30 21162 H 2006.44 -2.59449 -1.77577 0
M  V30 21163 N 2010.22 -0.924476 -1.27637 0
M  V30 21164 C 2011.63 -0.608255 -1.76514 0
M  V30 21165 C 2011.98 0.87656 -1.7553 0
M  V30 21166 O 2011.1 1.68587 -1.35674 0
M  V30 21167 C 2011.7 -1.09738 -3.20536 0
M  V30 21168 C 2010.26 -0.831881 -3.67092 0
M  V30 21169 C 2009.4 -1.25795 -2.47125 0
M  V30 21170 H 2012.36 -1.1046 -1.13949 0
M  V30 21171 H 2012.38 -0.443602 -3.77905 0
M  V30 21172 H 2011.89 -2.17806 -3.21219 0
M  V30 21173 H 2009.99 0.235141 -3.71857 0
M  V30 21174 H 2010.1 -1.44716 -4.56721 0
M  V30 21175 H 2008.47 -0.676541 -2.4555 0
M  V30 21176 H 2009.25 -2.34721 -2.50521 0
M  V30 21177 N 2011.69 1.41711 -0.689627 0
M  V30 21178 C 2012.6 2.34591 -0.0208935 0
M  V30 21179 C 2013.62 1.55906 0.772616 0
M  V30 21180 O 2014.8 1.88412 0.711542 0
M  V30 21181 C 2011.86 3.34589 0.908354 0
M  V30 21182 C 2010.92 4.29165 0.107717 0
M  V30 21183 C 2010.16 5.24386 0.992705 0
M  V30 21184 O 2010.38 5.24907 2.23224 0
M  V30 21185 O 2009.31 6.00249 0.445563 0
M  V30 21186 H 2013.14 2.93343 -0.786347 0
M  V30 21187 H 2010.72 1.42464 -0.449929 0
M  V30 21188 H 2012.61 3.95982 1.44138 0
M  V30 21189 H 2011.28 2.78288 1.6534 0
M  V30 21190 H 2010.19 3.71139 -0.469771 0
M  V30 21191 H 2011.52 4.88547 -0.598537 0
M  V30 21192 N 2013.17 0.433965 1.51507 0
M  V30 21193 C 2014.42 -0.133365 2.01659 0
M  V30 21194 C 2014.74 -1.43506 1.32026 0
M  V30 21195 O 2014.01 -1.90572 0.453774 0
M  V30 21196 H 2012.59 -0.0522753 0.745169 0
M  V30 21197 H 2015.25 0.575899 1.86197 0
M  V30 21198 H 2014.35 -0.311697 3.1054 0
M  V30 21199 N 2014.65 -1.56732 0.165206 0
M  V30 21200 C 2015.88 -2.01506 -0.490943 0
M  V30 21201 C 2016.3 -1.04466 -1.56424 0
M  V30 21202 O 2015.66 -0.0232331 -1.81285 0
M  V30 21203 C 2015.71 -3.4492 -1.05179 0
M  V30 21204 O 2014.81 -3.50937 -2.16603 0
M  V30 21205 H 2014.15 -0.653393 -0.11821 0
M  V30 21206 H 2016.68 -2.02846 0.267298 0
M  V30 21207 H 2016.69 -3.84099 -1.37593 0
M  V30 21208 H 2015.37 -4.15049 -0.265916 0
M  V30 21209 H 2013.94 -3.23613 -1.85281 0
M  V30 21210 N 2016.13 0.10854 -1.57226 0
M  V30 21211 C 2017.06 1.13362 -2.04135 0
M  V30 21212 C 2018.04 1.42573 -0.927733 0
M  V30 21213 O 2019.22 1.52835 -1.19813 0
M  V30 21214 C 2016.35 2.45708 -2.45449 0
M  V30 21215 C 2015.31 2.30935 -3.60351 0
M  V30 21216 C 2014.63 3.68337 -3.87597 0
M  V30 21217 C 2015.93 1.76112 -4.91713 0
M  V30 21218 H 2017.63 0.74341 -2.90024 0
M  V30 21219 H 2015.17 0.356157 -1.39526 0
M  V30 21220 H 2017.13 3.17679 -2.76872 0
M  V30 21221 H 2015.85 2.86639 -1.56544 0
M  V30 21222 H 2014.51 1.61411 -3.29153 0
M  V30 21223 H 2014.16 4.06772 -2.95881 0
M  V30 21224 H 2013.86 3.59303 -4.64946 0
M  V30 21225 H 2015.38 4.41797 -4.21483 0
M  V30 21226 H 2016.8 2.3791 -5.21605 0
M  V30 21227 H 2015.19 1.77872 -5.73133 0
M  V30 21228 H 2016.26 0.71947 -4.79533 0
M  V30 21229 N 2017.61 1.52975 0.379009 0
M  V30 21230 C 2018.85 1.68505 1.12304 0
M  V30 21231 C 2019.18 0.430012 1.89687 0
M  V30 21232 O 2018.44 -0.587809 1.86664 0
M  V30 21233 C 2018.74 2.8776 2.11964 0
M  V30 21234 C 2018.4 4.24806 1.51163 0
M  V30 21235 C 2017.06 4.62077 1.34308 0
M  V30 21236 C 2019.42 5.10087 1.07053 0
M  V30 21237 C 2016.74 5.82277 0.719058 0
M  V30 21238 C 2019.1 6.30921 0.460559 0
M  V30 21239 C 2017.76 6.66915 0.279391 0
M  V30 21240 H 2017.03 0.616604 0.41095 0
M  V30 21241 H 2019.68 1.87137 0.406443 0
M  V30 21242 H 2017.98 2.63586 2.89879 0
M  V30 21243 H 2019.68 2.96971 2.69461 0
M  V30 21244 H 2016.27 3.95453 1.65272 0
M  V30 21245 H 2020.45 4.81854 1.18872 0
M  V30 21246 H 2015.71 6.08765 0.566983 0
M  V30 21247 H 2019.88 6.96312 0.110504 0
M  V30 21248 H 2017.51 7.5992 -0.206228 0
M  V30 21249 N 2019.08 -0.63804 1.44107 0
M  V30 21250 C 2020.01 -1.76164 1.5326 0
M  V30 21251 C 2021 -1.6566 0.386107 0
M  V30 21252 O 2022.18 -1.84525 0.605326 0
M  V30 21253 C 2019.31 -3.14665 1.4698 0
M  V30 21254 C 2018.26 -3.39949 2.60035 0
M  V30 21255 C 2017.59 -4.78409 2.38808 0
M  V30 21256 C 2018.89 -3.33193 4.02219 0
M  V30 21257 H 2020.58 -1.6876 2.47306 0
M  V30 21258 H 2018.13 -0.810483 1.19026 0
M  V30 21259 H 2020.08 -3.93037 1.51986 0
M  V30 21260 H 2018.81 -3.22835 0.494471 0
M  V30 21261 H 2017.47 -2.63955 2.54408 0
M  V30 21262 H 2017.11 -4.83274 1.39483 0
M  V30 21263 H 2016.81 -4.96285 3.14602 0
M  V30 21264 H 2018.34 -5.5902 2.4562 0
M  V30 21265 H 2019.75 -4.0148 4.09252 0
M  V30 21266 H 2018.15 -3.62605 4.78161 0
M  V30 21267 H 2019.22 -2.31116 4.26279 0
M  V30 21268 N 2020.56 -1.3089 -0.877815 0
M  V30 21269 C 2021.79 -1.2289 -1.66077 0
M  V30 21270 C 2022.2 0.209505 -1.88036 0
M  V30 21271 O 2021.54 1.14931 -1.43306 0
M  V30 21272 C 2021.61 -1.89448 -3.05532 0
M  V30 21273 C 2021.27 -3.38785 -3.06715 0
M  V30 21274 C 2022.27 -4.34661 -2.85246 0
M  V30 21275 C 2019.95 -3.8035 -3.28084 0
M  V30 21276 C 2021.95 -5.70077 -2.85116 0
M  V30 21277 C 2019.63 -5.15881 -3.27583 0
M  V30 21278 C 2020.63 -6.10555 -3.06124 0
M  V30 21279 O 2020.32 -7.43609 -3.05452 0
M  V30 21280 H 2020.05 -0.426136 -0.524771 0
M  V30 21281 H 2022.6 -1.73175 -1.10452 0
M  V30 21282 H 2020.83 -1.33702 -3.62851 0
M  V30 21283 H 2022.52 -1.7547 -3.66012 0
M  V30 21284 H 2023.29 -4.03879 -2.68526 0
M  V30 21285 H 2019.17 -3.07097 -3.4382 0
M  V30 21286 H 2022.71 -6.43948 -2.68285 0
M  V30 21287 H 2018.61 -5.463 -3.4384 0
M  V30 21288 H 2019.38 -7.52686 -3.21568 0
M  V30 21289 N 2022.04 1.0911 -1.13723 0
M  V30 21290 C 2023.29 1.80994 -0.899205 0
M  V30 21291 C 2023.61 1.86296 0.576084 0
M  V30 21292 O 2022.88 1.35086 1.41875 0
M  V30 21293 H 2021.46 0.670311 -0.329685 0
M  V30 21294 H 2024.12 1.3195 -1.4344 0
M  V30 21295 H 2023.22 2.84065 -1.29281 0
M  V30 21296 N 2023.52 0.931232 1.27145 0
M  V30 21297 C 2024.75 0.589956 1.98311 0
M  V30 21298 C 2025.16 -0.832836 1.69438 0
M  V30 21299 O 2024.52 -1.55399 0.956935 0
M  V30 21300 C 2024.57 0.810592 3.52295 0
M  V30 21301 O 2024.29 2.17741 3.80158 0
M  V30 21302 C 2025.79 0.478508 4.4071 0
M  V30 21303 H 2023.01 0.223234 0.632778 0
M  V30 21304 H 2025.56 1.24922 1.6191 0
M  V30 21305 H 2023.71 0.198081 3.86893 0
M  V30 21306 H 2024.12 2.23003 4.74731 0
M  V30 21307 H 2025.6 0.683566 5.47751 0
M  V30 21308 H 2026.08 -0.586102 4.35272 0
M  V30 21309 H 2026.68 1.06931 4.11638 0
M  V30 21310 N 2025 -1.41343 0.697132 0
M  V30 21311 C 2025.91 -2.34576 0.0333341 0
M  V30 21312 C 2026.92 -1.56313 -0.764337 0
M  V30 21313 O 2028.1 -1.88787 -0.70154 0
M  V30 21314 C 2025.16 -3.35066 -0.890597 0
M  V30 21315 C 2024.23 -4.29216 -0.0849556 0
M  V30 21316 C 2023.46 -5.24905 -0.964881 0
M  V30 21317 O 2023.68 -5.26083 -2.20437 0
M  V30 21318 O 2022.62 -6.00476 -0.413724 0
M  V30 21319 H 2026.44 -2.92922 0.801892 0
M  V30 21320 H 2024.03 -1.42223 0.457478 0
M  V30 21321 H 2025.91 -3.96741 -1.42036 0
M  V30 21322 H 2024.58 -2.79161 -1.63862 0
M  V30 21323 H 2023.49 -3.70884 0.489447 0
M  V30 21324 H 2024.82 -4.88223 0.624437 0
M  V30 21325 N 2026.48 -0.441993 -1.51275 0
M  V30 21326 C 2027.42 0.367101 -2.27862 0
M  V30 21327 C 2028.39 1.01278 -1.31651 0
M  V30 21328 O 2029.58 1.0308 -1.60559 0
M  V30 21329 C 2026.72 1.45971 -3.12708 0
M  V30 21330 C 2025.83 0.831707 -4.23918 0
M  V30 21331 C 2024.97 1.89976 -4.96067 0
M  V30 21332 C 2024 1.25043 -5.99192 0
M  V30 21333 N 2023.14 2.26005 -6.6473 0
M  V30 21334 H 2027.98 -0.292361 -2.96562 0
M  V30 21335 H 2025.52 -0.156023 -1.4627 0
M  V30 21336 H 2027.48 2.10453 -3.6023 0
M  V30 21337 H 2026.11 2.08874 -2.46113 0
M  V30 21338 H 2025.16 0.0750644 -3.80326 0
M  V30 21339 H 2026.47 0.317691 -4.97787 0
M  V30 21340 H 2025.62 2.62108 -5.4716 0
M  V30 21341 H 2024.36 2.44751 -4.21839 0
M  V30 21342 H 2023.37 0.514597 -5.47386 0
M  V30 21343 H 2024.59 0.709951 -6.75379 0
M  V30 21344 H 2022.54 2.79852 -5.93312 0
M  V30 21345 H 2022.46 1.79508 -7.34379 0
M  V30 21346 H 2023.72 2.97607 -7.20452 0
M  V30 21347 N 2027.95 1.56642 -0.173515 0
M  V30 21348 C 2029.2 1.97241 0.47157 0
M  V30 21349 C 2029.53 1.05958 1.62747 0
M  V30 21350 O 2028.81 0.107151 1.94205 0
M  V30 21351 C 2029.09 3.47276 0.952439 0
M  V30 21352 C 2028.94 4.49338 -0.203789 0
M  V30 21353 C 2030.26 4.00461 1.82535 0
M  V30 21354 H 2027.38 0.71714 0.169941 0
M  V30 21355 H 2030.02 1.88211 -0.260093 0
M  V30 21356 H 2028.17 3.55102 1.57591 0
M  V30 21357 H 2029.85 4.5357 -0.840936 0
M  V30 21358 H 2028.09 4.25211 -0.858945 0
M  V30 21359 H 2028.76 5.51723 0.174833 0
M  V30 21360 H 2031.24 3.9528 1.29974 0
M  V30 21361 H 2030.11 5.05853 2.13083 0
M  V30 21362 H 2030.37 3.44409 2.7719 0
M  V30 21363 N 2029.43 -0.1002 1.57281 0
M  V30 21364 C 2030.85 -0.454271 1.52998 0
M  V30 21365 C 2031.05 -1.80807 0.889451 0
M  V30 21366 O 2030.1 -2.479 0.479781 0
M  V30 21367 C 2031.42 -0.421457 2.97732 0
M  V30 21368 C 2032.96 -0.503676 3.08921 0
M  V30 21369 C 2033.44 -0.501062 4.55251 0
M  V30 21370 N 2034.93 -0.561964 4.59778 0
M  V30 21371 C 2035.67 -0.581696 5.70442 0
M  V30 21372 N 2035.16 -0.557942 6.9055 0
M  V30 21373 N 2036.95 -0.626123 5.58602 0
M  V30 21374 H 2029.11 0.786609 1.97297 0
M  V30 21375 H 2031.37 0.292244 0.90183 0
M  V30 21376 H 2031.07 0.506016 3.48041 0
M  V30 21377 H 2030.95 -1.24233 3.56154 0
M  V30 21378 H 2033.34 -1.42157 2.58603 0
M  V30 21379 H 2033.42 0.345241 2.5346 0
M  V30 21380 H 2033.06 0.412865 5.06219 0
M  V30 21381 H 2032.99 -1.36712 5.08544 0
M  V30 21382 H 2035.48 -0.585723 3.73333 0
M  V30 21383 H 2035.79 -0.576141 7.70649 0
M  V30 21384 H 2034.14 -0.52507 6.93014 0
M  V30 21385 H 2037.33 -0.642175 4.63674 0
M  V30 21386 H 2037.5 -0.638033 6.44851 0
M  V30 21387 N 2030.91 -1.53174 -0.370891 0
M  V30 21388 C 2031.84 -1.82213 -1.46017 0
M  V30 21389 C 2032.82 -0.675274 -1.56122 0
M  V30 21390 O 2034.01 -0.924614 -1.70776 0
M  V30 21391 C 2031.14 -2.00727 -2.83419 0
M  V30 21392 C 2030.09 -3.16478 -2.88141 0
M  V30 21393 C 2029.42 -3.20276 -4.28167 0
M  V30 21394 C 2030.72 -4.55179 -2.56143 0
M  V30 21395 H 2032.41 -2.73432 -1.21965 0
M  V30 21396 H 2029.96 -1.31569 -0.585288 0
M  V30 21397 H 2031.91 -2.19625 -3.59643 0
M  V30 21398 H 2030.63 -1.06213 -3.08847 0
M  V30 21399 H 2029.29 -2.97392 -2.14367 0
M  V30 21400 H 2028.94 -2.2341 -4.50663 0
M  V30 21401 H 2028.64 -3.98044 -4.32244 0
M  V30 21402 H 2030.16 -3.41352 -5.06272 0
M  V30 21403 H 2031.58 -4.74274 -3.22082 0
M  V30 21404 H 2029.97 -5.35148 -2.71544 0
M  V30 21405 H 2031.04 -4.60654 -1.51412 0
M  V30 21406 N 2032.39 0.630389 -1.44443 0
M  V30 21407 C 2033.62 1.41712 -1.50749 0
M  V30 21408 C 2034.03 1.88334 -0.132593 0
M  V30 21409 O 2033.39 1.60878 0.861649 0
M  V30 21410 C 2033.44 2.63694 -2.47281 0
M  V30 21411 O 2033.16 2.19016 -3.79425 0
M  V30 21412 C 2034.66 3.56813 -2.63058 0
M  V30 21413 H 2031.88 0.43458 -0.511255 0
M  V30 21414 H 2034.42 0.770878 -1.89414 0
M  V30 21415 H 2032.58 3.24409 -2.11749 0
M  V30 21416 H 2032.99 2.98104 -4.31549 0
M  V30 21417 H 2034.47 4.39008 -3.34628 0
M  V30 21418 H 2034.94 4.05669 -1.68313 0
M  V30 21419 H 2035.55 3.01966 -2.99494 0
M  V30 21420 N 2033.87 1.31354 0.870861 0
M  V30 21421 C 2035.1 1.23769 1.65423 0
M  V30 21422 C 2035.5 -0.19953 1.88145 0
M  V30 21423 O 2034.85 -1.1417 1.43913 0
M  V30 21424 C 2034.91 1.91066 3.04523 0
M  V30 21425 C 2034.57 3.40407 3.04914 0
M  V30 21426 C 2035.57 4.36168 2.82937 0
M  V30 21427 C 2033.25 3.82084 3.26063 0
M  V30 21428 C 2035.25 5.71581 2.82088 0
M  V30 21429 C 2032.94 5.17611 3.24842 0
M  V30 21430 C 2033.93 6.1217 3.02882 0
M  V30 21431 O 2033.62 7.45218 3.01504 0
M  V30 21432 H 2033.35 0.428913 0.522503 0
M  V30 21433 H 2035.91 1.73758 1.09532 0
M  V30 21434 H 2034.14 1.35625 3.62136 0
M  V30 21435 H 2035.83 1.77409 3.65077 0
M  V30 21436 H 2036.59 4.05298 2.66381 0
M  V30 21437 H 2032.47 3.08916 3.42187 0
M  V30 21438 H 2036.02 6.45362 2.64866 0
M  V30 21439 H 2031.91 5.48116 3.40938 0
M  V30 21440 H 2032.68 7.54381 3.17572 0
M  V30 21441 N 2035.34 -1.08505 1.143 0
M  V30 21442 C 2036.27 -2.1741 0.851769 0
M  V30 21443 C 2037.25 -1.69004 -0.192818 0
M  V30 21444 O 2038.44 -1.94136 -0.0497098 0
M  V30 21445 C 2035.57 -3.45754 0.327364 0
M  V30 21446 C 2034.52 -4.07547 1.30728 0
M  V30 21447 C 2033.85 -5.30829 0.642225 0
M  V30 21448 C 2035.15 -4.48945 2.66919 0
M  V30 21449 H 2036.84 -2.42029 1.76245 0
M  V30 21450 H 2034.39 -1.16322 0.848834 0
M  V30 21451 H 2036.34 -4.21253 0.111237 0
M  V30 21452 H 2035.07 -3.20686 -0.618737 0
M  V30 21453 H 2033.73 -3.34077 1.50956 0
M  V30 21454 H 2033.37 -5.02046 -0.309652 0
M  V30 21455 H 2033.07 -5.73128 1.29608 0
M  V30 21456 H 2034.6 -6.09044 0.435598 0
M  V30 21457 H 2036.01 -5.15626 2.50604 0
M  V30 21458 H 2034.41 -5.02158 3.28568 0
M  V30 21459 H 2035.48 -3.60882 3.23871 0
M  V30 21460 N 2036.82 -0.937962 -1.26649 0
M  V30 21461 C 2038.24 -0.639774 -1.46216 0
M  V30 21462 C 2038.44 0.807896 -1.84595 0
M  V30 21463 O 2037.49 1.58484 -1.96568 0
M  V30 21464 C 2038.81 -1.59844 -2.54697 0
M  V30 21465 C 2040.35 -1.60779 -2.6855 0
M  V30 21466 C 2040.83 -2.55367 -3.80199 0
M  V30 21467 N 2042.32 -2.53634 -3.87587 0
M  V30 21468 C 2043.06 -3.23509 -4.73423 0
M  V30 21469 N 2042.55 -4.02798 -5.63671 0
M  V30 21470 N 2044.34 -3.12477 -4.67242 0
M  V30 21471 H 2036.5 -1.87374 -1.00025 0
M  V30 21472 H 2038.76 -0.805036 -0.500621 0
M  V30 21473 H 2038.46 -2.63168 -2.33314 0
M  V30 21474 H 2038.34 -1.34802 -3.5229 0
M  V30 21475 H 2040.73 -0.581808 -2.89308 0
M  V30 21476 H 2040.81 -1.89873 -1.71411 0
M  V30 21477 H 2040.45 -3.58081 -3.60195 0
M  V30 21478 H 2040.38 -2.23564 -4.76788 0
M  V30 21479 H 2042.87 -1.96058 -3.23063 0
M  V30 21480 H 2043.18 -4.53075 -6.26053 0
M  V30 21481 H 2041.53 -4.069 -5.63434 0
M  V30 21482 H 2044.72 -2.50018 -3.95738 0
M  V30 21483 H 2044.89 -3.67201 -5.33917 0
M  V30 21484 N 2038.3 1.40971 -0.704618 0
M  V30 21485 C 2039.25 2.32576 -0.0337552 0
M  V30 21486 C 2040.24 1.51452 0.758852 0
M  V30 21487 O 2041.45 1.67327 0.663455 0
M  V30 21488 H 2037.82 0.751959 0.00788634 0
M  V30 21489 H 2039.79 2.86819 -0.823248 0
M  V30 21490 C 2038.54 3.36326 0.882061 0
M  V30 21491 H 2037.87 3.98807 0.281575 0
M  V30 21492 H 2039.31 4.02942 1.31962 0
M  V30 21493 C 2037.76 2.70931 2.00245 0
M  V30 21494 O 2038.29 2.56412 3.09218 0
M  V30 21495 N 2036.5 2.29485 1.78284 0
M  V30 21496 H 2036.05 2.41494 0.89657 0
M  V30 21497 H 2036.01 1.86067 2.5343 0
M  V30 21498 N 2039.78 0.45001 1.51039 0
M  V30 21499 C 2040.71 -0.390998 2.2584 0
M  V30 21500 C 2041.72 -0.975406 1.30344 0
M  V30 21501 O 2042.91 -0.867391 1.56008 0
M  V30 21502 C 2040.01 -1.56025 3.00848 0
M  V30 21503 C 2039.19 -1.09244 4.23538 0
M  V30 21504 C 2038.24 -2.13329 4.81017 0
M  V30 21505 O 2037.27 -1.72246 5.42513 0
M  V30 21506 N 2038.47 -3.45941 4.6616 0
M  V30 21507 H 2041.24 0.250165 2.98654 0
M  V30 21508 H 2038.8 0.279599 1.59467 0
M  V30 21509 H 2040.79 -2.25304 3.36185 0
M  V30 21510 H 2039.36 -2.10651 2.30965 0
M  V30 21511 H 2038.58 -0.226269 3.9355 0
M  V30 21512 H 2039.87 -0.757479 5.0313 0
M  V30 21513 H 2039.27 -3.82042 4.17205 0
M  V30 21514 H 2037.82 -4.11078 5.05824 0
M  V30 21515 N 2041.26 -1.56548 0.18182 0
M  V30 21516 C 2042.19 -2.21471 -0.739774 0
M  V30 21517 C 2043.17 -1.17361 -1.23128 0
M  V30 21518 O 2044.35 -1.45825 -1.28253 0
M  V30 21519 C 2041.48 -2.86369 -1.96494 0
M  V30 21520 C 2040.44 -3.96609 -1.60888 0
M  V30 21521 C 2039.76 -4.48607 -2.90957 0
M  V30 21522 C 2041.06 -5.15681 -0.828895 0
M  V30 21523 H 2042.76 -2.98741 -0.19858 0
M  V30 21524 H 2040.3 -1.43692 -0.0940725 0
M  V30 21525 H 2042.26 -3.30466 -2.61477 0
M  V30 21526 H 2040.98 -2.06485 -2.53045 0
M  V30 21527 H 2039.64 -3.53184 -0.982694 0
M  V30 21528 H 2039.29 -3.65501 -3.45569 0
M  V30 21529 H 2038.99 -5.22984 -2.67882 0
M  V30 21530 H 2040.51 -4.95397 -3.56951 0
M  V30 21531 H 2041.92 -5.56405 -1.38153 0
M  V30 21532 H 2040.32 -5.96041 -0.696789 0
M  V30 21533 H 2041.39 -4.84592 0.172711 0
M  V30 21534 N 2042.73 0.0918577 -1.57332 0
M  V30 21535 C 2043.7 1.09546 -2.01326 0
M  V30 21536 C 2044.7 1.32761 -0.907252 0
M  V30 21537 O 2045.89 1.2882 -1.17265 0
M  V30 21538 C 2043.02 2.44385 -2.37674 0
M  V30 21539 H 2044.21 0.71671 -2.9121 0
M  V30 21540 H 2041.77 0.337001 -1.52624 0
M  V30 21541 H 2042.5 2.8713 -1.50755 0
M  V30 21542 H 2042.29 2.28882 -3.18364 0
M  V30 21543 H 2043.78 3.16562 -2.72357 0
M  V30 21544 N 2044.21 1.53368 0.362763 0
M  V30 21545 C 2045.12 1.82969 1.46832 0
M  V30 21546 C 2046.14 0.718285 1.58482 0
M  V30 21547 O 2047.31 1.00863 1.74323 0
M  V30 21548 C 2044.38 2.01596 2.82064 0
M  V30 21549 C 2043.44 3.25491 2.79918 0
M  V30 21550 C 2042.67 3.4322 4.087 0
M  V30 21551 O 2042.9 2.65185 5.05008 0
M  V30 21552 O 2041.83 4.36585 4.1434 0
M  V30 21553 H 2045.66 2.769 1.24741 0
M  V30 21554 H 2043.24 1.38783 0.553131 0
M  V30 21555 H 2045.12 2.15403 3.62187 0
M  V30 21556 H 2043.8 1.10854 3.04127 0
M  V30 21557 H 2042.71 3.17105 1.98483 0
M  V30 21558 H 2044.04 4.16164 2.62809 0
M  V30 21559 N 2045.69 -0.62272 1.44776 0
M  V30 21560 C 2046.64 -1.73427 1.52288 0
M  V30 21561 C 2047.61 -1.61928 0.369917 0
M  V30 21562 O 2048.79 -1.81729 0.581308 0
M  V30 21563 C 2045.93 -3.117 1.48112 0
M  V30 21564 C 2045.05 -3.34114 2.73847 0
M  V30 21565 C 2044.18 -4.62407 2.61445 0
M  V30 21566 C 2043.22 -4.78027 3.82304 0
M  V30 21567 N 2042.36 -5.97605 3.68528 0
M  V30 21568 H 2047.2 -1.66341 2.47254 0
M  V30 21569 H 2044.73 -0.811311 1.22704 0
M  V30 21570 H 2046.69 -3.91678 1.4368 0
M  V30 21571 H 2045.32 -3.1778 0.567076 0
M  V30 21572 H 2044.37 -2.48017 2.8843 0
M  V30 21573 H 2045.69 -3.41533 3.63533 0
M  V30 21574 H 2044.84 -5.50558 2.54894 0
M  V30 21575 H 2043.58 -4.5736 1.69333 0
M  V30 21576 H 2042.58 -3.88303 3.89231 0
M  V30 21577 H 2043.81 -4.84883 4.75464 0
M  V30 21578 H 2041.75 -5.93631 2.79173 0
M  V30 21579 H 2041.67 -6.06118 4.51838 0
M  V30 21580 H 2042.94 -6.88295 3.65883 0
M  V30 21581 N 2047.17 -1.31814 -0.863883 0
M  V30 21582 C 2048.45 -1.12477 -1.60026 0
M  V30 21583 C 2048.83 0.318288 -2.08687 0
M  V30 21584 O 2048.17 1.31341 -1.86981 0
M  V30 21585 C 2048.38 -2.14432 -2.75355 0
M  V30 21586 C 2049.73 -2.47276 -3.45166 0
M  V30 21587 O 2050.76 -2.12906 -2.85569 0
M  V30 21588 O 2049.61 -3.06158 -4.52691 0
M  V30 21589 H 2046.71 -0.433423 -0.704325 0
M  V30 21590 H 2049.25 -1.43313 -0.908815 0
M  V30 21591 H 2048.03 -3.11472 -2.36856 0
M  V30 21592 H 2047.65 -1.84536 -3.52182 0
M  V30 21593 N 2048.65 1.07897 -1.14873 0
M  V30 21594 C 2049.56 2.18494 -0.854259 0
M  V30 21595 C 2050.57 1.73194 0.167297 0
M  V30 21596 O 2051.75 2.01399 -0.00544437 0
M  V30 21597 C 2048.81 3.45013 -0.341649 0
M  V30 21598 C 2047.87 4.0491 -1.42641 0
M  V30 21599 C 2047.11 5.2539 -0.938165 0
M  V30 21600 O 2047.33 5.69982 0.218391 0
M  V30 21601 O 2046.26 5.76818 -1.71943 0
M  V30 21602 H 2050.09 2.46164 -1.77867 0
M  V30 21603 H 2047.68 1.1713 -0.927406 0
M  V30 21604 H 2049.56 4.21354 -0.0619573 0
M  V30 21605 H 2048.23 3.18907 0.554969 0
M  V30 21606 H 2047.14 3.30133 -1.75963 0
M  V30 21607 H 2048.47 4.35276 -2.29774 0
M  V30 21608 N 2050.12 0.944665 1.2615 0
M  V30 21609 C 2051.37 0.594093 1.93589 0
M  V30 21610 C 2051.7 -0.867382 1.74088 0
M  V30 21611 O 2050.95 -1.63636 1.07339 0
M  V30 21612 C 2051.25 0.886852 3.46222 0
M  V30 21613 C 2050.92 2.33276 3.85867 0
M  V30 21614 C 2049.58 2.72801 3.964 0
M  V30 21615 C 2051.93 3.27224 4.05677 0
M  V30 21616 C 2049.26 4.05362 4.24144 0
M  V30 21617 C 2051.61 4.59386 4.34911 0
M  V30 21618 C 2050.28 4.98721 4.4366 0
M  V30 21619 H 2049.55 0.217394 0.708393 0
M  V30 21620 H 2052.19 1.19183 1.49892 0
M  V30 21621 H 2050.5 0.206616 3.91255 0
M  V30 21622 H 2052.2 0.594328 3.96571 0
M  V30 21623 H 2048.79 2.01619 3.78216 0
M  V30 21624 H 2052.97 2.97883 3.96963 0
M  V30 21625 H 2048.23 4.35496 4.29131 0
M  V30 21626 H 2052.4 5.32171 4.49185 0
M  V30 21627 H 2050.03 6.01466 4.64911 0
M  V30 21628 N 2051.6 -1.40596 0.712085 0
M  V30 21629 C 2052.88 -1.94794 0.177392 0
M  V30 21630 C 2053.26 -1.65047 -1.31616 0
M  V30 21631 O 2052.61 -0.966262 -2.07064 0
M  V30 21632 C 2052.82 -3.45594 0.486369 0
M  V30 21633 C 2054.17 -4.22487 0.423115 0
M  V30 21634 O 2055.19 -3.53689 0.422227 0
M  V30 21635 O 2054.05 -5.45052 0.397587 0
M  V30 21636 H 2051.14 -0.826632 0.0246541 0
M  V30 21637 H 2053.69 -1.50223 0.789377 0
M  V30 21638 H 2052.46 -3.60591 1.51953 0
M  V30 21639 H 2052.08 -3.97295 -0.155756 0
M  V30 21640 N 2053.08 -0.458013 -1.50798 0
M  V30 21641 C 2054.33 0.10308 -2.01436 0
M  V30 21642 C 2054.64 1.41957 -1.34564 0
M  V30 21643 O 2055.85 2.06484 -1.76286 0
M  V30 21644 C 2054.3 0.234229 -3.59137 0
M  V30 21645 C 2053.91 -1.07305 -4.34959 0
M  V30 21646 C 2055.66 0.747982 -4.17858 0
M  V30 21647 C 2053.56 -0.906414 -5.84413 0
M  V30 21648 H 2052.49 0.0422981 -0.752813 0
M  V30 21649 H 2055.14 -0.590924 -1.73725 0
M  V30 21650 H 2053.53 0.991716 -3.83381 0
M  V30 21651 H 2054.7 -1.84048 -4.22449 0
M  V30 21652 H 2053.02 -1.51691 -3.87787 0
M  V30 21653 H 2055.61 0.889478 -5.2725 0
M  V30 21654 H 2055.96 1.73592 -3.7838 0
M  V30 21655 H 2056.49 0.048243 -3.97771 0
M  V30 21656 H 2053.23 -1.86733 -6.2834 0
M  V30 21657 H 2052.75 -0.179147 -5.99532 0
M  V30 21658 H 2054.43 -0.567802 -6.44504 0
M  V30 21659 N 2054.56 1.56449 -0.190119 0
M  V30 21660 C 2055.97 1.83879 0.323353 0
M  V30 21661 C 2056.32 1.11062 1.6174 0
M  V30 21662 O 2055.45 0.369789 2.13217 0
M  V30 21663 C 2056.04 3.33562 0.593453 0
M  V30 21664 C 2054.6 3.6142 1.05131 0
M  V30 21665 C 2053.75 2.77129 0.0972331 0
M  V30 21666 H 2056.7 1.53205 -0.414009 0
M  V30 21667 H 2056.72 3.52062 1.44335 0
M  V30 21668 H 2056.23 3.86532 -0.348543 0
M  V30 21669 H 2054.33 3.13879 2.00776 0
M  V30 21670 H 2054.45 4.69638 0.947464 0
M  V30 21671 H 2052.81 2.47576 0.598181 0
M  V30 21672 H 2053.59 3.32887 -0.839117 0
M  V30 21673 N 2056.04 -0.0835127 1.57379 0
M  V30 21674 C 2057.31 -0.817204 1.77711 0
M  V30 21675 C 2057.69 -1.9637 0.774736 0
M  V30 21676 O 2057.04 -2.27671 -0.194489 0
M  V30 21677 C 2057.25 -1.30104 3.23842 0
M  V30 21678 C 2058.6 -1.73916 3.87348 0
M  V30 21679 O 2059.62 -1.39699 3.27662 0
M  V30 21680 O 2058.48 -2.37224 4.92328 0
M  V30 21681 H 2055.58 -0.390677 0.728904 0
M  V30 21682 H 2058.12 -0.0644961 1.69577 0
M  V30 21683 H 2056.9 -0.480145 3.88343 0
M  V30 21684 H 2056.52 -2.11541 3.36654 0
M  V30 21685 N 2057.52 -1.53558 -0.354624 0
M  V30 21686 C 2058.45 -1.83751 -1.44076 0
M  V30 21687 C 2059.43 -0.691795 -1.55397 0
M  V30 21688 O 2060.61 -0.942676 -1.69786 0
M  V30 21689 C 2057.74 -2.03721 -2.81274 0
M  V30 21690 C 2056.7 -3.19517 -2.84769 0
M  V30 21691 C 2056.02 -3.248 -4.24746 0
M  V30 21692 C 2057.32 -4.5787 -2.51301 0
M  V30 21693 H 2059.02 -2.7471 -1.19058 0
M  V30 21694 H 2056.56 -1.32182 -0.5713 0
M  V30 21695 H 2058.51 -2.23427 -3.57293 0
M  V30 21696 H 2057.24 -1.09482 -3.07703 0
M  V30 21697 H 2055.9 -2.99649 -2.11201 0
M  V30 21698 H 2055.55 -2.28177 -4.48268 0
M  V30 21699 H 2055.25 -4.02606 -4.27998 0
M  V30 21700 H 2056.77 -3.46702 -5.02623 0
M  V30 21701 H 2058.18 -4.77663 -3.17034 0
M  V30 21702 H 2056.58 -5.37998 -2.65853 0
M  V30 21703 H 2057.65 -4.62234 -1.46518 0
M  V30 21704 N 2058.99 0.615033 -1.45104 0
M  V30 21705 C 2060.22 1.40105 -1.52244 0
M  V30 21706 C 2060.64 1.88183 -0.152561 0
M  V30 21707 O 2059.99 1.61783 0.844537 0
M  V30 21708 C 2060.04 2.61056 -2.50064 0
M  V30 21709 O 2059.77 2.14979 -3.81727 0
M  V30 21710 C 2061.27 3.54003 -2.66828 0
M  V30 21711 H 2058.49 0.429133 -0.515835 0
M  V30 21712 H 2061.03 0.750744 -1.90221 0
M  V30 21713 H 2059.19 3.22145 -2.15178 0
M  V30 21714 H 2059.6 2.9351 -4.34686 0
M  V30 21715 H 2061.07 4.35434 -3.39266 0
M  V30 21716 H 2061.55 4.03861 -1.72606 0
M  V30 21717 H 2062.16 2.98773 -3.0268 0
M  V30 21718 N 2060.47 1.3227 0.85688 0
M  V30 21719 C 2061.75 1.13324 1.59427 0
M  V30 21720 C 2062.13 -0.307216 2.08853 0
M  V30 21721 O 2061.48 -1.30347 1.87675 0
M  V30 21722 C 2061.69 2.15889 2.74213 0
M  V30 21723 C 2063.03 2.49103 3.4385 0
M  V30 21724 O 2064.06 2.14417 2.84436 0
M  V30 21725 O 2062.92 3.08555 4.51061 0
M  V30 21726 H 2060.01 0.437152 0.702016 0
M  V30 21727 H 2062.56 1.43793 0.901202 0
M  V30 21728 H 2061.33 3.12724 2.35201 0
M  V30 21729 H 2060.95 1.86401 3.51198 0
M  V30 21730 N 2061.95 -1.07287 1.15444 0
M  V30 21731 C 2062.9 -2.16605 0.847634 0
M  V30 21732 C 2063.89 -1.68449 -0.179217 0
M  V30 21733 O 2065.1 -1.79968 -0.0341862 0
M  V30 21734 H 2061.47 -0.706921 0.25645 0
M  V30 21735 H 2063.44 -2.397 1.77726 0
M  V30 21736 C 2062.19 -3.45893 0.354062 0
M  V30 21737 H 2061.52 -3.83333 1.1356 0
M  V30 21738 H 2062.96 -4.23626 0.178055 0
M  V30 21739 C 2061.41 -3.23966 -0.924544 0
M  V30 21740 O 2061.94 -3.48604 -1.99594 0
M  V30 21741 N 2060.15 -2.77449 -0.864314 0
M  V30 21742 H 2059.7 -2.57599 0.00774481 0
M  V30 21743 H 2059.66 -2.63157 -1.72034 0
M  V30 21744 N 2063.43 -0.951342 -1.25647 0
M  V30 21745 C 2064.65 -0.620954 -1.97886 0
M  V30 21746 C 2065.08 0.799383 -1.70269 0
M  V30 21747 O 2064.44 1.54005 -0.956672 0
M  V30 21748 C 2064.48 -0.881873 -3.4965 0
M  V30 21749 O 2063.59 0.0409801 -4.1238 0
M  V30 21750 H 2062.93 -0.236433 -0.62048 0
M  V30 21751 H 2065.46 -1.27704 -1.59852 0
M  V30 21752 H 2065.47 -0.806823 -3.99943 0
M  V30 21753 H 2064.14 -1.91708 -3.69081 0
M  V30 21754 H 2062.72 -0.0859938 -3.72801 0
M  V30 21755 N 2064.91 1.40216 -0.719531 0
M  V30 21756 C 2066.32 1.54673 -0.393494 0
M  V30 21757 C 2066.52 1.69001 1.09732 0
M  V30 21758 O 2065.58 1.6818 1.88339 0
M  V30 21759 C 2066.89 2.77299 -1.163 0
M  V30 21760 C 2068.44 2.9112 -1.14969 0
M  V30 21761 C 2068.91 4.16665 -1.90143 0
M  V30 21762 N 2070.4 4.23673 -1.87232 0
M  V30 21763 C 2071.14 5.19729 -2.42219 0
M  V30 21764 N 2070.64 6.21669 -3.05778 0
M  V30 21765 N 2072.43 5.11835 -2.32338 0
M  V30 21766 H 2064.58 1.29162 -1.68614 0
M  V30 21767 H 2066.84 0.624867 -0.712914 0
M  V30 21768 H 2066.55 2.73003 -2.21726 0
M  V30 21769 H 2066.42 3.69521 -0.757213 0
M  V30 21770 H 2068.81 2.94918 -0.103615 0
M  V30 21771 H 2068.89 2.00005 -1.59473 0
M  V30 21772 H 2068.53 4.13629 -2.94744 0
M  V30 21773 H 2068.46 5.06796 -1.43057 0
M  V30 21774 H 2070.96 3.50645 -1.40914 0
M  V30 21775 H 2071.27 6.91396 -3.45241 0
M  V30 21776 H 2069.61 6.22101 -3.09863 0
M  V30 21777 H 2072.8 4.31127 -1.82338 0
M  V30 21778 H 2072.98 5.86522 -2.75492 0
M  V30 21779 N 2066.38 0.466004 1.50553 0
M  V30 21780 C 2067.8 0.119867 1.59149 0
M  V30 21781 C 2068 -1.37324 1.47459 0
M  V30 21782 O 2067.06 -2.14604 1.33047 0
M  V30 21783 C 2068.37 0.665532 2.93243 0
M  V30 21784 C 2069.92 0.628507 3.06625 0
M  V30 21785 C 2070.39 1.15163 4.43285 0
M  V30 21786 N 2071.88 1.11082 4.49683 0
M  V30 21787 C 2072.62 1.48615 5.53806 0
M  V30 21788 N 2072.11 1.93573 6.65208 0
M  V30 21789 N 2073.91 1.4025 5.44322 0
M  V30 21790 H 2066.06 1.43716 1.56395 0
M  V30 21791 H 2068.32 0.594011 0.73882 0
M  V30 21792 H 2068.03 1.71132 3.07257 0
M  V30 21793 H 2067.9 0.106264 3.7705 0
M  V30 21794 H 2070.29 -0.408356 2.92261 0
M  V30 21795 H 2070.37 1.22452 2.24587 0
M  V30 21796 H 2070.01 2.1871 4.58398 0
M  V30 21797 H 2069.94 0.531882 5.23907 0
M  V30 21798 H 2072.43 0.781025 3.69741 0
M  V30 21799 H 2072.75 2.20373 7.40713 0
M  V30 21800 H 2071.09 1.97521 6.66341 0
M  V30 21801 H 2074.28 1.04972 4.56178 0
M  V30 21802 H 2074.46 1.69827 6.2535 0
M  V30 21803 N 2067.86 -1.56346 0.198413 0
M  V30 21804 C 2068.79 -2.16476 -0.753037 0
M  V30 21805 C 2069.81 -1.12748 -1.17438 0
M  V30 21806 O 2071 -1.39827 -1.10953 0
M  V30 21807 C 2068.1 -2.71472 -2.0287 0
M  V30 21808 C 2067.27 -4.00136 -1.76663 0
M  V30 21809 C 2066.33 -4.39925 -2.88708 0
M  V30 21810 O 2065.35 -5.07283 -2.58173 0
M  V30 21811 N 2066.56 -4.03701 -4.1714 0
M  V30 21812 H 2069.32 -2.98747 -0.238812 0
M  V30 21813 H 2066.88 -1.61892 0.0165651 0
M  V30 21814 H 2068.87 -2.95073 -2.76973 0
M  V30 21815 H 2067.44 -1.93637 -2.45405 0
M  V30 21816 H 2066.66 -3.84633 -0.863216 0
M  V30 21817 H 2067.95 -4.84116 -1.56555 0
M  V30 21818 H 2067.35 -3.49528 -4.448 0
M  V30 21819 H 2065.91 -4.32245 -4.8786 0
M  V30 21820 N 2069.34 0.0751653 -1.57421 0
M  V30 21821 C 2070.27 1.09007 -2.06494 0
M  V30 21822 C 2071.25 1.40573 -0.957766 0
M  V30 21823 O 2072.44 1.50259 -1.23028 0
M  V30 21824 C 2069.57 2.40446 -2.50605 0
M  V30 21825 C 2068.52 2.2324 -3.65168 0
M  V30 21826 C 2067.85 3.60033 -3.95323 0
M  V30 21827 C 2069.15 1.65642 -4.95338 0
M  V30 21828 H 2070.84 0.681725 -2.91535 0
M  V30 21829 H 2068.39 0.326481 -1.4025 0
M  V30 21830 H 2070.34 3.11734 -2.83548 0
M  V30 21831 H 2069.06 2.83254 -1.62588 0
M  V30 21832 H 2067.72 1.54393 -3.32503 0
M  V30 21833 H 2067.37 4.00404 -3.04443 0
M  V30 21834 H 2067.07 3.4936 -4.72463 0
M  V30 21835 H 2068.59 4.32757 -4.30759 0
M  V30 21836 H 2070.01 2.26793 -5.26534 0
M  V30 21837 H 2068.41 1.65675 -5.76777 0
M  V30 21838 H 2069.48 0.617593 -4.80951 0
M  V30 21839 N 2070.82 1.53744 0.346476 0
M  V30 21840 C 2072.07 1.70849 1.08705 0
M  V30 21841 C 2072.39 0.470151 1.88732 0
M  V30 21842 O 2071.65 -0.548082 1.87868 0
M  V30 21843 C 2071.95 2.92192 2.05812 0
M  V30 21844 C 2071.61 4.27917 1.42119 0
M  V30 21845 C 2070.28 4.64821 1.24477 0
M  V30 21846 C 2072.63 5.12243 0.962087 0
M  V30 21847 C 2069.96 5.83671 0.595386 0
M  V30 21848 C 2072.31 6.31756 0.326627 0
M  V30 21849 C 2070.97 6.67358 0.137866 0
M  V30 21850 H 2070.24 0.625182 0.397779 0
M  V30 21851 H 2072.89 1.87957 0.366657 0
M  V30 21852 H 2071.19 2.69675 2.84223 0
M  V30 21853 H 2072.89 3.0262 2.63101 0
M  V30 21854 H 2069.48 3.9887 1.56847 0
M  V30 21855 H 2073.66 4.84267 1.08625 0
M  V30 21856 H 2068.92 6.09831 0.437727 0
M  V30 21857 H 2073.09 6.9639 -0.0372189 0
M  V30 21858 H 2070.72 7.59312 -0.367372 0
M  V30 21859 N 2072.3 -0.607329 1.45428 0
M  V30 21860 C 2073.71 -0.92811 1.29839 0
M  V30 21861 C 2073.91 -1.99923 0.251614 0
M  V30 21862 O 2072.97 -2.50001 -0.354354 0
M  V30 21863 C 2074.28 -1.36879 2.6774 0
M  V30 21864 C 2075.83 -1.48299 2.75638 0
M  V30 21865 C 2076.3 -1.95743 4.14064 0
M  V30 21866 N 2077.8 -2.02976 4.16359 0
M  V30 21867 C 2078.53 -2.40908 5.20337 0
M  V30 21868 N 2078.03 -2.77807 6.34661 0
M  V30 21869 N 2079.82 -2.41249 5.07696 0
M  V30 21870 H 2071.97 0.100642 2.12161 0
M  V30 21871 H 2074.23 -0.017631 0.947836 0
M  V30 21872 H 2073.94 -0.655923 3.45529 0
M  V30 21873 H 2073.81 -2.33525 2.96219 0
M  V30 21874 H 2076.2 -2.18677 1.98152 0
M  V30 21875 H 2076.28 -0.499667 2.50872 0
M  V30 21876 H 2075.93 -1.25951 4.92035 0
M  V30 21877 H 2075.86 -2.94989 4.36221 0
M  V30 21878 H 2078.35 -1.77048 3.3386 0
M  V30 21879 H 2078.66 -3.05633 7.09794 0
M  V30 21880 H 2077 -2.75502 6.38062 0
M  V30 21881 H 2080.2 -2.11829 4.17428 0
M  V30 21882 H 2080.37 -2.70485 5.88848 0
M  V30 21883 N 2073.77 -1.32722 -0.849853 0
M  V30 21884 C 2075 -1.26568 -1.63671 0
M  V30 21885 C 2075.42 0.165453 -1.88074 0
M  V30 21886 O 2074.77 1.1041 -1.45313 0
M  V30 21887 C 2074.83 -2.027 -2.99324 0
M  V30 21888 O 2074.55 -3.40229 -2.75999 0
M  V30 21889 C 2076.05 -2.03626 -3.93766 0
M  V30 21890 H 2073.27 -0.436491 -0.509624 0
M  V30 21891 H 2075.81 -1.74922 -1.05937 0
M  V30 21892 H 2073.97 -1.58056 -3.53691 0
M  V30 21893 H 2074.38 -3.79256 -3.62305 0
M  V30 21894 H 2075.85 -2.61369 -4.862 0
M  V30 21895 H 2076.33 -1.02373 -4.27102 0
M  V30 21896 H 2076.94 -2.48239 -3.45337 0
M  V30 21897 N 2075.25 1.06673 -1.16011 0
M  V30 21898 C 2076.2 2.14051 -0.863174 0
M  V30 21899 C 2077.17 1.65046 0.186783 0
M  V30 21900 O 2078.35 1.90727 0.0528262 0
M  V30 21901 C 2075.49 3.43152 -0.366184 0
M  V30 21902 C 2074.61 4.05911 -1.47852 0
M  V30 21903 C 2073.74 5.22872 -0.936942 0
M  V30 21904 C 2072.78 5.77607 -2.02574 0
M  V30 21905 N 2071.92 6.85889 -1.50004 0
M  V30 21906 H 2076.76 2.38791 -1.78277 0
M  V30 21907 H 2074.3 1.17165 -0.889421 0
M  V30 21908 H 2076.25 4.17157 -0.0596984 0
M  V30 21909 H 2074.88 3.18641 0.516479 0
M  V30 21910 H 2073.94 3.29491 -1.90105 0
M  V30 21911 H 2075.25 4.42592 -2.3003 0
M  V30 21912 H 2074.4 6.03888 -0.583409 0
M  V30 21913 H 2073.14 4.87627 -0.0844157 0
M  V30 21914 H 2072.15 4.95231 -2.38802 0
M  V30 21915 H 2073.37 6.14905 -2.88217 0
M  V30 21916 H 2071.32 6.5257 -0.669982 0
M  V30 21917 H 2071.23 7.21491 -2.25802 0
M  V30 21918 H 2072.5 7.70594 -1.17496 0
M  V30 21919 N 2076.73 0.957992 1.25141 0
M  V30 21920 C 2077.96 0.631439 1.97554 0
M  V30 21921 C 2078.38 -0.790342 1.7069 0
M  V30 21922 O 2077.74 -1.53495 0.964826 0
M  V30 21923 C 2077.79 0.900403 3.49178 0
M  V30 21924 O 2076.89 -0.01911 4.12396 0
M  V30 21925 H 2076.23 0.23972 0.619217 0
M  V30 21926 H 2078.76 1.2855 1.59173 0
M  V30 21927 H 2078.77 0.828022 3.99509 0
M  V30 21928 H 2077.45 1.93663 3.68059 0
M  V30 21929 H 2076.02 0.105763 3.7275 0
M  V30 21930 N 2078.21 -1.39832 0.726957 0
M  V30 21931 C 2079.16 -2.30655 0.0817379 0
M  V30 21932 C 2080.13 -1.48792 -0.738257 0
M  V30 21933 O 2081.31 -1.775 -0.699873 0
M  V30 21934 C 2078.45 -3.35079 -0.825599 0
M  V30 21935 C 2077.56 -4.32 0.006145 0
M  V30 21936 C 2076.7 -5.23491 -0.90172 0
M  V30 21937 C 2075.74 -6.12066 -0.064744 0
M  V30 21938 N 2074.87 -6.95939 -0.928103 0
M  V30 21939 H 2079.71 -2.85263 0.861906 0
M  V30 21940 H 2077.25 -1.40468 0.436709 0
M  V30 21941 H 2079.21 -3.94203 -1.36602 0
M  V30 21942 H 2077.84 -2.81946 -1.57183 0
M  V30 21943 H 2076.89 -3.74562 0.66389 0
M  V30 21944 H 2078.2 -4.94499 0.65365 0
M  V30 21945 H 2077.36 -5.87602 -1.51027 0
M  V30 21946 H 2076.1 -4.61294 -1.58302 0
M  V30 21947 H 2075.1 -5.46975 0.556665 0
M  V30 21948 H 2076.33 -6.76326 0.613222 0
M  V30 21949 H 2074.27 -6.36318 -1.59484 0
M  V30 21950 H 2074.19 -7.55249 -0.336895 0
M  V30 21951 H 2075.46 -7.64487 -1.52247 0
M  V30 21952 N 2079.69 -0.473982 -1.50304 0
M  V30 21953 C 2081.1 -0.128306 -1.59083 0
M  V30 21954 C 2081.3 1.3654 -1.48186 0
M  V30 21955 O 2080.36 2.13895 -1.34183 0
M  V30 21956 C 2081.67 -0.681074 -2.92885 0
M  V30 21957 C 2083.22 -0.644759 -3.06287 0
M  V30 21958 C 2083.69 -1.17512 -4.42668 0
M  V30 21959 N 2085.19 -1.13466 -4.49088 0
M  V30 21960 C 2085.92 -1.5155 -5.5301 0
M  V30 21961 N 2085.42 -1.97098 -6.64172 0
M  V30 21962 N 2087.21 -1.43135 -5.4357 0
M  V30 21963 H 2079.36 -1.44543 -1.55631 0
M  V30 21964 H 2081.62 -0.597921 -0.735659 0
M  V30 21965 H 2081.33 -1.72759 -3.06345 0
M  V30 21966 H 2081.2 -0.126258 -3.76989 0
M  V30 21967 H 2083.59 0.392851 -2.92473 0
M  V30 21968 H 2083.67 -1.23641 -2.23934 0
M  V30 21969 H 2083.32 -2.21138 -4.57231 0
M  V30 21970 H 2083.25 -0.559658 -5.23618 0
M  V30 21971 H 2085.74 -0.800623 -3.69322 0
M  V30 21972 H 2086.05 -2.24298 -7.39534 0
M  V30 21973 H 2084.39 -2.01052 -6.65284 0
M  V30 21974 H 2087.59 -1.0739 -4.55615 0
M  V30 21975 H 2087.76 -1.73141 -6.24441 0
M  V30 21976 N 2081.16 1.56239 -0.206702 0
M  V30 21977 C 2082.58 1.58903 0.148953 0
M  V30 21978 C 2082.78 1.22319 1.60126 0
M  V30 21979 O 2081.84 0.951402 2.3389 0
M  V30 21980 C 2083.15 3.00253 -0.163906 0
M  V30 21981 C 2084.7 3.12824 -0.104945 0
M  V30 21982 C 2085.17 4.56326 -0.391273 0
M  V30 21983 N 2086.66 4.61948 -0.340308 0
M  V30 21984 C 2087.4 5.70894 -0.535549 0
M  V30 21985 N 2086.89 6.88261 -0.791765 0
M  V30 21986 N 2088.69 5.6014 -0.469005 0
M  V30 21987 H 2080.84 1.78298 -1.15428 0
M  V30 21988 H 2083.1 0.828039 -0.46158 0
M  V30 21989 H 2082.81 3.31621 -1.17133 0
M  V30 21990 H 2082.68 3.73485 0.528093 0
M  V30 21991 H 2085.07 2.81261 0.893101 0
M  V30 21992 H 2085.15 2.41953 -0.830197 0
M  V30 21993 H 2084.79 4.88603 -1.38669 0
M  V30 21994 H 2084.72 5.25402 0.355001 0
M  V30 21995 H 2087.21 3.77605 -0.149364 0
M  V30 21996 H 2087.53 7.67193 -0.929241 0
M  V30 21997 H 2085.87 6.90041 -0.828792 0
M  V30 21998 H 2089.06 4.67325 -0.269173 0
M  V30 21999 H 2089.24 6.44983 -0.624576 0
M  V30 22000 N 2082.64 -0.0668159 1.57458 0
M  V30 22001 C 2083.89 -0.765025 1.87493 0
M  V30 22002 C 2084.22 -1.77326 0.799106 0
M  V30 22003 O 2083.47 -1.9463 -0.204353 0
M  V30 22004 C 2083.77 -1.5042 3.24204 0
M  V30 22005 C 2083.44 -0.635488 4.46399 0
M  V30 22006 C 2082.1 -0.396101 4.79567 0
M  V30 22007 C 2084.45 -0.0334012 5.21189 0
M  V30 22008 C 2081.78 0.454772 5.84935 0
M  V30 22009 C 2084.13 0.804955 6.27458 0
M  V30 22010 C 2082.8 1.05417 6.59123 0
M  V30 22011 H 2082.07 -0.279943 0.686085 0
M  V30 22012 H 2084.71 -0.0256766 1.91483 0
M  V30 22013 H 2083.02 -2.31589 3.16028 0
M  V30 22014 H 2084.71 -2.04932 3.44679 0
M  V30 22015 H 2081.3 -0.832201 4.20443 0
M  V30 22016 H 2085.49 -0.205452 4.95875 0
M  V30 22017 H 2080.74 0.656546 6.07865 0
M  V30 22018 H 2084.92 1.27821 6.84569 0
M  V30 22019 H 2082.55 1.71525 7.40596 0
M  V30 22020 N 2084.12 -1.53926 -0.338317 0
M  V30 22021 C 2085.37 -1.71424 -1.07797 0
M  V30 22022 C 2085.7 -0.480153 -1.8848 0
M  V30 22023 O 2084.95 0.538111 -1.88156 0
M  V30 22024 C 2085.25 -2.93279 -2.0426 0
M  V30 22025 C 2084.92 -4.28665 -1.39847 0
M  V30 22026 C 2083.58 -4.65475 -1.2201 0
M  V30 22027 C 2085.93 -5.12746 -0.934908 0
M  V30 22028 C 2083.26 -5.83979 -0.564424 0
M  V30 22029 C 2085.61 -6.31921 -0.293119 0
M  V30 22030 C 2084.27 -6.67421 -0.102472 0
M  V30 22031 H 2083.54 -0.627283 -0.394458 0
M  V30 22032 H 2086.19 -1.88149 -0.356684 0
M  V30 22033 H 2084.5 -2.71179 -2.82788 0
M  V30 22034 H 2086.19 -3.04011 -2.61492 0
M  V30 22035 H 2082.78 -3.99696 -1.54729 0
M  V30 22036 H 2086.97 -4.84836 -1.06055 0
M  V30 22037 H 2082.22 -6.10055 -0.40538 0
M  V30 22038 H 2086.4 -6.96361 0.0741496 0
M  V30 22039 H 2084.02 -7.59106 0.407635 0
M  V30 22040 N 2085.6 0.599608 -1.45748 0
M  V30 22041 C 2086.85 1.35838 -1.50181 0
M  V30 22042 C 2087.17 1.93946 -0.146709 0
M  V30 22043 O 2086.43 1.76004 0.85563 0
M  V30 22044 C 2086.73 2.51935 -2.53503 0
M  V30 22045 C 2086.39 2.11925 -3.97993 0
M  V30 22046 C 2085.06 2.00728 -4.37335 0
M  V30 22047 C 2087.41 1.8082 -4.88829 0
M  V30 22048 C 2084.74 1.56659 -5.65398 0
M  V30 22049 C 2087.09 1.38235 -6.17312 0
M  V30 22050 C 2085.75 1.25602 -6.55576 0
M  V30 22051 H 2085.02 0.497068 -0.54955 0
M  V30 22052 H 2087.67 0.676927 -1.79137 0
M  V30 22053 H 2085.97 3.25453 -2.18145 0
M  V30 22054 H 2087.67 3.10161 -2.54168 0
M  V30 22055 H 2084.26 2.21569 -3.66886 0
M  V30 22056 H 2088.45 1.88364 -4.59165 0
M  V30 22057 H 2083.7 1.45507 -5.93833 0
M  V30 22058 H 2087.88 1.13215 -6.87136 0
M  V30 22059 H 2085.5 0.912286 -7.54706 0
M  V30 22060 N 2087.08 1.33171 0.842803 0
M  V30 22061 C 2088.49 1.1242 1.13287 0
M  V30 22062 C 2088.69 -0.0875106 2.0131 0
M  V30 22063 O 2087.75 -0.768934 2.40507 0
M  V30 22064 C 2089.06 2.40967 1.79876 0
M  V30 22065 C 2090.61 2.46837 1.92459 0
M  V30 22066 C 2091.09 3.75336 2.62463 0
M  V30 22067 N 2092.58 3.76385 2.69979 0
M  V30 22068 C 2093.31 4.72521 3.24825 0
M  V30 22069 N 2092.81 5.7903 3.80389 0
M  V30 22070 N 2094.6 4.60002 3.2304 0
M  V30 22071 H 2086.75 2.10841 0.256882 0
M  V30 22072 H 2089.01 0.931431 0.176468 0
M  V30 22073 H 2088.72 3.29618 1.22656 0
M  V30 22074 H 2088.59 2.52821 2.79931 0
M  V30 22075 H 2090.98 1.58638 2.48833 0
M  V30 22076 H 2091.06 2.38927 0.913649 0
M  V30 22077 H 2090.71 4.63915 2.06749 0
M  V30 22078 H 2090.64 3.80521 3.64021 0
M  V30 22079 H 2093.13 2.99407 2.30573 0
M  V30 22080 H 2093.44 6.48427 4.20431 0
M  V30 22081 H 2091.79 5.8277 3.78688 0
M  V30 22082 H 2094.98 3.75953 2.78886 0
M  V30 22083 H 2095.15 5.35096 3.65482 0
M  V30 22084 N 2088.56 -1.06056 1.16576 0
M  V30 22085 C 2089.8 -1.79164 0.950155 0
M  V30 22086 C 2090.13 -1.87092 -0.520588 0
M  V30 22087 O 2089.41 -1.36429 -1.38627 0
M  V30 22088 C 2089.69 -3.23525 1.58125 0
M  V30 22089 C 2089.55 -3.23663 3.1235 0
M  V30 22090 C 2090.86 -4.21138 1.27792 0
M  V30 22091 H 2087.98 -0.650413 0.3466 0
M  V30 22092 H 2090.63 -1.24019 1.43942 0
M  V30 22093 H 2088.78 -3.70615 1.16521 0
M  V30 22094 H 2090.45 -2.84716 3.62953 0
M  V30 22095 H 2088.69 -2.62248 3.45555 0
M  V30 22096 H 2089.36 -4.25512 3.51629 0
M  V30 22097 H 2091.84 -3.82502 1.63803 0
M  V30 22098 H 2090.71 -5.20408 1.74547 0
M  V30 22099 H 2090.97 -4.4166 0.197169 0
M  V30 22100 N 2090.03 -0.964615 -1.24631 0
M  V30 22101 C 2091.26 -0.641907 -1.97216 0
M  V30 22102 C 2091.68 0.781279 -1.71107 0
M  V30 22103 O 2091.04 1.52981 -0.972952 0
M  V30 22104 C 2091.09 -0.918908 -3.48695 0
M  V30 22105 O 2090.19 -0.00276058 -4.124 0
M  V30 22106 H 2089.53 -0.243001 -0.617937 0
M  V30 22107 H 2092.06 -1.29393 -1.58489 0
M  V30 22108 H 2092.07 -0.849197 -3.99065 0
M  V30 22109 H 2090.75 -1.95612 -3.67027 0
M  V30 22110 H 2089.33 -0.125529 -3.72689 0
M  V30 22111 N 2091.51 1.39445 -0.734362 0
M  V30 22112 C 2092.42 2.34405 -0.0955161 0
M  V30 22113 C 2093.44 1.58285 0.722625 0
M  V30 22114 O 2094.61 1.9058 0.65124 0
M  V30 22115 C 2091.68 3.3731 0.801447 0
M  V30 22116 C 2090.74 4.2929 -0.0288733 0
M  V30 22117 C 2089.97 5.27279 0.825373 0
M  V30 22118 O 2090.2 5.31743 2.06411 0
M  V30 22119 O 2089.13 6.01362 0.254373 0
M  V30 22120 H 2092.96 2.90693 -0.879273 0
M  V30 22121 H 2090.54 1.4096 -0.495025 0
M  V30 22122 H 2092.42 4.00368 1.31468 0
M  V30 22123 H 2091.1 2.83408 1.56403 0
M  V30 22124 H 2090 3.69456 -0.587608 0
M  V30 22125 H 2091.34 4.86396 -0.753661 0
M  V30 22126 N 2092.99 0.481946 1.5005 0
M  V30 22127 C 2093.9 -0.311606 2.32521 0
M  V30 22128 C 2094.92 -0.985661 1.4339 0
M  V30 22129 O 2096.09 -0.971246 1.76433 0
M  V30 22130 C 2093.16 -1.37313 3.18349 0
M  V30 22131 C 2092.22 -0.714526 4.23312 0
M  V30 22132 C 2091.45 -1.72547 5.05038 0
M  V30 22133 O 2091.67 -2.95324 4.87996 0
M  V30 22134 O 2090.61 -1.2913 5.87885 0
M  V30 22135 H 2094.43 0.362909 3.01524 0
M  V30 22136 H 2092.02 0.243598 1.47401 0
M  V30 22137 H 2093.9 -1.98774 3.71573 0
M  V30 22138 H 2092.58 -2.03091 2.52063 0
M  V30 22139 H 2091.48 -0.0606687 3.74051 0
M  V30 22140 H 2092.82 -0.099506 4.92099 0
M  V30 22141 N 2094.47 -1.56127 0.214985 0
M  V30 22142 C 2095.4 -2.17263 -0.730035 0
M  V30 22143 C 2096.41 -1.13988 -1.16235 0
M  V30 22144 O 2097.6 -1.40996 -1.09464 0
M  V30 22145 C 2094.7 -2.73608 -1.99979 0
M  V30 22146 C 2093.87 -4.01988 -1.72409 0
M  V30 22147 C 2092.93 -4.42962 -2.84026 0
M  V30 22148 O 2091.96 -5.09992 -2.52778 0
M  V30 22149 N 2093.16 -4.08103 -4.12834 0
M  V30 22150 H 2095.93 -2.98984 -0.207112 0
M  V30 22151 H 2093.49 -1.61865 0.0337349 0
M  V30 22152 H 2095.48 -2.97994 -2.73828 0
M  V30 22153 H 2094.05 -1.96229 -2.43337 0
M  V30 22154 H 2093.27 -3.85527 -0.822372 0
M  V30 22155 H 2094.56 -4.85749 -1.51411 0
M  V30 22156 H 2093.96 -3.54226 -4.41067 0
M  V30 22157 H 2092.51 -4.37396 -4.83248 0
M  V30 22158 N 2095.95 0.0584645 -1.57492 0
M  V30 22159 C 2096.88 1.09503 -2.0135 0
M  V30 22160 C 2097.89 1.34209 -0.921509 0
M  V30 22161 O 2099.08 1.32214 -1.19924 0
M  V30 22162 C 2096.18 2.44314 -2.3487 0
M  V30 22163 C 2095.35 2.39378 -3.66083 0
M  V30 22164 C 2094.41 3.56403 -3.87122 0
M  V30 22165 O 2093.44 3.37227 -4.58549 0
M  V30 22166 N 2094.64 4.77234 -3.30496 0
M  V30 22167 H 2097.4 0.721431 -2.90887 0
M  V30 22168 H 2094.97 0.24691 -1.60006 0
M  V30 22169 H 2096.96 3.21269 -2.46106 0
M  V30 22170 H 2095.53 2.73626 -1.51154 0
M  V30 22171 H 2094.75 1.47718 -3.65476 0
M  V30 22172 H 2096.04 2.33194 -4.52215 0
M  V30 22173 H 2095.43 4.95717 -2.72546 0
M  V30 22174 H 2093.99 5.51655 -3.47161 0
M  V30 22175 N 2097.42 1.54103 0.330149 0
M  V30 22176 C 2098.37 1.83029 1.40603 0
M  V30 22177 C 2099.34 0.676907 1.51681 0
M  V30 22178 O 2100.53 0.922683 1.67007 0
M  V30 22179 C 2097.67 2.05745 2.77061 0
M  V30 22180 C 2096.78 3.3344 2.74667 0
M  V30 22181 C 2095.91 3.46152 4.02929 0
M  V30 22182 C 2094.95 4.67746 3.94817 0
M  V30 22183 N 2094.09 4.7742 5.14796 0
M  V30 22184 H 2098.93 2.74817 1.15236 0
M  V30 22185 H 2096.47 1.36107 0.557963 0
M  V30 22186 H 2098.42 2.16907 3.56381 0
M  V30 22187 H 2097.05 1.17255 3.00751 0
M  V30 22188 H 2096.11 3.3105 1.87376 0
M  V30 22189 H 2097.42 4.22863 2.64554 0
M  V30 22190 H 2096.57 3.5682 4.90678 0
M  V30 22191 H 2095.31 2.5481 4.15841 0
M  V30 22192 H 2094.32 4.57142 3.05453 0
M  V30 22193 H 2095.54 5.60467 3.83476 0
M  V30 22194 H 2093.49 3.88991 5.28225 0
M  V30 22195 H 2093.4 5.60799 5.06991 0
M  V30 22196 H 2094.67 4.92412 6.04277 0
M  V30 22197 N 2098.9 -0.59187 1.46064 0
M  V30 22198 C 2099.83 -1.71586 1.51957 0
M  V30 22199 C 2100.85 -1.57585 0.408771 0
M  V30 22200 O 2102.04 -1.65177 0.676661 0
M  V30 22201 C 2099.14 -3.09749 1.3751 0
M  V30 22202 C 2098.31 -3.49841 2.62546 0
M  V30 22203 C 2097.37 -4.67027 2.4243 0
M  V30 22204 O 2096.39 -4.7335 3.16115 0
M  V30 22205 N 2097.6 -5.61316 1.48003 0
M  V30 22206 H 2100.36 -1.66989 2.48867 0
M  V30 22207 H 2097.92 -0.7776 1.42003 0
M  V30 22208 H 2099.91 -3.85924 1.21839 0
M  V30 22209 H 2098.48 -3.08765 0.488162 0
M  V30 22210 H 2097.7 -2.63465 2.93223 0
M  V30 22211 H 2098.99 -3.7339 3.45626 0
M  V30 22212 H 2098.39 -5.58935 0.872231 0
M  V30 22213 H 2096.95 -6.36959 1.38298 0
M  V30 22214 N 2100.38 -1.33616 -0.835729 0
M  V30 22215 C 2101.31 -1.19968 -1.95296 0
M  V30 22216 C 2102.33 -0.129874 -1.62281 0
M  V30 22217 O 2103.51 -0.380581 -1.74396 0
M  V30 22218 C 2100.61 -0.818275 -3.28873 0
M  V30 22219 C 2099.79 -1.98038 -3.9 0
M  V30 22220 C 2098.85 -1.57944 -5.01936 0
M  V30 22221 O 2097.87 -2.29423 -5.20916 0
M  V30 22222 N 2099.07 -0.486237 -5.7846 0
M  V30 22223 H 2101.84 -2.16212 -2.0754 0
M  V30 22224 H 2099.4 -1.26403 -1.01163 0
M  V30 22225 H 2101.39 -0.532092 -4.01187 0
M  V30 22226 H 2099.96 0.053577 -3.12554 0
M  V30 22227 H 2099.18 -2.43201 -3.10237 0
M  V30 22228 H 2100.47 -2.75789 -4.27572 0
M  V30 22229 H 2099.87 0.108268 -5.65596 0
M  V30 22230 H 2098.43 -0.259739 -6.51282 0
M  V30 22231 N 2101.86 1.05436 -1.17136 0
M  V30 22232 C 2103.27 1.30549 -0.918108 0
M  V30 22233 C 2103.47 1.96985 0.424152 0
M  V30 22234 O 2102.53 2.24189 1.1617 0
M  V30 22235 C 2103.84 2.17768 -2.07358 0
M  V30 22236 C 2105.39 2.31158 -2.11033 0
M  V30 22237 C 2105.87 3.21737 -3.25959 0
M  V30 22238 N 2107.36 3.29322 -3.25731 0
M  V30 22239 C 2108.09 3.99526 -4.11299 0
M  V30 22240 N 2107.59 4.72178 -5.06971 0
M  V30 22241 N 2109.38 3.95665 -3.99256 0
M  V30 22242 H 2101.53 0.607118 -2.03538 0
M  V30 22243 H 2103.8 0.330298 -0.888599 0
M  V30 22244 H 2103.5 1.7624 -3.04356 0
M  V30 22245 H 2103.38 3.18394 -2.02251 0
M  V30 22246 H 2105.76 2.71929 -1.14623 0
M  V30 22247 H 2105.84 1.30171 -2.20203 0
M  V30 22248 H 2105.49 2.8168 -4.22633 0
M  V30 22249 H 2105.42 4.22724 -3.14025 0
M  V30 22250 H 2107.91 2.77555 -2.5646 0
M  V30 22251 H 2108.22 5.233 -5.68662 0
M  V30 22252 H 2106.57 4.71129 -5.10943 0
M  V30 22253 H 2109.76 3.3803 -3.2381 0
M  V30 22254 H 2109.93 4.50108 -4.66161 0
M  V30 22255 N 2103.34 0.971211 1.24118 0
M  V30 22256 C 2104.75 0.678316 1.44468 0
M  V30 22257 C 2104.95 -0.75867 1.86672 0
M  V30 22258 O 2104.01 -1.53217 2.00701 0
M  V30 22259 C 2105.32 1.66541 2.50369 0
M  V30 22260 C 2106.87 1.67842 2.64193 0
M  V30 22261 C 2107.34 2.65358 3.73295 0
M  V30 22262 N 2108.84 2.63821 3.80727 0
M  V30 22263 C 2109.57 3.35947 4.6468 0
M  V30 22264 N 2109.07 4.17602 5.52794 0
M  V30 22265 N 2110.86 3.24755 4.58793 0
M  V30 22266 H 2103.01 1.8996 0.950216 0
M  V30 22267 H 2105.27 0.818026 0.479101 0
M  V30 22268 H 2104.98 2.69261 2.26255 0
M  V30 22269 H 2104.85 1.44095 3.48592 0
M  V30 22270 H 2107.24 0.658308 2.87664 0
M  V30 22271 H 2107.32 1.94351 1.66316 0
M  V30 22272 H 2106.97 3.67505 3.50574 0
M  V30 22273 H 2106.9 2.36127 4.70693 0
M  V30 22274 H 2109.39 2.04554 3.17751 0
M  V30 22275 H 2109.7 4.69515 6.13821 0
M  V30 22276 H 2108.04 4.21695 5.52447 0
M  V30 22277 H 2111.24 2.60422 3.8897 0
M  V30 22278 H 2111.41 3.81228 5.23994 0
M  V30 22279 N 2104.81 -1.39054 0.741747 0
M  V30 22280 C 2105.72 -2.34352 0.107946 0
M  V30 22281 C 2106.74 -1.58666 -0.71422 0
M  V30 22282 O 2107.92 -1.90923 -0.641124 0
M  V30 22283 C 2104.98 -3.3773 -0.783547 0
M  V30 22284 C 2104.04 -4.29269 0.0516392 0
M  V30 22285 C 2103.28 -5.27709 -0.797398 0
M  V30 22286 O 2103.5 -5.3283 -2.03588 0
M  V30 22287 O 2102.43 -6.01489 -0.222478 0
M  V30 22288 H 2106.26 -2.90223 0.894677 0
M  V30 22289 H 2103.84 -1.40696 0.502494 0
M  V30 22290 H 2105.73 -4.01059 -1.29342 0
M  V30 22291 H 2104.4 -2.84233 -1.54898 0
M  V30 22292 H 2103.31 -3.6914 0.607193 0
M  V30 22293 H 2104.64 -4.85989 0.779446 0
M  V30 22294 N 2106.29 -0.489897 -1.49792 0
M  V30 22295 C 2107.23 0.340825 -2.2564 0
M  V30 22296 C 2108.2 0.980035 -1.29746 0
M  V30 22297 O 2109.39 1.01231 -1.59011 0
M  V30 22298 C 2106.51 1.47906 -3.04699 0
M  V30 22299 C 2105.56 0.955351 -4.15662 0
M  V30 22300 S 2106.39 -0.145024 -5.35304 0
M  V30 22301 C 2107.55 0.996645 -6.17914 0
M  V30 22302 H 2107.78 -0.302973 -2.95752 0
M  V30 22303 H 2105.32 -0.275032 -1.51931 0
M  V30 22304 H 2107.27 2.13132 -3.50835 0
M  V30 22305 H 2105.93 2.09444 -2.34077 0
M  V30 22306 H 2105.13 1.80804 -4.70453 0
M  V30 22307 H 2104.73 0.380501 -3.72059 0
M  V30 22308 H 2107.02 1.90429 -6.50187 0
M  V30 22309 H 2107.96 0.487599 -7.06419 0
M  V30 22310 H 2108.37 1.25897 -5.50282 0
M  V30 22311 N 2107.77 1.56011 -0.223262 0
M  V30 22312 C 2108.7 2.23355 0.680795 0
M  V30 22313 C 2109.68 1.20584 1.19973 0
M  V30 22314 O 2110.87 1.49174 1.24342 0
M  V30 22315 C 2108 2.91478 1.88833 0
M  V30 22316 C 2106.95 4.00736 1.50316 0
M  V30 22317 C 2106.28 4.56164 2.7896 0
M  V30 22318 C 2107.58 5.17697 0.69188 0
M  V30 22319 H 2109.27 2.99162 0.119304 0
M  V30 22320 H 2106.82 1.43891 0.055942 0
M  V30 22321 H 2108.77 3.37282 2.52623 0
M  V30 22322 H 2107.49 2.13121 2.47481 0
M  V30 22323 H 2106.15 3.55665 0.888708 0
M  V30 22324 H 2105.8 3.74535 3.35757 0
M  V30 22325 H 2105.5 5.29903 2.53922 0
M  V30 22326 H 2107.02 5.04687 3.43691 0
M  V30 22327 H 2108.44 5.59872 1.23353 0
M  V30 22328 H 2106.84 5.97679 0.538515 0
M  V30 22329 H 2107.91 4.83964 -0.301131 0
M  V30 22330 N 2109.25 -0.0501116 1.5752 0
M  V30 22331 C 2110.2 -1.05718 2.05164 0
M  V30 22332 C 2111.17 -1.37182 0.936492 0
M  V30 22333 O 2112.35 -1.4788 1.20565 0
M  V30 22334 C 2109.49 -2.3594 2.51846 0
M  V30 22335 C 2108.6 -2.10818 3.77067 0
M  V30 22336 C 2107.74 -3.34759 4.12444 0
M  V30 22337 C 2106.78 -3.05097 5.30643 0
M  V30 22338 N 2105.91 -4.21429 5.61553 0
M  V30 22339 H 2110.75 -0.643931 2.9096 0
M  V30 22340 H 2108.29 -0.30636 1.43874 0
M  V30 22341 H 2110.25 -3.11999 2.7697 0
M  V30 22342 H 2108.88 -2.75027 1.68997 0
M  V30 22343 H 2107.93 -1.25352 3.59153 0
M  V30 22344 H 2109.24 -1.84923 4.63255 0
M  V30 22345 H 2108.4 -4.19199 4.38585 0
M  V30 22346 H 2107.14 -3.63748 3.24867 0
M  V30 22347 H 2106.14 -2.19056 5.04276 0
M  V30 22348 H 2107.37 -2.77407 6.19856 0
M  V30 22349 H 2105.31 -4.5041 4.76935 0
M  V30 22350 H 2105.23 -3.98884 6.42205 0
M  V30 22351 H 2106.5 -5.06804 5.92258 0
M  V30 22352 N 2110.73 -1.54276 -0.321972 0
M  V30 22353 C 2112 -1.63209 -1.07806 0
M  V30 22354 C 2112.38 -0.466965 -2.0587 0
M  V30 22355 O 2111.73 0.538598 -2.22062 0
M  V30 22356 C 2111.94 -3.00279 -1.77858 0
M  V30 22357 C 2113.29 -3.5638 -2.30822 0
M  V30 22358 O 2114.31 -3.02594 -1.87923 0
M  V30 22359 O 2113.17 -4.50507 -3.09364 0
M  V30 22360 H 2110.27 -0.660982 -0.497023 0
M  V30 22361 H 2112.81 -1.66622 -0.321736 0
M  V30 22362 H 2111.58 -3.76518 -1.06537 0
M  V30 22363 H 2111.21 -3.00552 -2.60297 0
M  V30 22364 N 2112.2 0.584116 -1.46376 0
M  V30 22365 C 2113.62 1.16623 -1.45794 0
M  V30 22366 C 2113.97 1.95198 -0.198034 0
M  V30 22367 O 2113.09 2.04801 0.698962 0
M  V30 22368 C 2113.69 2.12162 -2.64145 0
M  V30 22369 C 2112.25 2.657 -2.66609 0
M  V30 22370 C 2111.39 1.41543 -2.38455 0
M  V30 22371 H 2114.34 0.372129 -1.54275 0
M  V30 22372 H 2114.36 2.95601 -2.39583 0
M  V30 22373 H 2113.88 1.54946 -3.55828 0
M  V30 22374 H 2111.98 3.26789 -1.78996 0
M  V30 22375 H 2112.09 3.08531 -3.66532 0
M  V30 22376 H 2110.45 1.71306 -1.88484 0
M  V30 22377 H 2111.24 0.861604 -3.32312 0
M  V30 22378 N 2113.68 1.34058 0.828631 0
M  V30 22379 C 2114.93 1.26093 1.58451 0
M  V30 22380 C 2115.26 -0.170623 1.9375 0
M  V30 22381 O 2114.51 -1.13044 1.59748 0
M  V30 22382 C 2114.81 2.09161 2.89804 0
M  V30 22383 C 2114.48 3.58234 2.73823 0
M  V30 22384 C 2113.14 3.98873 2.69172 0
M  V30 22385 C 2115.49 4.52919 2.57903 0
M  V30 22386 C 2112.82 5.32398 2.46514 0
M  V30 22387 C 2115.17 5.86617 2.36777 0
M  V30 22388 C 2113.84 6.26426 2.30534 0
M  V30 22389 H 2113.11 0.461406 0.579815 0
M  V30 22390 H 2115.75 1.65745 0.959215 0
M  V30 22391 H 2114.06 1.62319 3.56595 0
M  V30 22392 H 2115.76 2.00349 3.47363 0
M  V30 22393 H 2112.35 3.25973 2.7828 0
M  V30 22394 H 2116.53 4.22423 2.60523 0
M  V30 22395 H 2111.79 5.62268 2.40135 0
M  V30 22396 H 2115.96 6.5958 2.23444 0
M  V30 22397 H 2113.59 7.29826 2.12738 0
M  V30 22398 N 2115.16 -1.04814 1.17694 0
M  V30 22399 C 2116.41 -1.78147 0.969105 0
M  V30 22400 C 2116.74 -1.87634 -0.500715 0
M  V30 22401 O 2116.02 -1.37892 -1.37172 0
M  V30 22402 C 2116.3 -3.2183 1.61548 0
M  V30 22403 C 2116.15 -3.20332 3.15765 0
M  V30 22404 C 2117.47 -4.19759 1.32251 0
M  V30 22405 H 2114.59 -0.646701 0.353479 0
M  V30 22406 H 2117.23 -1.22485 1.45249 0
M  V30 22407 H 2115.38 -3.69358 1.20445 0
M  V30 22408 H 2117.05 -2.8085 3.65952 0
M  V30 22409 H 2115.3 -2.58568 3.48318 0
M  V30 22410 H 2115.97 -4.21759 3.56123 0
M  V30 22411 H 2118.44 -3.80743 1.67851 0
M  V30 22412 H 2117.32 -5.18527 1.80057 0
M  V30 22413 H 2117.58 -4.41426 0.244002 0
M  V30 22414 N 2116.64 -0.977779 -1.23601 0
M  V30 22415 C 2118.06 -0.685968 -1.44106 0
M  V30 22416 C 2118.26 0.748759 -1.87072 0
M  V30 22417 O 2117.31 1.5215 -2.01511 0
M  V30 22418 C 2118.62 -1.67866 -2.49482 0
M  V30 22419 C 2120.17 -1.69241 -2.63299 0
M  V30 22420 C 2120.65 -2.67334 -3.71883 0
M  V30 22421 N 2122.14 -2.65836 -3.79322 0
M  V30 22422 C 2122.87 -3.38406 -4.62892 0
M  V30 22423 N 2122.37 -4.20527 -5.50571 0
M  V30 22424 N 2124.16 -3.27183 -4.57064 0
M  V30 22425 H 2116.31 -1.90461 -0.940129 0
M  V30 22426 H 2118.58 -0.820555 -0.474756 0
M  V30 22427 H 2118.28 -2.70457 -2.24824 0
M  V30 22428 H 2118.16 -1.45942 -3.47823 0
M  V30 22429 H 2120.54 -0.673554 -2.8731 0
M  V30 22430 H 2120.62 -1.95231 -1.65283 0
M  V30 22431 H 2120.27 -3.6936 -3.4862 0
M  V30 22432 H 2120.2 -2.38619 -4.69434 0
M  V30 22433 H 2122.69 -2.06236 -3.16662 0
M  V30 22434 H 2123 -4.72763 -6.11322 0
M  V30 22435 H 2121.35 -4.24619 -5.50203 0
M  V30 22436 H 2124.54 -2.62481 -3.87584 0
M  V30 22437 H 2124.71 -3.84001 -5.21965 0
M  V30 22438 N 2118.12 1.38658 -0.749111 0
M  V30 22439 C 2119.34 2.0503 -0.312666 0
M  V30 22440 C 2119.77 1.56125 1.04912 0
M  V30 22441 O 2119.13 0.711236 1.66767 0
M  V30 22442 C 2119.17 3.58997 -0.339658 0
M  V30 22443 O 2118.28 4.06956 0.667887 0
M  V30 22444 H 2117.62 0.649228 -0.139282 0
M  V30 22445 H 2120.15 1.7742 -1.01898 0
M  V30 22446 H 2120.16 4.07562 -0.188968 0
M  V30 22447 H 2118.83 3.93951 -1.33325 0
M  V30 22448 H 2117.41 3.69769 0.482177 0
M  V30 22449 N 2119.6 0.497834 1.49531 0
M  V30 22450 C 2120.54 -0.282279 2.29067 0
M  V30 22451 C 2121.51 -0.963221 1.35319 0
M  V30 22452 O 2122.7 -0.970497 1.64274 0
M  V30 22453 C 2119.84 -1.34265 3.1791 0
M  V30 22454 C 2118.95 -0.673799 4.26713 0
M  V30 22455 C 2118.09 -1.71434 5.02776 0
M  V30 22456 C 2117.12 -1.02719 6.0342 0
M  V30 22457 N 2116.26 -2.01178 6.7266 0
M  V30 22458 H 2121.1 0.402227 2.95273 0
M  V30 22459 H 2118.64 0.210203 1.4559 0
M  V30 22460 H 2120.6 -1.96938 3.67792 0
M  V30 22461 H 2119.23 -1.99596 2.53695 0
M  V30 22462 H 2118.28 0.0661428 3.80342 0
M  V30 22463 H 2119.59 -0.132722 4.98623 0
M  V30 22464 H 2118.74 -2.4162 5.56511 0
M  V30 22465 H 2117.48 -2.28926 4.30632 0
M  V30 22466 H 2116.49 -0.311083 5.48919 0
M  V30 22467 H 2117.71 -0.458799 6.77548 0
M  V30 22468 H 2115.66 -2.57639 6.0329 0
M  V30 22469 H 2115.58 -1.52128 7.40536 0
M  V30 22470 H 2116.84 -2.70663 7.31001 0
M  V30 22471 N 2121.07 -1.5589 0.231532 0
M  V30 22472 C 2122 -2.23713 -0.66894 0
M  V30 22473 C 2122.98 -1.21219 -1.19332 0
M  V30 22474 O 2124.17 -1.49831 -1.23549 0
M  V30 22475 C 2121.3 -2.92476 -1.87284 0
M  V30 22476 C 2120.25 -4.01527 -1.48189 0
M  V30 22477 C 2119.58 -4.57637 -2.76537 0
M  V30 22478 C 2120.88 -5.18057 -0.664415 0
M  V30 22479 H 2122.57 -2.99221 -0.103437 0
M  V30 22480 H 2120.12 -1.43919 -0.0483103 0
M  V30 22481 H 2122.07 -3.38617 -2.50831 0
M  V30 22482 H 2120.8 -2.14431 -2.46347 0
M  V30 22483 H 2119.46 -3.56131 -0.869833 0
M  V30 22484 H 2119.1 -3.7631 -3.33766 0
M  V30 22485 H 2118.8 -5.31242 -2.51108 0
M  V30 22486 H 2120.33 -5.06503 -3.41009 0
M  V30 22487 H 2121.74 -5.60519 -1.20382 0
M  V30 22488 H 2120.14 -5.97956 -0.506811 0
M  V30 22489 H 2121.21 -4.83798 0.326792 0
M  V30 22490 N 2122.55 0.0417572 -1.57545 0
M  V30 22491 C 2123.8 0.734075 -1.87868 0
M  V30 22492 C 2124.11 1.77194 -0.828352 0
M  V30 22493 O 2125.32 2.51595 -1.02039 0
M  V30 22494 C 2123.78 1.35664 -3.33352 0
M  V30 22495 C 2123.38 0.355779 -4.46585 0
M  V30 22496 C 2125.13 2.02957 -3.72839 0
M  V30 22497 C 2123.03 0.985962 -5.83123 0
M  V30 22498 H 2121.96 0.277922 -0.70091 0
M  V30 22499 H 2124.62 -0.0119297 -1.83496 0
M  V30 22500 H 2123 2.15192 -3.32428 0
M  V30 22501 H 2124.17 -0.411871 -4.58956 0
M  V30 22502 H 2122.49 -0.214356 -4.15848 0
M  V30 22503 H 2125.08 2.50935 -4.72161 0
M  V30 22504 H 2125.43 2.84222 -3.04176 0
M  V30 22505 H 2125.96 1.3022 -3.75882 0
M  V30 22506 H 2122.7 0.212992 -6.55154 0
M  V30 22507 H 2122.22 1.72375 -5.74497 0
M  V30 22508 H 2123.9 1.49705 -6.29442 0
M  V30 22509 N 2124.03 1.54445 0.313786 0
M  V30 22510 C 2125.25 1.77413 1.07421 0
M  V30 22511 C 2125.68 0.525885 1.80599 0
M  V30 22512 O 2125.04 -0.523027 1.73592 0
M  V30 22513 C 2125.09 2.97322 2.04039 0
M  V30 22514 O 2124.19 2.69552 3.12115 0
M  V30 22515 H 2123.53 0.587597 0.309235 0
M  V30 22516 H 2126.06 2.01495 0.355102 0
M  V30 22517 H 2126.07 3.2494 2.46735 0
M  V30 22518 H 2124.75 3.87839 1.5018 0
M  V30 22519 H 2123.32 2.52913 2.74025 0
M  V30 22520 N 2125.51 -0.576345 1.46683 0
M  V30 22521 C 2126.92 -1.15848 1.46411 0
M  V30 22522 C 2127.27 -1.9509 0.208383 0
M  V30 22523 O 2126.39 -2.05169 -0.688092 0
M  V30 22524 C 2126.99 -2.10758 2.65267 0
M  V30 22525 C 2125.55 -2.64282 2.68015 0
M  V30 22526 C 2124.7 -1.40277 2.39202 0
M  V30 22527 H 2127.65 -0.363942 1.54471 0
M  V30 22528 H 2127.67 -2.94327 2.41147 0
M  V30 22529 H 2127.18 -1.53056 3.56645 0
M  V30 22530 H 2125.28 -3.25835 1.80726 0
M  V30 22531 H 2125.39 -3.06583 3.68163 0
M  V30 22532 H 2123.76 -1.70304 1.8939 0
M  V30 22533 H 2124.54 -0.843968 3.32764 0
M  V30 22534 N 2126.99 -1.34495 -0.82151 0
M  V30 22535 C 2128.4 -1.24152 -1.39439 0
M  V30 22536 C 2128.75 0.1324 -1.95753 0
M  V30 22537 O 2127.87 1.03279 -1.90164 0
M  V30 22538 C 2128.47 -2.24789 -2.53487 0
M  V30 22539 C 2127.03 -2.18232 -3.06679 0
M  V30 22540 C 2126.17 -2.11315 -1.79558 0
M  V30 22541 H 2129.12 -1.45841 -0.625789 0
M  V30 22542 H 2129.15 -1.8657 -3.3162 0
M  V30 22543 H 2128.66 -3.24774 -2.1247 0
M  V30 22544 H 2126.76 -1.21608 -3.52196 0
M  V30 22545 H 2126.87 -3.09548 -3.65673 0
M  V30 22546 H 2125.24 -1.57058 -2.00512 0
M  V30 22547 H 2126.02 -3.13136 -1.40714 0
M  V30 22548 N 2128.46 1.04188 -1.18248 0
M  V30 22549 C 2129.69 1.81021 -1.00194 0
M  V30 22550 C 2130.11 1.83367 0.449658 0
M  V30 22551 O 2129.46 1.26824 1.31232 0
M  V30 22552 C 2129.52 3.26678 -1.54802 0
M  V30 22553 O 2129.24 3.24548 -2.94279 0
M  V30 22554 C 2130.74 4.20161 -1.41349 0
M  V30 22555 H 2127.96 0.570098 -0.353877 0
M  V30 22556 H 2130.5 1.31316 -1.56769 0
M  V30 22557 H 2128.66 3.7362 -1.02407 0
M  V30 22558 H 2129.07 4.15787 -3.19721 0
M  V30 22559 H 2130.54 5.20304 -1.84357 0
M  V30 22560 H 2131.02 4.37705 -0.362029 0
M  V30 22561 H 2131.63 3.79083 -1.92811 0
M  V30 22562 N 2129.94 0.98432 1.23081 0
M  V30 22563 C 2130.89 0.520259 2.26707 0
M  V30 22564 C 2131.88 -0.424715 1.63989 0
M  V30 22565 O 2133.09 -0.298177 1.77513 0
M  V30 22566 H 2129.47 0.149826 0.736923 0
M  V30 22567 H 2131.44 1.40587 2.63207 0
M  V30 22568 C 2130.19 -0.157874 3.47341 0
M  V30 22569 H 2129.51 0.560186 3.95856 0
M  V30 22570 H 2130.95 -0.446157 4.21646 0
M  V30 22571 C 2129.41 -1.3904 3.0687 0
M  V30 22572 O 2129.94 -2.48637 3.15503 0
M  V30 22573 N 2128.14 -1.26249 2.61743 0
M  V30 22574 H 2127.69 -0.370736 2.54918 0
M  V30 22575 H 2127.65 -2.08824 2.35032 0
M  V30 22576 N 2131.42 -1.38259 0.756453 0
M  V30 22577 C 2132.67 -2.00052 0.313891 0
M  V30 22578 C 2133 -1.60047 -1.10523 0
M  V30 22579 O 2132.25 -0.830786 -1.7719 0
M  V30 22580 C 2132.55 -3.55293 0.3875 0
M  V30 22581 C 2132.22 -4.15019 1.76268 0
M  V30 22582 C 2130.88 -4.31045 2.13902 0
M  V30 22583 C 2133.23 -4.47937 2.66462 0
M  V30 22584 C 2130.56 -4.77286 3.41197 0
M  V30 22585 C 2132.91 -4.95596 3.93151 0
M  V30 22586 C 2131.57 -5.09828 4.3085 0
M  V30 22587 H 2130.84 -0.732044 0.114861 0
M  V30 22588 H 2133.49 -1.65263 0.967494 0
M  V30 22589 H 2131.8 -3.90237 -0.349664 0
M  V30 22590 H 2133.49 -4.00991 0.0266083 0
M  V30 22591 H 2130.08 -4.02962 1.46014 0
M  V30 22592 H 2134.27 -4.35154 2.38651 0
M  V30 22593 H 2129.52 -4.8649 3.7032 0
M  V30 22594 H 2133.7 -5.20036 4.6318 0
M  V30 22595 H 2131.32 -5.45419 5.29549 0
M  V30 22596 N 2132.9 -0.505757 -1.49264 0
M  V30 22597 C 2133.85 0.28378 -2.30862 0
M  V30 22598 C 2134.84 0.958332 -1.39687 0
M  V30 22599 O 2136.05 0.885479 -1.56714 0
M  V30 22600 H 2132.42 0.110376 -0.743856 0
M  V30 22601 H 2134.39 -0.424349 -2.95367 0
M  V30 22602 C 2133.14 1.33255 -3.21152 0
M  V30 22603 H 2132.46 0.822894 -3.9124 0
M  V30 22604 H 2133.9 1.85687 -3.81177 0
M  V30 22605 C 2132.36 2.35327 -2.41087 0
M  V30 22606 O 2132.89 3.41302 -2.1184 0
M  V30 22607 N 2131.1 2.07918 -2.03023 0
M  V30 22608 H 2130.65 1.21758 -2.27009 0
M  V30 22609 H 2130.6 2.7644 -1.49762 0
M  V30 22610 N 2134.38 1.55765 -0.239796 0
M  V30 22611 C 2135.33 2.17732 0.676512 0
M  V30 22612 C 2136.31 1.13106 1.14438 0
M  V30 22613 O 2137.5 1.39038 1.09533 0
M  V30 22614 C 2134.63 2.87486 1.87634 0
M  V30 22615 C 2133.72 3.9936 1.42731 0
M  V30 22616 N 2134.11 5.01043 0.692042 0
M  V30 22617 C 2132.41 4.11785 1.71316 0
M  V30 22618 C 2133.11 5.79874 0.460525 0
M  V30 22619 N 2132.08 5.33894 1.02264 0
M  V30 22620 H 2135.89 2.93707 0.106521 0
M  V30 22621 H 2133.4 1.62346 -0.0418104 0
M  V30 22622 H 2135.4 3.30304 2.54372 0
M  V30 22623 H 2134.06 2.13012 2.45063 0
M  V30 22624 H 2135.07 5.16764 0.342867 0
M  V30 22625 H 2131.74 3.48477 2.29934 0
M  V30 22626 H 2133.13 6.71782 -0.125962 0
M  V30 22627 N 2135.85 -0.0334016 1.57565 0
M  V30 22628 C 2136.78 -1.03494 2.09312 0
M  V30 22629 C 2137.77 -1.37985 0.9947 0
M  V30 22630 O 2138.95 -1.46944 1.26969 0
M  V30 22631 C 2136.08 -2.33717 2.56892 0
M  V30 22632 C 2135.03 -2.1348 3.70959 0
M  V30 22633 C 2134.36 -3.49425 4.0473 0
M  V30 22634 C 2135.66 -1.52451 4.99556 0
M  V30 22635 H 2137.35 -0.60419 2.9324 0
M  V30 22636 H 2134.9 -0.289182 1.41066 0
M  V30 22637 H 2136.85 -3.04107 2.91714 0
M  V30 22638 H 2135.58 -2.78843 1.70041 0
M  V30 22639 H 2134.24 -1.45523 3.3648 0
M  V30 22640 H 2133.88 -3.92192 3.14952 0
M  V30 22641 H 2133.58 -3.36711 4.81559 0
M  V30 22642 H 2135.11 -4.21184 4.42082 0
M  V30 22643 H 2136.52 -2.12753 5.32362 0
M  V30 22644 H 2134.92 -1.50324 5.80967 0
M  V30 22645 H 2135.99 -0.48986 4.82419 0
M  V30 22646 N 2137.33 -1.54609 -0.305591 0
M  V30 22647 C 2138.58 -1.73929 -1.04291 0
M  V30 22648 C 2138.91 -0.521093 -1.87078 0
M  V30 22649 O 2138.19 0.481847 -1.88437 0
M  V30 22650 C 2138.47 -3.02557 -1.95272 0
M  V30 22651 C 2138.32 -4.34666 -1.15695 0
M  V30 22652 C 2139.64 -3.27028 -2.94517 0
M  V30 22653 H 2136.76 -0.632835 -0.377741 0
M  V30 22654 H 2139.4 -1.87321 -0.317961 0
M  V30 22655 H 2137.55 -2.91271 -2.57087 0
M  V30 22656 H 2139.22 -4.57863 -0.562028 0
M  V30 22657 H 2137.47 -4.31359 -0.459568 0
M  V30 22658 H 2138.14 -5.20925 -1.82595 0
M  V30 22659 H 2140.61 -3.37894 -2.42831 0
M  V30 22660 H 2139.49 -4.18355 -3.55346 0
M  V30 22661 H 2139.75 -2.45106 -3.67934 0
M  V30 22662 N 2138.81 0.568558 -1.46987 0
M  V30 22663 C 2139.76 1.6718 -1.55032 0
M  V30 22664 C 2140.74 1.55586 -0.410086 0
M  V30 22665 O 2141.94 1.64261 -0.659345 0
M  V30 22666 C 2139.07 3.05964 -1.55694 0
M  V30 22667 C 2138.15 3.22803 -2.75062 0
M  V30 22668 N 2138.54 3.09748 -3.99862 0
M  V30 22669 C 2136.84 3.53777 -2.71584 0
M  V30 22670 C 2137.54 3.28972 -4.79742 0
M  V30 22671 N 2136.52 3.54783 -4.11862 0
M  V30 22672 H 2140.32 1.55638 -2.49307 0
M  V30 22673 H 2137.83 0.772998 -1.42823 0
M  V30 22674 H 2139.83 3.85163 -1.59546 0
M  V30 22675 H 2138.49 3.18627 -0.625061 0
M  V30 22676 H 2139.5 2.87314 -4.30896 0
M  V30 22677 H 2136.18 3.73037 -1.87483 0
M  V30 22678 H 2137.57 3.23942 -5.88652 0
M  V30 22679 N 2140.29 1.34929 0.814366 0
M  V30 22680 C 2141.53 1.27956 1.57338 0
M  V30 22681 C 2141.87 -0.147896 1.93636 0
M  V30 22682 O 2141.14 -1.09539 1.60722 0
M  V30 22683 C 2141.43 2.17862 2.8672 0
M  V30 22684 C 2141.28 3.69185 2.56948 0
M  V30 22685 C 2142.6 2.07033 3.88362 0
M  V30 22686 H 2139.72 0.466149 0.570854 0
M  V30 22687 H 2142.36 1.65259 0.937513 0
M  V30 22688 H 2140.51 1.86178 3.40984 0
M  V30 22689 H 2142.18 4.11275 2.08927 0
M  V30 22690 H 2140.42 3.89851 1.90259 0
M  V30 22691 H 2141.09 4.2747 3.49247 0
M  V30 22692 H 2143.57 2.34869 3.43476 0
M  V30 22693 H 2142.45 2.72151 4.76681 0
M  V30 22694 H 2142.71 1.04989 4.29453 0
M  V30 22695 N 2141.77 -1.0356 1.18799 0
M  V30 22696 C 2143.01 -1.76497 0.984535 0
M  V30 22697 C 2143.34 -1.88833 -0.486544 0
M  V30 22698 O 2142.61 -1.41702 -1.35268 0
M  V30 22699 H 2141.19 -0.653818 0.36129 0
M  V30 22700 H 2143.85 -1.24956 1.49573 0
M  V30 22701 H 2142.94 -2.77573 1.42687 0
M  V30 22702 N 2143.25 -0.990834 -1.22557 0
M  V30 22703 C 2144.66 -0.700966 -1.73042 0
M  V30 22704 C 2145.01 0.782283 -1.7993 0
M  V30 22705 O 2144.13 1.61158 -1.4442 0
M  V30 22706 C 2144.73 -1.26574 -3.14268 0
M  V30 22707 C 2143.29 -1.0253 -3.62167 0
M  V30 22708 C 2142.43 -1.38718 -2.4011 0
M  V30 22709 H 2145.38 -1.16344 -1.07934 0
M  V30 22710 H 2145.41 -0.643298 -3.75023 0
M  V30 22711 H 2144.92 -2.34527 -3.09222 0
M  V30 22712 H 2143.02 0.0376973 -3.72581 0
M  V30 22713 H 2143.13 -1.68722 -4.48408 0
M  V30 22714 H 2141.5 -0.805751 -2.41619 0
M  V30 22715 H 2142.28 -2.47671 -2.37727 0
M  V30 22716 N 2144.72 1.37856 -0.763775 0
M  V30 22717 C 2145.69 2.28702 -0.151022 0
M  V30 22718 C 2146.69 1.47661 0.636627 0
M  V30 22719 O 2147.88 1.67979 0.46139 0
M  V30 22720 C 2145.01 3.31525 0.793965 0
M  V30 22721 H 2146.2 2.84397 -0.951747 0
M  V30 22722 H 2143.75 1.46987 -0.531452 0
M  V30 22723 H 2144.49 2.80939 1.61999 0
M  V30 22724 H 2144.27 3.91416 0.231444 0
M  V30 22725 H 2145.76 3.99432 1.21837 0
M  V30 22726 N 2146.2 0.513665 1.48994 0
M  V30 22727 C 2147.15 -0.271533 2.3101 0
M  V30 22728 C 2148.14 -0.950911 1.40193 0
M  V30 22729 O 2149.35 -0.877155 1.57181 0
M  V30 22730 H 2145.72 -0.106429 0.744431 0
M  V30 22731 H 2147.7 0.440007 2.95138 0
M  V30 22732 C 2146.44 -1.3155 3.21854 0
M  V30 22733 H 2145.77 -0.802134 3.91671 0
M  V30 22734 H 2147.21 -1.83663 3.82157 0
M  V30 22735 C 2145.67 -2.34045 2.42332 0
M  V30 22736 O 2146.2 -3.40173 2.13647 0
M  V30 22737 N 2144.4 -2.06838 2.04123 0
M  V30 22738 H 2143.95 -1.20552 2.27651 0
M  V30 22739 H 2143.91 -2.75641 1.51225 0
M  V30 22740 N 2147.68 -1.55636 0.248053 0
M  V30 22741 C 2148.93 -1.98579 -0.375626 0
M  V30 22742 C 2149.25 -1.13753 -1.58383 0
M  V30 22743 O 2148.52 -0.2206 -1.94654 0
M  V30 22744 H 2147.1 -0.733423 -0.141773 0
M  V30 22745 H 2149.76 -1.91784 0.34711 0
M  V30 22746 H 2148.86 -3.04513 -0.683983 0
M  V30 22747 N 2149.16 0.0250451 -1.5758 0
M  V30 22748 C 2150.57 0.380756 -1.54992 0
M  V30 22749 C 2150.77 1.76357 -0.974703 0
M  V30 22750 O 2149.83 2.45328 -0.597511 0
M  V30 22751 C 2151.14 0.278925 -2.99404 0
M  V30 22752 C 2152.69 0.355712 -3.10972 0
M  V30 22753 C 2153.17 0.283285 -4.57123 0
M  V30 22754 N 2154.66 0.341957 -4.61936 0
M  V30 22755 C 2155.39 0.308868 -5.72568 0
M  V30 22756 N 2154.89 0.227836 -6.92425 0
M  V30 22757 N 2156.68 0.358894 -5.60953 0
M  V30 22758 H 2148.83 -0.879846 -1.9332 0
M  V30 22759 H 2151.09 -0.334939 -0.88686 0
M  V30 22760 H 2150.8 -0.671495 -3.4523 0
M  V30 22761 H 2150.67 1.07099 -3.61676 0
M  V30 22762 H 2153.06 1.29657 -2.65091 0
M  V30 22763 H 2153.14 -0.465777 -2.51524 0
M  V30 22764 H 2152.79 -0.653918 -5.03673 0
M  V30 22765 H 2152.72 1.12293 -5.14488 0
M  V30 22766 H 2155.21 0.406934 -3.75703 0
M  V30 22767 H 2155.52 0.207798 -7.72521 0
M  V30 22768 H 2153.87 0.193826 -6.9473 0
M  V30 22769 H 2157.06 0.420219 -4.6621 0
M  V30 22770 H 2157.23 0.329639 -6.47161 0
M  V30 22771 N 2150.64 1.54769 0.297388 0
M  V30 22772 C 2152.05 1.65183 0.87014 0
M  V30 22773 C 2152.4 0.562844 1.87953 0
M  V30 22774 O 2151.52 -0.299913 2.14312 0
M  V30 22775 C 2152.12 2.99437 1.58501 0
M  V30 22776 C 2150.68 3.1196 2.10612 0
M  V30 22777 C 2149.82 2.60882 0.94 0
M  V30 22778 H 2152.77 1.58526 0.0743014 0
M  V30 22779 H 2152.8 2.91063 2.45077 0
M  V30 22780 H 2152.31 3.78675 0.850115 0
M  V30 22781 H 2150.41 2.3745 2.87138 0
M  V30 22782 H 2150.52 4.1817 2.33817 0
M  V30 22783 H 2148.89 2.17426 1.32658 0
M  V30 22784 H 2149.67 3.42601 0.219 0
M  V30 22785 N 2152.11 -0.560755 1.47286 0
M  V30 22786 C 2153.36 -1.31548 1.53426 0
M  V30 22787 C 2153.68 -1.94006 0.196648 0
M  V30 22788 O 2152.95 -1.79743 -0.779049 0
M  V30 22789 H 2151.53 -0.488493 0.565141 0
M  V30 22790 H 2154.19 -0.655071 1.83562 0
M  V30 22791 H 2153.29 -2.11085 2.2989 0
M  V30 22792 N 2153.59 -1.35359 -0.807199 0
M  V30 22793 C 2154.55 -1.28103 -1.90059 0
M  V30 22794 C 2155.55 -0.192614 -1.59642 0
M  V30 22795 O 2156.74 -0.446274 -1.68387 0
M  V30 22796 C 2153.88 -0.981581 -3.26463 0
M  V30 22797 H 2155.07 -2.25323 -1.97912 0
M  V30 22798 H 2152.62 -1.19874 -1.00299 0
M  V30 22799 H 2153.36 -0.013209 -3.24297 0
M  V30 22800 H 2153.14 -1.76903 -3.49925 0
M  V30 22801 H 2154.63 -0.956397 -4.06501 0
M  V30 22802 N 2155.07 1.02928 -1.19346 0
M  V30 22803 C 2156.49 1.28572 -0.945592 0
M  V30 22804 C 2156.69 1.97841 0.382273 0
M  V30 22805 O 2155.74 2.26603 1.11388 0
M  V30 22806 C 2157.05 2.13321 -2.11931 0
M  V30 22807 C 2158.6 2.2663 -2.15889 0
M  V30 22808 C 2159.08 3.14751 -3.3271 0
M  V30 22809 N 2160.57 3.22339 -3.32644 0
M  V30 22810 C 2161.3 3.90712 -4.19681 0
M  V30 22811 N 2160.8 4.61319 -5.16872 0
M  V30 22812 N 2162.59 3.87107 -4.07559 0
M  V30 22813 H 2154.74 0.563808 -2.0478 0
M  V30 22814 H 2157.01 0.311375 -0.895405 0
M  V30 22815 H 2156.71 1.69745 -3.08025 0
M  V30 22816 H 2156.59 3.14032 -2.08959 0
M  V30 22817 H 2158.97 2.69437 -1.20365 0
M  V30 22818 H 2159.05 1.25471 -2.22914 0
M  V30 22819 H 2158.7 2.72652 -4.28513 0
M  V30 22820 H 2158.63 4.15968 -3.22921 0
M  V30 22821 H 2161.12 2.72052 -2.6229 0
M  V30 22822 H 2161.43 5.1112 -5.79634 0
M  V30 22823 H 2159.78 4.60185 -5.20821 0
M  V30 22824 H 2162.97 3.31086 -3.30908 0
M  V30 22825 H 2163.14 4.40119 -4.75604 0
M  V30 22826 N 2156.55 0.997319 1.2203 0
M  V30 22827 C 2157.82 0.59145 1.86444 0
M  V30 22828 C 2158.2 -0.931144 1.89454 0
M  V30 22829 O 2157.55 -1.81492 1.38827 0
M  V30 22830 C 2157.76 1.21697 3.27095 0
M  V30 22831 C 2159.11 1.32027 4.03552 0
M  V30 22832 O 2160.13 1.1717 3.36377 0
M  V30 22833 O 2158.99 1.55846 5.23807 0
M  V30 22834 H 2156.09 0.201545 0.802065 0
M  V30 22835 H 2158.63 1.09348 1.29773 0
M  V30 22836 H 2157.41 2.25823 3.19562 0
M  V30 22837 H 2157.03 0.70081 3.91375 0
M  V30 22838 N 2158.03 -1.37449 0.771075 0
M  V30 22839 C 2158.97 -2.30278 0.155078 0
M  V30 22840 C 2159.94 -1.51065 -0.690547 0
M  V30 22841 O 2161.13 -1.79637 -0.643049 0
M  V30 22842 C 2158.27 -3.37536 -0.718578 0
M  V30 22843 C 2157.38 -4.31761 0.143579 0
M  V30 22844 C 2156.52 -5.26094 -0.734719 0
M  V30 22845 C 2155.56 -6.11962 0.130013 0
M  V30 22846 N 2154.69 -6.98539 -0.706225 0
M  V30 22847 H 2159.53 -2.82377 0.952224 0
M  V30 22848 H 2157.07 -1.39008 0.481177 0
M  V30 22849 H 2159.03 -3.98349 -1.23991 0
M  V30 22850 H 2157.66 -2.86804 -1.48133 0
M  V30 22851 H 2156.71 -3.7226 0.782718 0
M  V30 22852 H 2158.02 -4.92169 0.81064 0
M  V30 22853 H 2157.18 -5.92109 -1.32257 0
M  V30 22854 H 2155.91 -4.66096 -1.43546 0
M  V30 22855 H 2154.92 -5.44927 0.730399 0
M  V30 22856 H 2156.14 -6.74032 0.82808 0
M  V30 22857 H 2154.09 -6.4107 -1.3916 0
M  V30 22858 H 2154.01 -7.55938 -0.0964474 0
M  V30 22859 H 2155.28 -7.68944 -1.27849 0
M  V30 22860 N 2159.5 -0.52156 -1.4872 0
M  V30 22861 C 2160.73 0.013899 -2.07395 0
M  V30 22862 C 2161.15 1.28175 -1.37669 0
M  V30 22863 O 2160.51 1.75882 -0.439921 0
M  V30 22864 C 2160.56 0.229553 -3.59869 0
M  V30 22865 O 2159.66 1.30002 -3.91374 0
M  V30 22866 H 2159.01 -0.0353734 -0.663057 0
M  V30 22867 H 2161.54 -0.727065 -1.91246 0
M  V30 22868 H 2161.55 0.454795 -4.05457 0
M  V30 22869 H 2160.22 -0.696653 -4.10024 0
M  V30 22870 H 2158.8 1.0581 -3.57573 0
M  V30 22871 N 2160.98 1.55502 -0.256304 0
M  V30 22872 C 2162.39 1.85085 0.245072 0
M  V30 22873 C 2162.74 1.17822 1.56883 0
M  V30 22874 O 2161.87 0.459889 2.11457 0
M  V30 22875 C 2162.46 3.35779 0.451444 0
M  V30 22876 C 2161.02 3.65554 0.897072 0
M  V30 22877 C 2160.17 2.77293 -0.0203944 0
M  V30 22878 H 2163.12 1.51311 -0.478616 0
M  V30 22879 H 2163.14 3.57867 1.29273 0
M  V30 22880 H 2162.65 3.84706 -0.51217 0
M  V30 22881 H 2160.76 3.22112 1.87282 0
M  V30 22882 H 2160.87 4.73234 0.747422 0
M  V30 22883 H 2159.23 2.4989 0.492637 0
M  V30 22884 H 2160.02 3.29028 -0.979551 0
M  V30 22885 N 2162.46 -0.0166879 1.57591 0
M  V30 22886 C 2163.42 -0.998156 2.06324 0
M  V30 22887 C 2164.42 -1.28282 0.969561 0
M  V30 22888 O 2165.61 -1.23078 1.23278 0
M  V30 22889 C 2162.75 -2.32767 2.49063 0
M  V30 22890 H 2163.94 -0.576954 2.94298 0
M  V30 22891 H 2161.49 -0.263799 1.54058 0
M  V30 22892 H 2162.23 -2.7961 1.64282 0
M  V30 22893 H 2162.01 -2.13431 3.28922 0
M  V30 22894 H 2163.5 -3.03207 2.87151 0
M  V30 22895 N 2163.94 -1.54924 -0.289176 0
M  V30 22896 C 2165.35 -1.65642 -0.861368 0
M  V30 22897 C 2165.7 -0.572803 -1.87652 0
M  V30 22898 O 2164.83 0.288543 -2.14468 0
M  V30 22899 C 2165.42 -3.00274 -1.56911 0
M  V30 22900 C 2163.98 -3.13073 -2.08955 0
M  V30 22901 C 2163.13 -2.61377 -0.926152 0
M  V30 22902 H 2166.08 -1.58563 -0.0658933 0
M  V30 22903 H 2166.1 -2.92358 -2.4353 0
M  V30 22904 H 2165.61 -3.7912 -0.830021 0
M  V30 22905 H 2163.71 -2.38969 -2.85875 0
M  V30 22906 H 2163.82 -4.19404 -2.31596 0
M  V30 22907 H 2162.19 -2.18126 -1.31503 0
M  V30 22908 H 2162.97 -3.42712 -0.200828 0
M  V30 22909 N 2165.42 0.552936 -1.47582 0
M  V30 22910 C 2166.33 1.68696 -1.6303 0
M  V30 22911 C 2167.34 1.66263 -0.513075 0
M  V30 22912 O 2168.52 1.85633 -0.781171 0
M  V30 22913 C 2165.58 3.05197 -1.64486 0
M  V30 22914 C 2164.64 3.18664 -2.87666 0
M  V30 22915 C 2163.88 4.48653 -2.89043 0
M  V30 22916 O 2164.1 5.34372 -1.99506 0
M  V30 22917 O 2163.03 4.66001 -3.80955 0
M  V30 22918 H 2166.86 1.58604 -2.58995 0
M  V30 22919 H 2164.45 0.723431 -1.30717 0
M  V30 22920 H 2166.33 3.86421 -1.68098 0
M  V30 22921 H 2165 3.15662 -0.716893 0
M  V30 22922 H 2163.91 2.36821 -2.89597 0
M  V30 22923 H 2165.24 3.13105 -3.79771 0
M  V30 22924 N 2166.89 1.35785 0.800009 0
M  V30 22925 C 2167.8 1.31374 1.94366 0
M  V30 22926 C 2168.82 0.217584 1.72634 0
M  V30 22927 O 2170 0.448112 1.96352 0
M  V30 22928 C 2167.06 1.09184 3.29059 0
M  V30 22929 C 2166.12 2.28175 3.63641 0
M  V30 22930 C 2165.36 2.07034 4.91907 0
M  V30 22931 O 2165.58 1.04013 5.60836 0
M  V30 22932 O 2164.51 2.94557 5.249 0
M  V30 22933 H 2168.34 2.27637 2.01035 0
M  V30 22934 H 2165.92 1.16224 0.938743 0
M  V30 22935 H 2167.81 0.98684 4.09682 0
M  V30 22936 H 2166.48 0.159766 3.23305 0
M  V30 22937 H 2165.39 2.44241 2.83367 0
M  V30 22938 H 2166.72 3.19852 3.74106 0
M  V30 22939 N 2168.37 -1.02294 1.19891 0
M  V30 22940 C 2169.32 -2.107 0.942023 0
M  V30 22941 C 2170.29 -1.65626 -0.125398 0
M  V30 22942 O 2171.47 -1.90792 0.0179973 0
M  V30 22943 C 2168.61 -3.41556 0.493291 0
M  V30 22944 C 2167.73 -4.00144 1.62815 0
M  V30 22945 C 2166.86 -5.19034 1.13036 0
M  V30 22946 C 2165.9 -5.69691 2.23872 0
M  V30 22947 N 2165.04 -6.79849 1.75357 0
M  V30 22948 H 2169.88 -2.3201 1.87017 0
M  V30 22949 H 2167.42 -1.13784 0.932293 0
M  V30 22950 H 2169.37 -4.16648 0.214483 0
M  V30 22951 H 2168 -3.20339 -0.397861 0
M  V30 22952 H 2167.06 -3.22208 2.02203 0
M  V30 22953 H 2168.37 -4.3375 2.46298 0
M  V30 22954 H 2167.52 -6.01307 0.807136 0
M  V30 22955 H 2166.26 -4.86978 0.265337 0
M  V30 22956 H 2165.27 -4.86027 2.57018 0
M  V30 22957 H 2166.49 -6.03784 3.1084 0
M  V30 22958 H 2164.44 -6.49634 0.911717 0
M  V30 22959 H 2164.35 -7.12613 2.52425 0
M  V30 22960 H 2165.62 -7.65702 1.46016 0
M  V30 22961 N 2169.85 -1.00378 -1.21499 0
M  V30 22962 C 2171.1 -0.684425 -1.90158 0
M  V30 22963 C 2171.42 0.787132 -1.78407 0
M  V30 22964 O 2170.69 1.5651 -1.17819 0
M  V30 22965 H 2169.27 -0.250163 -0.703866 0
M  V30 22966 H 2171.93 -1.27262 -1.47615 0
M  V30 22967 H 2171.03 -0.956513 -2.97081 0
M  V30 22968 N 2171.33 1.37038 -0.778354 0
M  V30 22969 C 2172.74 1.52865 -0.458743 0
M  V30 22970 C 2172.94 1.73503 1.02465 0
M  V30 22971 O 2172 1.76017 1.81036 0
M  V30 22972 C 2173.31 2.72117 -1.27956 0
M  V30 22973 C 2174.86 2.85982 -1.27213 0
M  V30 22974 C 2175.34 4.08225 -2.07645 0
M  V30 22975 N 2176.83 4.1535 -2.05033 0
M  V30 22976 C 2177.56 5.08988 -2.64044 0
M  V30 22977 N 2177.06 6.0814 -3.3187 0
M  V30 22978 N 2178.85 5.0152 -2.53838 0
M  V30 22979 H 2171 1.21895 -1.73941 0
M  V30 22980 H 2173.27 0.594067 -0.738775 0
M  V30 22981 H 2172.97 2.63353 -2.33105 0
M  V30 22982 H 2172.85 3.65977 -0.913259 0
M  V30 22983 H 2175.23 2.94213 -0.228607 0
M  V30 22984 H 2175.31 1.93061 -1.67812 0
M  V30 22985 H 2174.96 4.00755 -3.12022 0
M  V30 22986 H 2174.89 5.00272 -1.64423 0
M  V30 22987 H 2177.38 3.44352 -1.55659 0
M  V30 22988 H 2177.69 6.76131 -3.74255 0
M  V30 22989 H 2176.04 6.08399 -3.3597 0
M  V30 22990 H 2179.23 4.23005 -2.0046 0
M  V30 22991 H 2179.4 5.7431 -3.00121 0
M  V30 22992 N 2172.81 0.529439 1.48441 0
M  V30 22993 C 2174.05 -0.00486384 2.02799 0
M  V30 22994 C 2174.39 -1.33985 1.40576 0
M  V30 22995 O 2173.66 -1.86523 0.551326 0
M  V30 22996 C 2173.94 -0.127443 3.59874 0
M  V30 22997 C 2173.8 1.23268 4.3258 0
M  V30 22998 C 2175.12 -0.854486 4.31725 0
M  V30 22999 H 2172.24 -0.00029358 0.737 0
M  V30 23000 H 2174.88 0.686364 1.7717 0
M  V30 23001 H 2173.03 -0.716153 3.81842 0
M  V30 23002 H 2174.7 1.86245 4.22031 0
M  V30 23003 H 2172.94 1.8147 3.94019 0
M  V30 23004 H 2173.61 1.09991 5.40931 0
M  V30 23005 H 2176.09 -0.354911 4.14584 0
M  V30 23006 H 2174.97 -0.909151 5.41318 0
M  V30 23007 H 2175.23 -1.90464 3.98968 0
M  V30 23008 N 2174.29 -1.55364 0.264547 0
M  V30 23009 C 2175.25 -2.20814 -0.614312 0
M  V30 23010 C 2176.25 -1.18274 -1.0894 0
M  V30 23011 O 2177.44 -1.43246 -0.991274 0
M  V30 23012 C 2174.57 -2.86572 -1.84632 0
M  V30 23013 H 2175.76 -2.99869 -0.0430102 0
M  V30 23014 H 2173.32 -1.56293 0.0150952 0
M  V30 23015 H 2174.05 -2.11501 -2.45841 0
M  V30 23016 H 2173.84 -3.61704 -1.51369 0
M  V30 23017 H 2175.33 -3.36608 -2.47153 0
M  V30 23018 N 2175.76 0.00833021 -1.57598 0
M  V30 23019 C 2177.18 0.364296 -1.55387 0
M  V30 23020 C 2177.38 1.75313 -0.993353 0
M  V30 23021 O 2176.44 2.44681 -0.623498 0
M  V30 23022 C 2177.75 0.247154 -2.99683 0
M  V30 23023 C 2179.3 0.32271 -3.11332 0
M  V30 23024 C 2179.77 0.234786 -4.57398 0
M  V30 23025 N 2181.26 0.292944 -4.62273 0
M  V30 23026 C 2182 0.248123 -5.72863 0
M  V30 23027 N 2181.49 0.154382 -6.92628 0
M  V30 23028 N 2183.29 0.299377 -5.61302 0
M  V30 23029 H 2175.44 -0.900301 -1.92376 0
M  V30 23030 H 2177.7 -0.344326 -0.883257 0
M  V30 23031 H 2177.41 -0.708073 -3.44498 0
M  V30 23032 H 2177.28 1.03257 -3.62792 0
M  V30 23033 H 2179.67 1.26838 -2.66451 0
M  V30 23034 H 2179.75 -0.492428 -2.51016 0
M  V30 23035 H 2179.39 -0.707303 -5.02951 0
M  V30 23036 H 2179.32 1.0683 -5.1565 0
M  V30 23037 H 2181.81 0.367063 -3.76113 0
M  V30 23038 H 2182.13 0.12585 -7.72698 0
M  V30 23039 H 2180.47 0.12013 -6.94896 0
M  V30 23040 H 2183.66 0.370748 -4.66629 0
M  V30 23041 H 2183.84 0.260981 -6.47474 0
M  V30 23042 N 2177.24 1.55075 0.280956 0
M  V30 23043 C 2178.49 1.7496 1.0116 0
M  V30 23044 C 2178.81 0.549318 1.87103 0
M  V30 23045 O 2178.08 -0.435983 1.90987 0
M  V30 23046 H 2176.66 0.645185 0.376492 0
M  V30 23047 H 2179.32 1.92465 0.307104 0
M  V30 23048 H 2178.42 2.64721 1.65315 0
M  V30 23049 N 2178.72 -0.545102 1.47873 0
M  V30 23050 C 2179.94 -1.33162 1.59005 0
M  V30 23051 C 2180.37 -1.86498 0.245004 0
M  V30 23052 O 2179.73 -1.63614 -0.781037 0
M  V30 23053 C 2179.78 -2.46898 2.62819 0
M  V30 23054 O 2178.88 -3.49491 2.1893 0
M  V30 23055 H 2178.22 -0.395031 0.53371 0
M  V30 23056 H 2180.75 -0.657518 1.93747 0
M  V30 23057 H 2180.76 -2.93298 2.8362 0
M  V30 23058 H 2179.44 -2.07436 3.60476 0
M  V30 23059 H 2178.01 -3.09312 2.08279 0
M  V30 23060 N 2180.2 -1.36208 -0.792797 0
M  V30 23061 C 2181.45 -1.29992 -1.54746 0
M  V30 23062 C 2181.77 0.121446 -1.94621 0
M  V30 23063 O 2181.04 1.06096 -1.64683 0
M  V30 23064 H 2179.62 -0.478184 -0.573889 0
M  V30 23065 H 2182.28 -1.70466 -0.944845 0
M  V30 23066 H 2181.37 -1.92505 -2.45658 0
M  V30 23067 N 2181.68 1.01656 -1.20431 0
M  V30 23068 C 2183.09 1.56704 -1.01493 0
M  V30 23069 C 2183.44 1.9146 0.428672 0
M  V30 23070 O 2182.56 1.72238 1.31008 0
M  V30 23071 C 2183.16 2.84735 -1.83607 0
M  V30 23072 C 2181.72 3.3631 -1.69034 0
M  V30 23073 C 2180.86 2.09617 -1.81538 0
M  V30 23074 H 2183.81 0.840383 -1.34623 0
M  V30 23075 H 2183.84 3.56144 -1.33946 0
M  V30 23076 H 2183.35 2.59407 -2.88668 0
M  V30 23077 H 2181.45 3.66598 -0.666096 0
M  V30 23078 H 2181.56 4.08511 -2.50312 0
M  V30 23079 H 2179.93 2.22072 -1.24724 0
M  V30 23080 H 2180.71 1.86716 -2.88083 0
M  V30 23081 N 2183.15 1.01021 1.20965 0
M  V30 23082 C 2184.09 0.533213 2.22911 0
M  V30 23083 C 2185.1 -0.38098 1.58279 0
M  V30 23084 O 2186.29 -0.180348 1.77587 0
M  V30 23085 C 2183.39 -0.244499 3.38017 0
M  V30 23086 C 2182.56 0.670039 4.32237 0
M  V30 23087 C 2181.62 -0.0589738 5.26167 0
M  V30 23088 O 2180.65 0.561411 5.66425 0
M  V30 23089 N 2181.85 -1.33588 5.6492 0
M  V30 23090 H 2184.61 1.40992 2.64464 0
M  V30 23091 H 2182.17 0.886969 1.35442 0
M  V30 23092 H 2184.17 -0.74128 3.97853 0
M  V30 23093 H 2182.74 -1.02244 2.95406 0
M  V30 23094 H 2181.96 1.34723 3.70464 0
M  V30 23095 H 2183.24 1.29225 4.92116 0
M  V30 23096 H 2182.64 -1.86096 5.34214 0
M  V30 23097 H 2181.2 -1.77752 6.27095 0
M  V30 23098 N 2184.63 -1.36623 0.78561 0
M  V30 23099 C 2186.05 -1.5262 0.466843 0
M  V30 23100 C 2186.25 -1.74044 -1.01543 0
M  V30 23101 O 2185.3 -1.76975 -1.801 0
M  V30 23102 C 2186.62 -2.71435 1.29398 0
M  V30 23103 C 2188.16 -2.85304 1.28728 0
M  V30 23104 C 2188.64 -4.07118 2.09807 0
M  V30 23105 N 2190.13 -4.14257 2.07233 0
M  V30 23106 C 2190.87 -5.0758 2.6674 0
M  V30 23107 N 2190.36 -6.06372 3.3509 0
M  V30 23108 N 2192.15 -5.00167 2.56494 0
M  V30 23109 H 2184.31 -1.20971 1.74585 0
M  V30 23110 H 2186.57 -0.590141 0.741915 0
M  V30 23111 H 2186.27 -2.62113 2.34498 0
M  V30 23112 H 2186.15 -3.65488 0.932654 0
M  V30 23113 H 2188.54 -2.94088 0.244207 0
M  V30 23114 H 2188.62 -1.92169 1.68834 0
M  V30 23115 H 2188.26 -3.99095 3.14143 0
M  V30 23116 H 2188.19 -4.99393 1.67074 0
M  V30 23117 H 2190.68 -3.43522 1.57483 0
M  V30 23118 H 2190.99 -6.74137 3.77836 0
M  V30 23119 H 2189.34 -6.06609 3.39191 0
M  V30 23120 H 2192.53 -4.21936 2.027 0
M  V30 23121 H 2192.7 -5.7271 3.03162 0
M  V30 23122 N 2186.11 -0.537304 -1.48158 0
M  V30 23123 C 2187.52 -0.0987274 -1.86439 0
M  V30 23124 C 2187.87 1.32599 -1.4461 0
M  V30 23125 O 2187 1.99427 -0.840112 0
M  V30 23126 C 2187.59 -0.172391 -3.38361 0
M  V30 23127 C 2186.15 0.211031 -3.75808 0
M  V30 23128 C 2185.3 -0.528892 -2.7221 0
M  V30 23129 H 2188.25 -0.74815 -1.39959 0
M  V30 23130 H 2188.27 0.614074 -3.75512 0
M  V30 23131 H 2187.78 -1.20942 -3.68774 0
M  V30 23132 H 2185.88 1.24993 -3.51009 0
M  V30 23133 H 2186 -0.133675 -4.78913 0
M  V30 23134 H 2184.36 0.0257117 -2.54687 0
M  V30 23135 H 2185.14 -1.5667 -3.05466 0
M  V30 23136 N 2187.59 1.55221 -0.272782 0
M  V30 23137 C 2188.54 2.19118 0.630176 0
M  V30 23138 C 2189.52 1.15507 1.12013 0
M  V30 23139 O 2190.71 1.4133 1.06559 0
M  V30 23140 C 2187.84 2.91401 1.81494 0
M  V30 23141 C 2186.93 4.02298 1.34228 0
M  V30 23142 N 2187.32 5.02399 0.585608 0
M  V30 23143 C 2185.62 4.15326 1.62543 0
M  V30 23144 C 2186.32 5.80721 0.337422 0
M  V30 23145 N 2185.3 5.35943 0.909166 0
M  V30 23146 H 2189.1 2.93867 0.0441972 0
M  V30 23147 H 2186.61 1.62221 -0.076237 0
M  V30 23148 H 2188.61 3.35625 2.47309 0
M  V30 23149 H 2187.27 2.18163 2.40489 0
M  V30 23150 H 2188.28 5.17375 0.233177 0
M  V30 23151 H 2184.96 3.53276 2.22491 0
M  V30 23152 H 2186.35 6.71364 -0.268428 0
M  V30 23153 N 2189.07 2.77022e-05 1.576 0
M  V30 23154 C 2190.29 -0.699433 1.9525 0
M  V30 23155 C 2190.72 -1.66511 0.874964 0
M  V30 23156 O 2190.07 -1.8053 -0.166897 0
M  V30 23157 C 2190.12 -1.4075 3.31996 0
M  V30 23158 O 2189.23 -2.52192 3.26302 0
M  V30 23159 H 2188.57 -0.18604 0.637405 0
M  V30 23160 H 2191.1 0.053226 2.04531 0
M  V30 23161 H 2191.11 -1.77092 3.67563 0
M  V30 23162 H 2189.78 -0.699458 4.09976 0
M  V30 23163 H 2188.36 -2.18177 3.02412 0
M  V30 23164 N 2190.54 -1.55222 -0.272728 0
M  V30 23165 C 2191.79 -1.75841 -1.00429 0
M  V30 23166 C 2192.12 -0.559662 -1.86274 0
M  V30 23167 O 2191.37 0.457824 -1.90269 0
M  V30 23168 C 2191.67 -3.01679 -1.91637 0
M  V30 23169 C 2191.34 -4.34211 -1.2154 0
M  V30 23170 C 2190 -4.70231 -1.02158 0
M  V30 23171 C 2192.35 -5.1625 -0.716594 0
M  V30 23172 C 2189.68 -5.85847 -0.316231 0
M  V30 23173 C 2192.03 -6.32595 -0.0248364 0
M  V30 23174 C 2190.7 -6.67255 0.180696 0
M  V30 23175 H 2189.97 -0.643449 -0.367497 0
M  V30 23176 H 2192.61 -1.89492 -0.276563 0
M  V30 23177 H 2190.92 -2.82929 -2.71032 0
M  V30 23178 H 2192.62 -3.14828 -2.48363 0
M  V30 23179 H 2189.21 -4.05899 -1.37638 0
M  V30 23180 H 2193.39 -4.88898 -0.853961 0
M  V30 23181 H 2188.65 -6.11225 -0.14627 0
M  V30 23182 H 2192.82 -6.95419 0.369433 0
M  V30 23183 H 2190.45 -7.56694 0.729231 0
M  V30 23184 N 2192.02 0.537252 -1.4816 0
M  V30 23185 C 2193.25 1.32317 -1.59709 0
M  V30 23186 C 2193.67 1.86365 -0.254891 0
M  V30 23187 O 2193.03 1.64026 0.772349 0
M  V30 23188 C 2193.08 2.45501 -2.64125 0
M  V30 23189 O 2192.18 3.48325 -2.2078 0
M  V30 23190 H 2191.52 0.392195 -0.535798 0
M  V30 23191 H 2194.05 0.647233 -1.94093 0
M  V30 23192 H 2194.06 2.9179 -2.85171 0
M  V30 23193 H 2192.74 2.05522 -3.61571 0
M  V30 23194 H 2191.32 3.08204 -2.09917 0
M  V30 23195 N 2193.5 1.36626 0.785562 0
M  V30 23196 C 2194.41 1.33428 1.92961 0
M  V30 23197 C 2195.43 0.235882 1.72394 0
M  V30 23198 O 2196.6 0.468912 1.95865 0
M  V30 23199 C 2193.67 1.12668 3.27882 0
M  V30 23200 C 2192.73 2.32019 3.612 0
M  V30 23201 C 2191.96 2.1224 4.89684 0
M  V30 23202 O 2192.18 1.09955 5.59702 0
M  V30 23203 O 2191.12 3.00107 5.21746 0
M  V30 23204 H 2194.94 2.29757 1.98609 0
M  V30 23205 H 2192.53 1.17213 0.926363 0
M  V30 23206 H 2194.41 1.03024 4.08612 0
M  V30 23207 H 2193.09 0.194048 3.23118 0
M  V30 23208 H 2191.99 2.47233 2.80761 0
M  V30 23209 H 2193.33 3.23802 3.70693 0
M  V30 23210 N 2194.98 -1.01016 1.20969 0
M  V30 23211 C 2195.94 -2.07851 0.965954 0
M  V30 23212 C 2196.94 -1.60684 -0.0610263 0
M  V30 23213 O 2198.13 -1.73312 0.175711 0
M  V30 23214 C 2195.26 -3.37842 0.455573 0
M  V30 23215 H 2196.46 -2.30907 1.91369 0
M  V30 23216 H 2194.01 -1.17915 1.02596 0
M  V30 23217 H 2194.74 -3.20464 -0.497325 0
M  V30 23218 H 2194.53 -3.73405 1.19628 0
M  V30 23219 H 2196.02 -4.16487 0.304741 0
M  V30 23220 N 2196.46 -1.01661 -1.20428 0
M  V30 23221 C 2197.39 -0.607265 -2.25465 0
M  V30 23222 C 2198.37 0.377687 -1.65854 0
M  V30 23223 O 2199.55 0.263115 -1.92409 0
M  V30 23224 C 2196.68 0.0552339 -3.47256 0
M  V30 23225 C 2195.64 -0.850705 -4.1946 0
M  V30 23226 C 2194.96 -0.0539799 -5.34673 0
M  V30 23227 C 2196.26 -2.15876 -4.75599 0
M  V30 23228 H 2197.96 -1.48531 -2.5996 0
M  V30 23229 H 2195.5 -0.715627 -1.24959 0
M  V30 23230 H 2197.46 0.353159 -4.19918 0
M  V30 23231 H 2196.18 0.967991 -3.11925 0
M  V30 23232 H 2194.84 -1.13263 -3.48665 0
M  V30 23233 H 2194.49 0.860427 -4.95586 0
M  V30 23234 H 2194.19 -0.657295 -5.83912 0
M  V30 23235 H 2195.71 0.237491 -6.10138 0
M  V30 23236 H 2197.12 -1.9232 -5.40079 0
M  V30 23237 H 2195.52 -2.71293 -5.35276 0
M  V30 23238 H 2196.59 -2.82176 -3.94341 0
M  V30 23239 N 2197.93 1.36205 -0.792844 0
M  V30 23240 C 2199.35 1.5237 -0.47493 0
M  V30 23241 C 2199.55 1.7458 1.00619 0
M  V30 23242 O 2198.61 1.77927 1.79159 0
M  V30 23243 C 2199.92 2.70745 -1.30835 0
M  V30 23244 C 2201.47 2.84617 -1.30239 0
M  V30 23245 C 2201.94 4.06 -2.11963 0
M  V30 23246 N 2203.43 4.13152 -2.09427 0
M  V30 23247 C 2204.17 5.06158 -2.69428 0
M  V30 23248 N 2203.66 6.04586 -3.38301 0
M  V30 23249 N 2205.46 4.988 -2.59143 0
M  V30 23250 H 2197.61 1.20043 -1.75224 0
M  V30 23251 H 2199.87 0.586198 -0.745034 0
M  V30 23252 H 2199.58 2.60866 -2.35885 0
M  V30 23253 H 2199.45 3.64988 -0.952024 0
M  V30 23254 H 2201.84 2.93954 -0.259799 0
M  V30 23255 H 2201.92 1.91271 -1.6985 0
M  V30 23256 H 2201.56 3.97423 -3.16255 0
M  V30 23257 H 2201.49 4.985 -1.6972 0
M  V30 23258 H 2203.98 3.42682 -1.59303 0
M  V30 23259 H 2204.3 6.72123 -3.81405 0
M  V30 23260 H 2202.64 6.04801 -3.42404 0
M  V30 23261 H 2205.83 4.20855 -2.04935 0
M  V30 23262 H 2206.01 5.71094 -3.06195 0
M  V30 23263 N 2199.41 0.545154 1.47871 0
M  V30 23264 C 2200.83 0.20406 1.5829 0
M  V30 23265 C 2201.03 -1.29315 1.54531 0
M  V30 23266 O 2200.08 -2.07249 1.44236 0
M  V30 23267 C 2201.4 0.820038 2.89302 0
M  V30 23268 C 2202.95 0.790159 3.02862 0
M  V30 23269 C 2203.42 1.38499 4.36557 0
M  V30 23270 N 2204.91 1.34763 4.43163 0
M  V30 23271 C 2205.65 1.77762 5.4515 0
M  V30 23272 N 2205.14 2.28562 6.54012 0
M  V30 23273 N 2206.94 1.68906 5.36122 0
M  V30 23274 H 2199.09 1.51804 1.48557 0
M  V30 23275 H 2201.35 0.632339 0.706294 0
M  V30 23276 H 2201.06 1.87178 2.97754 0
M  V30 23277 H 2200.93 0.305981 3.75957 0
M  V30 23278 H 2203.32 -0.252861 2.94015 0
M  V30 23279 H 2203.4 1.34185 2.1778 0
M  V30 23280 H 2203.04 2.42701 4.4616 0
M  V30 23281 H 2202.97 0.808846 5.20351 0
M  V30 23282 H 2205.46 0.975919 3.65081 0
M  V30 23283 H 2205.78 2.59327 7.2799 0
M  V30 23284 H 2204.12 2.32565 6.54934 0
M  V30 23285 H 2207.31 1.29006 4.49972 0
M  V30 23286 H 2207.48 2.02737 6.15469 0
M  V30 23287 N 2200.89 -1.55074 0.28101 0
M  V30 23288 C 2202.3 -1.85451 -0.215596 0
M  V30 23289 C 2202.65 -1.20303 -1.54989 0
M  V30 23290 O 2201.78 -0.493472 -2.10698 0
M  V30 23291 C 2202.37 -3.36455 -0.397967 0
M  V30 23292 C 2200.93 -3.66935 -0.838802 0
M  V30 23293 C 2200.08 -2.77225 0.0645067 0
M  V30 23294 H 2203.03 -1.5053 0.502627 0
M  V30 23295 H 2203.05 -3.59878 -1.23563 0
M  V30 23296 H 2202.56 -3.83842 0.573309 0
M  V30 23297 H 2200.66 -3.25051 -1.82134 0
M  V30 23298 H 2200.78 -4.74363 -0.67204 0
M  V30 23299 H 2199.14 -2.50642 -0.452819 0
M  V30 23300 H 2199.92 -3.27428 1.03177 0
M  V30 23301 N 2202.37 -0.00838561 -1.57598 0
M  V30 23302 C 2203.33 0.965206 -2.07886 0
M  V30 23303 C 2204.33 1.26723 -0.989847 0
M  V30 23304 O 2205.52 1.21101 -1.2522 0
M  V30 23305 C 2202.65 2.28775 -2.52735 0
M  V30 23306 H 2203.85 0.53006 -2.95179 0
M  V30 23307 H 2201.4 0.239256 -1.54458 0
M  V30 23308 H 2202.14 2.76961 -1.6871 0
M  V30 23309 H 2201.92 2.08172 -3.32276 0
M  V30 23310 H 2203.41 2.986 -2.91938 0
M  V30 23311 N 2203.85 1.55365 0.264492 0
M  V30 23312 C 2205.07 1.80741 1.01722 0
M  V30 23313 C 2205.5 0.583075 1.78835 0
M  V30 23314 O 2204.86 -0.467535 1.75168 0
M  V30 23315 C 2204.9 3.03663 1.94477 0
M  V30 23316 O 2204.01 2.79345 3.03381 0
M  V30 23317 H 2203.35 0.597137 0.290384 0
M  V30 23318 H 2205.88 2.02523 0.290818 0
M  V30 23319 H 2205.89 3.32625 2.36272 0
M  V30 23320 H 2204.56 3.9242 1.37765 0
M  V30 23321 H 2203.14 2.61503 2.6584 0
M  V30 23322 N 2205.33 -0.529387 1.48443 0
M  V30 23323 C 2206.26 -1.65057 1.5758 0
M  V30 23324 C 2207.24 -1.56914 0.426225 0
M  V30 23325 O 2208.42 -1.77378 0.637908 0
M  V30 23326 C 2205.55 -3.03458 1.50435 0
M  V30 23327 C 2204.59 -3.29958 2.70241 0
M  V30 23328 S 2205.43 -3.16164 4.32204 0
M  V30 23329 C 2206.58 -4.57012 4.27658 0
M  V30 23330 H 2206.82 -1.57056 2.5243 0
M  V30 23331 H 2204.35 -0.712393 1.36983 0
M  V30 23332 H 2206.31 -3.83277 1.46999 0
M  V30 23333 H 2204.97 -3.08899 0.569221 0
M  V30 23334 H 2204.16 -4.30924 2.61382 0
M  V30 23335 H 2203.76 -2.5781 2.70943 0
M  V30 23336 H 2206.05 -5.48542 3.97628 0
M  V30 23337 H 2207 -4.70925 5.28806 0
M  V30 23338 H 2207.41 -4.36362 3.58118 0
M  V30 23339 N 2206.8 -1.37041 -0.778305 0
M  V30 23340 C 2208.05 -1.31626 -1.53359 0
M  V30 23341 C 2208.37 0.100797 -1.94739 0
M  V30 23342 O 2207.64 1.04344 -1.65799 0
M  V30 23343 H 2206.22 -0.484244 -0.568785 0
M  V30 23344 H 2208.88 -1.71459 -0.926712 0
M  V30 23345 H 2207.98 -1.951 -2.43603 0
M  V30 23346 N 2208.28 1.00373 -1.21503 0
M  V30 23347 C 2209.51 1.78278 -1.0598 0
M  V30 23348 C 2209.93 1.84098 0.385962 0
M  V30 23349 O 2209.29 1.28549 1.27847 0
M  V30 23350 C 2209.34 3.1996 -1.66307 0
M  V30 23351 O 2208.44 4.02248 -0.909404 0
M  V30 23352 H 2207.78 0.54939 -0.372916 0
M  V30 23353 H 2210.31 1.26162 -1.61072 0
M  V30 23354 H 2210.32 3.70629 -1.70581 0
M  V30 23355 H 2209 3.15038 -2.71521 0
M  V30 23356 H 2207.57 3.60809 -0.941859 0
M  V30 23357 N 2209.76 1.02298 1.19887 0
M  V30 23358 C 2210.67 0.608548 2.2657 0
M  V30 23359 C 2211.69 -0.356934 1.703 0
M  V30 23360 O 2212.86 -0.216291 2.00235 0
M  V30 23361 C 2209.93 -0.0402204 3.46677 0
M  V30 23362 C 2208.99 0.972013 4.18151 0
M  V30 23363 C 2208.22 0.35411 5.32524 0
M  V30 23364 O 2208.44 -0.844505 5.64114 0
M  V30 23365 O 2207.38 1.07402 5.9224 0
M  V30 23366 H 2211.2 1.49688 2.64248 0
M  V30 23367 H 2208.79 0.792831 1.26628 0
M  V30 23368 H 2210.67 -0.40225 4.19476 0
M  V30 23369 H 2209.35 -0.902652 3.1086 0
M  V30 23370 H 2208.25 1.38552 3.47497 0
M  V30 23371 H 2209.59 1.80462 4.57924 0
M  V30 23372 N 2211.24 -1.35782 0.800057 0
M  V30 23373 C 2212.49 -1.9856 0.376632 0
M  V30 23374 C 2212.81 -1.63797 -1.0581 0
M  V30 23375 O 2212.08 -0.917202 -1.73102 0
M  V30 23376 H 2210.66 -0.734465 0.136274 0
M  V30 23377 H 2213.32 -1.65804 1.02445 0
M  V30 23378 H 2212.41 -3.08432 0.477056 0
M  V30 23379 N 2212.72 -0.552988 -1.4758 0
M  V30 23380 C 2213.65 0.18541 -2.32763 0
M  V30 23381 C 2214.63 0.91288 -1.43529 0
M  V30 23382 O 2215.81 0.894171 -1.7239 0
M  V30 23383 C 2212.94 1.21853 -3.25222 0
M  V30 23384 C 2211.9 0.607789 -4.23663 0
M  V30 23385 C 2211.22 1.74524 -5.05416 0
M  V30 23386 C 2212.52 -0.435674 -5.2048 0
M  V30 23387 H 2214.22 -0.525735 -2.94748 0
M  V30 23388 H 2211.76 -0.254276 -1.41737 0
M  V30 23389 H 2213.71 1.74323 -3.83653 0
M  V30 23390 H 2212.44 1.95957 -2.61282 0
M  V30 23391 H 2211.1 0.104425 -3.66451 0
M  V30 23392 H 2210.75 2.47521 -4.37884 0
M  V30 23393 H 2210.45 1.34239 -5.72061 0
M  V30 23394 H 2211.97 2.27328 -5.66705 0
M  V30 23395 H 2213.38 0.0028008 -5.733 0
M  V30 23396 H 2211.78 -0.757172 -5.95304 0
M  V30 23397 H 2212.85 -1.33311 -4.66215 0
M  V30 23398 N 2214.19 1.54923 -0.28923 0
M  V30 23399 C 2215.44 1.99505 0.322844 0
M  V30 23400 C 2215.76 1.17913 1.55311 0
M  V30 23401 O 2215.03 0.272131 1.94001 0
M  V30 23402 H 2213.61 0.736924 0.122278 0
M  V30 23403 H 2216.27 1.90796 -0.397836 0
M  V30 23404 H 2215.37 3.06219 0.603007 0
M  V30 23405 N 2215.67 0.0167433 1.57591 0
M  V30 23406 C 2216.92 -0.663251 1.90907 0
M  V30 23407 C 2217.24 -1.73375 0.892539 0
M  V30 23408 O 2216.51 -1.95783 -0.0677279 0
M  V30 23409 H 2215.09 -0.247971 0.704641 0
M  V30 23410 H 2217.75 0.0616251 1.94803 0
M  V30 23411 H 2216.85 -1.12387 2.91162 0
M  V30 23412 N 2217.15 -1.55503 -0.256249 0
M  V30 23413 C 2218.43 -1.67635 -1.00786 0
M  V30 23414 C 2218.81 -0.553862 -2.03705 0
M  V30 23415 O 2218.16 0.443929 -2.24146 0
M  V30 23416 C 2218.37 -3.07552 -1.64962 0
M  V30 23417 C 2219.71 -3.65849 -2.15499 0
M  V30 23418 O 2220.74 -3.10293 -1.7492 0
M  V30 23419 O 2219.6 -4.63222 -2.89978 0
M  V30 23420 H 2216.69 -0.681468 -0.468541 0
M  V30 23421 H 2219.24 -1.67837 -0.250776 0
M  V30 23422 H 2218.01 -3.80697 -0.904718 0
M  V30 23423 H 2217.63 -3.11321 -2.47315 0
M  V30 23424 N 2218.63 0.521507 -1.48721 0
M  V30 23425 C 2219.59 1.60745 -1.63382 0
M  V30 23426 C 2220.59 1.5261 -0.506637 0
M  V30 23427 O 2221.78 1.56128 -0.772629 0
M  V30 23428 C 2218.91 3.0038 -1.61198 0
M  V30 23429 H 2220.11 1.49083 -2.6022 0
M  V30 23430 H 2217.66 0.744211 -1.37445 0
M  V30 23431 H 2218.39 3.1754 -0.658686 0
M  V30 23432 H 2218.18 3.07693 -2.43038 0
M  V30 23433 H 2219.67 3.79317 -1.74667 0
M  V30 23434 N 2220.11 1.37452 0.771027 0
M  V30 23435 C 2221.38 1.23234 1.51898 0
M  V30 23436 C 2221.76 -0.173772 2.10384 0
M  V30 23437 O 2221.11 -1.18148 1.95585 0
M  V30 23438 C 2221.32 2.32891 2.59929 0
M  V30 23439 C 2222.67 2.70467 3.27312 0
M  V30 23440 O 2223.69 2.32072 2.70224 0
M  V30 23441 O 2222.55 3.36616 4.30525 0
M  V30 23442 H 2219.65 0.480913 0.672794 0
M  V30 23443 H 2222.19 1.49233 0.80793 0
M  V30 23444 H 2220.96 3.27049 2.14837 0
M  V30 23445 H 2220.59 2.08359 3.38633 0
M  V30 23446 N 2221.58 -0.997276 1.22033 0
M  V30 23447 C 2223 -1.5507 1.03973 0
M  V30 23448 C 2223.35 -1.92118 -0.398158 0
M  V30 23449 O 2222.47 -1.743 -1.28251 0
M  V30 23450 C 2223.07 -2.81778 1.88114 0
M  V30 23451 C 2221.63 -3.33578 1.74363 0
M  V30 23452 C 2220.77 -2.06702 1.8485 0
M  V30 23453 H 2223.72 -0.818859 1.35943 0
M  V30 23454 H 2223.74 -3.53968 1.39595 0
M  V30 23455 H 2223.26 -2.54782 2.92759 0
M  V30 23456 H 2221.36 -3.65492 0.724334 0
M  V30 23457 H 2221.47 -4.04477 2.56779 0
M  V30 23458 H 2219.83 -2.20059 1.28242 0
M  V30 23459 H 2220.62 -1.82109 2.91017 0
M  V30 23460 N 2223.06 -1.02932 -1.19343 0
M  V30 23461 C 2224 -0.555068 -2.21346 0
M  V30 23462 C 2224.97 0.404323 -1.57493 0
M  V30 23463 O 2226.16 0.32132 -1.85741 0
M  V30 23464 C 2223.28 0.19058 -3.38163 0
M  V30 23465 C 2222.33 -0.72031 -4.20373 0
M  V30 23466 S 2223.16 -2.19676 -4.88367 0
M  V30 23467 C 2224.32 -1.46164 -6.08594 0
M  V30 23468 H 2224.55 -1.41933 -2.61232 0
M  V30 23469 H 2222.09 -0.839295 -1.29596 0
M  V30 23470 H 2224.04 0.614653 -4.05872 0
M  V30 23471 H 2222.7 1.03058 -2.96712 0
M  V30 23472 H 2221.9 -0.144639 -5.03792 0
M  V30 23473 H 2221.5 -1.08272 -3.57985 0
M  V30 23474 H 2223.79 -0.748476 -6.73353 0
M  V30 23475 H 2224.73 -2.27244 -6.70646 0
M  V30 23476 H 2225.14 -0.95894 -5.56295 0
M  V30 23477 N 2224.54 1.35356 -0.807246 0
M  V30 23478 C 2225.49 2.29786 -0.216077 0
M  V30 23479 C 2226.46 1.52843 0.650252 0
M  V30 23480 O 2227.64 1.81279 0.595195 0
M  V30 23481 C 2224.78 3.39322 0.628834 0
M  V30 23482 C 2223.9 4.31229 -0.258003 0
M  V30 23483 C 2223.03 5.27857 0.594976 0
M  V30 23484 C 2222.07 6.11402 -0.292218 0
M  V30 23485 N 2221.21 7.00166 0.520772 0
M  V30 23486 H 2226.05 2.79753 -1.02676 0
M  V30 23487 H 2223.58 1.37683 -0.517863 0
M  V30 23488 H 2225.54 4.01496 1.13386 0
M  V30 23489 H 2224.17 2.9063 1.40477 0
M  V30 23490 H 2223.22 3.70054 -0.881141 0
M  V30 23491 H 2224.54 4.89846 -0.940845 0
M  V30 23492 H 2223.69 5.95407 1.16511 0
M  V30 23493 H 2222.43 4.69738 1.31138 0
M  V30 23494 H 2221.43 5.42799 -0.87462 0
M  V30 23495 H 2222.66 6.716 -1.0065 0
M  V30 23496 H 2220.6 6.44534 1.22114 0
M  V30 23497 H 2220.52 7.55928 -0.10401 0
M  V30 23498 H 2221.79 7.72063 1.07416 0
M  V30 23499 N 2226.02 0.560807 1.47284 0
M  V30 23500 C 2227.43 0.220837 1.58065 0
M  V30 23501 C 2227.63 -1.27668 1.55894 0
M  V30 23502 O 2226.69 -2.05708 1.46426 0
M  V30 23503 C 2228 0.850676 2.88416 0
M  V30 23504 C 2229.55 0.822237 3.02007 0
M  V30 23505 C 2230.03 1.43121 4.35064 0
M  V30 23506 N 2231.52 1.39456 4.41708 0
M  V30 23507 C 2232.25 1.83534 5.43234 0
M  V30 23508 N 2231.75 2.35485 6.51551 0
M  V30 23509 N 2233.54 1.74583 5.34301 0
M  V30 23510 H 2225.69 1.53371 1.46939 0
M  V30 23511 H 2227.96 0.639795 0.699547 0
M  V30 23512 H 2227.66 1.90326 2.95752 0
M  V30 23513 H 2227.54 0.345839 3.75611 0
M  V30 23514 H 2229.92 -0.221663 2.94266 0
M  V30 23515 H 2230 1.36487 2.16345 0
M  V30 23516 H 2229.65 2.4742 4.43561 0
M  V30 23517 H 2229.58 0.86399 5.19464 0
M  V30 23518 H 2232.07 1.01459 3.64026 0
M  V30 23519 H 2232.38 2.67034 7.25198 0
M  V30 23520 H 2230.73 2.39498 6.5243 0
M  V30 23521 H 2233.92 1.33771 4.48579 0
M  V30 23522 H 2234.09 2.09253 6.13284 0
M  V30 23523 N 2227.5 -1.54768 0.297442 0
M  V30 23524 C 2228.44 -2.23387 -0.580237 0
M  V30 23525 C 2229.41 -1.21519 -1.13236 0
M  V30 23526 O 2230.6 -1.50129 -1.17754 0
M  V30 23527 C 2227.74 -2.97558 -1.74796 0
M  V30 23528 C 2226.85 -4.14192 -1.22757 0
M  V30 23529 C 2225.99 -4.75953 -2.35887 0
M  V30 23530 C 2225.03 -5.84738 -1.80963 0
M  V30 23531 N 2224.16 -6.40469 -2.87653 0
M  V30 23532 H 2229 -2.97998 0.0115357 0
M  V30 23533 H 2226.54 -1.4709 0.0174619 0
M  V30 23534 H 2228.5 -3.3879 -2.43469 0
M  V30 23535 H 2227.13 -2.2533 -2.31141 0
M  V30 23536 H 2226.18 -3.77925 -0.433205 0
M  V30 23537 H 2227.49 -4.92577 -0.785464 0
M  V30 23538 H 2226.65 -5.20019 -3.12514 0
M  V30 23539 H 2225.38 -3.96892 -2.83422 0
M  V30 23540 H 2224.39 -5.40099 -1.02824 0
M  V30 23541 H 2225.61 -6.6568 -1.34337 0
M  V30 23542 H 2223.56 -5.64293 -3.34528 0
M  V30 23543 H 2223.48 -7.1419 -2.47927 0
M  V30 23544 H 2224.75 -6.89193 -3.64188 0
M  V30 23545 N 2228.97 -0.0251005 -1.5758 0
M  V30 23546 C 2230.39 0.514292 -1.79477 0
M  V30 23547 C 2230.74 1.72489 -0.934987 0
M  V30 23548 O 2229.86 2.15918 -0.144283 0
M  V30 23549 C 2230.46 0.939785 -3.25505 0
M  V30 23550 C 2229.02 1.42432 -3.48411 0
M  V30 23551 C 2228.16 0.387152 -2.74584 0
M  V30 23552 H 2231.11 -0.251157 -1.567 0
M  V30 23553 H 2231.13 1.80439 -3.34996 0
M  V30 23554 H 2230.65 0.0584946 -3.88056 0
M  V30 23555 H 2228.75 2.32567 -2.91107 0
M  V30 23556 H 2228.86 1.43447 -4.57121 0
M  V30 23557 H 2227.22 0.854367 -2.39943 0
M  V30 23558 H 2228.01 -0.485603 -3.39848 0
M  V30 23559 N 2230.45 1.55637 0.247999 0
M  V30 23560 C 2231.7 1.78596 0.973395 0
M  V30 23561 C 2232.05 0.593855 1.83006 0
M  V30 23562 O 2231.35 -0.412928 1.87097 0
M  V30 23563 C 2231.54 3.04689 1.86813 0
M  V30 23564 C 2231.37 4.3605 1.09957 0
M  V30 23565 C 2230.14 4.98845 0.805116 0
M  V30 23566 C 2232.34 5.12077 0.477693 0
M  V30 23567 N 2230.32 6.13899 0.012378 0
M  V30 23568 C 2231.69 6.1974 -0.179674 0
M  V30 23569 C 2233.75 4.96386 0.388049 0
M  V30 23570 C 2232.45 7.13417 -0.918076 0
M  V30 23571 C 2234.47 5.9044 -0.336819 0
M  V30 23572 C 2233.84 6.9751 -0.982828 0
M  V30 23573 H 2229.94 0.705499 0.337335 0
M  V30 23574 H 2232.52 1.93132 0.246636 0
M  V30 23575 H 2230.69 2.91484 2.56693 0
M  V30 23576 H 2232.42 3.15948 2.52901 0
M  V30 23577 H 2229.18 4.60248 1.11663 0
M  V30 23578 H 2229.6 6.75977 -0.372052 0
M  V30 23579 H 2234.24 4.13685 0.873164 0
M  V30 23580 H 2231.96 7.95619 -1.4148 0
M  V30 23581 H 2235.55 5.80376 -0.406833 0
M  V30 23582 H 2234.43 7.69035 -1.53478 0
M  V30 23583 N 2231.93 -0.513613 1.48996 0
M  V30 23584 C 2233.16 -1.29285 1.61533 0
M  V30 23585 C 2233.57 -1.86685 0.281834 0
M  V30 23586 O 2232.93 -1.67217 -0.731082 0
M  V30 23587 C 2232.98 -2.4321 2.67453 0
M  V30 23588 O 2232.7 -1.88172 3.9563 0
M  V30 23589 C 2234.2 -3.3478 2.9058 0
M  V30 23590 H 2231.42 -0.392578 0.544172 0
M  V30 23591 H 2233.97 -0.617922 1.94941 0
M  V30 23592 H 2232.12 -3.06556 2.36859 0
M  V30 23593 H 2232.54 -2.62868 4.53873 0
M  V30 23594 H 2234.01 -4.11028 3.68456 0
M  V30 23595 H 2234.49 -3.91011 2.00018 0
M  V30 23596 H 2235.09 -2.77212 3.22542 0
M  V30 23597 N 2233.41 -1.37859 -0.763727 0
M  V30 23598 C 2234.63 -1.36896 -1.55802 0
M  V30 23599 C 2235.06 0.0415805 -1.88054 0
M  V30 23600 O 2234.42 1.02086 -1.49827 0
M  V30 23601 C 2234.47 -2.22197 -2.84008 0
M  V30 23602 O 2233.57 -1.6321 -3.7873 0
M  V30 23603 H 2232.91 -0.467399 -0.47163 0
M  V30 23604 H 2235.44 -1.81488 -0.944625 0
M  V30 23605 H 2235.45 -2.35696 -3.33033 0
M  V30 23606 H 2234.13 -3.24721 -2.59864 0
M  V30 23607 H 2232.7 -1.58797 -3.37399 0
M  V30 23608 N 2234.89 0.990791 -1.22561 0
M  V30 23609 C 2235.82 2.09954 -1.02184 0
M  V30 23610 C 2236.8 1.70001 0.0579095 0
M  V30 23611 O 2237.98 1.93917 -0.104718 0
M  V30 23612 C 2235.11 3.42059 -0.601083 0
M  V30 23613 C 2234.07 3.95869 -1.627 0
M  V30 23614 C 2233.39 5.24047 -1.06202 0
M  V30 23615 C 2234.69 4.26315 -3.0175 0
M  V30 23616 H 2236.39 2.27259 -1.9492 0
M  V30 23617 H 2233.93 1.09209 -0.938585 0
M  V30 23618 H 2235.89 4.19037 -0.445634 0
M  V30 23619 H 2234.61 3.24588 0.361948 0
M  V30 23620 H 2233.27 3.21025 -1.77027 0
M  V30 23621 H 2232.92 5.02919 -0.0902787 0
M  V30 23622 H 2232.62 5.61016 -1.74741 0
M  V30 23623 H 2234.14 6.03657 -0.918198 0
M  V30 23624 H 2235.56 4.94081 -2.90786 0
M  V30 23625 H 2233.95 4.74461 -3.67433 0
M  V30 23626 H 2235.02 3.34004 -3.51524 0
M  V30 23627 N 2236.37 1.03564 1.18795 0
M  V30 23628 C 2237.59 0.755798 1.93138 0
M  V30 23629 C 2238.02 -0.680189 1.75371 0
M  V30 23630 O 2237.37 -1.47049 1.06049 0
M  V30 23631 C 2237.42 1.12064 3.42745 0
M  V30 23632 O 2236.53 0.243197 4.11682 0
M  V30 23633 H 2235.87 0.278615 0.602719 0
M  V30 23634 H 2238.4 1.38413 1.50675 0
M  V30 23635 H 2238.41 1.08042 3.93435 0
M  V30 23636 H 2237.08 2.16678 3.54998 0
M  V30 23637 H 2235.66 0.342604 3.71323 0
M  V30 23638 N 2237.84 -1.34926 0.814413 0
M  V30 23639 C 2239.07 -2.03304 0.410133 0
M  V30 23640 C 2239.49 -1.60953 -0.973436 0
M  V30 23641 O 2238.85 -0.789993 -1.63183 0
M  V30 23642 C 2238.9 -3.56967 0.510553 0
M  V30 23643 O 2238 -4.09679 -0.472963 0
M  V30 23644 H 2237.34 -0.641843 0.170099 0
M  V30 23645 H 2239.87 -1.72356 1.10247 0
M  V30 23646 H 2239.88 -4.06196 0.383206 0
M  V30 23647 H 2238.56 -3.87141 1.5197 0
M  V30 23648 H 2237.14 -3.71649 -0.305206 0
M  V30 23649 N 2239.32 -0.56861 -1.46985 0
M  V30 23650 C 2240.23 0.175509 -2.33943 0
M  V30 23651 C 2241.25 0.900383 -1.48893 0
M  V30 23652 O 2242.42 0.866728 -1.81796 0
M  V30 23653 C 2239.49 1.18518 -3.25813 0
M  V30 23654 C 2238.55 0.466507 -4.26758 0
M  V30 23655 C 2237.78 1.42808 -5.14239 0
M  V30 23656 O 2238.01 2.6637 -5.04384 0
M  V30 23657 O 2236.94 0.946349 -5.94414 0
M  V30 23658 H 2240.77 -0.538089 -2.98895 0
M  V30 23659 H 2238.35 -0.329122 -1.4573 0
M  V30 23660 H 2240.23 1.76773 -3.8253 0
M  V30 23661 H 2238.91 1.8805 -2.63475 0
M  V30 23662 H 2237.81 -0.157517 -3.73768 0
M  V30 23663 H 2239.15 -0.187571 -4.91842 0
M  V30 23664 N 2240.8 1.54608 -0.305646 0
M  V30 23665 C 2242.02 2.05107 0.307526 0
M  V30 23666 C 2242.45 1.18125 1.46383 0
M  V30 23667 O 2241.81 0.186356 1.8034 0
M  V30 23668 C 2241.86 3.52989 0.736978 0
M  V30 23669 O 2240.96 3.69013 1.84128 0
M  V30 23670 H 2240.3 0.661382 0.0589027 0
M  V30 23671 H 2242.83 1.99616 -0.448842 0
M  V30 23672 H 2242.84 3.94927 1.02452 0
M  V30 23673 H 2241.52 4.15758 -0.108847 0
M  V30 23674 H 2240.09 3.3898 1.55392 0
M  V30 23675 N 2242.28 0.033457 1.57564 0
M  V30 23676 C 2243.52 -0.645193 1.92263 0
M  V30 23677 C 2243.86 -1.71529 0.910573 0
M  V30 23678 O 2243.13 -1.94388 -0.0660648 0
M  V30 23679 C 2243.41 -1.25765 3.37425 0
M  V30 23680 C 2243.27 -0.196812 4.49369 0
M  V30 23681 C 2244.59 -2.17442 3.82632 0
M  V30 23682 H 2241.71 -0.233073 0.699175 0
M  V30 23683 H 2244.35 0.0916027 1.89779 0
M  V30 23684 H 2242.5 -1.8856 3.39672 0
M  V30 23685 H 2244.17 0.434043 4.59253 0
M  V30 23686 H 2242.41 0.477213 4.31167 0
M  V30 23687 H 2243.08 -0.665027 5.47979 0
M  V30 23688 H 2245.56 -1.64628 3.82148 0
M  V30 23689 H 2244.44 -2.57246 4.84888 0
M  V30 23690 H 2244.7 -3.06734 3.18381 0
M  V30 23691 N 2243.76 -1.55766 -0.239741 0
M  V30 23692 C 2244.98 -1.82336 -0.988341 0
M  V30 23693 C 2245.41 -0.611452 -1.77884 0
M  V30 23694 O 2244.76 0.439608 -1.7589 0
M  V30 23695 C 2244.81 -3.06718 -1.89621 0
M  V30 23696 O 2243.92 -2.84136 -2.98899 0
M  V30 23697 H 2243.26 -0.601681 -0.280848 0
M  V30 23698 H 2245.79 -2.0296 -0.258562 0
M  V30 23699 H 2245.8 -3.36342 -2.30951 0
M  V30 23700 H 2244.47 -3.94562 -1.31504 0
M  V30 23701 H 2243.05 -2.65699 -2.61646 0
M  V30 23702 N 2245.23 0.505704 -1.49266 0
M  V30 23703 C 2246.47 1.27035 -1.6013 0
M  V30 23704 C 2246.84 1.89953 -0.27959 0
M  V30 23705 O 2248.04 2.67507 -0.263376 0
M  V30 23706 C 2246.31 2.31241 -2.72511 0
M  V30 23707 S 2247.87 3.17107 -3.03296 0
M  V30 23708 H 2244.69 0.43179 -0.56487 0
M  V30 23709 H 2247.29 0.573364 -1.86903 0
M  V30 23710 H 2245.99 1.8354 -3.67071 0
M  V30 23711 H 2245.52 3.05615 -2.47716 0
M  V30 23712 H 2247.54 4.31805 -2.44456 0
M  V30 23713 N 2246.71 1.38262 0.756405 0
M  V30 23714 C 2248.12 1.30663 1.33357 0
M  V30 23715 C 2248.47 -0.038853 1.96162 0
M  V30 23716 O 2247.6 -0.940884 1.94875 0
M  V30 23717 C 2248.19 2.36627 2.42473 0
M  V30 23718 C 2246.75 2.32615 2.95917 0
M  V30 23719 C 2245.9 2.19642 1.69272 0
M  V30 23720 H 2248.85 1.48661 0.555494 0
M  V30 23721 H 2248.87 2.0218 3.22341 0
M  V30 23722 H 2248.38 3.34541 1.96733 0
M  V30 23723 H 2246.49 1.38273 3.45993 0
M  V30 23724 H 2246.6 3.26642 3.50488 0
M  V30 23725 H 2244.96 1.66446 1.9279 0
M  V30 23726 H 2245.75 3.19493 1.25614 0
M  V30 23727 N 2248.19 -0.984277 1.23084 0
M  V30 23728 C 2249.12 -2.0783 0.966397 0
M  V30 23729 C 2250.14 -1.62696 -0.0581849 0
M  V30 23730 O 2251.32 -1.77622 0.176875 0
M  V30 23731 C 2248.42 -3.36117 0.433456 0
M  V30 23732 C 2247.6 -4.1024 1.51729 0
M  V30 23733 C 2246.66 -5.16805 0.989912 0
M  V30 23734 O 2245.68 -5.43903 1.67803 0
M  V30 23735 N 2246.88 -5.80207 -0.184265 0
M  V30 23736 H 2249.65 -2.31094 1.90829 0
M  V30 23737 H 2247.21 -1.15068 1.1389 0
M  V30 23738 H 2249.2 -4.04647 0.0657701 0
M  V30 23739 H 2247.77 -3.0985 -0.413752 0
M  V30 23740 H 2246.99 -3.36219 2.05792 0
M  V30 23741 H 2248.28 -4.5653 2.24627 0
M  V30 23742 H 2247.68 -5.60572 -0.759963 0
M  V30 23743 H 2246.24 -6.49931 -0.493252 0
M  V30 23744 N 2249.67 -1.04192 -1.18244 0
M  V30 23745 C 2250.92 -0.744576 -1.87884 0
M  V30 23746 C 2251.24 0.729975 -1.80821 0
M  V30 23747 O 2250.51 1.52682 -1.22739 0
M  V30 23748 H 2249.09 -0.27243 -0.695551 0
M  V30 23749 H 2251.75 -1.31894 -1.43492 0
M  V30 23750 H 2250.85 -1.05054 -2.93888 0
M  V30 23751 N 2251.15 1.34492 -0.821557 0
M  V30 23752 C 2252.37 2.03084 -0.420909 0
M  V30 23753 C 2252.8 1.61467 0.964887 0
M  V30 23754 O 2252.15 0.798636 1.62762 0
M  V30 23755 C 2252.2 3.56692 -0.529477 0
M  V30 23756 O 2251.31 4.09924 0.45123 0
M  V30 23757 H 2250.65 0.640932 -0.173501 0
M  V30 23758 H 2253.18 1.71769 -1.1116 0
M  V30 23759 H 2253.19 4.05987 -0.404742 0
M  V30 23760 H 2251.86 3.8633 -1.54021 0
M  V30 23761 H 2250.44 3.71806 0.285493 0
M  V30 23762 N 2252.62 0.576397 1.46681 0
M  V30 23763 C 2253.55 -0.148356 2.33028 0
M  V30 23764 C 2254.54 -0.88993 1.44963 0
M  V30 23765 O 2255.72 -0.866632 1.7379 0
M  V30 23766 C 2252.85 -1.16664 3.27119 0
M  V30 23767 C 2251.8 -0.540311 4.24576 0
M  V30 23768 C 2251.13 -1.66461 5.08129 0
M  V30 23769 C 2252.43 0.518422 5.19721 0
M  V30 23770 H 2254.12 0.572561 2.93874 0
M  V30 23771 H 2251.67 0.276793 1.41315 0
M  V30 23772 H 2253.62 -1.68198 3.86377 0
M  V30 23773 H 2252.35 -1.91775 2.64367 0
M  V30 23774 H 2251.01 -0.0461124 3.66571 0
M  V30 23775 H 2250.65 -2.40523 4.41766 0
M  V30 23776 H 2250.35 -1.25121 5.74124 0
M  V30 23777 H 2251.88 -2.18283 5.7025 0
M  V30 23778 H 2253.29 0.0884066 5.73232 0
M  V30 23779 H 2251.69 0.851784 5.94024 0
M  V30 23780 H 2252.76 1.40711 4.64035 0
M  V30 23781 N 2254.1 -1.54444 0.313841 0
M  V30 23782 C 2255.33 -2.05268 -0.296645 0
M  V30 23783 C 2255.75 -1.189 -1.45755 0
M  V30 23784 O 2255.11 -0.195917 -1.80238 0
M  V30 23785 C 2255.16 -3.53375 -0.718248 0
M  V30 23786 O 2254.26 -3.69985 -1.82168 0
M  V30 23787 H 2253.6 -0.661685 -0.0553944 0
M  V30 23788 H 2256.13 -1.99375 0.459422 0
M  V30 23789 H 2256.14 -3.95465 -1.00357 0
M  V30 23790 H 2254.82 -4.15694 0.130894 0
M  V30 23791 H 2253.4 -3.398 -1.53592 0
M  V30 23792 N 2255.58 -0.0418125 -1.57545 0
M  V30 23793 C 2256.99 0.495227 -1.80012 0
M  V30 23794 C 2257.34 1.71488 -0.953229 0
M  V30 23795 O 2256.47 2.15753 -0.167176 0
M  V30 23796 C 2257.06 0.905208 -3.26483 0
M  V30 23797 C 2255.62 1.38728 -3.49902 0
M  V30 23798 C 2254.77 0.358007 -2.74979 0
M  V30 23799 H 2257.72 -0.267763 -1.56425 0
M  V30 23800 H 2257.74 1.76876 -3.36891 0
M  V30 23801 H 2257.25 0.0173328 -3.88096 0
M  V30 23802 H 2255.35 2.29466 -2.93558 0
M  V30 23803 H 2255.47 1.3859 -4.58617 0
M  V30 23804 H 2253.83 0.828869 -2.40836 0
M  V30 23805 H 2254.61 -0.521621 -3.39314 0
M  V30 23806 N 2257.06 1.55891 0.231477 0
M  V30 23807 C 2258.02 1.90781 1.27024 0
M  V30 23808 C 2259.02 0.785531 1.40307 0
M  V30 23809 O 2260.21 1.05338 1.38742 0
M  V30 23810 C 2257.34 2.14988 2.64562 0
M  V30 23811 H 2258.54 2.83678 0.972968 0
M  V30 23812 H 2256.09 1.4902 0.47146 0
M  V30 23813 H 2256.82 1.2461 2.99404 0
M  V30 23814 H 2256.61 2.96737 2.563 0
M  V30 23815 H 2258.1 2.43111 3.39539 0
M  V30 23816 N 2258.54 -0.497781 1.49532 0
M  V30 23817 C 2259.76 -1.27564 1.62896 0
M  V30 23818 C 2260.18 -1.86375 0.301618 0
M  V30 23819 O 2259.54 -1.67983 -0.713305 0
M  V30 23820 C 2259.59 -2.4036 2.70018 0
M  V30 23821 O 2259.31 -1.83965 3.97603 0
M  V30 23822 C 2260.81 -3.3168 2.94115 0
M  V30 23823 H 2258.03 -0.386785 0.548305 0
M  V30 23824 H 2260.57 -0.597211 1.95585 0
M  V30 23825 H 2258.73 -3.04027 2.40097 0
M  V30 23826 H 2259.14 -2.58039 4.56635 0
M  V30 23827 H 2260.62 -4.07097 3.72795 0
M  V30 23828 H 2261.09 -3.88868 2.04153 0
M  V30 23829 H 2261.7 -2.73775 3.25464 0
M  V30 23830 N 2260.01 -1.38661 -0.749062 0
M  V30 23831 C 2261.24 -1.3854 -1.54342 0
M  V30 23832 C 2261.66 0.0216325 -1.88088 0
M  V30 23833 O 2261.02 1.00491 -1.50901 0
M  V30 23834 C 2261.07 -2.25197 -2.81636 0
M  V30 23835 O 2260.17 -1.67218 -3.76977 0
M  V30 23836 H 2259.52 -0.472375 -0.466646 0
M  V30 23837 H 2262.05 -1.8248 -0.925323 0
M  V30 23838 H 2262.06 -2.39215 -3.30515 0
M  V30 23839 H 2260.73 -3.27459 -2.56405 0
M  V30 23840 H 2259.31 -1.62366 -3.35696 0
M  V30 23841 N 2261.49 0.977736 -1.23605 0
M  V30 23842 C 2262.42 2.08858 -1.04405 0
M  V30 23843 C 2263.4 1.70053 0.0398754 0
M  V30 23844 O 2264.59 1.93795 -0.12528 0
M  V30 23845 C 2261.72 3.41402 -0.637329 0
M  V30 23846 C 2260.67 3.94121 -1.6689 0
M  V30 23847 C 2260 5.22891 -1.11754 0
M  V30 23848 C 2261.3 4.2309 -3.06255 0
M  V30 23849 H 2262.99 2.25178 -1.9732 0
M  V30 23850 H 2260.54 1.08207 -0.950115 0
M  V30 23851 H 2262.49 4.18541 -0.490054 0
M  V30 23852 H 2261.22 3.24954 0.3275 0
M  V30 23853 H 2259.88 3.1913 -1.80421 0
M  V30 23854 H 2259.52 5.02795 -0.143615 0
M  V30 23855 H 2259.22 5.59131 -1.80682 0
M  V30 23856 H 2260.75 6.02649 -0.982173 0
M  V30 23857 H 2262.16 4.9097 -2.9601 0
M  V30 23858 H 2260.56 4.70537 -3.72445 0
M  V30 23859 H 2261.63 3.30257 -3.55047 0
M  V30 23860 N 2262.97 1.04818 1.1769 0
M  V30 23861 C 2263.9 0.590212 2.20435 0
M  V30 23862 C 2264.88 -0.379216 1.58116 0
M  V30 23863 O 2266.07 -0.291729 1.86229 0
M  V30 23864 C 2263.19 -0.136757 3.38424 0
M  V30 23865 C 2262.24 0.787097 4.19174 0
M  V30 23866 S 2263.07 2.27418 4.84811 0
M  V30 23867 C 2264.23 1.55827 6.06192 0
M  V30 23868 H 2264.46 1.46071 2.58941 0
M  V30 23869 H 2261.99 0.859806 1.28245 0
M  V30 23870 H 2263.95 -0.550004 4.06799 0
M  V30 23871 H 2262.61 -0.983246 2.98314 0
M  V30 23872 H 2261.81 0.224769 5.03499 0
M  V30 23873 H 2261.41 1.13954 3.56217 0
M  V30 23874 H 2263.7 0.855505 6.72077 0
M  V30 23875 H 2264.64 2.37885 6.66946 0
M  V30 23876 H 2265.05 1.04732 5.54699 0
M  V30 23877 N 2264.45 -1.34055 0.828678 0
M  V30 23878 C 2265.38 -2.28217 0.212092 0
M  V30 23879 C 2266.39 -1.51287 -0.601336 0
M  V30 23880 O 2267.58 -1.73241 -0.430074 0
M  V30 23881 C 2264.68 -3.31146 -0.720822 0
M  V30 23882 C 2263.86 -4.3737 0.0510356 0
M  V30 23883 C 2262.92 -5.20026 -0.803674 0
M  V30 23884 O 2261.94 -5.68666 -0.246567 0
M  V30 23885 N 2263.14 -5.40302 -2.1226 0
M  V30 23886 H 2265.91 -2.81769 1.0211 0
M  V30 23887 H 2263.47 -1.4664 0.686179 0
M  V30 23888 H 2265.46 -3.83342 -1.29735 0
M  V30 23889 H 2264.03 -2.77945 -1.43056 0
M  V30 23890 H 2263.25 -3.85811 0.808899 0
M  V30 23891 H 2264.54 -5.05459 0.582154 0
M  V30 23892 H 2263.94 -5.02468 -2.59889 0
M  V30 23893 H 2262.49 -5.95594 -2.64785 0
M  V30 23894 N 2265.93 -0.584167 -1.46374 0
M  V30 23895 C 2267.17 -0.0704072 -2.02678 0
M  V30 23896 C 2267.51 1.28676 -1.45452 0
M  V30 23897 O 2266.78 1.84348 -0.620172 0
M  V30 23898 C 2267.06 -0.00621004 -3.60099 0
M  V30 23899 C 2266.92 -1.39238 -4.27707 0
M  V30 23900 C 2268.24 0.693666 -4.34599 0
M  V30 23901 H 2265.36 -0.0270599 -0.736503 0
M  V30 23902 H 2268 -0.751646 -1.745 0
M  V30 23903 H 2266.15 0.573942 -3.84237 0
M  V30 23904 H 2267.82 -2.01781 -4.14828 0
M  V30 23905 H 2266.06 -1.95969 -3.87013 0
M  V30 23906 H 2266.73 -1.29991 -5.36476 0
M  V30 23907 H 2269.21 0.200796 -4.15615 0
M  V30 23908 H 2268.09 0.707618 -5.4432 0
M  V30 23909 H 2268.35 1.75526 -4.05762 0
M  V30 23910 N 2267.41 1.54275 -0.322027 0
M  V30 23911 C 2268.63 2.05422 0.285755 0
M  V30 23912 C 2269.06 1.19671 1.45122 0
M  V30 23913 O 2268.41 0.205473 1.80132 0
M  V30 23914 C 2268.46 3.5375 0.699497 0
M  V30 23915 O 2267.57 3.70945 1.80203 0
M  V30 23916 H 2266.91 0.66197 0.0518846 0
M  V30 23917 H 2269.44 1.99129 -0.469989 0
M  V30 23918 H 2269.45 3.95992 0.982579 0
M  V30 23919 H 2268.12 4.15619 -0.152937 0
M  V30 23920 H 2266.7 3.40609 1.51788 0
M  V30 23921 N 2268.88 0.0501669 1.5752 0
M  V30 23922 C 2269.79 -0.939789 2.14954 0
M  V30 23923 C 2270.81 -1.34237 1.10708 0
M  V30 23924 O 2271.99 -1.4195 1.42871 0
M  V30 23925 C 2269.05 -2.1966 2.68236 0
M  V30 23926 C 2268.11 -1.85246 3.87276 0
M  V30 23927 C 2267.34 -3.04935 4.38007 0
M  V30 23928 O 2267.57 -4.18274 3.87818 0
M  V30 23929 O 2266.5 -2.86008 5.29607 0
M  V30 23930 H 2270.33 -0.481339 2.99861 0
M  V30 23931 H 2267.91 -0.171673 1.4841 0
M  V30 23932 H 2269.79 -2.93401 3.0248 0
M  V30 23933 H 2268.47 -2.64645 1.864 0
M  V30 23934 H 2267.38 -1.08824 3.57922 0
M  V30 23935 H 2268.71 -1.45061 4.70338 0
M  V30 23936 N 2270.36 -1.56011 -0.223207 0
M  V30 23937 C 2271.78 -1.48966 -0.57283 0
M  V30 23938 C 2271.98 -0.744952 -1.87224 0
M  V30 23939 O 2271.03 -0.28394 -2.50898 0
M  V30 23940 C 2272.35 -2.93511 -0.653594 0
M  V30 23941 C 2273.89 -3.04021 -0.744333 0
M  V30 23942 C 2274.37 -4.49921 -0.856456 0
M  V30 23943 N 2275.86 -4.53957 -0.92072 0
M  V30 23944 C 2276.6 -5.64125 -1.02716 0
M  V30 23945 N 2276.09 -6.84049 -1.09764 0
M  V30 23946 N 2277.88 -5.51973 -1.06216 0
M  V30 23947 H 2270.04 -2.02857 0.629498 0
M  V30 23948 H 2272.3 -0.921967 0.220637 0
M  V30 23949 H 2272 -3.50937 0.23158 0
M  V30 23950 H 2271.88 -3.45318 -1.51775 0
M  V30 23951 H 2274.27 -2.46661 -1.61995 0
M  V30 23952 H 2274.35 -2.55386 0.145455 0
M  V30 23953 H 2273.99 -5.07898 0.0146961 0
M  V30 23954 H 2273.92 -4.9626 -1.76164 0
M  V30 23955 H 2276.41 -3.67592 -0.87663 0
M  V30 23956 H 2276.72 -7.6376 -1.17859 0
M  V30 23957 H 2275.07 -6.86764 -1.06681 0
M  V30 23958 H 2278.26 -4.57212 -1.00374 0
M  V30 23959 H 2278.43 -6.37864 -1.14166 0
M  V30 23960 N 2271.84 0.489844 -1.49794 0
M  V30 23961 C 2273.25 1.07115 -1.52916 0
M  V30 23962 C 2273.6 1.93543 -0.321772 0
M  V30 23963 O 2272.73 2.08832 0.567302 0
M  V30 23964 C 2273.32 1.94934 -2.77103 0
M  V30 23965 C 2271.88 2.48207 -2.82967 0
M  V30 23966 C 2271.03 1.26092 -2.46974 0
M  V30 23967 H 2273.98 0.273262 -1.5633 0
M  V30 23968 H 2274 2.79766 -2.57897 0
M  V30 23969 H 2273.51 1.32003 -3.64962 0
M  V30 23970 H 2271.61 3.14744 -1.99416 0
M  V30 23971 H 2271.73 2.84596 -3.85411 0
M  V30 23972 H 2270.09 1.58972 -1.98997 0
M  V30 23973 H 2270.87 0.648522 -3.37119 0
M  V30 23974 N 2273.32 1.39056 0.741698 0
M  V30 23975 C 2274.73 1.20514 1.04636 0
M  V30 23976 C 2274.93 0.0620572 2.01404 0
M  V30 23977 O 2273.99 -0.588414 2.45548 0
M  V30 23978 C 2275.3 2.53646 1.61506 0
M  V30 23979 C 2276.85 2.60433 1.73619 0
M  V30 23980 C 2277.33 3.93771 2.33899 0
M  V30 23981 N 2278.82 3.95374 2.41316 0
M  V30 23982 C 2279.55 4.95314 2.8888 0
M  V30 23983 N 2279.05 6.05651 3.3639 0
M  V30 23984 N 2280.84 4.82697 2.88028 0
M  V30 23985 H 2272.99 2.12166 0.0997782 0
M  V30 23986 H 2275.25 0.941955 0.10689 0
M  V30 23987 H 2274.96 3.37809 0.97868 0
M  V30 23988 H 2274.83 2.72889 2.60406 0
M  V30 23989 H 2277.22 1.76659 2.3638 0
M  V30 23990 H 2277.3 2.45046 0.733902 0
M  V30 23991 H 2276.95 4.77973 1.71767 0
M  V30 23992 H 2276.88 4.06475 3.34792 0
M  V30 23993 H 2279.37 3.15686 2.07728 0
M  V30 23994 H 2279.68 6.77827 3.71174 0
M  V30 23995 H 2278.03 6.09254 3.34416 0
M  V30 23996 H 2281.22 3.95604 2.5023 0
M  V30 23997 H 2281.39 5.60732 3.24783 0
M  V30 23998 N 2274.8 -0.971167 1.24121 0
M  V30 23999 C 2276.02 -1.75405 1.1067 0
M  V30 24000 C 2276.45 -1.85056 -0.337016 0
M  V30 24001 O 2275.8 -1.31894 -1.24393 0
M  V30 24002 C 2275.85 -3.15438 1.74732 0
M  V30 24003 O 2274.96 -3.99696 1.01573 0
M  V30 24004 H 2274.3 -0.53931 0.387351 0
M  V30 24005 H 2276.83 -1.21847 1.6436 0
M  V30 24006 H 2276.84 -3.65976 1.80348 0
M  V30 24007 H 2275.51 -3.07729 2.79778 0
M  V30 24008 H 2274.09 -3.58185 1.03719 0
M  V30 24009 N 2276.27 -1.05441 -1.17133 0
M  V30 24010 C 2277.2 -0.678688 -2.23419 0
M  V30 24011 C 2278.19 0.324731 -1.66972 0
M  V30 24012 O 2279.37 0.201768 -1.93149 0
M  V30 24013 C 2276.5 -0.055271 -3.47256 0
M  V30 24014 C 2275.45 -0.983723 -4.16542 0
M  V30 24015 C 2274.78 -0.224055 -5.3423 0
M  V30 24016 C 2276.08 -2.30898 -4.68491 0
M  V30 24017 H 2277.77 -1.56726 -2.55103 0
M  V30 24018 H 2275.32 -0.755019 -1.22619 0
M  V30 24019 H 2277.27 0.219386 -4.20829 0
M  V30 24020 H 2276 0.868264 -3.14847 0
M  V30 24021 H 2274.66 -1.24299 -3.44885 0
M  V30 24022 H 2274.3 0.702325 -4.98073 0
M  V30 24023 H 2274 -0.842729 -5.81525 0
M  V30 24024 H 2275.53 0.0432598 -6.10585 0
M  V30 24025 H 2276.94 -2.09405 -5.33688 0
M  V30 24026 H 2275.34 -2.88185 -5.26374 0
M  V30 24027 H 2276.41 -2.94579 -3.85164 0
M  V30 24028 N 2277.75 1.33613 -0.835776 0
M  V30 24029 C 2279.16 1.80233 -0.487131 0
M  V30 24030 C 2279.51 1.69181 0.993597 0
M  V30 24031 O 2278.64 1.23927 1.77401 0
M  V30 24032 C 2279.23 3.27241 -0.877442 0
M  V30 24033 C 2277.79 3.71889 -0.580981 0
M  V30 24034 C 2276.94 2.55088 -1.08744 0
M  V30 24035 H 2279.89 1.21179 -1.02476 0
M  V30 24036 H 2279.91 3.80044 -0.186262 0
M  V30 24037 H 2279.42 3.35253 -1.95518 0
M  V30 24038 H 2277.53 3.69406 0.486817 0
M  V30 24039 H 2277.64 4.65485 -1.13405 0
M  V30 24040 H 2276 2.49574 -0.508436 0
M  V30 24041 H 2276.79 2.65864 -2.17189 0
M  V30 24042 N 2279.23 0.591922 1.46062 0
M  V30 24043 C 2280.16 -0.123632 2.33172 0
M  V30 24044 C 2281.14 -0.874505 1.45899 0
M  V30 24045 O 2282.33 -0.84815 1.747 0
M  V30 24046 C 2279.46 -1.13188 3.28338 0
M  V30 24047 C 2278.41 -0.495249 4.25125 0
M  V30 24048 C 2277.74 -1.61063 5.09866 0
M  V30 24049 C 2279.04 0.573516 5.19142 0
M  V30 24050 H 2280.73 0.603698 2.9325 0
M  V30 24051 H 2278.28 0.291766 1.41013 0
M  V30 24052 H 2280.23 -1.6409 3.8814 0
M  V30 24053 H 2278.95 -1.8896 2.66386 0
M  V30 24054 H 2277.61 -0.00723008 3.66599 0
M  V30 24055 H 2277.26 -2.35824 4.44293 0
M  V30 24056 H 2276.96 -1.19025 5.75419 0
M  V30 24057 H 2278.48 -2.12223 5.72533 0
M  V30 24058 H 2279.9 0.149201 5.73106 0
M  V30 24059 H 2278.3 0.91474 5.93087 0
M  V30 24060 H 2279.37 1.45625 4.62516 0
M  V30 24061 N 2280.71 -1.54102 0.330204 0
M  V30 24062 C 2281.93 -2.05571 -0.274857 0
M  V30 24063 C 2282.36 -1.20439 -1.44485 0
M  V30 24064 O 2281.72 -0.215023 -1.8002 0
M  V30 24065 C 2281.76 -3.54116 -0.680727 0
M  V30 24066 O 2280.87 -3.71896 -1.78234 0
M  V30 24067 H 2280.21 -0.662236 -0.0483732 0
M  V30 24068 H 2282.74 -1.98877 0.480543 0
M  V30 24069 H 2282.75 -3.96507 -0.961565 0
M  V30 24070 H 2281.42 -4.15532 0.174976 0
M  V30 24071 H 2280 -3.4141 -1.49979 0
M  V30 24072 N 2282.19 -0.0585199 -1.57491 0
M  V30 24073 C 2283.6 0.476106 -1.80527 0
M  V30 24074 C 2283.95 1.70467 -0.971364 0
M  V30 24075 O 2283.07 2.15564 -0.19005 0
M  V30 24076 C 2283.67 0.870529 -3.27425 0
M  V30 24077 C 2282.23 1.35009 -3.51354 0
M  V30 24078 C 2281.37 0.328822 -2.75344 0
M  V30 24079 H 2284.33 -0.284339 -1.56132 0
M  V30 24080 H 2284.35 1.73293 -3.38748 0
M  V30 24081 H 2283.86 -0.0238309 -3.88093 0
M  V30 24082 H 2281.96 2.2634 -2.95975 0
M  V30 24083 H 2282.07 1.33718 -4.60061 0
M  V30 24084 H 2280.44 0.803279 -2.41701 0
M  V30 24085 H 2281.22 -0.55758 -3.38742 0
M  V30 24086 N 2283.66 1.56128 0.21493 0
M  V30 24087 C 2284.57 1.96131 1.28724 0
M  V30 24088 C 2285.59 0.866071 1.50915 0
M  V30 24089 O 2286.77 1.17019 1.63916 0
M  V30 24090 C 2283.83 2.27562 2.61565 0
M  V30 24091 C 2282.89 3.5069 2.47619 0
M  V30 24092 C 2282.13 3.80612 3.74125 0
M  V30 24093 O 2282.35 3.12112 4.77433 0
M  V30 24094 O 2281.28 4.74089 3.70841 0
M  V30 24095 H 2285.11 2.87529 0.977805 0
M  V30 24096 H 2282.69 1.43424 0.418333 0
M  V30 24097 H 2284.58 2.48944 3.40007 0
M  V30 24098 H 2283.25 1.39337 2.92176 0
M  V30 24099 H 2282.16 3.34579 1.67355 0
M  V30 24100 H 2283.49 4.39319 2.21946 0
M  V30 24101 N 2285.14 -0.481893 1.50052 0
M  V30 24102 C 2286.07 -1.58948 1.71049 0
M  V30 24103 C 2287.05 -1.60641 0.559316 0
M  V30 24104 O 2288.24 -1.7708 0.797274 0
M  V30 24105 C 2285.37 -2.97336 1.79467 0
M  V30 24106 C 2284.32 -3.1051 2.94563 0
M  V30 24107 C 2283.65 -4.50439 2.88113 0
M  V30 24108 C 2284.95 -2.88739 4.35232 0
M  V30 24109 H 2286.64 -1.41631 2.63782 0
M  V30 24110 H 2284.19 -0.67992 1.26937 0
M  V30 24111 H 2286.14 -3.74738 1.92741 0
M  V30 24112 H 2284.87 -3.15786 0.833467 0
M  V30 24113 H 2283.52 -2.35538 2.80923 0
M  V30 24114 H 2283.17 -4.65791 1.89861 0
M  V30 24115 H 2282.87 -4.6019 3.65375 0
M  V30 24116 H 2284.4 -5.29875 3.03421 0
M  V30 24117 H 2285.81 -3.55898 4.49455 0
M  V30 24118 H 2284.21 -3.09946 5.13862 0
M  V30 24119 H 2285.28 -1.84688 4.48351 0
M  V30 24120 N 2286.62 -1.39448 -0.734313 0
M  V30 24121 C 2287.53 -1.40498 -1.87876 0
M  V30 24122 C 2288.55 -0.299702 -1.71399 0
M  V30 24123 O 2289.72 -0.541283 -1.9399 0
M  V30 24124 C 2286.79 -1.2476 -3.23475 0
M  V30 24125 C 2285.85 -2.45265 -3.5234 0
M  V30 24126 C 2285.08 -2.30268 -4.81469 0
M  V30 24127 O 2285.3 -1.30652 -5.55235 0
M  V30 24128 O 2284.24 -3.19265 -5.10249 0
M  V30 24129 H 2288.06 -2.3697 -1.89945 0
M  V30 24130 H 2285.65 -1.2057 -0.882222 0
M  V30 24131 H 2287.53 -1.18118 -4.04507 0
M  V30 24132 H 2286.21 -0.313838 -3.22175 0
M  V30 24133 H 2285.11 -2.57483 -2.71392 0
M  V30 24134 H 2286.45 -3.37337 -3.5842 0
M  V30 24135 N 2288.1 0.964571 -1.24635 0
M  V30 24136 C 2289.32 1.74816 -1.11599 0
M  V30 24137 C 2289.75 1.85232 0.327197 0
M  V30 24138 O 2289.11 1.32552 1.23692 0
M  V30 24139 C 2289.15 3.14507 -1.76402 0
M  V30 24140 O 2288.26 3.99151 -1.03692 0
M  V30 24141 H 2287.6 0.537248 -0.390205 0
M  V30 24142 H 2290.13 1.20974 -1.65004 0
M  V30 24143 H 2290.14 3.65015 -1.82286 0
M  V30 24144 H 2288.81 3.06241 -2.81406 0
M  V30 24145 H 2287.39 3.5763 -1.05617 0
M  V30 24146 N 2289.58 1.0606 1.16572 0
M  V30 24147 C 2290.8 0.796596 1.91492 0
M  V30 24148 C 2291.23 -0.642837 1.76774 0
M  V30 24149 O 2290.58 -1.44766 1.09144 0
M  V30 24150 C 2290.63 1.19309 3.40291 0
M  V30 24151 O 2289.74 0.330466 4.11074 0
M  V30 24152 H 2289.08 0.291337 0.596673 0
M  V30 24153 H 2291.61 1.41578 1.47706 0
M  V30 24154 H 2291.62 1.16363 3.91055 0
M  V30 24155 H 2290.29 2.24159 3.50322 0
M  V30 24156 H 2288.87 0.42129 3.70513 0
M  V30 24157 N 2291.06 -1.33168 0.84285 0
M  V30 24158 C 2292.47 -1.79972 0.496682 0
M  V30 24159 C 2292.82 -1.69705 -0.984611 0
M  V30 24160 O 2291.94 -1.24866 -1.76741 0
M  V30 24161 C 2292.54 -3.26771 0.894784 0
M  V30 24162 C 2291.1 -3.71576 0.600695 0
M  V30 24163 C 2290.24 -2.54508 1.10095 0
M  V30 24164 H 2293.19 -1.20633 1.03118 0
M  V30 24165 H 2293.22 -3.7994 0.206414 0
M  V30 24166 H 2292.73 -3.34211 1.97293 0
M  V30 24167 H 2290.83 -3.69659 -0.467219 0
M  V30 24168 H 2290.94 -4.64877 1.15872 0
M  V30 24169 H 2289.31 -2.49301 0.521664 0
M  V30 24170 H 2290.09 -2.64709 2.18596 0
M  V30 24171 O 2292.57 -0.740139 -1.43542 0
M  V30 24172 H 2293.26 -0.293428 -1.91465 0
M  V30 END ATOM
M  V30 BEGIN BOND
M  V30 END BOND
M  V30 END CTAB
M  END
$$$$
