drugbank_target|Q6GII7 3-dehydroquinate dehydratase (DB04347)
 OpenBabel12092119583D

  0  0  0     0  0            999 V3000
M  V30 BEGIN CTAB
M  V30 COUNTS 3811 3844 0 0 0
M  V30 BEGIN ATOM
M  V30 1 H -0.908 1.98254 -0.117106 0
M  V30 2 N 0 1.576 0 0
M  V30 3 C 0.933 2.03868 1.02534 0
M  V30 4 C 1.911 0.928543 1.3348 0
M  V30 5 O 3.095 1.19667 1.45644 0
M  V30 6 C 0.222 2.43627 2.35294 0
M  V30 7 C -0.732 3.65373 2.2001 0
M  V30 8 S 0.101 5.13292 1.52614 0
M  V30 9 C 1.257 5.56322 2.86805 0
M  V30 10 H 1.49 2.90518 0.631377 0
M  V30 11 H -0.977 1.52953 0.210867 0
M  V30 12 H 0.981 2.67203 3.11629 0
M  V30 13 H -0.358 1.57376 2.7183 0
M  V30 14 H -1.165 3.90944 3.18086 0
M  V30 15 H -1.563 3.418 1.51819 0
M  V30 16 H 0.729 5.58782 3.83104 0
M  V30 17 H 1.672 6.56266 2.65933 0
M  V30 18 H 2.08 4.83886 2.90714 0
M  V30 19 N 1.4781 -0.272755 1.55222 0
M  V30 20 C 2.7061 -1.02255 1.79865 0
M  V30 21 C 3.1211 -1.79924 0.572088 0
M  V30 22 O 2.4781 -1.76638 -0.458842 0
M  V30 23 C 2.5291 -1.98094 3.02392 0
M  V30 24 O 2.2501 -1.23572 4.20311 0
M  V30 25 C 3.7511 -2.84884 3.39641 0
M  V30 26 H 0.9711 -0.302057 0.599168 0
M  V30 27 H 3.5151 -0.303465 2.02236 0
M  V30 28 H 1.6701 -2.65465 2.82147 0
M  V30 29 H 2.0841 -1.88172 4.89583 0
M  V30 30 H 3.5581 -3.47927 4.28545 0
M  V30 31 H 4.0351 -3.54665 2.59055 0
M  V30 32 H 4.6411 -2.23003 3.62146 0
M  V30 33 N 2.9562 -1.48159 -0.537278 0
M  V30 34 C 3.9062 -1.5854 -1.63857 0
M  V30 35 C 4.8902 -0.442969 -1.54682 0
M  V30 36 O 6.0822 -0.69401 -1.62827 0
M  V30 37 C 3.2112 -1.62144 -3.02596 0
M  V30 38 C 2.2972 -2.81841 -3.16901 0
M  V30 39 N 2.6882 -4.06337 -3.01204 0
M  V30 40 C 0.9862 -2.79021 -3.47942 0
M  V30 41 C 1.6872 -4.86606 -3.18731 0
M  V30 42 N 0.6632 -4.19288 -3.45974 0
M  V30 43 H 4.4652 -2.5255 -1.50319 0
M  V30 44 H 1.9792 -1.4443 -0.742555 0
M  V30 45 H 3.9762 -1.67674 -3.81695 0
M  V30 46 H 2.6362 -0.69245 -3.17231 0
M  V30 47 H 3.6472 -4.36888 -2.78117 0
M  V30 48 H 0.3242 -1.95347 -3.6898 0
M  V30 49 H 1.7142 -5.95385 -3.11394 0
M  V30 50 N 4.4343 0.785586 -1.36625 0
M  V30 51 C 5.6803 1.54591 -1.31261 0
M  V30 52 C 6.0133 1.93906 0.106823 0
M  V30 53 O 5.2883 1.63007 1.06108 0
M  V30 54 C 5.5713 2.82038 -2.23889 0
M  V30 55 C 5.4243 2.49066 -3.74548 0
M  V30 56 C 6.7433 3.83887 -2.15217 0
M  V30 57 H 3.8623 0.560846 -0.478143 0
M  V30 58 H 6.5043 0.902278 -1.67209 0
M  V30 59 H 4.6543 3.36961 -1.93363 0
M  V30 60 H 6.3263 2.00164 -4.15611 0
M  V30 61 H 4.5693 1.81954 -3.93796 0
M  V30 62 H 5.2403 3.40109 -4.34776 0
M  V30 63 H 7.7163 3.38421 -2.42096 0
M  V30 64 H 6.5923 4.70806 -2.82193 0
M  V30 65 H 6.8533 4.27131 -1.14068 0
M  V30 66 N 5.9124 1.20967 1.01018 0
M  V30 67 C 6.8224 0.980157 2.13143 0
M  V30 68 C 7.8384 -0.0660665 1.73875 0
M  V30 69 O 9.0144 0.122821 2.01025 0
M  V30 70 C 6.0794 0.54216 3.42435 0
M  V30 71 C 5.1404 1.65999 3.95908 0
M  V30 72 C 4.3734 1.2428 5.19028 0
M  V30 73 O 4.5964 0.114196 5.70286 0
M  V30 74 O 3.5304 2.05271 5.65816 0
M  V30 75 H 7.3564 1.91913 2.35379 0
M  V30 76 H 4.9414 0.994099 1.11526 0
M  V30 77 H 6.8234 0.30744 4.20277 0
M  V30 78 H 5.4984 -0.36815 3.216 0
M  V30 79 H 4.4054 1.94906 3.19316 0
M  V30 80 H 5.7384 2.54753 4.21143 0
M  V30 81 N 7.3905 -1.2043 1.01659 0
M  V30 82 C 8.6365 -1.90079 0.706963 0
M  V30 83 C 8.9695 -1.78648 -0.761474 0
M  V30 84 O 8.2445 -1.17069 -1.55323 0
M  V30 85 C 8.5275 -3.41469 1.14327 0
M  V30 86 C 8.3805 -3.61833 2.67201 0
M  V30 87 C 9.6995 -4.34261 0.714529 0
M  V30 88 H 6.8185 -0.690254 0.2583 0
M  V30 89 H 9.4605 -1.41826 1.26433 0
M  V30 90 H 7.6105 -3.82696 0.669056 0
M  V30 91 H 9.2825 -3.2986 3.22475 0
M  V30 92 H 7.5255 -3.05304 3.08175 0
M  V30 93 H 8.1965 -4.67955 2.92783 0
M  V30 94 H 10.6725 -4.00682 1.12221 0
M  V30 95 H 9.5485 -5.38806 1.04784 0
M  V30 96 H 9.8095 -4.40431 -0.383799 0
M  V30 97 N 8.8686 -0.792821 -1.36206 0
M  V30 98 C 10.1146 -0.36733 -1.99446 0
M  V30 99 C 10.4476 1.05917 -1.62774 0
M  V30 100 O 9.7226 1.7324 -0.88421 0
M  V30 101 C 10.0056 -0.535044 -3.56103 0
M  V30 102 C 9.8586 -2.00548 -4.02617 0
M  V30 103 C 11.1776 0.0478191 -4.40074 0
M  V30 104 H 8.2966 -0.134941 -0.724541 0
M  V30 105 H 10.9386 -0.999794 -1.61568 0
M  V30 106 H 9.0886 0.00336329 -3.885 0
M  V30 107 H 10.7606 -2.60521 -3.80692 0
M  V30 108 H 9.0036 -2.50686 -3.54032 0
M  V30 109 H 9.6746 -2.07377 -5.11565 0
M  V30 110 H 12.1506 -0.411822 -4.14057 0
M  V30 111 H 11.0266 -0.0995336 -5.4881 0
M  V30 112 H 11.2876 1.14025 -4.27142 0
M  V30 113 N 10.3467 1.47872 -0.545128 0
M  V30 114 C 11.3097 2.28337 0.198717 0
M  V30 115 C 12.3097 1.36255 0.853888 0
M  V30 116 O 13.4997 1.59003 0.711606 0
M  V30 117 C 10.6317 3.15585 1.28915 0
M  V30 118 H 11.8247 2.95567 -0.507941 0
M  V30 119 H 9.3777 1.53362 -0.301616 0
M  V30 120 H 10.1127 2.53019 2.02859 0
M  V30 121 H 9.8977 3.83337 0.824309 0
M  V30 122 H 11.3877 3.76243 1.81194 0
M  V30 123 N 11.8248 0.280983 1.55075 0
M  V30 124 C 13.0528 -0.337293 2.04132 0
M  V30 125 C 13.4678 -1.4903 1.15912 0
M  V30 126 O 12.8248 -1.81606 0.180459 0
M  V30 127 C 12.8758 -0.812706 3.52246 0
M  V30 128 O 12.5968 0.294387 4.3711 0
M  V30 129 C 14.0978 -1.4982 4.17216 0
M  V30 130 H 11.3178 -0.0761638 0.666663 0
M  V30 131 H 13.8618 0.414787 2.00249 0
M  V30 132 H 12.0168 -1.51486 3.56554 0
M  V30 133 H 12.4308 -0.0721325 5.2445 0
M  V30 134 H 13.9048 -1.7822 5.22438 0
M  V30 135 H 14.3818 -2.43168 3.65741 0
M  V30 136 H 14.9878 -0.839742 4.16927 0
M  V30 137 N 13.3029 -1.57598 0.00835791 0
M  V30 138 C 14.5519 -1.90107 -0.673968 0
M  V30 139 C 14.8649 -0.884275 -1.7447 0
M  V30 140 O 16.0709 -1.09987 -2.48224 0
M  V30 141 C 14.5269 -3.37497 -1.24995 0
M  V30 142 C 14.1349 -4.47491 -0.2136 0
M  V30 143 C 15.8789 -3.79104 -1.90999 0
M  V30 144 C 13.7859 -5.85963 -0.80005 0
M  V30 145 H 12.7159 -0.709393 -0.255495 0
M  V30 146 H 15.3669 -1.83365 0.0702693 0
M  V30 147 H 13.7489 -3.39102 -2.04513 0
M  V30 148 H 14.9229 -4.57414 0.557596 0
M  V30 149 H 13.2379 -4.14956 0.346474 0
M  V30 150 H 15.8349 -4.79901 -2.35795 0
M  V30 151 H 16.1779 -3.1306 -2.74407 0
M  V30 152 H 16.7109 -3.79833 -1.18203 0
M  V30 153 H 13.4499 -6.555 -0.00456708 0
M  V30 154 H 12.9699 -5.79687 -1.54021 0
M  V30 155 H 14.6489 -6.33884 -1.29615 0
M  V30 156 N 14.781 0.264519 -1.55364 0
M  V30 157 C 16.009 1.013 -1.80405 0
M  V30 158 C 16.424 1.79618 -0.581622 0
M  V30 159 O 15.781 1.76879 0.449468 0
M  V30 160 C 15.832 1.96487 -3.03439 0
M  V30 161 O 15.553 1.21341 -4.20961 0
M  V30 162 C 17.054 2.83079 -3.41147 0
M  V30 163 H 14.274 0.298875 -0.600762 0
M  V30 164 H 16.818 0.292736 -2.02394 0
M  V30 165 H 14.973 2.63965 -2.83551 0
M  V30 166 H 15.387 1.85573 -4.90574 0
M  V30 167 H 16.861 3.4565 -4.30384 0
M  V30 168 H 17.338 3.53286 -2.60932 0
M  V30 169 H 17.944 2.2108 -3.63323 0
M  V30 170 N 16.2591 1.48442 0.529413 0
M  V30 171 C 17.6701 1.5002 1.11134 0
M  V30 172 C 18.0211 0.27031 1.94329 0
M  V30 173 O 17.1461 -0.622507 2.07253 0
M  V30 174 C 17.7411 2.71834 2.02217 0
M  V30 175 C 16.3001 2.76283 2.55627 0
M  V30 176 C 15.4471 2.43542 1.326 0
M  V30 177 H 18.3981 1.5555 0.314641 0
M  V30 178 H 18.4191 2.50384 2.8651 0
M  V30 179 H 17.9311 3.61331 1.41639 0
M  V30 180 H 16.0321 1.90995 3.19924 0
M  V30 181 H 16.1451 3.77725 2.94721 0
M  V30 182 H 14.5091 1.94709 1.64196 0
M  V30 183 H 15.2921 3.3528 0.737734 0
M  V30 184 N 17.7372 -0.778329 1.37039 0
M  V30 185 C 18.6692 -1.90034 1.2814 0
M  V30 186 C 19.6822 -1.61585 0.198558 0
M  V30 187 O 20.8712 -1.72625 0.454175 0
M  V30 188 C 17.9712 -3.25108 0.956968 0
M  V30 189 C 17.1442 -3.81253 2.14394 0
M  V30 190 C 16.2032 -4.94789 1.79082 0
M  V30 191 O 15.2292 -5.10721 2.51301 0
M  V30 192 N 16.4312 -5.75878 0.731043 0
M  V30 193 H 19.1962 -1.98186 2.24816 0
M  V30 194 H 16.7572 -0.957129 1.30578 0
M  V30 195 H 18.7492 -3.9857 0.701701 0
M  V30 196 H 17.3192 -3.125 0.0789812 0
M  V30 197 H 16.5392 -2.99647 2.56135 0
M  V30 198 H 17.8272 -4.15495 2.93668 0
M  V30 199 H 17.2252 -5.65547 0.131618 0
M  V30 200 H 15.7822 -6.49596 0.535622 0
M  V30 201 N 19.2153 -1.21501 -1.00376 0
M  V30 202 C 20.1453 -0.999478 -2.11028 0
M  V30 203 C 21.1263 0.0759671 -1.6993 0
M  V30 204 O 22.3113 -0.0841106 -1.94018 0
M  V30 205 C 19.4413 -0.564709 -3.42678 0
M  V30 206 C 18.3953 -1.58486 -3.97576 0
M  V30 207 C 17.7213 -1.00628 -5.25146 0
M  V30 208 C 19.0213 -2.97204 -4.29496 0
M  V30 209 H 20.7153 -1.92495 -2.29317 0
M  V30 210 H 18.2613 -0.92693 -1.102 0
M  V30 211 H 20.2143 -0.401091 -4.19487 0
M  V30 212 H 18.9383 0.396411 -3.24185 0
M  V30 213 H 17.5973 -1.73606 -3.22888 0
M  V30 214 H 17.2453 -0.0368439 -5.02987 0
M  V30 215 H 16.9453 -1.68771 -5.62841 0
M  V30 216 H 18.4693 -0.854015 -6.04598 0
M  V30 217 H 19.8833 -2.8552 -4.97143 0
M  V30 218 H 18.2803 -3.62372 -4.78338 0
M  V30 219 H 19.3503 -3.47956 -3.3772 0
M  V30 220 N 20.6934 1.19889 -1.02296 0
M  V30 221 C 21.9234 1.93109 -0.734332 0
M  V30 222 C 22.3314 1.75377 0.709889 0
M  V30 223 O 21.6744 1.06912 1.49384 0
M  V30 224 C 21.7364 3.45362 -0.99827 0
M  V30 225 C 21.4004 3.8686 -2.43287 0
M  V30 226 C 22.3974 3.92102 -3.41397 0
M  V30 227 C 20.0824 4.18668 -2.77529 0
M  V30 228 C 22.0764 4.28573 -4.71809 0
M  V30 229 C 19.7634 4.54813 -4.08153 0
M  V30 230 C 20.7614 4.59739 -5.05103 0
M  V30 231 O 20.4494 4.95051 -6.33388 0
M  V30 232 H 20.1814 0.620409 -0.268456 0
M  V30 233 H 22.7354 1.53144 -1.3688 0
M  V30 234 H 20.9654 3.85482 -0.306645 0
M  V30 235 H 22.6544 3.99814 -0.700234 0
M  V30 236 H 23.4204 3.67685 -3.1628 0
M  V30 237 H 19.2994 4.14021 -2.0275 0
M  V30 238 H 22.8434 4.32333 -5.4748 0
M  V30 239 H 18.7404 4.78687 -4.33047 0
M  V30 240 H 19.5084 5.1302 -6.37772 0
M  V30 241 N 22.1715 0.800033 1.35784 0
M  V30 242 C 23.4205 0.37387 1.98205 0
M  V30 243 C 23.7335 -1.06302 1.64193 0
M  V30 244 O 24.9395 -1.59198 2.19928 0
M  V30 245 C 23.3955 0.617532 3.54562 0
M  V30 246 C 23.0035 2.06654 3.9749 0
M  V30 247 C 24.7475 0.256401 4.23725 0
M  V30 248 C 22.6545 2.2563 5.46667 0
M  V30 249 H 21.5845 0.136055 0.741623 0
M  V30 250 H 24.2355 0.983166 1.54939 0
M  V30 251 H 22.6175 -0.0616248 3.95952 0
M  V30 252 H 23.7915 2.78296 3.67271 0
M  V30 253 H 22.1065 2.38691 3.41197 0
M  V30 254 H 24.7035 0.376318 5.33374 0
M  V30 255 H 25.0465 -0.796692 4.08606 0
M  V30 256 H 25.5795 0.889214 3.87734 0
M  V30 257 H 22.3185 3.2936 5.66747 0
M  V30 258 H 21.8385 1.58504 5.78478 0
M  V30 259 H 23.5175 2.06861 6.1304 0
M  V30 260 N 23.6496 -1.47581 0.552962 0
M  V30 261 C 24.5596 -2.33743 -0.200353 0
M  V30 262 C 25.5756 -1.47928 -0.916151 0
M  V30 263 O 26.7516 -1.80865 -0.885993 0
M  V30 264 C 23.8166 -3.24536 -1.21973 0
M  V30 265 C 22.8776 -4.26238 -0.511819 0
M  V30 266 C 22.1106 -5.12693 -1.48263 0
M  V30 267 O 22.3336 -5.01525 -2.71714 0
M  V30 268 O 21.2676 -5.93375 -1.00945 0
M  V30 269 H 25.0936 -2.9945 0.506304 0
M  V30 270 H 22.6786 -1.46071 0.313622 0
M  V30 271 H 24.5606 -3.80631 -1.80827 0
M  V30 272 H 23.2356 -2.61462 -1.90839 0
M  V30 273 H 22.1426 -3.73914 0.117799 0
M  V30 274 H 23.4756 -4.92014 0.135308 0
M  V30 275 N 25.1277 -0.289203 -1.54924 0
M  V30 276 C 26.0377 0.601863 -2.26748 0
M  V30 277 C 27.0537 1.15834 -1.2984 0
M  V30 278 O 28.2297 1.18564 -1.62802 0
M  V30 279 C 25.2947 1.76299 -2.98529 0
M  V30 280 C 24.3557 1.24178 -4.10948 0
M  V30 281 C 23.5887 2.34757 -4.79296 0
M  V30 282 O 23.8117 3.54411 -4.46933 0
M  V30 283 O 22.7457 2.02115 -5.66951 0
M  V30 284 H 26.5717 0.0195879 -3.03694 0
M  V30 285 H 24.1567 -0.0560868 -1.49295 0
M  V30 286 H 26.0387 2.43973 -3.43592 0
M  V30 287 H 24.7137 2.33209 -2.24488 0
M  V30 288 H 23.6207 0.531104 -3.70311 0
M  V30 289 H 24.9537 0.718252 -4.86931 0
M  V30 290 N 26.6058 1.57591 -0.0167156 0
M  V30 291 C 27.8338 1.95575 0.675128 0
M  V30 292 C 28.2488 0.892542 1.6637 0
M  V30 293 O 27.6058 -0.126912 1.82058 0
M  V30 294 C 27.6568 3.33608 1.39239 0
M  V30 295 O 27.3778 4.3585 0.443444 0
M  V30 296 C 28.8788 3.86151 2.17721 0
M  V30 297 H 26.0988 0.644423 0.186978 0
M  V30 298 H 28.6428 2.0437 -0.0728 0
M  V30 299 H 26.7978 3.2607 2.09182 0
M  V30 300 H 27.2118 5.158 0.951358 0
M  V30 301 H 28.6858 4.85114 2.63379 0
M  V30 302 H 29.1628 3.19738 3.01105 0
M  V30 303 H 29.7688 3.96918 1.52761 0
M  V30 304 N 28.0839 -0.256276 1.55502 0
M  V30 305 C 29.0139 -1.32102 1.92539 0
M  V30 306 C 29.9949 -1.50684 0.789194 0
M  V30 307 O 31.1799 -1.63449 1.04872 0
M  V30 308 C 28.3099 -2.67752 2.21192 0
M  V30 309 C 27.2639 -2.63878 3.36975 0
M  V30 310 C 26.5899 -4.03236 3.51147 0
M  V30 311 C 27.8899 -2.21682 4.72921 0
M  V30 312 H 29.5839 -1.01351 2.81724 0
M  V30 313 H 27.1299 -0.486105 1.35547 0
M  V30 314 H 29.0829 -3.42365 2.45691 0
M  V30 315 H 27.8069 -3.0012 1.28824 0
M  V30 316 H 26.4659 -1.91722 3.12471 0
M  V30 317 H 26.1139 -4.32854 2.56216 0
M  V30 318 H 25.8139 -4.01535 4.29003 0
M  V30 319 H 27.3379 -4.79563 3.77957 0
M  V30 320 H 28.7519 -2.86023 4.96854 0
M  V30 321 H 27.1489 -2.3111 5.53812 0
M  V30 322 H 28.2189 -1.16833 4.70615 0
M  V30 323 N 29.562 -1.4872 -0.521534 0
M  V30 324 C 30.811 -1.56419 -1.27341 0
M  V30 325 C 31.124 -0.246805 -1.94037 0
M  V30 326 O 32.33 -0.202122 -2.70747 0
M  V30 327 C 30.786 -2.75896 -2.31105 0
M  V30 328 C 30.394 -4.14311 -1.70441 0
M  V30 329 C 32.138 -2.92913 -3.07249 0
M  V30 330 C 30.045 -5.25038 -2.72194 0
M  V30 331 H 28.975 -0.582344 -0.478949 0
M  V30 332 H 31.626 -1.75071 -0.549779 0
M  V30 333 H 30.008 -2.50697 -3.06541 0
M  V30 334 H 31.182 -4.49564 -1.01136 0
M  V30 335 H 29.497 -4.02482 -1.06759 0
M  V30 336 H 32.094 -3.72805 -3.83302 0
M  V30 337 H 32.437 -2.02689 -3.63625 0
M  V30 338 H 32.97 -3.18054 -2.38928 0
M  V30 339 H 29.709 -6.17255 -2.20627 0
M  V30 340 H 29.229 -4.94263 -3.39801 0
M  V30 341 H 30.908 -5.53508 -3.35019 0
M  V30 342 N 31.0401 0.771051 -1.3745 0
M  V30 343 C 31.9721 1.89352 -1.29146 0
M  V30 344 C 32.9851 1.61477 -0.207124 0
M  V30 345 O 34.1741 1.72382 -0.463324 0
M  V30 346 C 31.2741 3.24596 -0.974195 0
M  V30 347 C 30.4471 3.80111 -2.16413 0
M  V30 348 C 29.5061 4.93832 -1.81703 0
M  V30 349 O 28.5321 5.09382 -2.54006 0
M  V30 350 N 29.7341 5.75483 -0.761573 0
M  V30 351 H 32.4991 1.96991 -2.25864 0
M  V30 352 H 30.0601 0.950191 -1.31084 0
M  V30 353 H 32.0521 3.98193 -0.722828 0
M  V30 354 H 30.6221 3.12454 -0.0955527 0
M  V30 355 H 29.8421 2.98284 -2.57721 0
M  V30 356 H 31.1301 4.13932 -2.95867 0
M  V30 357 H 30.5281 5.65469 -0.161609 0
M  V30 358 H 29.0851 6.49302 -0.570064 0
M  V30 359 N 32.5182 1.22032 0.997298 0
M  V30 360 C 33.4652 0.986467 2.08656 0
M  V30 361 C 34.4352 -0.0902671 1.65855 0
M  V30 362 O 35.6202 0.0584294 1.90711 0
M  V30 363 C 32.7602 0.565569 3.40434 0
M  V30 364 C 31.8732 1.71259 3.96604 0
M  V30 365 C 31.0082 1.24011 5.16522 0
M  V30 366 C 30.0472 2.35896 5.64818 0
M  V30 367 N 29.1842 1.89726 6.7598 0
M  V30 368 H 34.0242 1.91892 2.27994 0
M  V30 369 H 31.5612 0.956199 1.11782 0
M  V30 370 H 33.5192 0.302738 4.161 0
M  V30 371 H 32.1492 -0.329879 3.2111 0
M  V30 372 H 31.2012 2.08986 3.17851 0
M  V30 373 H 32.5132 2.55436 4.28432 0
M  V30 374 H 31.6672 0.934395 5.99461 0
M  V30 375 H 30.4062 0.368487 4.86306 0
M  V30 376 H 29.4112 2.67261 4.8047 0
M  V30 377 H 30.6362 3.23567 5.97061 0
M  V30 378 H 28.5822 1.0492 6.47555 0
M  V30 379 H 28.4992 2.67471 7.07103 0
M  V30 380 H 29.7672 1.62211 7.62435 0
M  V30 381 N 33.9963 -1.19345 1.0293 0
M  V30 382 C 35.2453 -1.88363 0.721256 0
M  V30 383 C 35.5583 -1.80514 -0.753254 0
M  V30 384 O 36.7643 -2.44788 -1.17436 0
M  V30 385 C 35.2203 -3.37872 1.23978 0
M  V30 386 C 34.8283 -3.54278 2.74211 0
M  V30 387 C 36.5723 -4.12365 1.00775 0
M  V30 388 C 34.4793 -4.97682 3.19479 0
M  V30 389 H 33.4093 -0.705484 0.266098 0
M  V30 390 H 36.0603 -1.34928 1.24365 0
M  V30 391 H 34.4423 -3.90707 0.6453 0
M  V30 392 H 35.6163 -3.11769 3.39318 0
M  V30 393 H 33.9313 -2.93174 2.95699 0
M  V30 394 H 36.5283 -5.18119 1.32123 0
M  V30 395 H 36.8713 -4.16263 -0.0554308 0
M  V30 396 H 37.4043 -3.65668 1.56625 0
M  V30 397 H 34.1433 -4.98945 4.25128 0
M  V30 398 H 33.6633 -5.4095 2.591 0
M  V30 399 H 35.3423 -5.66337 3.12845 0
M  V30 400 N 35.4744 -0.807222 -1.35358 0
M  V30 401 C 36.4224 -0.20614 -2.31685 0
M  V30 402 C 37.4164 0.644445 -1.56663 0
M  V30 403 O 38.6224 0.537538 -1.71786 0
M  V30 404 H 34.9974 -0.0479006 -0.750473 0
M  V30 405 H 36.9684 -1.03369 -2.79924 0
M  V30 406 C 35.7174 0.630212 -3.41941 0
M  V30 407 H 35.0404 -0.0149558 -3.99797 0
M  V30 408 H 36.4804 1.01716 -4.11619 0
M  V30 409 C 34.9394 1.79601 -2.85035 0
M  V30 410 O 35.4694 2.89351 -2.78637 0
M  V30 411 N 33.6754 1.60774 -2.42074 0
M  V30 412 H 33.2224 0.715009 -2.47478 0
M  V30 413 H 33.1804 2.38933 -2.04349 0
M  V30 414 N 36.9525 1.47285 -0.560781 0
M  V30 415 C 37.9025 2.27073 0.205384 0
M  V30 416 C 38.8865 1.34569 0.882044 0
M  V30 417 O 40.0785 1.58899 0.77976 0
M  V30 418 C 37.2075 3.20414 1.23247 0
M  V30 419 C 36.2935 4.20399 0.559041 0
M  V30 420 N 36.6845 5.04423 -0.372927 0
M  V30 421 C 34.9825 4.38536 0.812522 0
M  V30 422 C 35.6835 5.76655 -0.764446 0
M  V30 423 N 34.6595 5.43471 -0.11848 0
M  V30 424 H 38.4615 2.89422 -0.511117 0
M  V30 425 H 35.9755 1.57868 -0.380975 0
M  V30 426 H 37.9725 3.76262 1.79534 0
M  V30 427 H 36.6325 2.59623 1.95002 0
M  V30 428 H 37.6435 5.1248 -0.747287 0
M  V30 429 H 34.3205 3.88913 1.51832 0
M  V30 430 H 35.7105 6.54238 -1.53045 0
M  V30 431 N 38.4306 0.297415 1.54768 0
M  V30 432 C 39.8466 -0.0560823 1.59501 0
M  V30 433 C 40.0466 -1.52725 1.31444 0
M  V30 434 O 39.1026 -2.27947 1.08611 0
M  V30 435 C 40.4156 0.338631 2.98787 0
M  V30 436 C 41.9636 0.287097 3.11681 0
M  V30 437 C 42.4386 0.656579 4.53269 0
M  V30 438 N 43.9296 0.608977 4.59179 0
M  V30 439 C 44.6646 0.867385 5.66802 0
M  V30 440 N 44.1606 1.19157 6.82476 0
M  V30 441 N 45.9536 0.794687 5.56454 0
M  V30 442 H 38.1046 1.25624 1.71267 0
M  V30 443 H 40.3676 0.509057 0.799728 0
M  V30 444 H 40.0736 1.36263 3.2423 0
M  V30 445 H 39.9476 -0.309508 3.75928 0
M  V30 446 H 42.3346 -0.727649 2.85988 0
M  V30 447 H 42.4156 0.969809 2.36703 0
M  V30 448 H 42.0596 1.66912 4.7969 0
M  V30 449 H 41.9896 -0.0481649 5.26578 0
M  V30 450 H 44.4806 0.369198 3.76092 0
M  V30 451 H 44.7936 1.37482 7.60473 0
M  V30 452 H 43.1386 1.22958 6.84037 0
M  V30 453 H 46.3296 0.541098 4.64962 0
M  V30 454 H 46.5026 0.999445 6.40246 0
M  V30 455 N 39.9087 -1.5758 0.0250728 0
M  V30 456 C 41.1577 -1.90811 -0.653767 0
M  V30 457 C 41.4707 -0.90273 -1.73523 0
M  V30 458 O 42.6767 -1.12614 -2.47043 0
M  V30 459 C 41.1327 -3.38804 -1.21409 0
M  V30 460 C 40.7407 -4.47692 -0.166126 0
M  V30 461 C 42.4847 -3.81108 -1.86967 0
M  V30 462 C 40.3917 -5.86779 -0.737856 0
M  V30 463 H 39.3217 -0.712063 -0.247956 0
M  V30 464 H 41.9727 -1.83281 0.0897137 0
M  V30 465 H 40.3547 -3.41252 -2.00905 0
M  V30 466 H 41.5287 -4.56797 0.606079 0
M  V30 467 H 39.8437 -4.14565 0.390466 0
M  V30 468 H 42.4407 -4.82375 -2.30692 0
M  V30 469 H 42.7837 -3.15953 -2.71071 0
M  V30 470 H 43.3167 -3.81065 -1.14167 0
M  V30 471 H 40.0557 -6.55468 0.0649577 0
M  V30 472 H 39.5757 -5.81288 -1.47864 0
M  V30 473 H 41.2547 -6.35223 -1.22884 0
M  V30 474 N 41.3868 0.248026 -1.55636 0
M  V30 475 C 42.6638 0.998988 -1.68165 0
M  V30 476 C 43.0438 2.03409 -0.564621 0
M  V30 477 O 42.3918 2.24378 0.432076 0
M  V30 478 C 42.6018 1.63334 -3.0842 0
M  V30 479 C 43.9498 2.13562 -3.66983 0
M  V30 480 O 44.9738 1.73277 -3.11213 0
M  V30 481 O 43.8328 2.87526 -4.64749 0
M  V30 482 H 40.9268 0.464933 -0.683935 0
M  V30 483 H 43.4728 0.241902 -1.67967 0
M  V30 484 H 42.2448 0.884583 -3.8117 0
M  V30 485 H 41.8678 2.45666 -3.12624 0
M  V30 486 N 42.8649 1.48995 0.513639 0
M  V30 487 C 43.8279 1.64229 1.59879 0
M  V30 488 C 44.8279 0.514696 1.5234 0
M  V30 489 O 46.0179 0.78087 1.55718 0
M  V30 490 C 43.1499 1.62783 2.99524 0
M  V30 491 H 44.3429 2.61004 1.47705 0
M  V30 492 H 41.8959 1.37837 0.736936 0
M  V30 493 H 42.6309 0.675461 3.17188 0
M  V30 494 H 42.4159 2.4466 3.06404 0
M  V30 495 H 43.9059 1.76669 3.78388 0
M  V30 496 N 44.343 -0.763751 1.37857 0
M  V30 497 C 45.592 -1.51789 1.32827 0
M  V30 498 C 45.905 -1.95426 -0.0823719 0
M  V30 499 O 47.111 -2.70298 -0.255172 0
M  V30 500 C 45.567 -2.74133 2.33193 0
M  V30 501 C 45.175 -2.37562 3.79827 0
M  V30 502 C 46.919 -3.52054 2.37188 0
M  V30 503 C 44.826 -3.56456 4.71904 0
M  V30 504 H 43.756 -0.569896 0.493695 0
M  V30 505 H 46.407 -0.835822 1.63359 0
M  V30 506 H 44.789 -3.4427 1.9569 0
M  V30 507 H 45.963 -1.75157 4.26212 0
M  V30 508 H 44.278 -1.72798 3.78853 0
M  V30 509 H 46.875 -4.40437 3.03182 0
M  V30 510 H 47.218 -3.92486 1.38782 0
M  V30 511 H 47.751 -2.88921 2.7344 0
M  V30 512 H 44.49 -3.21099 5.71468 0
M  V30 513 H 44.01 -4.17938 4.30218 0
M  V30 514 H 45.689 -4.23168 4.89426 0
M  V30 515 N 45.8211 -1.22559 -0.990812 0
M  V30 516 C 47.0981 -0.959875 -1.70428 0
M  V30 517 C 47.4781 0.524455 -2.04481 0
M  V30 518 O 46.8261 1.49302 -1.72977 0
M  V30 519 C 47.0361 -1.85955 -2.95333 0
M  V30 520 C 48.3841 -2.11687 -3.68068 0
M  V30 521 O 49.4081 -1.8342 -3.05345 0
M  V30 522 O 48.2671 -2.59572 -4.80921 0
M  V30 523 H 45.3611 -0.361154 -0.743974 0
M  V30 524 H 47.9071 -1.33554 -1.04697 0
M  V30 525 H 46.6791 -2.86346 -2.66687 0
M  V30 526 H 46.3021 -1.4856 -3.68803 0
M  V30 527 N 47.2992 1.18797 -1.03562 0
M  V30 528 C 48.5452 1.8893 -0.737113 0
M  V30 529 C 48.8782 1.79837 0.732956 0
M  V30 530 O 48.1532 1.19525 1.5344 0
M  V30 531 C 48.4362 3.39607 -1.19745 0
M  V30 532 C 48.2892 3.57537 -2.72924 0
M  V30 533 C 49.6082 4.33069 -0.783526 0
M  V30 534 H 46.7272 0.686057 -0.269249 0
M  V30 535 H 49.3692 1.39797 -1.28673 0
M  V30 536 H 47.5192 3.81583 -0.729855 0
M  V30 537 H 49.1912 3.24688 -3.27682 0
M  V30 538 H 47.4342 3.00363 -3.12993 0
M  V30 539 H 48.1052 4.63238 -3.00191 0
M  V30 540 H 50.5812 3.98846 -1.18581 0
M  V30 541 H 49.4572 5.3707 -1.13343 0
M  V30 542 H 49.7182 4.40986 0.313681 0
M  V30 543 N 48.7773 0.814389 1.34928 0
M  V30 544 C 49.7073 0.244827 2.32213 0
M  V30 545 C 50.6883 -0.634024 1.57842 0
M  V30 546 O 51.8733 -0.562676 1.8587 0
M  V30 547 C 49.0033 -0.601106 3.42058 0
M  V30 548 C 47.9573 0.179896 4.27622 0
M  V30 549 C 47.2833 -0.788237 5.28858 0
M  V30 550 C 48.5833 1.38329 5.03649 0
M  V30 551 H 50.2773 1.05763 2.80097 0
M  V30 552 H 47.8233 0.510029 1.34665 0
M  V30 553 H 49.7763 -1.00968 4.09125 0
M  V30 554 H 48.5003 -1.44688 2.92802 0
M  V30 555 H 47.1593 0.569739 3.62146 0
M  V30 556 H 46.8073 -1.62973 4.75866 0
M  V30 557 H 46.5073 -0.269942 5.8698 0
M  V30 558 H 48.0313 -1.19485 5.98795 0
M  V30 559 H 49.4453 1.04918 5.63618 0
M  V30 560 H 47.8423 1.83662 5.71304 0
M  V30 561 H 48.9123 2.16592 4.33839 0
M  V30 562 N 50.2554 -1.46986 0.568584 0
M  V30 563 C 51.1654 -2.33942 -0.17555 0
M  V30 564 C 52.1814 -1.48891 -0.90041 0
M  V30 565 O 53.3574 -1.81794 -0.86676 0
M  V30 566 C 50.4224 -3.25811 -1.18524 0
M  V30 567 C 49.4834 -4.26757 -0.466582 0
M  V30 568 C 48.7164 -5.14236 -1.42817 0
M  V30 569 O 48.9394 -5.04379 -2.66379 0
M  V30 570 O 47.8734 -5.94412 -0.946453 0
M  V30 571 H 51.6994 -2.98896 0.538036 0
M  V30 572 H 49.2844 -1.4573 0.329097 0
M  V30 573 H 51.1664 -3.82527 -1.76779 0
M  V30 574 H 49.8414 -2.63471 -1.88055 0
M  V30 575 H 48.7484 -3.73769 0.157451 0
M  V30 576 H 50.0814 -4.91843 0.187485 0
M  V30 577 N 51.7335 -0.305618 -1.54608 0
M  V30 578 C 52.6635 0.561482 -2.26649 0
M  V30 579 C 53.6445 1.13415 -1.26772 0
M  V30 580 O 54.8295 1.16262 -1.55553 0
M  V30 581 C 51.9595 1.73122 -3.01075 0
M  V30 582 C 50.9135 1.2887 -4.08138 0
M  V30 583 C 50.2395 2.54396 -4.70305 0
M  V30 584 C 51.5395 0.416578 -5.20636 0
M  V30 585 H 53.2335 -0.0393902 -2.99374 0
M  V30 586 H 50.7795 -0.020385 -1.43986 0
M  V30 587 H 52.7325 2.34396 -3.50195 0
M  V30 588 H 51.4565 2.3584 -2.25936 0
M  V30 589 H 50.1155 0.698991 -3.59875 0
M  V30 590 H 49.7635 3.15439 -3.918 0
M  V30 591 H 49.4635 2.25486 -5.42614 0
M  V30 592 H 50.9875 3.16464 -5.2219 0
M  V30 593 H 52.4015 0.935116 -5.65622 0
M  V30 594 H 50.7985 0.221046 -5.99693 0
M  V30 595 H 51.8685 -0.557162 -4.81688 0
M  V30 596 N 53.2116 1.57565 -0.0334293 0
M  V30 597 C 54.6276 1.56297 0.322997 0
M  V30 598 C 54.8276 1.03945 1.7262 0
M  V30 599 O 53.8836 0.688109 2.42943 0
M  V30 600 C 55.1966 3.00232 0.167664 0
M  V30 601 C 56.7446 3.12078 0.240107 0
M  V30 602 C 57.2196 4.57859 0.113513 0
M  V30 603 N 58.7106 4.62887 0.170359 0
M  V30 604 C 59.4456 5.73319 0.0962517 0
M  V30 605 N 58.9416 6.92794 -0.0291881 0
M  V30 606 N 60.7346 5.61898 0.150551 0
M  V30 607 H 52.8856 1.89923 -0.950956 0
M  V30 608 H 55.1486 0.873824 -0.367608 0
M  V30 609 H 54.8546 3.42501 -0.799102 0
M  V30 610 H 54.7286 3.654 0.936083 0
M  V30 611 H 57.1156 2.69718 1.19733 0
M  V30 612 H 57.1966 2.49623 -0.558763 0
M  V30 613 H 56.8406 5.009 -0.840314 0
M  V30 614 H 56.7706 5.18299 0.931302 0
M  V30 615 H 59.2616 3.76954 0.26728 0
M  V30 616 H 59.5746 7.7276 -0.0789252 0
M  V30 617 H 57.9196 6.94971 -0.0640299 0
M  V30 618 H 61.1106 4.67448 0.246981 0
M  V30 619 H 61.2836 6.47938 0.0893365 0
M  V30 620 N 54.6897 -0.239769 1.55765 0
M  V30 621 C 55.9387 -0.964754 1.77131 0
M  V30 622 C 56.2517 -1.86213 0.59868 0
M  V30 623 O 57.4577 -2.6244 0.695522 0
M  V30 624 C 55.9137 -1.76552 3.1362 0
M  V30 625 C 55.5217 -0.915185 4.38553 0
M  V30 626 C 57.2657 -2.48281 3.44321 0
M  V30 627 C 55.1727 -1.71225 5.66071 0
M  V30 628 H 54.1027 -0.363953 0.660344 0
M  V30 629 H 56.7537 -0.219181 1.82186 0
M  V30 630 H 55.1357 -2.55331 3.02691 0
M  V30 631 H 56.3097 -0.169217 4.60489 0
M  V30 632 H 54.6247 -0.310889 4.15238 0
M  V30 633 H 57.2217 -3.08382 4.36812 0
M  V30 634 H 57.5647 -3.20256 2.65973 0
M  V30 635 H 58.0977 -1.76507 3.56497 0
M  V30 636 H 54.8367 -1.03612 6.4726 0
M  V30 637 H 54.3567 -2.43331 5.48224 0
M  V30 638 H 56.0357 -2.27758 6.05587 0
M  V30 639 N 56.1678 -1.49265 -0.50573 0
M  V30 640 C 57.4448 -1.49012 -1.26707 0
M  V30 641 C 57.8248 -0.215205 -2.1 0
M  V30 642 O 57.1728 0.802547 -2.13943 0
M  V30 643 C 57.3828 -2.7663 -2.12783 0
M  V30 644 C 58.7308 -3.25932 -2.72127 0
M  V30 645 O 59.7548 -2.77715 -2.23054 0
M  V30 646 O 58.6138 -4.09897 -3.61451 0
M  V30 647 H 55.7078 -0.596197 -0.57313 0
M  V30 648 H 58.2538 -1.61524 -0.52039 0
M  V30 649 H 57.0258 -3.60916 -1.5118 0
M  V30 650 H 56.6488 -2.66956 -2.94653 0
M  V30 651 N 57.6459 0.756429 -1.3826 0
M  V30 652 C 58.5779 1.87971 -1.31147 0
M  V30 653 C 59.5909 1.61248 -0.224239 0
M  V30 654 O 60.7799 1.71881 -0.481581 0
M  V30 655 C 57.8799 3.23545 -1.00857 0
M  V30 656 C 57.0529 3.77794 -2.20432 0
M  V30 657 C 56.1119 4.91877 -1.86931 0
M  V30 658 O 55.1379 5.06659 -2.59395 0
M  V30 659 N 56.3399 5.74643 -0.822568 0
M  V30 660 H 59.1049 1.94585 -2.2794 0
M  V30 661 H 56.6659 0.936234 -1.32084 0
M  V30 662 H 58.6579 3.97403 -0.765021 0
M  V30 663 H 57.2279 3.12335 -0.128687 0
M  V30 664 H 56.4479 2.95534 -2.6087 0
M  V30 665 H 57.7359 4.10771 -3.00241 0
M  V30 666 H 57.1339 5.65266 -0.221575 0
M  V30 667 H 55.6909 6.48661 -0.638899 0
M  V30 668 N 59.124 1.23083 0.984299 0
M  V30 669 C 60.371 1.06057 1.72505 0
M  V30 670 C 60.699 -0.403105 1.90277 0
M  V30 671 O 59.954 -1.3149 1.44944 0
M  V30 672 C 60.253 1.72673 3.1292 0
M  V30 673 C 59.919 3.22586 3.15038 0
M  V30 674 C 58.581 3.63489 3.15324 0
M  V30 675 C 60.933 4.185 3.10657 0
M  V30 676 C 58.261 4.98772 3.08939 0
M  V30 677 C 60.613 5.53769 3.05814 0
M  V30 678 C 59.277 5.94041 3.04419 0
M  V30 679 H 58.547 0.388091 0.631242 0
M  V30 680 H 61.194 1.52963 1.15215 0
M  V30 681 H 59.499 1.18116 3.73572 0
M  V30 682 H 61.196 1.56982 3.68996 0
M  V30 683 H 57.786 2.90022 3.15571 0
M  V30 684 H 61.97 3.87911 3.09579 0
M  V30 685 H 57.226 5.29193 3.0621 0
M  V30 686 H 61.4 6.27808 3.0138 0
M  V30 687 H 59.027 6.98833 2.99227 0
M  V30 688 N 60.6021 -1.18246 1.0419 0
M  V30 689 C 61.5121 -2.25574 0.644476 0
M  V30 690 C 62.5281 -1.70845 -0.329826 0
M  V30 691 O 63.7041 -2.00554 -0.184443 0
M  V30 692 C 60.7691 -3.46697 0.014877 0
M  V30 693 C 59.8301 -4.16554 1.03834 0
M  V30 694 C 59.0631 -5.31894 0.438692 0
M  V30 695 O 59.2861 -5.65385 -0.754752 0
M  V30 696 O 58.2201 -5.90459 1.168 0
M  V30 697 H 62.0461 -2.61836 1.53869 0
M  V30 698 H 59.6311 -1.25352 0.812854 0
M  V30 699 H 61.5131 -4.20062 -0.335538 0
M  V30 700 H 60.1881 -3.12255 -0.853138 0
M  V30 701 H 59.0951 -3.45251 1.44057 0
M  V30 702 H 60.4281 -4.54998 1.87716 0
M  V30 703 N 62.0802 -0.821533 -1.34494 0
M  V30 704 C 63.0282 -0.230702 -2.31453 0
M  V30 705 C 64.0222 0.627793 -1.57338 0
M  V30 706 O 65.2282 0.519288 -1.72347 0
M  V30 707 H 61.6032 -0.0558577 -0.749923 0
M  V30 708 H 63.5742 -1.06332 -2.78812 0
M  V30 709 C 62.3232 0.59391 -3.4259 0
M  V30 710 H 61.6462 -0.0573588 -3.99759 0
M  V30 711 H 63.0862 0.973446 -4.12674 0
M  V30 712 C 61.5452 1.76568 -2.86924 0
M  V30 713 O 62.0752 2.8638 -2.81691 0
M  V30 714 N 60.2812 1.58198 -2.43766 0
M  V30 715 H 59.8282 0.68872 -2.48222 0
M  V30 716 H 59.7862 2.36752 -2.06871 0
M  V30 717 N 63.5583 1.46682 -0.576371 0
M  V30 718 C 64.8043 2.02712 -0.0596221 0
M  V30 719 C 65.1373 1.44765 1.29448 0
M  V30 720 O 64.4123 0.610355 1.84675 0
M  V30 721 C 64.6953 3.60098 0.0129503 0
M  V30 722 C 64.5483 4.28441 -1.3696 0
M  V30 723 C 65.8673 4.34224 0.71678 0
M  V30 724 H 62.9863 0.736637 -0.0231407 0
M  V30 725 H 65.6283 1.74898 -0.742351 0
M  V30 726 H 63.7783 3.83926 0.594378 0
M  V30 727 H 65.4503 4.15896 -1.9957 0
M  V30 728 H 63.6933 3.8805 -1.93907 0
M  V30 729 H 64.3643 5.3716 -1.27135 0
M  V30 730 H 66.8403 4.15503 0.222908 0
M  V30 731 H 65.7163 5.43936 0.73657 0
M  V30 732 H 65.9773 4.04823 1.77682 0
M  V30 733 N 65.0364 0.313813 1.54444 0
M  V30 734 C 66.2644 -0.293918 2.04802 0
M  V30 735 C 66.6794 -1.46537 1.19047 0
M  V30 736 O 66.0364 -1.81182 0.218939 0
M  V30 737 C 66.0874 -0.737806 3.53891 0
M  V30 738 O 65.8084 0.387038 4.36387 0
M  V30 739 C 67.3094 -1.40936 4.203 0
M  V30 740 H 64.5294 -0.0620057 0.668129 0
M  V30 741 H 67.0734 0.457169 1.99324 0
M  V30 742 H 65.2284 -1.43889 3.59687 0
M  V30 743 H 65.6424 0.0391274 5.24485 0
M  V30 744 H 67.1164 -1.67099 5.26101 0
M  V30 745 H 67.5934 -2.35355 3.70816 0
M  V30 746 H 68.1994 -0.751117 4.18615 0
M  V30 747 N 66.5145 -1.57545 0.0417849 0
M  V30 748 C 67.7605 -1.92601 -0.635021 0
M  V30 749 C 68.0935 -0.919627 -1.71045 0
M  V30 750 O 67.3685 0.0557892 -1.9442 0
M  V30 751 C 67.6515 -3.38085 -1.23979 0
M  V30 752 C 67.5045 -4.49467 -0.173057 0
M  V30 753 C 68.8235 -3.83776 -2.15416 0
M  V30 754 H 65.9425 -0.700397 -0.229374 0
M  V30 755 H 68.5845 -1.89728 0.101633 0
M  V30 756 H 66.7345 -3.40664 -1.86762 0
M  V30 757 H 68.4065 -4.59018 0.458312 0
M  V30 758 H 66.6495 -4.30909 0.499996 0
M  V30 759 H 67.3205 -5.48323 -0.636054 0
M  V30 760 H 69.7965 -3.83013 -1.62605 0
M  V30 761 H 68.6725 -4.8624 -2.54679 0
M  V30 762 H 68.9335 -3.19998 -3.05047 0
M  V30 763 N 67.9926 0.231505 -1.5589 0
M  V30 764 C 69.2696 0.981096 -1.69215 0
M  V30 765 C 69.6496 2.02799 -0.586164 0
M  V30 766 O 68.9976 2.24823 0.408253 0
M  V30 767 C 69.2076 1.60054 -3.10135 0
M  V30 768 C 70.5556 2.09658 -3.69227 0
M  V30 769 O 71.5796 1.69967 -3.13033 0
M  V30 770 O 70.4386 2.8258 -4.67772 0
M  V30 771 H 67.5326 0.457653 -0.688827 0
M  V30 772 H 70.0786 0.224073 -1.68214 0
M  V30 773 H 68.8506 0.844105 -3.82087 0
M  V30 774 H 68.4736 2.42336 -3.15212 0
M  V30 775 N 69.4707 1.49531 0.497807 0
M  V30 776 C 70.4027 1.62559 1.61578 0
M  V30 777 C 71.4157 0.508134 1.54667 0
M  V30 778 O 72.6047 0.780309 1.60541 0
M  V30 779 C 69.7047 1.56925 3.00379 0
M  V30 780 C 68.8777 2.84257 3.3244 0
M  V30 781 C 67.9367 2.71632 4.50669 0
M  V30 782 O 66.9627 3.4557 4.52294 0
M  V30 783 N 68.1647 1.83391 5.5077 0
M  V30 784 H 70.9297 2.58981 1.50828 0
M  V30 785 H 68.4907 1.4666 0.685743 0
M  V30 786 H 70.4827 1.46129 3.77397 0
M  V30 787 H 69.0527 0.683483 3.05037 0
M  V30 788 H 68.2727 3.09381 2.44289 0
M  V30 789 H 69.5607 3.68666 3.5066 0
M  V30 790 H 68.9587 1.22583 5.52259 0
M  V30 791 H 67.5157 1.78515 6.26878 0
M  V30 792 N 70.9488 -0.749086 1.3866 0
M  V30 793 C 72.1948 -1.51056 1.35314 0
M  V30 794 C 72.5278 -1.94121 -0.0553751 0
M  V30 795 O 71.8028 -1.65763 -1.01749 0
M  V30 796 C 72.0858 -2.76003 2.31288 0
M  V30 797 C 71.9388 -2.39047 3.8102 0
M  V30 798 C 73.2578 -3.78046 2.2532 0
M  V30 799 H 70.3768 -0.547972 0.492844 0
M  V30 800 H 73.0188 -0.857628 1.69543 0
M  V30 801 H 71.1688 -3.31716 2.02229 0
M  V30 802 H 72.8408 -1.89074 4.20771 0
M  V30 803 H 71.0838 -1.71449 3.98482 0
M  V30 804 H 71.7548 -3.28462 4.4364 0
M  V30 805 H 74.2308 -3.31884 2.50983 0
M  V30 806 H 73.1068 -4.63159 2.94576 0
M  V30 807 H 73.3678 -4.23957 1.25352 0
M  V30 808 N 72.4269 -1.23603 -0.977757 0
M  V30 809 C 73.3899 -1.02069 -2.05218 0
M  V30 810 C 74.3899 0.0184305 -1.60789 0
M  V30 811 O 75.5799 -0.221569 -1.72785 0
M  V30 812 C 72.7119 -0.544926 -3.36517 0
M  V30 813 H 73.9049 -1.9742 -2.25755 0
M  V30 814 H 71.4579 -1.05684 -1.15155 0
M  V30 815 H 72.1929 0.412241 -3.21669 0
M  V30 816 H 71.9779 -1.2948 -3.70105 0
M  V30 817 H 73.4679 -0.414985 -4.15533 0
M  V30 818 N 73.905 1.17692 -1.04816 0
M  V30 819 C 74.815 2.25229 -0.65643 0
M  V30 820 C 75.831 1.71018 0.320761 0
M  V30 821 O 77.007 2.00649 0.173805 0
M  V30 822 C 74.072 3.46684 -0.0332629 0
M  V30 823 C 73.133 4.15997 -1.06042 0
M  V30 824 C 72.366 5.31654 -0.466893 0
M  V30 825 O 72.589 5.65777 0.724758 0
M  V30 826 O 71.523 5.89831 -1.1993 0
M  V30 827 H 75.349 2.61016 -1.55255 0
M  V30 828 H 72.934 1.24919 -0.81949 0
M  V30 829 H 74.816 4.20234 0.313256 0
M  V30 830 H 73.491 3.12703 0.836566 0
M  V30 831 H 72.398 3.44482 -1.45886 0
M  V30 832 H 73.731 4.53996 -1.90127 0
M  V30 833 N 75.3831 0.828654 1.34056 0
M  V30 834 C 76.3161 0.199763 2.27324 0
M  V30 835 C 77.2941 -0.647168 1.49166 0
M  V30 836 O 78.4781 -0.609661 1.78369 0
M  V30 837 C 75.6051 -0.720455 3.30949 0
M  V30 838 C 74.6511 0.0496888 4.26471 0
M  V30 839 S 75.4841 1.40072 5.16856 0
M  V30 840 C 76.6401 0.485527 6.24014 0
M  V30 841 H 76.8731 0.990478 2.80316 0
M  V30 842 H 74.4061 0.624857 1.41191 0
M  V30 843 H 76.3641 -1.24581 3.91139 0
M  V30 844 H 75.0251 -1.48474 2.76793 0
M  V30 845 H 74.2181 -0.650104 4.9979 0
M  V30 846 H 73.8201 0.505779 3.70564 0
M  V30 847 H 76.1121 -0.320672 6.76741 0
M  V30 848 H 77.0551 1.18856 6.98054 0
M  V30 849 H 77.4631 0.0714109 5.64455 0
M  V30 850 N 76.8612 -1.46375 0.584142 0
M  V30 851 C 78.1102 -2.01585 0.0679741 0
M  V30 852 C 78.4232 -1.46109 -1.30045 0
M  V30 853 O 79.6292 -1.93148 -1.90804 0
M  V30 854 C 78.0852 -3.5983 0.0709207 0
M  V30 855 C 77.6932 -4.24303 1.43775 0
M  V30 856 C 79.4372 -4.22693 -0.391228 0
M  V30 857 C 77.3442 -5.74631 1.39834 0
M  V30 858 H 76.2742 -0.753689 0.0216421 0
M  V30 859 H 78.9252 -1.68093 0.736001 0
M  V30 860 H 77.3072 -3.90405 -0.663299 0
M  V30 861 H 78.4812 -4.05335 2.19181 0
M  V30 862 H 76.7962 -3.73539 1.84004 0
M  V30 863 H 79.3932 -5.3289 -0.439524 0
M  V30 864 H 79.7362 -3.91728 -1.40906 0
M  V30 865 H 80.2692 -3.96749 0.288974 0
M  V30 866 H 77.0082 -6.10258 2.39303 0
M  V30 867 H 76.5282 -5.95858 0.686505 0
M  V30 868 H 78.2072 -6.37375 1.11187 0
M  V30 869 N 78.3393 -0.321999 -1.54275 0
M  V30 870 C 79.5673 0.283052 -2.04955 0
M  V30 871 C 79.9823 1.45904 -1.19823 0
M  V30 872 O 79.3393 1.81063 -0.228545 0
M  V30 873 C 79.3903 0.719028 -3.54277 0
M  V30 874 O 79.1113 -0.410175 -4.36176 0
M  V30 875 C 80.6123 1.38705 -4.21041 0
M  V30 876 H 77.8323 0.0584616 -0.668448 0
M  V30 877 H 80.3763 -0.467734 -1.99079 0
M  V30 878 H 78.5313 1.41979 -3.60445 0
M  V30 879 H 78.9453 -0.0669416 -5.24457 0
M  V30 880 H 80.4193 1.64306 -5.2698 0
M  V30 881 H 80.8963 2.33385 -3.72059 0
M  V30 882 H 81.5023 0.728906 -4.19007 0
M  V30 883 N 79.8174 1.5752 -0.0501392 0
M  V30 884 C 80.7644 2.1147 0.924603 0
M  V30 885 C 81.7344 1.02182 1.30951 0
M  V30 886 O 82.9194 1.29723 1.39916 0
M  V30 887 C 80.0594 2.66337 2.19451 0
M  V30 888 C 79.1724 3.89708 1.86418 0
M  V30 889 C 78.3074 4.32893 3.07859 0
M  V30 890 C 77.3464 5.48967 2.70742 0
M  V30 891 N 76.4834 5.87211 3.84874 0
M  V30 892 H 81.3234 2.94465 0.457639 0
M  V30 893 H 78.8604 1.45531 0.214266 0
M  V30 894 H 80.8184 2.96247 2.93758 0
M  V30 895 H 79.4484 1.86141 2.63726 0
M  V30 896 H 78.5004 3.66396 1.02264 0
M  V30 897 H 79.8124 4.74074 1.55096 0
M  V30 898 H 78.9664 4.6435 3.90466 0
M  V30 899 H 77.7054 3.47336 3.42358 0
M  V30 900 H 76.7104 5.17183 1.86551 0
M  V30 901 H 77.9354 6.3624 2.37436 0
M  V30 902 H 75.8814 5.04607 4.19175 0
M  V30 903 H 75.7984 6.66266 3.57247 0
M  V30 904 H 77.0664 6.23282 4.68123 0
M  V30 905 N 81.2955 -0.223234 1.56011 0
M  V30 906 C 82.2255 -1.27988 1.95298 0
M  V30 907 C 83.2065 -1.48976 0.820979 0
M  V30 908 O 84.3915 -1.61188 1.08315 0
M  V30 909 C 81.5215 -2.63 2.26822 0
M  V30 910 C 80.4755 -2.56671 3.42497 0
M  V30 911 C 79.8015 -3.95697 3.59622 0
M  V30 912 C 81.1015 -2.11601 4.77517 0
M  V30 913 H 82.7955 -0.953525 2.8381 0
M  V30 914 H 80.3415 -0.457244 1.36548 0
M  V30 915 H 82.2945 -3.37077 2.52898 0
M  V30 916 H 81.0185 -2.9732 1.35161 0
M  V30 917 H 79.6775 -1.85051 3.16467 0
M  V30 918 H 79.3255 -4.27322 2.6534 0
M  V30 919 H 79.0255 -3.92345 4.37424 0
M  V30 920 H 80.5495 -4.71438 3.88044 0
M  V30 921 H 81.9635 -2.7542 5.02809 0
M  V30 922 H 80.3605 -2.19311 5.5859 0
M  V30 923 H 81.4305 -1.06824 4.72987 0
M  V30 924 N 82.7736 -1.49793 -0.48987 0
M  V30 925 C 83.7206 -1.67281 -1.59014 0
M  V30 926 C 84.6906 -0.514177 -1.57941 0
M  V30 927 O 85.8756 -0.742533 -1.75759 0
M  V30 928 C 83.0156 -1.75569 -2.97102 0
M  V30 929 C 82.1286 -3.0281 -3.08107 0
M  V30 930 C 81.2636 -3.02008 -4.36995 0
M  V30 931 C 80.3026 -4.23782 -4.41673 0
M  V30 932 N 79.4396 -4.20826 -5.62005 0
M  V30 933 H 84.2796 -2.61224 -1.43409 0
M  V30 934 H 81.8166 -1.29508 -0.697565 0
M  V30 935 H 83.7746 -1.78354 -3.77155 0
M  V30 936 H 82.4046 -0.850827 -3.11385 0
M  V30 937 H 81.4566 -3.09584 -2.21047 0
M  V30 938 H 82.7686 -3.92801 -3.07423 0
M  V30 939 H 81.9226 -3.03418 -5.25378 0
M  V30 940 H 80.6616 -2.09815 -4.4026 0
M  V30 941 H 79.6666 -4.22604 -3.5169 0
M  V30 942 H 80.8916 -5.17181 -4.40115 0
M  V30 943 H 78.8376 -3.31476 -5.66091 0
M  V30 944 H 78.7546 -5.04564 -5.62984 0
M  V30 945 H 80.0226 -4.26355 -6.52565 0
M  V30 946 N 84.2517 0.741722 -1.39055 0
M  V30 947 C 85.4977 1.50336 -1.36113 0
M  V30 948 C 85.8307 1.94148 0.0450796 0
M  V30 949 O 85.1057 1.66301 1.00868 0
M  V30 950 C 85.3887 2.74773 -2.32749 0
M  V30 951 C 85.2417 2.37023 -3.82283 0
M  V30 952 C 86.5607 3.76846 -2.27322 0
M  V30 953 H 83.6797 0.545351 -0.495743 0
M  V30 954 H 86.3217 0.848624 -1.69995 0
M  V30 955 H 84.4717 3.30639 -2.03986 0
M  V30 956 H 86.1437 1.8684 -4.21768 0
M  V30 957 H 84.3867 1.69334 -3.99385 0
M  V30 958 H 85.0577 3.26104 -4.45376 0
M  V30 959 H 87.5337 3.30548 -2.5274 0
M  V30 960 H 86.4097 4.6159 -2.97028 0
M  V30 961 H 86.6707 4.23286 -1.27599 0
M  V30 962 N 85.7298 1.2412 0.971189 0
M  V30 963 C 86.6628 0.97373 2.06382 0
M  V30 964 C 87.6408 -0.0912662 1.62344 0
M  V30 965 O 88.8248 0.0449365 1.88446 0
M  V30 966 C 85.9518 0.468746 3.35441 0
M  V30 967 C 84.9978 1.52176 3.98428 0
M  V30 968 S 85.8308 3.10203 4.36503 0
M  V30 969 C 86.9868 2.61398 5.68702 0
M  V30 970 H 87.2198 1.89893 2.28753 0
M  V30 971 H 84.7528 1.07466 1.10862 0
M  V30 972 H 86.7108 0.184012 4.10087 0
M  V30 973 H 85.3718 -0.435688 3.11064 0
M  V30 974 H 84.5648 1.11876 4.91426 0
M  V30 975 H 84.1668 1.75632 3.30196 0
M  V30 976 H 86.4588 2.03992 6.4606 0
M  V30 977 H 87.4018 3.52972 6.13854 0
M  V30 978 H 87.8098 2.01941 5.27143 0
M  V30 979 N 87.2079 -1.17134 1.05439 0
M  V30 980 C 88.1399 -2.2078 0.615539 0
M  V30 981 C 89.1529 -1.59584 -0.322001 0
M  V30 982 O 90.3419 -1.78133 -0.114344 0
M  V30 983 C 87.4419 -3.38691 -0.118938 0
M  V30 984 C 86.6149 -4.29454 0.829924 0
M  V30 985 C 85.6739 -5.26024 0.136258 0
M  V30 986 O 84.6999 -5.63952 0.77115 0
M  V30 987 N 85.9019 -5.69487 -1.1254 0
M  V30 988 H 88.6669 -2.59052 1.50705 0
M  V30 989 H 86.2279 -1.32058 0.936603 0
M  V30 990 H 88.2199 -4.00329 -0.593179 0
M  V30 991 H 86.7899 -2.98996 -0.91215 0
M  V30 992 H 86.0099 -3.65211 1.48373 0
M  V30 993 H 87.2979 -4.86984 1.47392 0
M  V30 994 H 86.6959 -5.4075 -1.6615 0
M  V30 995 H 85.2529 -6.33257 -1.54366 0
M  V30 996 N 88.686 -0.835752 -1.33615 0
M  V30 997 C 89.963 -0.352017 -1.92406 0
M  V30 998 C 90.343 1.16225 -1.76224 0
M  V30 999 O 89.691 1.97526 -1.14873 0
M  V30 1000 C 89.901 -0.795485 -3.39813 0
M  V30 1001 C 91.249 -0.801703 -4.16963 0
M  V30 1002 O 92.273 -0.738889 -3.48452 0
M  V30 1003 O 91.132 -0.886607 -5.3926 0
M  V30 1004 H 88.226 -0.0989641 -0.821057 0
M  V30 1005 H 90.772 -0.921397 -1.42507 0
M  V30 1006 H 89.544 -1.83795 -3.45449 0
M  V30 1007 H 89.167 -0.202505 -3.97084 0
M  V30 1008 N 90.1641 1.46063 -0.591896 0
M  V30 1009 C 91.3891 2.07226 -0.0850314 0
M  V30 1010 C 91.8141 1.43625 1.21463 0
M  V30 1011 O 91.1721 0.523305 1.73583 0
M  V30 1012 C 91.2201 3.60554 0.0576567 0
M  V30 1013 O 90.3241 3.97128 1.11188 0
M  V30 1014 H 89.6651 0.660615 -0.0669568 0
M  V30 1015 H 92.1951 1.8756 -0.81745 0
M  V30 1016 H 92.2051 4.07165 0.2609 0
M  V30 1017 H 90.8801 4.06235 -0.891416 0
M  V30 1018 H 89.4571 3.62213 0.886356 0
M  V30 1019 N 91.6422 0.330177 1.54103 0
M  V30 1020 C 92.8892 -0.270405 2.00686 0
M  V30 1021 C 93.2172 -1.51621 1.21825 0
M  V30 1022 O 92.4722 -1.93536 0.29025 0
M  V30 1023 C 92.7712 -0.643134 3.51566 0
M  V30 1024 C 92.4372 0.504251 4.48072 0
M  V30 1025 C 91.0992 0.819163 4.74176 0
M  V30 1026 C 93.4512 1.27465 5.05373 0
M  V30 1027 C 90.7792 1.90708 5.5484 0
M  V30 1028 C 93.1312 2.35271 5.87223 0
M  V30 1029 C 91.7952 2.67336 6.11627 0
M  V30 1030 H 91.0652 -0.0989482 0.734364 0
M  V30 1031 H 93.7122 0.455324 1.86008 0
M  V30 1032 H 92.0172 -1.44938 3.64006 0
M  V30 1033 H 93.7142 -1.11949 3.85056 0
M  V30 1034 H 90.3042 0.248733 4.27878 0
M  V30 1035 H 94.4882 1.04462 4.85182 0
M  V30 1036 H 89.7442 2.15991 5.71977 0
M  V30 1037 H 93.9182 2.95405 6.30641 0
M  V30 1038 H 91.5452 3.51763 6.73919 0
M  V30 1039 N 93.1203 -1.57491 0.0584922 0
M  V30 1040 C 94.0673 -2.11958 -0.913376 0
M  V30 1041 C 95.0373 -1.02875 -1.30407 0
M  V30 1042 O 96.2223 -1.30464 -1.39226 0
M  V30 1043 C 93.3623 -2.67497 -2.18035 0
M  V30 1044 C 92.4753 -3.90691 -1.84349 0
M  V30 1045 C 91.6103 -4.3452 -3.05559 0
M  V30 1046 C 90.6493 -5.50395 -2.67827 0
M  V30 1047 N 89.7863 -5.89244 -3.81754 0
M  V30 1048 H 94.6263 -2.94704 -0.442017 0
M  V30 1049 H 92.1633 -1.45643 -0.206545 0
M  V30 1050 H 94.1213 -2.978 -2.92183 0
M  V30 1051 H 92.7513 -1.87537 -2.62735 0
M  V30 1052 H 91.8033 -3.66934 -1.00319 0
M  V30 1053 H 93.1153 -4.7489 -1.5258 0
M  V30 1054 H 92.2693 -4.66414 -3.87998 0
M  V30 1055 H 91.0083 -3.49147 -3.40511 0
M  V30 1056 H 90.0133 -5.18165 -1.83806 0
M  V30 1057 H 91.2383 -6.3749 -2.34059 0
M  V30 1058 H 89.1843 -5.06823 -4.16493 0
M  V30 1059 H 89.1013 -6.68151 -3.53708 0
M  V30 1060 H 90.3693 -6.25756 -4.64811 0
M  V30 1061 N 94.5984 0.214957 -1.56127 0
M  V30 1062 C 95.5284 1.2695 -1.95974 0
M  V30 1063 C 96.5094 1.48539 -0.828868 0
M  V30 1064 O 97.6944 1.60611 -1.09168 0
M  V30 1065 C 94.8244 2.61794 -2.28214 0
M  V30 1066 C 93.7784 2.54851 -3.43853 0
M  V30 1067 C 93.1044 3.93785 -3.61715 0
M  V30 1068 C 94.4044 2.09065 -4.78632 0
M  V30 1069 H 96.0984 0.93846 -2.84312 0
M  V30 1070 H 93.6444 0.449996 -1.36788 0
M  V30 1071 H 95.5974 3.35731 -2.54682 0
M  V30 1072 H 94.3214 2.96599 -1.36736 0
M  V30 1073 H 92.9804 1.8337 -3.17444 0
M  V30 1074 H 92.6284 4.25908 -2.67602 0
M  V30 1075 H 92.3284 3.90019 -4.39498 0
M  V30 1076 H 93.8524 4.69374 -3.90539 0
M  V30 1077 H 95.2664 2.7275 -5.04262 0
M  V30 1078 H 93.6634 2.16346 -5.59745 0
M  V30 1079 H 94.7334 1.04315 -4.73547 0
M  V30 1080 N 96.0765 1.50051 0.48192 0
M  V30 1081 C 97.0065 1.71046 1.58951 0
M  V30 1082 C 97.9875 0.559288 1.60642 0
M  V30 1083 O 99.1725 0.797243 1.77081 0
M  V30 1084 C 96.3025 1.79462 2.97339 0
M  V30 1085 C 95.2565 2.94558 3.10515 0
M  V30 1086 C 94.5825 2.88105 4.50444 0
M  V30 1087 C 95.8825 4.35227 2.88747 0
M  V30 1088 H 97.5765 2.6378 1.41635 0
M  V30 1089 H 95.1225 1.26936 0.679942 0
M  V30 1090 H 97.0755 1.92734 3.74742 0
M  V30 1091 H 95.7995 0.833412 3.15788 0
M  V30 1092 H 94.4585 2.80918 2.35543 0
M  V30 1093 H 94.1065 1.89853 4.65795 0
M  V30 1094 H 93.8065 3.65366 4.60197 0
M  V30 1095 H 95.3305 3.03412 5.29881 0
M  V30 1096 H 96.7445 4.49449 3.55905 0
M  V30 1097 H 95.1415 5.13856 3.09955 0
M  V30 1098 H 96.2115 4.48347 1.84696 0
M  V30 1099 N 97.5546 -0.734337 1.39446 0
M  V30 1100 C 98.8006 -1.49613 1.36908 0
M  V30 1101 C 99.1336 -1.94169 -0.0347829 0
M  V30 1102 O 98.4086 -1.66833 -0.999847 0
M  V30 1103 C 98.6916 -2.73534 2.34203 0
M  V30 1104 C 98.5446 -2.34993 3.83534 0
M  V30 1105 C 99.8636 -3.75635 2.29317 0
M  V30 1106 H 96.9826 -0.542714 0.498629 0
M  V30 1107 H 99.6246 -0.839597 1.70443 0
M  V30 1108 H 97.7746 -3.29553 2.05736 0
M  V30 1109 H 99.4466 -1.84601 4.22753 0
M  V30 1110 H 97.6896 -1.67213 4.00278 0
M  V30 1111 H 98.3606 -3.23738 4.47099 0
M  V30 1112 H 100.837 -3.29203 2.54489 0
M  V30 1113 H 99.7126 -4.60008 2.99472 0
M  V30 1114 H 99.9736 -4.22603 1.29842 0
M  V30 1115 N 99.0327 -1.24633 -0.964593 0
M  V30 1116 C 100.261 -1.11501 -1.74285 0
M  V30 1117 C 100.676 0.332165 -1.85855 0
M  V30 1118 O 100.033 1.22903 -1.34911 0
M  V30 1119 C 100.084 -1.75258 -3.16175 0
M  V30 1120 O 99.8047 -3.14318 -3.05182 0
M  V30 1121 C 101.306 -1.67776 -4.10324 0
M  V30 1122 H 98.5257 -0.389407 -0.546446 0
M  V30 1123 H 101.07 -1.64801 -1.21083 0
M  V30 1124 H 99.2247 -1.25954 -3.66353 0
M  V30 1125 H 99.6387 -3.4551 -3.94618 0
M  V30 1126 H 101.113 -2.17064 -5.0753 0
M  V30 1127 H 101.59 -0.639584 -4.34518 0
M  V30 1128 H 102.196 -2.16522 -3.66058 0
M  V30 1129 N 100.511 1.16574 -1.06058 0
M  V30 1130 C 101.741 1.90675 -0.795397 0
M  V30 1131 C 102.149 1.77547 0.653735 0
M  V30 1132 O 101.492 1.11611 1.45907 0
M  V30 1133 C 101.554 3.42011 -1.10764 0
M  V30 1134 C 101.218 3.78924 -2.55471 0
M  V30 1135 C 102.215 3.81042 -3.53699 0
M  V30 1136 C 99.8998 4.09626 -2.90708 0
M  V30 1137 C 101.894 4.13346 -4.85205 0
M  V30 1138 C 99.5808 4.41597 -4.22416 0
M  V30 1139 C 100.579 4.43436 -5.19474 0
M  V30 1140 O 100.267 4.74649 -6.48817 0
M  V30 1141 H 99.9988 0.611554 -0.288058 0
M  V30 1142 H 102.553 1.48711 -1.41683 0
M  V30 1143 H 100.783 3.84312 -0.429128 0
M  V30 1144 H 102.472 3.97384 -0.827077 0
M  V30 1145 H 103.238 3.57437 -3.27817 0
M  V30 1146 H 99.1168 4.07361 -2.15819 0
M  V30 1147 H 102.661 4.14696 -5.60957 0
M  V30 1148 H 98.5578 4.64667 -4.48056 0
M  V30 1149 H 99.3258 4.9247 -6.5377 0
M  V30 1150 N 101.989 0.842826 1.3317 0
M  V30 1151 C 103.405 0.531128 1.50503 0
M  V30 1152 C 103.605 -0.940734 1.78192 0
M  V30 1153 O 102.661 -1.72436 1.84451 0
M  V30 1154 C 103.974 1.40789 2.65705 0
M  V30 1155 C 105.522 1.40708 2.79589 0
M  V30 1156 C 105.997 2.26878 3.97857 0
M  V30 1157 N 107.488 2.24609 4.05099 0
M  V30 1158 C 108.223 2.88019 4.95815 0
M  V30 1159 N 107.719 3.60496 5.9162 0
M  V30 1160 N 109.512 2.77469 4.88843 0
M  V30 1161 H 101.663 1.79557 1.1346 0
M  V30 1162 H 103.926 0.766267 0.558156 0
M  V30 1163 H 103.632 2.454 2.51936 0
M  V30 1164 H 103.506 1.08677 3.61205 0
M  V30 1165 H 105.893 0.368668 2.92788 0
M  V30 1166 H 105.974 1.76829 1.84838 0
M  V30 1167 H 105.618 3.3078 3.85418 0
M  V30 1168 H 105.548 1.88096 4.91861 0
M  V30 1169 H 108.039 1.71906 3.36536 0
M  V30 1170 H 108.352 4.06076 6.57512 0
M  V30 1171 H 106.697 3.64604 5.91683 0
M  V30 1172 H 109.888 2.20406 4.12963 0
M  V30 1173 H 110.061 3.2717 5.59342 0
M  V30 1174 N 103.467 -1.45747 0.599634 0
M  V30 1175 C 104.695 -2.06668 0.0978551 0
M  V30 1176 C 105.11 -1.44562 -1.21439 0
M  V30 1177 O 104.467 -0.556923 -1.73795 0
M  V30 1178 C 104.518 -3.61456 -0.0567044 0
M  V30 1179 O 104.239 -4.21242 1.20361 0
M  V30 1180 C 105.74 -4.39345 -0.590869 0
M  V30 1181 H 102.96 -0.667825 0.0651943 0
M  V30 1182 H 105.504 -1.87115 0.82511 0
M  V30 1183 H 103.659 -3.80378 -0.734251 0
M  V30 1184 H 104.073 -5.14323 1.02821 0
M  V30 1185 H 105.547 -5.48182 -0.648131 0
M  V30 1186 H 106.024 -4.08568 -1.61147 0
M  V30 1187 H 106.63 -4.25268 0.0523679 0
M  V30 1188 N 104.945 -0.338344 -1.53925 0
M  V30 1189 C 105.892 0.520845 -2.24846 0
M  V30 1190 C 106.862 1.09976 -1.24477 0
M  V30 1191 O 108.047 1.13735 -1.53196 0
M  V30 1192 C 105.187 1.6685 -3.02084 0
M  V30 1193 C 104.3 1.11739 -4.17299 0
M  V30 1194 C 103.435 2.23193 -4.82036 0
M  V30 1195 C 102.474 1.65407 -5.89328 0
M  V30 1196 N 101.611 2.70582 -6.47866 0
M  V30 1197 H 106.451 -0.0904881 -2.97863 0
M  V30 1198 H 103.988 -0.0564282 -1.46992 0
M  V30 1199 H 105.946 2.34407 -3.45122 0
M  V30 1200 H 104.576 2.2509 -2.31375 0
M  V30 1201 H 103.628 0.332919 -3.7894 0
M  V30 1202 H 104.94 0.654677 -4.94485 0
M  V30 1203 H 104.094 2.98626 -5.28117 0
M  V30 1204 H 102.833 2.72807 -4.04262 0
M  V30 1205 H 101.838 0.884779 -5.42634 0
M  V30 1206 H 103.063 1.16652 -6.69006 0
M  V30 1207 H 101.009 3.1946 -5.72959 0
M  V30 1208 H 100.926 2.28917 -7.20509 0
M  V30 1209 H 102.194 3.45799 -6.98601 0
M  V30 1210 N 106.423 1.57458 -0.0668435 0
M  V30 1211 C 107.353 2.15468 0.899764 0
M  V30 1212 C 108.334 1.08042 1.31381 0
M  V30 1213 O 109.519 1.36054 1.38574 0
M  V30 1214 C 106.649 2.71232 2.16911 0
M  V30 1215 C 105.603 3.83781 1.89463 0
M  V30 1216 C 104.929 4.26127 3.22986 0
M  V30 1217 C 106.229 5.08238 1.20381 0
M  V30 1218 H 107.923 2.96488 0.416529 0
M  V30 1219 H 105.469 1.4262 0.198908 0
M  V30 1220 H 107.422 3.10458 2.84945 0
M  V30 1221 H 106.146 1.87426 2.67468 0
M  V30 1222 H 104.805 3.45051 1.23836 0
M  V30 1223 H 104.453 3.39249 3.71374 0
M  V30 1224 H 104.153 5.01993 3.05413 0
M  V30 1225 H 105.677 4.67966 3.92225 0
M  V30 1226 H 107.091 5.44811 1.78475 0
M  V30 1227 H 105.488 5.89349 1.13083 0
M  V30 1228 H 106.558 4.84558 0.182153 0
M  V30 1229 N 107.901 -0.206675 1.56239 0
M  V30 1230 C 108.833 -1.27997 1.9013 0
M  V30 1231 C 109.846 -1.42299 0.790883 0
M  V30 1232 O 111.035 -1.42931 1.06925 0
M  V30 1233 C 108.135 -2.65368 2.10792 0
M  V30 1234 C 107.308 -2.72824 3.41886 0
M  V30 1235 C 106.367 -3.9131 3.51799 0
M  V30 1236 O 105.393 -3.78953 4.24716 0
M  V30 1237 N 106.595 -5.06265 2.84035 0
M  V30 1238 H 109.36 -0.992444 2.82791 0
M  V30 1239 H 106.921 -0.396652 1.56966 0
M  V30 1240 H 108.913 -3.43039 2.14724 0
M  V30 1241 H 107.483 -2.86657 1.24685 0
M  V30 1242 H 106.703 -1.81515 3.49923 0
M  V30 1243 H 107.991 -2.74786 4.28217 0
M  V30 1244 H 107.389 -5.19203 2.246 0
M  V30 1245 H 105.946 -5.81925 2.93609 0
M  V30 1246 N 109.379 -1.50304 -0.473955 0
M  V30 1247 C 110.627 -1.60832 -1.22382 0
M  V30 1248 C 110.948 -0.30939 -1.9253 0
M  V30 1249 O 110.218 0.67296 -1.83978 0
M  V30 1250 H 108.798 -0.592652 -0.454723 0
M  V30 1251 H 111.46 -1.87068 -0.546968 0
M  V30 1252 H 110.556 -2.41803 -1.97327 0
M  V30 1253 N 110.857 0.726932 -1.39834 0
M  V30 1254 C 112.105 1.4837 -1.37225 0
M  V30 1255 C 112.426 1.94979 0.0284857 0
M  V30 1256 O 111.696 1.69555 0.981213 0
M  V30 1257 H 110.276 0.55043 -0.505011 0
M  V30 1258 H 112.938 0.862468 -1.74778 0
M  V30 1259 H 112.034 2.36198 -2.04003 0
M  V30 1260 N 112.336 1.25143 0.95797 0
M  V30 1261 C 113.566 1.12261 1.73439 0
M  V30 1262 C 113.974 -0.326715 1.86358 0
M  V30 1263 O 113.317 -1.2367 1.35836 0
M  V30 1264 C 113.379 1.69966 3.16784 0
M  V30 1265 C 113.043 3.18936 3.27305 0
M  V30 1266 C 114.04 4.15968 3.11877 0
M  V30 1267 C 111.725 3.59083 3.51234 0
M  V30 1268 C 113.719 5.51126 3.20217 0
M  V30 1269 C 111.406 4.9438 3.5921 0
M  V30 1270 C 112.404 5.90211 3.43716 0
M  V30 1271 O 112.092 7.23046 3.51368 0
M  V30 1272 H 111.824 0.392476 0.550399 0
M  V30 1273 H 114.378 1.65927 1.21068 0
M  V30 1274 H 112.608 1.10744 3.70503 0
M  V30 1275 H 114.297 1.52232 3.76272 0
M  V30 1276 H 115.063 3.86292 2.93264 0
M  V30 1277 H 110.942 2.84989 3.62356 0
M  V30 1278 H 114.486 6.25905 3.0804 0
M  V30 1279 H 110.383 5.23723 3.77339 0
M  V30 1280 H 111.151 7.31097 3.6802 0
M  V30 1281 N 113.814 -1.1601 1.06675 0
M  V30 1282 C 115.062 -1.86264 0.784229 0
M  V30 1283 C 115.383 -1.82328 -0.691488 0
M  V30 1284 O 114.653 -1.25947 -1.50047 0
M  V30 1285 H 113.233 -0.689621 0.28711 0
M  V30 1286 H 115.895 -1.40664 1.34906 0
M  V30 1287 H 114.991 -2.91595 1.11259 0
M  V30 1288 N 115.292 -0.849877 -1.32721 0
M  V30 1289 C 116.224 -0.248332 -2.27851 0
M  V30 1290 C 117.237 0.577218 -1.52224 0
M  V30 1291 O 118.426 0.402489 -1.73903 0
M  V30 1292 C 115.526 0.668107 -3.32249 0
M  V30 1293 C 114.699 -0.120534 -4.37234 0
M  V30 1294 C 113.758 0.720932 -5.21238 0
M  V30 1295 O 112.784 0.156166 -5.68986 0
M  V30 1296 N 113.986 2.03647 -5.43607 0
M  V30 1297 H 116.751 -1.06575 -2.80111 0
M  V30 1298 H 114.312 -0.709395 -1.45531 0
M  V30 1299 H 116.304 1.23627 -3.85355 0
M  V30 1300 H 114.874 1.38621 -2.80184 0
M  V30 1301 H 114.094 -0.870108 -3.84477 0
M  V30 1302 H 115.382 -0.662406 -5.0447 0
M  V30 1303 H 114.78 2.51871 -5.06535 0
M  V30 1304 H 113.337 2.55287 -5.99727 0
M  V30 1305 N 116.77 1.45427 -0.607355 0
M  V30 1306 C 118.017 2.02241 -0.102455 0
M  V30 1307 C 118.345 1.4758 1.26691 0
M  V30 1308 O 117.6 0.640468 1.84923 0
M  V30 1309 C 117.899 3.57398 -0.0129263 0
M  V30 1310 C 117.565 4.3121 -1.31792 0
M  V30 1311 C 116.227 4.51092 -1.67539 0
M  V30 1312 C 118.579 4.73401 -2.18039 0
M  V30 1313 C 115.907 5.10422 -2.89285 0
M  V30 1314 C 118.259 5.34078 -3.39034 0
M  V30 1315 C 116.923 5.52184 -3.75033 0
M  V30 1316 H 116.193 0.740051 -0.037491 0
M  V30 1317 H 118.84 1.74494 -0.788926 0
M  V30 1318 H 117.145 3.84421 0.756806 0
M  V30 1319 H 118.842 3.99061 0.393881 0
M  V30 1320 H 115.432 4.16047 -1.02968 0
M  V30 1321 H 119.616 4.57774 -1.91721 0
M  V30 1322 H 114.872 5.22629 -3.17283 0
M  V30 1323 H 119.046 5.65724 -4.06115 0
M  V30 1324 H 116.673 5.97925 -4.69457 0
M  V30 1325 N 118.248 0.346503 1.53744 0
M  V30 1326 C 119.476 -0.25041 2.05379 0
M  V30 1327 C 119.891 -1.43979 1.22129 0
M  V30 1328 O 119.248 -1.80677 0.257321 0
M  V30 1329 C 119.299 -0.662575 3.55376 0
M  V30 1330 O 119.02 0.479515 4.35468 0
M  V30 1331 C 120.521 -1.31989 4.23195 0
M  V30 1332 H 117.741 -0.0478198 0.669294 0
M  V30 1333 H 120.285 0.499346 1.9831 0
M  V30 1334 H 118.44 -1.36227 3.62658 0
M  V30 1335 H 118.854 0.15037 5.24284 0
M  V30 1336 H 120.328 -1.55902 5.29527 0
M  V30 1337 H 120.805 -2.27436 3.75725 0
M  V30 1338 H 121.411 -0.662154 4.20114 0
M  V30 1339 N 119.726 -1.57421 0.075193 0
M  V30 1340 C 120.674 -2.14124 -0.908508 0
M  V30 1341 C 121.668 -1.07898 -1.30592 0
M  V30 1342 O 122.874 -1.26273 -1.28277 0
M  V30 1343 H 119.249 -0.684707 -0.310935 0
M  V30 1344 H 121.22 -2.95634 -0.405374 0
M  V30 1345 C 119.969 -2.72044 -2.16535 0
M  V30 1346 H 119.292 -3.53456 -1.86839 0
M  V30 1347 H 120.732 -3.15311 -2.83469 0
M  V30 1348 C 119.191 -1.66968 -2.92615 0
M  V30 1349 O 119.721 -1.0967 -3.86439 0
M  V30 1350 N 117.927 -1.37923 -2.55784 0
M  V30 1351 H 117.474 -1.84706 -1.79559 0
M  V30 1352 H 117.432 -0.67852 -3.06991 0
M  V30 1353 N 121.204 0.198386 -1.56346 0
M  V30 1354 C 122.481 0.944982 -1.71258 0
M  V30 1355 C 122.861 2.0151 -0.629048 0
M  V30 1356 O 122.209 2.25639 0.360473 0
M  V30 1357 C 122.419 1.5344 -3.1346 0
M  V30 1358 C 123.767 2.01778 -3.73591 0
M  V30 1359 O 124.791 1.63288 -3.16568 0
M  V30 1360 O 123.65 2.72594 -4.73661 0
M  V30 1361 H 120.744 0.442939 -0.69838 0
M  V30 1362 H 123.29 0.188342 -1.68652 0
M  V30 1363 H 122.062 0.762869 -3.83792 0
M  V30 1364 H 121.685 2.35596 -3.20282 0
M  V30 1365 N 122.682 1.50554 0.465978 0
M  V30 1366 C 123.907 1.65838 1.24549 0
M  V30 1367 C 124.332 0.343486 1.84937 0
M  V30 1368 O 123.69 -0.69324 1.67523 0
M  V30 1369 C 123.738 2.75533 2.32624 0
M  V30 1370 O 122.842 2.37142 3.37398 0
M  V30 1371 H 122.183 0.553893 0.366194 0
M  V30 1372 H 124.713 1.96959 0.553927 0
M  V30 1373 H 124.723 2.98763 2.77857 0
M  V30 1374 H 123.398 3.70962 1.88043 0
M  V30 1375 H 121.975 2.24377 2.97841 0
M  V30 1376 N 124.16 -0.719506 1.40217 0
M  V30 1377 C 125.39 -1.50646 1.41384 0
M  V30 1378 C 125.798 -1.89197 0.0107743 0
M  V30 1379 O 125.141 -1.55709 -0.974708 0
M  V30 1380 C 125.203 -2.81405 2.23722 0
M  V30 1381 C 124.867 -2.65199 3.72181 0
M  V30 1382 C 125.864 -2.32717 4.64907 0
M  V30 1383 C 123.549 -2.81586 4.1595 0
M  V30 1384 C 125.543 -2.16827 5.99387 0
M  V30 1385 C 123.23 -2.65313 5.50502 0
M  V30 1386 C 124.228 -2.32981 6.42035 0
M  V30 1387 O 123.916 -2.16827 7.74107 0
M  V30 1388 H 123.648 -0.471606 0.484318 0
M  V30 1389 H 126.202 -0.895456 1.84853 0
M  V30 1390 H 124.432 -3.44823 1.75026 0
M  V30 1391 H 126.121 -3.43102 2.16878 0
M  V30 1392 H 126.887 -2.19694 4.32388 0
M  V30 1393 H 122.766 -3.0574 3.45027 0
M  V30 1394 H 126.31 -1.91513 6.70797 0
M  V30 1395 H 122.207 -2.7792 5.82607 0
M  V30 1396 H 122.975 -2.31778 7.84998 0
M  V30 1397 N 125.638 -1.25649 -0.95132 0
M  V30 1398 C 126.568 -1.08808 -2.06599 0
M  V30 1399 C 127.549 0.00382547 -1.701 0
M  V30 1400 O 128.734 -0.166325 -1.93486 0
M  V30 1401 C 125.864 -0.709542 -3.39975 0
M  V30 1402 C 124.818 -1.75206 -3.90496 0
M  V30 1403 C 124.144 -1.22811 -5.20405 0
M  V30 1404 C 125.444 -3.15153 -4.16504 0
M  V30 1405 H 127.138 -2.02048 -2.20946 0
M  V30 1406 H 124.684 -0.972835 -1.06169 0
M  V30 1407 H 126.637 -0.578649 -4.17408 0
M  V30 1408 H 125.361 0.258556 -3.25575 0
M  V30 1409 H 124.02 -1.87145 -3.15234 0
M  V30 1410 H 123.668 -0.250145 -5.02378 0
M  V30 1411 H 123.368 -1.92492 -5.55176 0
M  V30 1412 H 124.892 -1.10968 -6.00432 0
M  V30 1413 H 126.306 -3.06349 -4.84586 0
M  V30 1414 H 124.703 -3.82333 -4.62538 0
M  V30 1415 H 125.773 -3.61966 -3.22658 0
M  V30 1416 N 127.117 1.15442 -1.07289 0
M  V30 1417 C 128.065 2.22225 -0.686952 0
M  V30 1418 C 129.059 1.66688 0.30193 0
M  V30 1419 O 130.265 1.79236 0.165712 0
M  V30 1420 H 126.64 0.723783 -0.204064 0
M  V30 1421 H 128.611 2.52056 -1.5972 0
M  V30 1422 C 127.36 3.47556 -0.100149 0
M  V30 1423 H 126.683 3.90612 -0.852211 0
M  V30 1424 H 128.123 4.23794 0.132235 0
M  V30 1425 C 126.582 3.16337 1.159 0
M  V30 1426 O 127.112 3.33074 2.24555 0
M  V30 1427 N 125.318 2.70385 1.06491 0
M  V30 1428 H 124.865 2.56966 0.180668 0
M  V30 1429 H 124.823 2.49871 1.90819 0
M  V30 1430 N 128.595 0.856903 1.32268 0
M  V30 1431 C 129.525 0.31858 2.31316 0
M  V30 1432 C 130.506 -0.583487 1.59779 0
M  V30 1433 O 131.691 -0.503259 1.87566 0
M  V30 1434 C 128.821 -0.491979 3.43798 0
M  V30 1435 C 127.775 0.315849 4.26833 0
M  V30 1436 C 127.101 -0.619586 5.31098 0
M  V30 1437 C 128.401 1.54282 4.98993 0
M  V30 1438 H 130.095 1.14621 2.76591 0
M  V30 1439 H 127.641 0.552613 1.32974 0
M  V30 1440 H 129.594 -0.879012 4.1213 0
M  V30 1441 H 128.318 -1.35299 2.97257 0
M  V30 1442 H 126.977 0.684664 3.6015 0
M  V30 1443 H 126.625 -1.47751 4.8081 0
M  V30 1444 H 126.325 -0.0830621 5.87541 0
M  V30 1445 H 127.849 -1.00375 6.02293 0
M  V30 1446 H 129.263 1.22796 5.59995 0
M  V30 1447 H 127.66 2.01745 5.65172 0
M  V30 1448 H 128.73 2.30285 4.26728 0
M  V30 1449 N 130.073 -1.45103 0.615059 0
M  V30 1450 C 131.322 -2.01396 0.110718 0
M  V30 1451 C 131.635 -1.48834 -1.26916 0
M  V30 1452 O 132.841 -1.97152 -1.86664 0
M  V30 1453 C 131.297 -3.59599 0.14723 0
M  V30 1454 C 130.905 -4.21158 1.52743 0
M  V30 1455 C 132.649 -4.23428 -0.30148 0
M  V30 1456 C 130.556 -5.71535 1.51992 0
M  V30 1457 H 129.486 -0.753061 0.0376241 0
M  V30 1458 H 132.137 -1.66494 0.77149 0
M  V30 1459 H 130.519 -3.91724 -0.580339 0
M  V30 1460 H 131.693 -4.00594 2.2773 0
M  V30 1461 H 130.008 -3.69552 1.91886 0
M  V30 1462 H 132.605 -5.33703 -0.326392 0
M  V30 1463 H 132.948 -3.94629 -1.32565 0
M  V30 1464 H 133.481 -3.96047 0.373065 0
M  V30 1465 H 130.22 -6.05044 2.52193 0
M  V30 1466 H 129.74 -5.94268 0.81274 0
M  V30 1467 H 131.419 -6.34873 1.24681 0
M  V30 1468 N 131.551 -0.354651 -1.53558 0
M  V30 1469 C 132.776 0.242153 -2.05981 0
M  V30 1470 C 133.201 1.42553 -1.2272 0
M  V30 1471 O 132.559 1.79656 -0.243604 0
M  V30 1472 C 132.607 0.624367 -3.55154 0
M  V30 1473 O 131.711 1.72301 -3.74681 0
M  V30 1474 H 131.052 0.0378432 -0.662921 0
M  V30 1475 H 133.582 -0.512087 -1.98088 0
M  V30 1476 H 133.592 0.898433 -3.97985 0
M  V30 1477 H 132.267 -0.240989 -4.15201 0
M  V30 1478 H 130.844 1.44535 -3.4375 0
M  V30 1479 N 133.029 1.57378 -0.0835403 0
M  V30 1480 C 134.306 1.85363 0.624507 0
M  V30 1481 C 134.686 0.978239 1.87066 0
M  V30 1482 O 134.034 0.0475908 2.2845 0
M  V30 1483 C 134.244 3.35795 0.950947 0
M  V30 1484 C 135.592 4.03581 1.31939 0
M  V30 1485 O 136.616 3.40609 1.04232 0
M  V30 1486 O 135.475 5.14672 1.83779 0
M  V30 1487 H 132.569 0.766162 0.311329 0
M  V30 1488 H 135.115 1.69307 -0.115362 0
M  V30 1489 H 133.887 3.91244 0.0663899 0
M  V30 1490 H 133.51 3.57154 1.74719 0
M  V30 1491 N 134.507 -0.190092 1.56449 0
M  V30 1492 C 135.437 -1.23816 1.97969 0
M  V30 1493 C 136.418 -1.47201 0.852395 0
M  V30 1494 O 137.603 -1.58854 1.1171 0
M  V30 1495 C 134.733 -2.5813 2.3235 0
M  V30 1496 C 133.687 -2.49348 3.47864 0
M  V30 1497 C 133.013 -3.8798 3.67934 0
M  V30 1498 C 134.313 -2.01424 4.81898 0
M  V30 1499 H 136.007 -0.89311 2.85769 0
M  V30 1500 H 133.553 -0.428177 1.37487 0
M  V30 1501 H 135.506 -3.31637 2.59991 0
M  V30 1502 H 134.23 -2.94386 1.41438 0
M  V30 1503 H 132.889 -1.78297 3.20321 0
M  V30 1504 H 132.537 -4.21597 2.74344 0
M  V30 1505 H 132.237 -3.82978 4.45648 0
M  V30 1506 H 133.761 -4.63101 3.97957 0
M  V30 1507 H 135.175 -2.64693 5.08538 0
M  V30 1508 H 133.572 -2.07413 5.63116 0
M  V30 1509 H 134.642 -0.967677 4.75146 0
M  V30 1510 N 135.985 -1.50799 -0.457987 0
M  V30 1511 C 136.948 -1.7005 -1.53674 0
M  V30 1512 C 137.948 -0.570881 -1.50325 0
M  V30 1513 O 139.138 -0.838126 -1.52712 0
M  V30 1514 C 136.27 -1.73788 -2.93276 0
M  V30 1515 H 137.463 -2.66306 -1.37917 0
M  V30 1516 H 135.016 -1.40477 -0.685271 0
M  V30 1517 H 135.751 -0.792717 -3.14462 0
M  V30 1518 H 135.536 -2.55864 -2.97113 0
M  V30 1519 H 137.026 -1.90591 -3.71571 0
M  V30 1520 N 137.463 0.71206 -1.40597 0
M  V30 1521 C 138.411 1.84746 -1.41321 0
M  V30 1522 C 139.405 1.66842 -0.293268 0
M  V30 1523 O 140.611 1.73904 -0.464481 0
M  V30 1524 H 136.986 0.608522 -0.441819 0
M  V30 1525 H 138.957 1.81252 -2.37045 0
M  V30 1526 C 137.706 3.22638 -1.29614 0
M  V30 1527 H 137.029 3.37023 -2.15071 0
M  V30 1528 H 138.469 4.02209 -1.3418 0
M  V30 1529 C 136.928 3.36899 -0.00673121 0
M  V30 1530 O 137.458 3.90186 0.954859 0
M  V30 1531 N 135.664 2.9053 0.0639327 0
M  V30 1532 H 135.211 2.47353 -0.719311 0
M  V30 1533 H 135.169 3.0045 0.926118 0
M  V30 1534 N 138.941 1.26152 0.944643 0
M  V30 1535 C 140.19 1.10883 1.68487 0
M  V30 1536 C 140.503 -0.348153 1.92477 0
M  V30 1537 O 141.709 -0.621459 2.64292 0
M  V30 1538 C 140.165 1.93624 3.03377 0
M  V30 1539 C 139.773 3.43875 2.87148 0
M  V30 1540 C 141.517 1.86954 3.81115 0
M  V30 1541 C 139.424 4.18875 4.1749 0
M  V30 1542 H 138.354 0.41135 0.631907 0
M  V30 1543 H 141.005 1.50433 1.05082 0
M  V30 1544 H 139.387 1.46904 3.67743 0
M  V30 1545 H 140.561 3.98338 2.31653 0
M  V30 1546 H 138.876 3.51744 2.22856 0
M  V30 1547 H 141.473 2.40275 4.77673 0
M  V30 1548 H 141.816 0.839518 4.07747 0
M  V30 1549 H 142.349 2.31477 3.23517 0
M  V30 1550 H 139.088 5.22332 3.96043 0
M  V30 1551 H 138.608 3.69193 4.72712 0
M  V30 1552 H 140.287 4.27134 4.85968 0
M  V30 1553 N 140.419 -1.14872 1.07899 0
M  V30 1554 C 141.367 -2.21857 0.698727 0
M  V30 1555 C 142.361 -1.66845 -0.293086 0
M  V30 1556 O 143.567 -1.79321 -0.156204 0
M  V30 1557 H 139.942 -0.722691 0.207899 0
M  V30 1558 H 141.913 -2.51205 1.61054 0
M  V30 1559 C 140.662 -3.47498 0.11858 0
M  V30 1560 H 139.985 -3.90154 0.872914 0
M  V30 1561 H 141.425 -4.23858 -0.109759 0
M  V30 1562 C 139.884 -3.16947 -1.1422 0
M  V30 1563 O 140.414 -3.3426 -2.22785 0
M  V30 1564 N 138.62 -2.70946 -1.05055 0
M  V30 1565 H 138.167 -2.57058 -0.167038 0
M  V30 1566 H 138.125 -2.50879 -1.89491 0
M  V30 1567 N 141.898 -0.863906 -1.31812 0
M  V30 1568 C 143.146 -0.470904 -1.96537 0
M  V30 1569 C 143.467 0.978771 -1.68657 0
M  V30 1570 O 142.737 1.6853 -0.998717 0
M  V30 1571 H 141.317 -0.171148 -0.72713 0
M  V30 1572 H 143.979 -1.10236 -1.60729 0
M  V30 1573 H 143.075 -0.623616 -3.05806 0
M  V30 1574 N 143.376 1.44774 -0.622745 0
M  V30 1575 C 144.625 2.01334 -0.121397 0
M  V30 1576 C 144.938 1.49505 1.26125 0
M  V30 1577 O 146.144 1.98139 1.85616 0
M  V30 1578 C 144.6 3.59516 -0.166298 0
M  V30 1579 C 144.208 4.20342 -1.54974 0
M  V30 1580 C 145.952 4.23582 0.279021 0
M  V30 1581 C 143.859 5.70721 -1.55021 0
M  V30 1582 H 142.789 0.752851 -0.0416172 0
M  V30 1583 H 145.44 1.66083 -0.780309 0
M  V30 1584 H 143.822 3.92027 0.559557 0
M  V30 1585 H 144.996 3.99381 -2.29851 0
M  V30 1586 H 143.311 3.68529 -1.93843 0
M  V30 1587 H 145.908 5.33868 0.298083 0
M  V30 1588 H 146.251 3.95327 1.30471 0
M  V30 1589 H 146.784 3.95843 -0.394063 0
M  V30 1590 H 143.523 6.03698 -2.55399 0
M  V30 1591 H 143.043 5.93829 -0.844245 0
M  V30 1592 H 144.722 6.34203 -1.28047 0
M  V30 1593 N 144.854 0.36279 1.53368 0
M  V30 1594 C 146.131 -0.284021 1.93527 0
M  V30 1595 C 146.511 -1.66628 1.29608 0
M  V30 1596 O 145.859 -2.23942 0.45413 0
M  V30 1597 C 146.069 -0.337028 3.47369 0
M  V30 1598 C 147.417 -0.578708 4.20638 0
M  V30 1599 O 148.441 -0.418352 3.53735 0
M  V30 1600 O 147.3 -0.89074 5.39192 0
M  V30 1601 H 144.394 -0.169743 0.809393 0
M  V30 1602 H 146.94 0.41537 1.64538 0
M  V30 1603 H 145.712 0.632217 3.86159 0
M  V30 1604 H 145.335 -1.08243 3.82582 0
M  V30 1605 N 146.332 -1.57332 0.0918853 0
M  V30 1606 C 147.265 -2.09499 -0.904735 0
M  V30 1607 C 148.243 -1.00479 -1.27839 0
M  V30 1608 O 149.427 -1.27954 -1.38419 0
M  V30 1609 C 146.554 -2.56931 -2.2069 0
M  V30 1610 C 145.6 -3.77579 -1.98334 0
M  V30 1611 S 146.433 -5.21317 -1.22428 0
M  V30 1612 C 147.589 -5.72097 -2.53882 0
M  V30 1613 H 147.822 -2.93705 -0.460922 0
M  V30 1614 H 145.355 -1.53923 -0.121332 0
M  V30 1615 H 147.313 -2.84917 -2.95521 0
M  V30 1616 H 145.974 -1.72956 -2.62192 0
M  V30 1617 H 145.167 -4.08824 -2.94752 0
M  V30 1618 H 144.769 -3.5007 -1.31633 0
M  V30 1619 H 147.061 -5.80168 -3.49874 0
M  V30 1620 H 148.004 -6.70654 -2.27219 0
M  V30 1621 H 148.412 -5.00012 -2.62007 0
M  V30 1622 N 147.81 0.181792 -1.56548 0
M  V30 1623 C 149.059 0.898348 -1.8059 0
M  V30 1624 C 149.372 1.83862 -0.667379 0
M  V30 1625 O 150.578 2.59678 -0.792446 0
M  V30 1626 C 149.034 1.64791 -3.19956 0
M  V30 1627 C 148.642 0.751789 -4.41647 0
M  V30 1628 C 150.386 2.35331 -3.53298 0
M  V30 1629 C 148.293 1.50098 -5.72035 0
M  V30 1630 H 147.223 0.339194 -0.673397 0
M  V30 1631 H 149.874 0.151413 -1.82874 0
M  V30 1632 H 148.256 2.43921 -3.11959 0
M  V30 1633 H 149.43 -0.0018076 -4.608 0
M  V30 1634 H 147.745 0.156562 -4.16106 0
M  V30 1635 H 150.342 2.91958 -4.47956 0
M  V30 1636 H 150.685 3.10164 -2.77676 0
M  V30 1637 H 151.218 1.63154 -3.62803 0
M  V30 1638 H 147.957 0.795175 -6.50659 0
M  V30 1639 H 147.477 2.22817 -5.56878 0
M  V30 1640 H 149.156 2.05125 -6.13622 0
M  V30 1641 N 149.288 1.51039 0.449983 0
M  V30 1642 C 150.565 1.53612 1.21089 0
M  V30 1643 C 150.945 0.292997 2.09057 0
M  V30 1644 O 150.293 -0.72259 2.16774 0
M  V30 1645 C 150.503 2.84337 2.0237 0
M  V30 1646 C 151.851 3.35807 2.59843 0
M  V30 1647 O 152.875 2.85802 2.12593 0
M  V30 1648 O 151.734 4.23029 3.45989 0
M  V30 1649 H 148.828 0.617057 0.550608 0
M  V30 1650 H 151.374 1.63344 0.460082 0
M  V30 1651 H 150.146 3.66278 1.37681 0
M  V30 1652 H 149.769 2.77708 2.84542 0
M  V30 1653 N 150.766 -0.704594 1.40972 0
M  V30 1654 C 152.015 -1.46018 1.39146 0
M  V30 1655 C 152.328 -1.956 0.000589254 0
M  V30 1656 O 153.534 -2.71137 -0.1403 0
M  V30 1657 C 151.99 -2.63996 2.4461 0
M  V30 1658 C 151.598 -2.21238 3.89561 0
M  V30 1659 C 153.342 -3.41677 2.51907 0
M  V30 1660 C 151.249 -3.3612 4.86598 0
M  V30 1661 H 150.179 -0.548444 0.517422 0
M  V30 1662 H 152.83 -0.765784 1.66757 0
M  V30 1663 H 151.212 -3.3566 2.10115 0
M  V30 1664 H 152.386 -1.56923 4.33257 0
M  V30 1665 H 150.701 -1.56574 3.85841 0
M  V30 1666 H 153.298 -4.27182 3.2159 0
M  V30 1667 H 153.641 -3.86247 1.55303 0
M  V30 1668 H 154.174 -2.77064 2.85448 0
M  V30 1669 H 150.913 -2.96572 5.84573 0
M  V30 1670 H 150.433 -3.99315 4.47557 0
M  V30 1671 H 152.112 -4.02029 5.06934 0
M  V30 1672 N 152.244 -1.26651 -0.937939 0
M  V30 1673 C 153.154 -1.10276 -2.07066 0
M  V30 1674 C 154.17 -0.0354197 -1.73964 0
M  V30 1675 O 155.346 -0.239816 -1.99967 0
M  V30 1676 C 152.411 -0.740887 -3.38691 0
M  V30 1677 C 151.472 -1.88799 -3.85556 0
M  V30 1678 C 150.705 -1.54329 -5.10899 0
M  V30 1679 O 150.928 -0.446494 -5.6865 0
M  V30 1680 O 149.862 -2.37911 -5.52885 0
M  V30 1681 H 153.688 -2.05309 -2.23789 0
M  V30 1682 H 151.273 -1.05743 -1.0554 0
M  V30 1683 H 153.155 -0.55195 -4.1777 0
M  V30 1684 H 151.83 0.180022 -3.23199 0
M  V30 1685 H 150.737 -2.13191 -3.07409 0
M  V30 1686 H 152.07 -2.78874 -4.05574 0
M  V30 1687 N 153.722 1.14298 -1.08507 0
M  V30 1688 C 154.968 1.85854 -0.826438 0
M  V30 1689 C 155.323 1.81413 0.640878 0
M  V30 1690 O 154.616 1.23463 1.46518 0
M  V30 1691 C 154.81 3.33547 -1.28379 0
M  V30 1692 C 154.639 3.52369 -2.79403 0
M  V30 1693 C 153.409 3.67159 -3.47164 0
M  V30 1694 C 155.607 3.49203 -3.77573 0
M  V30 1695 N 153.589 3.74149 -4.86709 0
M  V30 1696 C 154.96 3.6245 -5.03021 0
M  V30 1697 C 157.015 3.32547 -3.70563 0
M  V30 1698 C 155.718 3.60761 -6.2229 0
M  V30 1699 C 157.744 3.32162 -4.89308 0
M  V30 1700 C 157.106 3.45949 -6.13595 0
M  V30 1701 H 153.205 0.696705 -0.355143 0
M  V30 1702 H 155.789 1.36981 -1.38362 0
M  V30 1703 H 153.96 3.81008 -0.754166 0
M  V30 1704 H 155.692 3.92867 -0.971469 0
M  V30 1705 H 152.447 3.68433 -2.9758 0
M  V30 1706 H 152.871 3.81359 -5.5937 0
M  V30 1707 H 157.513 3.20797 -2.75407 0
M  V30 1708 H 155.231 3.71286 -7.17755 0
M  V30 1709 H 158.817 3.20485 -4.85573 0
M  V30 1710 H 157.697 3.456 -7.03939 0
M  V30 1711 N 155.201 0.870884 1.31352 0
M  V30 1712 C 156.133 0.28455 2.27427 0
M  V30 1713 C 157.146 -0.552927 1.53123 0
M  V30 1714 O 158.335 -0.374771 1.74521 0
M  V30 1715 C 155.435 -0.615164 3.3327 0
M  V30 1716 C 154.608 0.190079 4.36987 0
M  V30 1717 C 153.667 -0.637917 5.22319 0
M  V30 1718 O 152.693 -0.065626 5.69162 0
M  V30 1719 N 153.895 -1.94973 5.46778 0
M  V30 1720 H 156.66 1.11017 2.7838 0
M  V30 1721 H 154.221 0.732458 1.44384 0
M  V30 1722 H 156.213 -1.1748 3.87273 0
M  V30 1723 H 154.783 -1.34146 2.82354 0
M  V30 1724 H 154.003 0.931165 3.83044 0
M  V30 1725 H 155.291 0.742579 5.03352 0
M  V30 1726 H 154.689 -2.4378 5.10478 0
M  V30 1727 H 153.246 -2.45713 6.03712 0
M  V30 1728 N 156.679 -1.44442 0.630414 0
M  V30 1729 C 157.642 -2.29107 -0.0652523 0
M  V30 1730 C 158.642 -1.41002 -0.772995 0
M  V30 1731 O 159.832 -1.62881 -0.617692 0
M  V30 1732 C 156.964 -3.22564 -1.10296 0
M  V30 1733 H 158.157 -2.92103 0.679401 0
M  V30 1734 H 155.71 -1.51343 0.390517 0
M  V30 1735 H 156.445 -2.64416 -1.87762 0
M  V30 1736 H 156.23 -3.87491 -0.59941 0
M  V30 1737 H 157.72 -3.86167 -1.5895 0
M  V30 1738 N 158.157 -0.370918 -1.53173 0
M  V30 1739 C 159.434 0.273754 -1.93675 0
M  V30 1740 C 159.814 1.65938 -1.3049 0
M  V30 1741 O 159.162 2.23698 -0.465999 0
M  V30 1742 C 159.372 0.318602 -3.47543 0
M  V30 1743 C 160.72 0.556392 -4.20939 0
M  V30 1744 O 161.744 0.399587 -3.53952 0
M  V30 1745 O 160.603 0.862133 -5.39657 0
M  V30 1746 H 157.697 0.165448 -0.810281 0
M  V30 1747 H 160.243 -0.42409 -1.64315 0
M  V30 1748 H 159.015 -0.652687 -3.85818 0
M  V30 1749 H 158.638 1.06212 -3.83151 0
M  V30 1750 N 159.635 1.57281 -0.100228 0
M  V30 1751 C 160.884 1.93713 0.561984 0
M  V30 1752 C 161.197 0.984492 1.69018 0
M  V30 1753 O 162.403 1.24273 2.41389 0
M  V30 1754 C 160.859 3.4421 1.05106 0
M  V30 1755 C 160.467 4.47975 -0.0476628 0
M  V30 1756 C 162.211 3.89595 1.68571 0
M  V30 1757 C 160.118 5.89631 0.457055 0
M  V30 1758 H 159.048 0.723082 0.2137 0
M  V30 1759 H 161.699 1.82644 -0.177057 0
M  V30 1760 H 160.081 3.50449 1.84395 0
M  V30 1761 H 161.255 4.53385 -0.823333 0
M  V30 1762 H 159.57 4.1223 -0.587816 0
M  V30 1763 H 162.167 4.92832 2.07414 0
M  V30 1764 H 162.51 3.28526 2.55688 0
M  V30 1765 H 163.043 3.86078 0.958562 0
M  V30 1766 H 159.782 6.54411 -0.377616 0
M  V30 1767 H 159.302 5.87681 1.19962 0
M  V30 1768 H 160.981 6.40363 0.92437 0
M  V30 1769 N 161.113 -0.173488 1.56642 0
M  V30 1770 C 162.39 -0.917617 1.7274 0
M  V30 1771 C 162.77 -2.00484 0.661027 0
M  V30 1772 O 162.118 -2.26184 -0.32453 0
M  V30 1773 C 162.328 -1.48433 3.15862 0
M  V30 1774 C 163.676 -1.95809 3.76754 0
M  V30 1775 O 164.7 -1.58231 3.19126 0
M  V30 1776 O 163.559 -2.65024 4.77938 0
M  V30 1777 H 160.653 -0.431772 0.705338 0
M  V30 1778 H 163.199 -0.161487 1.6893 0
M  V30 1779 H 161.971 -0.701715 3.84957 0
M  V30 1780 H 161.594 -2.30471 3.23989 0
M  V30 1781 N 162.591 -1.51276 -0.441967 0
M  V30 1782 C 163.84 -1.6295 -1.18871 0
M  V30 1783 C 164.153 -0.349312 -1.92456 0
M  V30 1784 O 165.359 -0.345355 -2.69295 0
M  V30 1785 C 163.815 -2.87759 -2.16155 0
M  V30 1786 C 163.423 -4.22764 -1.48239 0
M  V30 1787 C 165.167 -3.08788 -2.91291 0
M  V30 1788 C 163.074 -5.38728 -2.4398 0
M  V30 1789 H 162.004 -0.606913 -0.447406 0
M  V30 1790 H 164.655 -1.77739 -0.456205 0
M  V30 1791 H 163.037 -2.66593 -2.92821 0
M  V30 1792 H 164.211 -4.54293 -0.771635 0
M  V30 1793 H 162.526 -4.07575 -0.852741 0
M  V30 1794 H 165.123 -3.92599 -3.63002 0
M  V30 1795 H 165.466 -2.21679 -3.5237 0
M  V30 1796 H 165.999 -3.30272 -2.21733 0
M  V30 1797 H 162.738 -6.28082 -1.87598 0
M  V30 1798 H 162.258 -5.1158 -3.13123 0
M  V30 1799 H 163.937 -5.70489 -3.05207 0
M  V30 1800 N 164.069 0.697108 -1.41344 0
M  V30 1801 C 164.979 1.84088 -1.45427 0
M  V30 1802 C 165.995 1.70545 -0.34501 0
M  V30 1803 O 167.171 1.92488 -0.592492 0
M  V30 1804 C 164.236 3.20056 -1.33286 0
M  V30 1805 C 163.297 3.45718 -2.54514 0
M  V30 1806 C 162.53 4.75199 -2.42944 0
M  V30 1807 O 162.753 5.51579 -1.45318 0
M  V30 1808 O 161.687 5.0161 -3.32672 0
M  V30 1809 H 165.513 1.836 -2.41919 0
M  V30 1810 H 163.098 0.849966 -1.22866 0
M  V30 1811 H 164.98 4.01236 -1.28794 0
M  V30 1812 H 163.655 3.2123 -0.39909 0
M  V30 1813 H 162.562 2.64474 -2.64583 0
M  V30 1814 H 163.895 3.49356 -3.46715 0
M  V30 1815 N 165.547 1.27147 0.931209 0
M  V30 1816 C 166.494 1.09568 2.03134 0
M  V30 1817 C 167.464 -0.00222433 1.661 0
M  V30 1818 O 168.649 0.159439 1.90133 0
M  V30 1819 C 165.789 0.745231 3.36957 0
M  V30 1820 C 164.902 1.92041 3.86968 0
M  V30 1821 C 164.037 1.51216 5.09222 0
M  V30 1822 C 163.076 2.65504 5.5152 0
M  V30 1823 N 162.213 2.25291 6.64972 0
M  V30 1824 H 167.053 2.03708 2.17502 0
M  V30 1825 H 164.59 1.01411 1.06556 0
M  V30 1826 H 166.548 0.522878 4.1391 0
M  V30 1827 H 165.178 -0.159202 3.22407 0
M  V30 1828 H 164.23 2.25541 3.06326 0
M  V30 1829 H 165.542 2.77787 4.1429 0
M  V30 1830 H 164.696 1.25084 5.93666 0
M  V30 1831 H 163.435 0.625749 4.83669 0
M  V30 1832 H 162.44 2.92354 4.65628 0
M  V30 1833 H 163.665 3.54761 5.7907 0
M  V30 1834 H 161.611 1.39098 6.41083 0
M  V30 1835 H 161.528 3.04577 6.91931 0
M  V30 1836 H 162.796 2.02398 7.52765 0
M  V30 1837 N 167.025 -1.13721 1.09112 0
M  V30 1838 C 167.975 -2.17082 0.697091 0
M  V30 1839 C 168.959 -1.58321 -0.286923 0
M  V30 1840 O 170.151 -1.7673 -0.0978008 0
M  V30 1841 C 167.28 -3.43105 0.115729 0
M  V30 1842 C 166.366 -4.0888 1.12596 0
M  V30 1843 N 166.757 -4.4987 2.31195 0
M  V30 1844 C 165.055 -4.35471 0.963366 0
M  V30 1845 C 165.756 -5.01094 2.95431 0
M  V30 1846 N 164.732 -4.95751 2.23006 0
M  V30 1847 H 168.534 -2.46524 1.6001 0
M  V30 1848 H 166.048 -1.30481 0.966869 0
M  V30 1849 H 168.045 -4.16491 -0.184555 0
M  V30 1850 H 166.705 -3.15138 -0.78217 0
M  V30 1851 H 167.716 -4.42678 2.68806 0
M  V30 1852 H 164.393 -4.17328 0.119878 0
M  V30 1853 H 165.783 -5.4263 3.96236 0
M  V30 1854 N 168.503 -0.877838 -1.30888 0
M  V30 1855 C 169.435 -0.296607 -2.27273 0
M  V30 1856 C 170.448 0.544799 -1.53414 0
M  V30 1857 O 171.637 0.365511 -1.74718 0
M  V30 1858 C 168.737 0.597481 -3.33592 0
M  V30 1859 C 167.91 -0.213251 -4.3688 0
M  V30 1860 C 166.969 0.610208 -5.2265 0
M  V30 1861 O 165.995 0.035441 -5.69189 0
M  V30 1862 N 167.197 1.92071 -5.47804 0
M  V30 1863 H 169.962 -1.12492 -2.77787 0
M  V30 1864 H 167.523 -0.740105 -1.43993 0
M  V30 1865 H 169.515 1.15425 -3.87891 0
M  V30 1866 H 168.085 1.32647 -2.83061 0
M  V30 1867 H 167.305 -0.951466 -3.82545 0
M  V30 1868 H 168.593 -0.769262 -5.02951 0
M  V30 1869 H 167.991 2.4107 -5.11763 0
M  V30 1870 H 166.548 2.42508 -6.05007 0
M  V30 1871 N 169.982 1.44106 -0.638065 0
M  V30 1872 C 171.398 1.56672 -0.304286 0
M  V30 1873 C 171.598 1.6244 1.19228 0
M  V30 1874 O 170.654 1.57121 1.9766 0
M  V30 1875 C 171.967 2.83503 -1.00231 0
M  V30 1876 C 173.515 2.97226 -0.981116 0
M  V30 1877 C 173.99 4.26868 -1.65974 0
M  V30 1878 N 175.481 4.33698 -1.62666 0
M  V30 1879 C 176.216 5.32745 -2.12063 0
M  V30 1880 N 175.712 6.38157 -2.6968 0
M  V30 1881 N 177.505 5.24299 -2.02651 0
M  V30 1882 H 169.656 1.38605 -1.60942 0
M  V30 1883 H 171.919 0.664661 -0.675965 0
M  V30 1884 H 171.625 2.85251 -2.0573 0
M  V30 1885 H 171.499 3.73251 -0.54439 0
M  V30 1886 H 173.886 2.95027 0.0654188 0
M  V30 1887 H 173.967 2.08808 -1.47759 0
M  V30 1888 H 173.611 4.29826 -2.70576 0
M  V30 1889 H 173.541 5.14156 -1.13804 0
M  V30 1890 H 176.032 3.58138 -1.20606 0
M  V30 1891 H 176.345 7.10029 -3.05087 0
M  V30 1892 H 174.69 6.38823 -2.73734 0
M  V30 1893 H 177.881 4.4086 -1.57353 0
M  V30 1894 H 178.054 6.01334 -2.41457 0
M  V30 1895 N 171.46 0.379036 1.52974 0
M  V30 1896 C 172.709 -0.207612 2.00629 0
M  V30 1897 C 173.022 -1.48758 1.27006 0
M  V30 1898 O 174.228 -2.15365 1.65318 0
M  V30 1899 C 172.684 -0.42053 3.57435 0
M  V30 1900 C 172.292 0.845587 4.39948 0
M  V30 1901 C 174.036 -0.964102 4.13407 0
M  V30 1902 C 171.943 0.601513 5.88333 0
M  V30 1903 H 170.873 -0.0813591 0.749598 0
M  V30 1904 H 173.524 0.499853 1.76561 0
M  V30 1905 H 171.906 -1.18959 3.7771 0
M  V30 1906 H 173.08 1.61848 4.31442 0
M  V30 1907 H 171.395 1.31336 3.95145 0
M  V30 1908 H 173.992 -1.16225 5.21916 0
M  V30 1909 H 174.335 -1.93019 3.68849 0
M  V30 1910 H 174.868 -0.25487 3.96983 0
M  V30 1911 H 171.607 1.53831 6.37194 0
M  V30 1912 H 171.127 -0.132628 5.99653 0
M  V30 1913 H 172.806 0.232134 6.46583 0
M  V30 1914 N 172.938 -1.57226 0.108567 0
M  V30 1915 C 174.187 -1.94008 -0.551703 0
M  V30 1916 C 174.5 -0.993442 -1.68494 0
M  V30 1917 O 175.706 -1.25551 -2.40726 0
M  V30 1918 C 174.162 -3.44763 -1.03279 0
M  V30 1919 C 173.77 -4.47943 0.0714193 0
M  V30 1920 C 175.514 -3.90483 -1.66503 0
M  V30 1921 C 173.421 -5.89865 -0.425779 0
M  V30 1922 H 172.351 -0.724206 -0.209863 0
M  V30 1923 H 175.002 -1.82547 0.186741 0
M  V30 1924 H 173.384 -3.51422 -1.82533 0
M  V30 1925 H 174.558 -4.52942 0.847365 0
M  V30 1926 H 172.873 -4.11913 0.609669 0
M  V30 1927 H 175.47 -4.93925 -2.04798 0
M  V30 1928 H 175.813 -3.29877 -2.53942 0
M  V30 1929 H 176.346 -3.86581 -0.938074 0
M  V30 1930 H 173.085 -6.54202 0.412316 0
M  V30 1931 H 172.605 -5.88309 -1.16843 0
M  V30 1932 H 174.284 -6.40844 -0.890397 0
M  V30 1933 N 174.416 0.165178 -1.56732 0
M  V30 1934 C 175.644 0.896218 -1.86482 0
M  V30 1935 C 176.059 1.75555 -0.694675 0
M  V30 1936 O 175.416 1.79379 0.33607 0
M  V30 1937 C 175.467 1.76792 -3.1532 0
M  V30 1938 O 175.188 0.943239 -4.27825 0
M  V30 1939 C 176.689 2.6081 -3.58459 0
M  V30 1940 H 173.909 0.260064 -0.618553 0
M  V30 1941 H 176.453 0.163428 -2.03846 0
M  V30 1942 H 174.608 2.45398 -2.99764 0
M  V30 1943 H 175.022 1.53998 -5.01383 0
M  V30 1944 H 176.496 3.17579 -4.51495 0
M  V30 1945 H 176.973 3.35977 -2.82872 0
M  V30 1946 H 177.579 1.97526 -3.76648 0
M  V30 1947 N 175.894 1.51508 0.433938 0
M  V30 1948 C 176.844 1.69451 1.52546 0
M  V30 1949 C 177.828 0.548474 1.51263 0
M  V30 1950 O 179.02 0.804529 1.57659 0
M  V30 1951 C 176.149 1.82604 2.90707 0
M  V30 1952 C 175.235 3.03002 2.96733 0
M  V30 1953 N 175.626 4.26121 2.72496 0
M  V30 1954 C 173.924 3.02327 3.27894 0
M  V30 1955 C 174.625 5.07407 2.84452 0
M  V30 1956 N 173.601 4.42126 3.16269 0
M  V30 1957 H 177.403 2.62305 1.32564 0
M  V30 1958 H 174.917 1.49202 0.641297 0
M  V30 1959 H 176.914 1.93569 3.69238 0
M  V30 1960 H 175.574 0.909339 3.11707 0
M  V30 1961 H 176.585 4.55009 2.4736 0
M  V30 1962 H 173.262 2.20301 3.54646 0
M  V30 1963 H 174.652 6.15422 2.69639 0
M  V30 1964 N 177.372 -0.689602 1.41712 0
M  V30 1965 C 178.302 -1.81577 1.46806 0
M  V30 1966 C 179.283 -1.66945 0.326105 0
M  V30 1967 O 180.468 -1.86588 0.538377 0
M  V30 1968 C 177.598 -3.19762 1.35535 0
M  V30 1969 C 176.552 -3.49107 2.47605 0
M  V30 1970 C 175.878 -4.86711 2.21397 0
M  V30 1971 C 177.178 -3.47483 3.89939 0
M  V30 1972 H 178.872 -1.7757 2.41058 0
M  V30 1973 H 176.418 -0.852887 1.16025 0
M  V30 1974 H 178.371 -3.98263 1.3771 0
M  V30 1975 H 177.095 -3.24409 0.377708 0
M  V30 1976 H 175.754 -2.72959 2.44722 0
M  V30 1977 H 175.402 -4.8799 1.21961 0
M  V30 1978 H 175.102 -5.0731 2.96497 0
M  V30 1979 H 176.626 -5.67515 2.25297 0
M  V30 1980 H 178.04 -4.1598 3.94505 0
M  V30 1981 H 176.437 -3.79615 4.64771 0
M  V30 1982 H 177.507 -2.46341 4.17665 0
M  V30 1983 N 178.85 -1.27639 -0.924453 0
M  V30 1984 C 179.782 -1.06442 -2.02985 0
M  V30 1985 C 180.795 -0.0194771 -1.62788 0
M  V30 1986 O 181.984 -0.261388 -1.76576 0
M  V30 1987 C 179.084 -0.59327 -3.33667 0
M  V30 1988 C 178.257 -1.71123 -4.02537 0
M  V30 1989 C 177.316 -1.23527 -5.11495 0
M  V30 1990 O 176.342 -1.93553 -5.35281 0
M  V30 1991 N 177.544 -0.0926678 -5.80426 0
M  V30 1992 H 180.309 -2.01633 -2.2173 0
M  V30 1993 H 177.87 -1.19248 -1.09505 0
M  V30 1994 H 179.862 -0.258686 -4.03872 0
M  V30 1995 H 178.432 0.265502 -3.1147 0
M  V30 1996 H 177.652 -2.21593 -3.26022 0
M  V30 1997 H 178.94 -2.46145 -4.45298 0
M  V30 1998 H 178.338 0.491741 -5.63559 0
M  V30 1999 H 176.895 0.182714 -6.51544 0
M  V30 2000 N 180.328 1.1314 -1.09713 0
M  V30 2001 C 181.26 2.18343 -0.697056 0
M  V30 2002 C 182.273 1.60669 0.262551 0
M  V30 2003 O 183.462 1.78435 0.0481527 0
M  V30 2004 C 180.562 3.38899 -0.00684728 0
M  V30 2005 C 179.735 4.26078 -0.988741 0
M  V30 2006 C 178.794 5.25155 -0.331394 0
M  V30 2007 O 177.82 5.60701 -0.979926 0
M  V30 2008 N 179.022 5.73271 0.913261 0
M  V30 2009 H 181.787 2.5328 -1.60216 0
M  V30 2010 H 179.348 1.28491 -0.984971 0
M  V30 2011 H 181.34 4.02255 0.444191 0
M  V30 2012 H 179.91 3.02175 0.800551 0
M  V30 2013 H 179.13 3.59453 -1.61826 0
M  V30 2014 H 180.418 4.81178 -1.65364 0
M  V30 2015 H 179.816 5.46544 1.45966 0
M  V30 2016 H 178.373 6.3855 1.30757 0
M  V30 2017 N 181.806 0.884767 1.30421 0
M  V30 2018 C 183.036 0.517293 2.00019 0
M  V30 2019 C 183.444 -0.898632 1.66497 0
M  V30 2020 O 182.787 -1.60245 0.898181 0
M  V30 2021 C 182.849 0.612025 3.54252 0
M  V30 2022 C 182.513 1.99222 4.1129 0
M  V30 2023 C 183.51 2.9616 4.273 0
M  V30 2024 C 181.195 2.29755 4.46674 0
M  V30 2025 C 183.189 4.21764 4.77906 0
M  V30 2026 C 180.876 3.55606 4.96979 0
M  V30 2027 C 181.874 4.51425 5.12547 0
M  V30 2028 O 181.562 5.75043 5.61766 0
M  V30 2029 H 181.294 0.198529 0.64619 0
M  V30 2030 H 183.848 1.1919 1.67281 0
M  V30 2031 H 182.078 -0.119561 3.86515 0
M  V30 2032 H 183.767 0.255859 4.05093 0
M  V30 2033 H 184.533 2.73882 4.00267 0
M  V30 2034 H 180.412 1.55942 4.33824 0
M  V30 2035 H 183.956 4.96561 4.89972 0
M  V30 2036 H 179.853 3.7772 5.23448 0
M  V30 2037 H 180.621 5.77422 5.80109 0
M  V30 2038 N 183.284 -1.43765 0.645699 0
M  V30 2039 C 184.232 -2.32516 -0.0624849 0
M  V30 2040 C 185.226 -1.48183 -0.820855 0
M  V30 2041 O 186.432 -1.64439 -0.732106 0
M  V30 2042 H 182.807 -0.750989 -0.0389864 0
M  V30 2043 H 184.778 -2.89979 0.703892 0
M  V30 2044 C 183.527 -3.32389 -1.02044 0
M  V30 2045 H 182.85 -3.97301 -0.446312 0
M  V30 2046 H 184.29 -3.97138 -1.48517 0
M  V30 2047 C 182.749 -2.62416 -2.11281 0
M  V30 2048 O 183.279 -2.434 -3.19561 0
M  V30 2049 N 181.485 -2.21913 -1.87624 0
M  V30 2050 H 181.032 -2.37578 -0.995703 0
M  V30 2051 H 180.99 -1.75424 -2.6091 0
M  V30 2052 N 184.763 -0.387143 -1.52771 0
M  V30 2053 C 185.71 0.449048 -2.26389 0
M  V30 2054 C 186.68 1.05961 -1.27912 0
M  V30 2055 O 187.865 1.08804 -1.56737 0
M  V30 2056 C 185.005 1.57155 -3.0724 0
M  V30 2057 C 184.118 0.984066 -4.20643 0
M  V30 2058 C 183.253 2.07745 -4.88892 0
M  V30 2059 C 182.292 1.46574 -5.94292 0
M  V30 2060 N 181.429 2.49834 -6.56146 0
M  V30 2061 H 186.269 -0.185205 -2.97424 0
M  V30 2062 H 183.806 -0.103164 -1.46738 0
M  V30 2063 H 185.764 2.23309 -3.52405 0
M  V30 2064 H 184.394 2.17615 -2.38419 0
M  V30 2065 H 183.446 0.212193 -3.79808 0
M  V30 2066 H 184.758 0.497029 -4.96318 0
M  V30 2067 H 183.912 2.81673 -5.3735 0
M  V30 2068 H 182.651 2.59807 -4.12737 0
M  V30 2069 H 181.656 0.711696 -5.45174 0
M  V30 2070 H 182.881 0.953088 -6.72379 0
M  V30 2071 H 180.827 3.0107 -5.82832 0
M  V30 2072 H 180.744 2.05879 -7.27427 0
M  V30 2073 H 182.012 3.23399 -7.09249 0
M  V30 2074 N 186.241 1.57166 -0.116904 0
M  V30 2075 C 187.151 2.18745 0.847812 0
M  V30 2076 C 188.167 1.163 1.29423 0
M  V30 2077 O 189.343 1.48761 1.35765 0
M  V30 2078 C 186.408 2.77307 2.0809 0
M  V30 2079 C 185.469 3.94781 1.68661 0
M  V30 2080 C 184.702 4.50541 2.86091 0
M  V30 2081 O 184.925 4.05202 4.01456 0
M  V30 2082 O 183.859 5.41256 2.63298 0
M  V30 2083 H 187.685 3.01632 0.353778 0
M  V30 2084 H 185.27 1.49005 0.108599 0
M  V30 2085 H 187.152 3.14647 2.80313 0
M  V30 2086 H 185.827 1.97452 2.56504 0
M  V30 2087 H 184.734 3.62214 0.935518 0
M  V30 2088 H 186.067 4.76065 1.24991 0
M  V30 2089 N 187.719 -0.156864 1.56817 0
M  V30 2090 C 188.965 -0.872416 1.83076 0
M  V30 2091 C 189.298 -1.81261 0.697001 0
M  V30 2092 O 188.573 -1.92171 -0.30008 0
M  V30 2093 C 188.856 -1.65551 3.19789 0
M  V30 2094 C 188.709 -0.737467 4.43713 0
M  V30 2095 C 190.028 -2.62012 3.53606 0
M  V30 2096 H 187.147 -0.315715 0.665953 0
M  V30 2097 H 189.789 -0.138004 1.89498 0
M  V30 2098 H 187.939 -2.28159 3.14445 0
M  V30 2099 H 189.611 -0.123143 4.61136 0
M  V30 2100 H 187.854 -0.0464067 4.33775 0
M  V30 2101 H 188.525 -1.32122 5.35955 0
M  V30 2102 H 191.001 -2.09525 3.59497 0
M  V30 2103 H 189.877 -3.13861 4.50314 0
M  V30 2104 H 190.138 -3.42902 2.79053 0
M  V30 2105 N 189.197 -1.51736 -0.425897 0
M  V30 2106 C 190.446 -1.64201 -1.17136 0
M  V30 2107 C 190.759 -0.369705 -1.92074 0
M  V30 2108 O 191.965 -0.373898 -2.68913 0
M  V30 2109 C 190.421 -2.90035 -2.13091 0
M  V30 2110 C 190.029 -4.24312 -1.43747 0
M  V30 2111 C 191.773 -3.1186 -2.87999 0
M  V30 2112 C 189.68 -5.41285 -2.38253 0
M  V30 2113 H 188.61 -0.611624 -0.440944 0
M  V30 2114 H 191.261 -1.78212 -0.437328 0
M  V30 2115 H 189.643 -2.69684 -2.89977 0
M  V30 2116 H 190.817 -4.55086 -0.723408 0
M  V30 2117 H 189.132 -4.08456 -0.809465 0
M  V30 2118 H 191.729 -3.96427 -3.58817 0
M  V30 2119 H 192.072 -2.25403 -3.49999 0
M  V30 2120 H 192.605 -3.32605 -2.18217 0
M  V30 2121 H 189.344 -6.30037 -1.80925 0
M  V30 2122 H 188.864 -5.14872 -3.0768 0
M  V30 2123 H 190.543 -5.73694 -2.99139 0
M  V30 2124 N 190.675 0.682077 -1.42076 0
M  V30 2125 C 191.924 1.43786 -1.41451 0
M  V30 2126 C 192.237 1.95574 -0.0317074 0
M  V30 2127 O 193.443 2.71326 0.0971462 0
M  V30 2128 C 191.899 2.60071 -2.48779 0
M  V30 2129 C 191.507 2.15013 -3.93031 0
M  V30 2130 C 193.251 3.37626 -2.57311 0
M  V30 2131 C 191.158 3.28336 -4.91883 0
M  V30 2132 H 190.088 0.540143 -0.526082 0
M  V30 2133 H 192.739 0.739157 -1.67955 0
M  V30 2134 H 191.121 3.32275 -2.15429 0
M  V30 2135 H 192.295 1.5001 -4.35699 0
M  V30 2136 H 190.61 1.50416 -3.88284 0
M  V30 2137 H 193.207 4.22012 -3.28345 0
M  V30 2138 H 193.55 3.83727 -1.61429 0
M  V30 2139 H 194.083 2.72488 -2.89819 0
M  V30 2140 H 190.822 2.87234 -5.89217 0
M  V30 2141 H 190.342 3.92145 -4.53853 0
M  V30 2142 H 192.021 3.93913 -5.13265 0
M  V30 2143 N 192.153 1.28127 0.917671 0
M  V30 2144 C 193.378 1.18007 1.70555 0
M  V30 2145 C 193.803 -0.258257 1.86319 0
M  V30 2146 O 193.161 -1.1869 1.37049 0
M  V30 2147 C 193.209 1.87948 3.07746 0
M  V30 2148 O 192.313 1.18427 3.9503 0
M  V30 2149 H 191.654 0.409867 0.522403 0
M  V30 2150 H 194.184 1.69379 1.1477 0
M  V30 2151 H 194.194 1.95701 3.58001 0
M  V30 2152 H 192.869 2.92573 2.95591 0
M  V30 2153 H 191.446 1.18811 3.53466 0
M  V30 2154 N 193.631 -1.12557 1.10312 0
M  V30 2155 C 194.581 -2.16331 0.720076 0
M  V30 2156 C 195.565 -1.58616 -0.270115 0
M  V30 2157 O 196.757 -1.76823 -0.0790507 0
M  V30 2158 C 193.886 -3.42963 0.152113 0
M  V30 2159 C 192.972 -4.07663 1.16927 0
M  V30 2160 N 193.363 -4.47392 2.35953 0
M  V30 2161 C 191.661 -4.34425 1.0095 0
M  V30 2162 C 192.362 -4.97932 3.0073 0
M  V30 2163 N 191.338 -4.93358 2.28252 0
M  V30 2164 H 195.14 -2.44813 1.62616 0
M  V30 2165 H 192.654 -1.29449 0.980654 0
M  V30 2166 H 194.651 -4.16664 -0.14037 0
M  V30 2167 H 193.311 -3.1595 -0.748701 0
M  V30 2168 H 194.322 -4.39802 2.73486 0
M  V30 2169 H 190.999 -4.17177 0.164134 0
M  V30 2170 H 192.389 -5.38397 4.01969 0
M  V30 2171 N 195.109 -0.891671 -1.2995 0
M  V30 2172 C 196.059 -0.334811 -2.25528 0
M  V30 2173 C 197.043 0.540553 -1.51548 0
M  V30 2174 O 198.235 0.383882 -1.72787 0
M  V30 2175 C 195.364 0.44374 -3.4042 0
M  V30 2176 C 194.45 -0.44609 -4.21747 0
M  V30 2177 N 194.841 -1.54963 -4.81477 0
M  V30 2178 C 193.139 -0.242415 -4.45341 0
M  V30 2179 C 193.84 -2.10015 -5.42465 0
M  V30 2180 N 192.816 -1.39423 -5.25416 0
M  V30 2181 H 196.618 -1.17792 -2.69262 0
M  V30 2182 H 194.132 -0.741822 -1.44467 0
M  V30 2183 H 196.129 0.859362 -4.07947 0
M  V30 2184 H 194.789 1.28421 -2.98225 0
M  V30 2185 H 195.8 -1.93244 -4.80497 0
M  V30 2186 H 192.477 0.560342 -4.13723 0
M  V30 2187 H 193.867 -3.02724 -5.9984 0
M  V30 2188 N 196.587 1.43421 -0.653314 0
M  V30 2189 C 197.535 2.32546 0.0501531 0
M  V30 2190 C 198.529 1.48617 0.812985 0
M  V30 2191 O 199.735 1.64825 0.723375 0
M  V30 2192 H 196.11 0.751185 0.0350032 0
M  V30 2193 H 198.081 2.89602 -0.719261 0
M  V30 2194 C 196.83 3.32925 1.00279 0
M  V30 2195 H 196.153 3.97532 0.425236 0
M  V30 2196 H 197.593 3.9792 1.46409 0
M  V30 2197 C 196.052 2.63532 2.09886 0
M  V30 2198 O 196.582 2.45092 3.18265 0
M  V30 2199 N 194.788 2.22905 1.86445 0
M  V30 2200 H 194.335 2.38103 0.98309 0
M  V30 2201 H 194.293 1.76805 2.59976 0
M  V30 2202 N 198.065 0.39524 1.52563 0
M  V30 2203 C 199.312 -0.185044 2.01653 0
M  V30 2204 C 199.64 -1.46317 1.28146 0
M  V30 2205 O 198.895 -1.9213 0.372074 0
M  V30 2206 C 199.194 -0.493444 3.53977 0
M  V30 2207 C 198.86 0.69384 4.4553 0
M  V30 2208 C 197.522 1.01954 4.70275 0
M  V30 2209 C 199.874 1.48785 4.99512 0
M  V30 2210 C 197.202 2.14069 5.46252 0
M  V30 2211 C 199.554 2.59965 5.76716 0
M  V30 2212 C 198.218 2.93037 5.99738 0
M  V30 2213 H 197.488 -0.0677123 0.7379 0
M  V30 2214 H 200.135 0.533807 1.8391 0
M  V30 2215 H 198.44 -1.29369 3.69825 0
M  V30 2216 H 200.137 -0.955163 3.89458 0
M  V30 2217 H 196.727 0.429987 4.26438 0
M  V30 2218 H 200.911 1.24946 4.80315 0
M  V30 2219 H 196.167 2.40056 5.62302 0
M  V30 2220 H 200.341 3.21887 6.17545 0
M  V30 2221 H 197.968 3.8003 6.58393 0
M  V30 2222 N 199.544 -1.57102 0.125237 0
M  V30 2223 C 200.454 -2.19191 -0.8362 0
M  V30 2224 C 201.47 -1.16985 -1.28805 0
M  V30 2225 O 202.646 -1.49479 -1.34974 0
M  V30 2226 C 199.711 -2.78407 -2.06617 0
M  V30 2227 C 198.772 -3.9567 -1.66565 0
M  V30 2228 C 198.005 -4.52052 -2.83698 0
M  V30 2229 O 198.228 -4.07326 -3.99302 0
M  V30 2230 O 197.162 -5.42645 -2.60423 0
M  V30 2231 H 200.988 -3.01816 -0.337776 0
M  V30 2232 H 198.573 -1.4906 -0.100695 0
M  V30 2233 H 200.455 -3.16129 -2.7864 0
M  V30 2234 H 199.13 -1.9881 -2.55453 0
M  V30 2235 H 198.037 -3.62705 -0.916296 0
M  V30 2236 H 199.37 -4.76722 -1.22464 0
M  V30 2237 N 201.022 0.148545 -1.56898 0
M  V30 2238 C 202.247 0.880385 -1.87787 0
M  V30 2239 C 202.672 1.74018 -0.714093 0
M  V30 2240 O 202.03 1.78153 0.336343 0
M  V30 2241 C 202.078 1.71422 -3.17249 0
M  V30 2242 O 201.182 2.8183 -3.01074 0
M  V30 2243 H 200.523 0.245301 -0.617028 0
M  V30 2244 H 203.053 0.139826 -2.04122 0
M  V30 2245 H 203.063 2.10954 -3.49231 0
M  V30 2246 H 201.738 1.08284 -4.01556 0
M  V30 2247 H 200.315 2.45715 -2.80497 0
M  V30 2248 N 202.5 1.5196 0.417844 0
M  V30 2249 C 203.728 1.69426 1.18753 0
M  V30 2250 C 204.143 0.399955 1.84515 0
M  V30 2251 O 203.5 -0.623288 1.71527 0
M  V30 2252 C 203.551 2.82375 2.25714 0
M  V30 2253 O 203.272 4.06793 1.62638 0
M  V30 2254 C 204.773 3.11277 3.15628 0
M  V30 2255 H 201.993 0.568031 0.357186 0
M  V30 2256 H 204.537 1.98475 0.49273 0
M  V30 2257 H 202.692 2.5587 2.90877 0
M  V30 2258 H 203.106 4.69667 2.3348 0
M  V30 2259 H 204.58 3.93843 3.86771 0
M  V30 2260 H 205.057 2.24473 3.77503 0
M  V30 2261 H 205.663 3.39515 2.56144 0
M  V30 2262 N 203.978 -0.674533 1.42435 0
M  V30 2263 C 205.389 -1.25514 1.38214 0
M  V30 2264 C 205.74 -1.96055 0.0755464 0
M  V30 2265 O 204.865 -2.00028 -0.8257 0
M  V30 2266 C 205.46 -2.28269 2.50357 0
M  V30 2267 C 204.019 -2.81856 2.49467 0
M  V30 2268 C 203.166 -1.56182 2.29134 0
M  V30 2269 H 206.117 -0.467902 1.51646 0
M  V30 2270 H 206.138 -3.10009 2.20624 0
M  V30 2271 H 205.65 -1.769 3.45439 0
M  V30 2272 H 203.751 -3.37346 1.58204 0
M  V30 2273 H 203.864 -3.30854 3.46515 0
M  V30 2274 H 202.228 -1.82761 1.774 0
M  V30 2275 H 203.011 -1.06778 3.26272 0
M  V30 2276 N 205.456 -1.28612 -0.910864 0
M  V30 2277 C 206.867 -1.14406 -1.47541 0
M  V30 2278 C 207.218 0.264901 -1.94403 0
M  V30 2279 O 206.343 1.15942 -1.82719 0
M  V30 2280 C 206.938 -2.07073 -2.68153 0
M  V30 2281 C 205.497 -1.96923 -3.20778 0
M  V30 2282 C 204.644 -1.98646 -1.93481 0
M  V30 2283 H 207.595 -1.41259 -0.723291 0
M  V30 2284 H 207.616 -1.63642 -3.43514 0
M  V30 2285 H 207.128 -3.09611 -2.34015 0
M  V30 2286 H 205.229 -0.97433 -3.59635 0
M  V30 2287 H 205.342 -2.84026 -3.85832 0
M  V30 2288 H 203.706 -1.43093 -2.10705 0
M  V30 2289 H 204.489 -3.02868 -1.61634 0
M  V30 2290 N 206.934 1.1197 -1.10907 0
M  V30 2291 C 207.864 2.19928 -0.784473 0
M  V30 2292 C 208.845 1.6833 0.244726 0
M  V30 2293 O 210.03 1.93892 0.109418 0
M  V30 2294 C 207.16 3.46597 -0.220827 0
M  V30 2295 C 206.114 4.11376 -1.18127 0
M  V30 2296 C 205.44 5.32554 -0.478594 0
M  V30 2297 C 206.74 4.56945 -2.52979 0
M  V30 2298 H 208.434 2.47337 -1.68715 0
M  V30 2299 H 205.98 1.18879 -0.812642 0
M  V30 2300 H 207.933 4.21396 0.0184278 0
M  V30 2301 H 206.657 3.1863 0.717113 0
M  V30 2302 H 205.316 3.38564 -1.40606 0
M  V30 2303 H 204.964 5.00856 0.463976 0
M  V30 2304 H 204.664 5.76844 -1.11912 0
M  V30 2305 H 206.188 6.10096 -0.248 0
M  V30 2306 H 207.602 5.23093 -2.3462 0
M  V30 2307 H 205.999 5.1203 -3.12962 0
M  V30 2308 H 207.069 3.70676 -3.12614 0
M  V30 2309 N 208.412 0.89855 1.29475 0
M  V30 2310 C 209.689 0.443416 1.90508 0
M  V30 2311 C 210.069 -1.07685 1.81569 0
M  V30 2312 O 209.417 -1.9182 1.24166 0
M  V30 2313 C 209.627 0.956708 3.35631 0
M  V30 2314 C 210.975 0.999728 4.12663 0
M  V30 2315 O 211.999 0.904299 3.4453 0
M  V30 2316 O 210.858 1.14289 5.34416 0
M  V30 2317 H 207.952 0.138025 0.815401 0
M  V30 2318 H 210.498 0.98834 1.37949 0
M  V30 2319 H 209.27 2.00067 3.36287 0
M  V30 2320 H 208.893 0.391728 3.95666 0
M  V30 2321 N 209.89 -1.43072 0.660911 0
M  V30 2322 C 210.8 -2.34585 -0.0264163 0
M  V30 2323 C 211.816 -1.54316 -0.803898 0
M  V30 2324 O 212.992 -1.86939 -0.749391 0
M  V30 2325 C 210.057 -3.32689 -0.975639 0
M  V30 2326 C 209.118 -4.2886 -0.194236 0
M  V30 2327 C 208.351 -5.22278 -1.09825 0
M  V30 2328 O 208.574 -5.20299 -2.33763 0
M  V30 2329 O 207.508 -5.99228 -0.566513 0
M  V30 2330 H 211.334 -2.94869 0.727034 0
M  V30 2331 H 208.919 -1.43342 0.42111 0
M  V30 2332 H 210.801 -3.92995 -1.52094 0
M  V30 2333 H 209.476 -2.74898 -1.70918 0
M  V30 2334 H 208.383 -3.72011 0.394835 0
M  V30 2335 H 209.716 -4.89655 0.499899 0
M  V30 2336 N 211.368 -0.403325 -1.52352 0
M  V30 2337 C 212.298 0.416205 -2.29761 0
M  V30 2338 C 213.279 1.05123 -1.33728 0
M  V30 2339 O 214.464 1.06134 -1.62632 0
M  V30 2340 C 211.594 1.53624 -3.11475 0
M  V30 2341 C 210.548 1.02653 -4.15507 0
M  V30 2342 C 209.874 2.23971 -4.85532 0
M  V30 2343 C 211.174 0.08463 -5.22231 0
M  V30 2344 H 212.868 -0.229701 -2.98518 0
M  V30 2345 H 210.414 -0.111913 -1.43564 0
M  V30 2346 H 212.367 2.1165 -3.64393 0
M  V30 2347 H 211.091 2.20994 -2.40477 0
M  V30 2348 H 209.75 0.46871 -3.63591 0
M  V30 2349 H 209.398 2.89883 -4.11068 0
M  V30 2350 H 209.098 1.90521 -5.55856 0
M  V30 2351 H 210.622 2.82614 -5.41259 0
M  V30 2352 H 212.036 0.573509 -5.70424 0
M  V30 2353 H 210.433 -0.160783 -5.99885 0
M  V30 2354 H 211.503 -0.86237 -4.7717 0
M  V30 2355 N 212.846 1.57033 -0.133567 0
M  V30 2356 C 213.778 2.13176 0.841944 0
M  V30 2357 C 214.791 1.07794 1.22001 0
M  V30 2358 O 215.98 1.35117 1.16643 0
M  V30 2359 C 213.08 2.62847 2.13926 0
M  V30 2360 C 212.253 3.92486 1.93064 0
M  V30 2361 C 211.312 4.27605 3.0666 0
M  V30 2362 O 210.338 4.96168 2.78937 0
M  V30 2363 N 211.54 3.861 4.33483 0
M  V30 2364 H 214.305 2.97503 0.362192 0
M  V30 2365 H 211.866 1.61821 0.05042 0
M  V30 2366 H 213.858 2.83363 2.88942 0
M  V30 2367 H 212.428 1.83319 2.53205 0
M  V30 2368 H 211.648 3.80732 1.02159 0
M  V30 2369 H 212.936 4.77225 1.76447 0
M  V30 2370 H 212.334 3.30828 4.58878 0
M  V30 2371 H 210.891 4.11694 5.05323 0
M  V30 2372 N 214.325 -0.140222 1.56975 0
M  V30 2373 C 215.572 -0.851687 1.83719 0
M  V30 2374 C 215.9 -1.80862 0.715485 0
M  V30 2375 O 215.155 -1.93464 -0.294956 0
M  V30 2376 C 215.454 -1.65386 3.16832 0
M  V30 2377 C 215.12 -0.843112 4.42947 0
M  V30 2378 C 213.782 -0.619464 4.77196 0
M  V30 2379 C 216.134 -0.276582 5.20466 0
M  V30 2380 C 213.462 0.181312 5.8642 0
M  V30 2381 C 215.814 0.51127 6.30531 0
M  V30 2382 C 214.478 0.745432 6.63325 0
M  V30 2383 H 213.748 -0.311654 0.672274 0
M  V30 2384 H 216.395 -0.115006 1.91154 0
M  V30 2385 H 214.7 -2.46084 3.04877 0
M  V30 2386 H 216.397 -2.20793 3.34741 0
M  V30 2387 H 212.987 -1.0275 4.16101 0
M  V30 2388 H 217.171 -0.436632 4.94376 0
M  V30 2389 H 212.427 0.372165 6.10266 0
M  V30 2390 H 216.601 0.957354 6.89788 0
M  V30 2391 H 214.228 1.36778 7.47794 0
M  V30 2392 N 215.803 -1.52179 -0.40978 0
M  V30 2393 C 217.052 -1.65434 -1.15388 0
M  V30 2394 C 217.365 -0.390056 -1.91671 0
M  V30 2395 O 218.571 -0.402399 -2.68501 0
M  V30 2396 C 217.027 -2.92279 -2.10003 0
M  V30 2397 C 216.635 -4.25813 -1.39239 0
M  V30 2398 C 218.379 -3.14897 -2.84675 0
M  V30 2399 C 216.286 -5.43782 -2.32498 0
M  V30 2400 H 215.216 -0.616267 -0.434432 0
M  V30 2401 H 217.867 -1.78666 -0.418401 0
M  V30 2402 H 216.249 -2.72744 -2.871 0
M  V30 2403 H 217.423 -4.55828 -0.675099 0
M  V30 2404 H 215.738 -4.09292 -0.766097 0
M  V30 2405 H 218.335 -4.0021 -3.54593 0
M  V30 2406 H 218.678 -2.29103 -3.47588 0
M  V30 2407 H 219.211 -3.34901 -2.14677 0
M  V30 2408 H 215.95 -6.3192 -1.74233 0
M  V30 2409 H 215.47 -5.18106 -3.02201 0
M  V30 2410 H 217.149 -5.76834 -2.93038 0
M  V30 2411 N 217.281 0.66697 -1.42791 0
M  V30 2412 C 218.528 1.42699 -1.43678 0
M  V30 2413 C 218.856 1.94419 -0.0560425 0
M  V30 2414 O 218.111 1.7182 0.936831 0
M  V30 2415 C 218.41 2.6349 -2.4147 0
M  V30 2416 C 218.076 2.30267 -3.8767 0
M  V30 2417 C 216.738 2.20918 -4.27491 0
M  V30 2418 C 219.09 2.03435 -4.79858 0
M  V30 2419 C 216.418 1.82873 -5.57471 0
M  V30 2420 C 218.77 1.66892 -6.10188 0
M  V30 2421 C 217.434 1.56058 -6.49001 0
M  V30 2422 H 216.704 0.522171 -0.525755 0
M  V30 2423 H 219.351 0.759785 -1.75783 0
M  V30 2424 H 217.656 3.35279 -2.0272 0
M  V30 2425 H 219.353 3.21684 -2.39417 0
M  V30 2426 H 215.943 2.38449 -3.56146 0
M  V30 2427 H 220.127 2.09586 -4.49875 0
M  V30 2428 H 215.383 1.7306 -5.86396 0
M  V30 2429 H 219.557 1.45157 -6.81104 0
M  V30 2430 H 217.184 1.26348 -7.49627 0
M  V30 2431 N 218.759 1.29093 0.90403 0
M  V30 2432 C 220.006 1.16813 1.65411 0
M  V30 2433 C 220.334 -0.28128 1.92455 0
M  V30 2434 O 219.589 -1.22006 1.53013 0
M  V30 2435 C 219.888 1.92224 3.01305 0
M  V30 2436 C 219.554 3.41968 2.93885 0
M  V30 2437 C 218.216 3.82807 2.91569 0
M  V30 2438 C 220.568 4.37409 2.83413 0
M  V30 2439 C 217.896 5.1741 2.76594 0
M  V30 2440 C 220.248 5.72097 2.69977 0
M  V30 2441 C 218.912 6.12199 2.66024 0
M  V30 2442 H 218.182 0.42745 0.605283 0
M  V30 2443 H 220.829 1.59981 1.05254 0
M  V30 2444 H 219.134 1.41635 3.65304 0
M  V30 2445 H 220.831 1.80131 3.58265 0
M  V30 2446 H 217.421 3.09504 2.96488 0
M  V30 2447 H 221.605 4.06813 2.84283 0
M  V30 2448 H 216.861 5.47596 2.71935 0
M  V30 2449 H 221.035 6.45704 2.60844 0
M  V30 2450 H 218.662 7.16448 2.54178 0
M  V30 2451 N 220.237 -1.11381 1.11499 0
M  V30 2452 C 221.184 -2.17439 0.773887 0
M  V30 2453 C 222.154 -1.64132 -0.254899 0
M  V30 2454 O 223.339 -1.90345 -0.13168 0
M  V30 2455 C 220.479 -3.44373 0.223917 0
M  V30 2456 C 219.592 -4.1168 1.30934 0
M  V30 2457 C 218.727 -5.263 0.71984 0
M  V30 2458 C 217.766 -5.85493 1.78507 0
M  V30 2459 N 216.903 -6.91507 1.21502 0
M  V30 2460 H 221.743 -2.45962 1.68246 0
M  V30 2461 H 219.28 -1.20744 0.840191 0
M  V30 2462 H 221.238 -4.17047 -0.112921 0
M  V30 2463 H 219.868 -3.16232 -0.647851 0
M  V30 2464 H 218.92 -3.37073 1.76312 0
M  V30 2465 H 220.232 -4.51729 2.11524 0
M  V30 2466 H 219.386 -6.05785 0.333094 0
M  V30 2467 H 218.125 -4.87559 -0.117377 0
M  V30 2468 H 217.13 -5.04686 2.18111 0
M  V30 2469 H 218.355 -6.26301 2.62533 0
M  V30 2470 H 216.301 -6.54783 0.399455 0
M  V30 2471 H 216.218 -7.30214 1.95763 0
M  V30 2472 H 217.486 -7.74795 0.855181 0
M  V30 2473 N 221.715 -0.905404 -1.28997 0
M  V30 2474 C 222.648 -0.331959 -2.25773 0
M  V30 2475 C 223.626 0.559099 -1.52685 0
M  V30 2476 O 224.81 0.50463 -1.8162 0
M  V30 2477 C 221.937 0.526276 -3.34586 0
M  V30 2478 C 220.983 -0.298249 -4.25456 0
M  V30 2479 S 221.816 -1.69968 -5.0781 0
M  V30 2480 C 222.972 -0.848519 -6.20122 0
M  V30 2481 H 223.205 -1.15222 -2.74064 0
M  V30 2482 H 220.738 -0.706112 -1.37308 0
M  V30 2483 H 222.696 1.01565 -3.97737 0
M  V30 2484 H 221.357 1.32084 -2.84978 0
M  V30 2485 H 220.55 0.357607 -5.0273 0
M  V30 2486 H 220.152 -0.720968 -3.66985 0
M  V30 2487 H 222.444 -0.0744325 -6.77459 0
M  V30 2488 H 223.387 -1.59353 -6.89937 0
M  V30 2489 H 223.795 -0.400383 -5.63078 0
M  V30 2490 N 223.193 1.4272 -0.668489 0
M  V30 2491 C 224.125 2.2914 0.052613 0
M  V30 2492 C 225.138 1.43339 0.771857 0
M  V30 2493 O 226.327 1.67123 0.627067 0
M  V30 2494 C 223.427 3.20618 1.09804 0
M  V30 2495 C 222.6 4.35039 0.45389 0
M  V30 2496 C 221.659 5.07282 1.39825 0
M  V30 2497 O 220.685 5.62024 0.900978 0
M  V30 2498 N 221.887 5.12206 2.73176 0
M  V30 2499 H 224.652 2.91668 -0.689209 0
M  V30 2500 H 222.213 1.53577 -0.512422 0
M  V30 2501 H 224.205 3.65815 1.73094 0
M  V30 2502 H 222.775 2.59585 1.74167 0
M  V30 2503 H 221.995 3.92567 -0.358396 0
M  V30 2504 H 223.283 5.088 0.00486972 0
M  V30 2505 H 222.681 4.6913 3.16122 0
M  V30 2506 H 221.238 5.61069 3.31729 0
M  V30 2507 N 224.671 0.411399 1.52136 0
M  V30 2508 C 225.618 -0.412975 2.27075 0
M  V30 2509 C 226.588 -1.03912 1.29582 0
M  V30 2510 O 227.773 -1.06296 1.58448 0
M  V30 2511 C 224.913 -1.52247 3.09701 0
M  V30 2512 C 224.026 -0.917021 4.22155 0
M  V30 2513 C 223.161 -1.9994 4.92135 0
M  V30 2514 C 222.2 -1.37101 5.96548 0
M  V30 2515 N 221.337 -2.39364 6.60038 0
M  V30 2516 H 226.177 0.232499 2.97092 0
M  V30 2517 H 223.714 0.126496 1.46555 0
M  V30 2518 H 225.672 -2.17674 3.55913 0
M  V30 2519 H 224.302 -2.13794 2.41851 0
M  V30 2520 H 223.354 -0.151742 3.80097 0
M  V30 2521 H 224.666 -0.418006 4.97045 0
M  V30 2522 H 223.82 -2.73088 5.41763 0
M  V30 2523 H 222.559 -2.53208 4.16818 0
M  V30 2524 H 221.564 -0.624873 5.46237 0
M  V30 2525 H 222.789 -0.845998 6.7381 0
M  V30 2526 H 220.735 -2.91759 5.87548 0
M  V30 2527 H 220.652 -1.9428 7.3061 0
M  V30 2528 H 221.92 -3.12074 7.14304 0
M  V30 2529 N 226.149 -1.5696 0.141893 0
M  V30 2530 C 227.396 -1.9596 -0.510492 0
M  V30 2531 C 227.724 -1.02648 -1.65208 0
M  V30 2532 O 226.979 -0.0546947 -1.95624 0
M  V30 2533 C 227.278 -3.41242 -1.06249 0
M  V30 2534 C 226.944 -4.50882 -0.0398791 0
M  V30 2535 C 225.606 -4.80595 0.241247 0
M  V30 2536 C 227.958 -5.17058 0.65578 0
M  V30 2537 C 225.286 -5.73792 1.22393 0
M  V30 2538 C 227.638 -6.11313 1.62724 0
M  V30 2539 C 226.302 -6.39407 1.91612 0
M  V30 2540 H 225.572 -0.717068 -0.186802 0
M  V30 2541 H 228.219 -1.90142 0.227643 0
M  V30 2542 H 226.524 -3.43866 -1.87785 0
M  V30 2543 H 228.221 -3.68742 -1.57576 0
M  V30 2544 H 224.811 -4.27754 -0.269174 0
M  V30 2545 H 228.995 -4.94239 0.451779 0
M  V30 2546 H 224.251 -5.93853 1.45424 0
M  V30 2547 H 228.425 -6.61668 2.17183 0
M  V30 2548 H 226.052 -7.11427 2.6791 0
M  V30 2549 N 227.627 0.131896 -1.57047 0
M  V30 2550 C 228.575 1.18146 -2.0036 0
M  V30 2551 C 229.569 1.43614 -0.898406 0
M  V30 2552 O 230.775 1.43729 -1.08361 0
M  V30 2553 H 227.15 0.398042 -0.638018 0
M  V30 2554 H 229.121 0.789564 -2.87765 0
M  V30 2555 C 227.87 2.50341 -2.41298 0
M  V30 2556 H 227.193 2.31578 -3.25902 0
M  V30 2557 H 228.633 3.22371 -2.75414 0
M  V30 2558 C 227.092 3.11984 -1.27153 0
M  V30 2559 O 227.622 3.97484 -0.580459 0
M  V30 2560 N 225.828 2.71662 -1.03189 0
M  V30 2561 H 225.375 2.02231 -1.59564 0
M  V30 2562 H 225.333 3.13238 -0.270077 0
M  V30 2563 N 229.106 1.52395 0.401703 0
M  V30 2564 C 230.517 1.58899 0.980202 0
M  V30 2565 C 230.868 0.434032 1.91339 0
M  V30 2566 O 229.993 -0.444619 2.11783 0
M  V30 2567 C 230.588 2.87994 1.78451 0
M  V30 2568 C 229.147 2.96953 2.31292 0
M  V30 2569 C 228.294 2.53903 1.11483 0
M  V30 2570 H 231.245 1.57657 0.18168 0
M  V30 2571 H 231.266 2.73765 2.64259 0
M  V30 2572 H 230.778 3.72035 1.10506 0
M  V30 2573 H 228.879 2.17422 3.02586 0
M  V30 2574 H 228.992 4.01344 2.61649 0
M  V30 2575 H 227.356 2.07925 1.47104 0
M  V30 2576 H 228.139 3.40326 0.450928 0
M  V30 2577 N 230.584 -0.659388 1.43143 0
M  V30 2578 C 231.494 -1.80167 1.50256 0
M  V30 2579 C 232.51 -1.69571 0.390106 0
M  V30 2580 O 233.686 -1.90849 0.643319 0
M  V30 2581 C 230.751 -3.16409 1.41725 0
M  V30 2582 C 229.812 -3.38848 2.63591 0
M  V30 2583 C 229.045 -4.68591 2.55458 0
M  V30 2584 O 229.268 -5.47532 1.59891 0
M  V30 2585 O 228.202 -4.92614 3.45854 0
M  V30 2586 H 232.028 -1.77121 2.46702 0
M  V30 2587 H 229.613 -0.817092 1.25076 0
M  V30 2588 H 231.495 -3.9768 1.39387 0
M  V30 2589 H 230.17 -3.20059 0.484118 0
M  V30 2590 H 229.077 -2.57366 2.71502 0
M  V30 2591 H 230.41 -3.4004 3.55856 0
M  V30 2592 N 232.062 -1.29571 -0.897171 0
M  V30 2593 C 233.292 -1.20408 -1.67886 0
M  V30 2594 C 233.7 0.237429 -1.87704 0
M  V30 2595 O 233.043 1.17048 -1.41582 0
M  V30 2596 C 233.105 -1.84887 -3.08314 0
M  V30 2597 C 232.769 -3.34189 -3.11716 0
M  V30 2598 C 233.766 -4.30374 -2.91675 0
M  V30 2599 C 231.451 -3.75431 -3.33701 0
M  V30 2600 C 233.445 -5.65776 -2.93557 0
M  V30 2601 C 231.132 -5.10955 -3.35214 0
M  V30 2602 C 232.13 -6.05938 -3.15164 0
M  V30 2603 O 231.818 -7.38987 -3.1647 0
M  V30 2604 H 231.55 -0.418289 -0.531046 0
M  V30 2605 H 234.104 -1.71514 -1.13014 0
M  V30 2606 H 232.334 -1.28295 -3.64798 0
M  V30 2607 H 234.023 -1.70011 -3.6858 0
M  V30 2608 H 234.789 -3.99844 -2.74499 0
M  V30 2609 H 230.668 -3.01953 -3.48347 0
M  V30 2610 H 234.212 -6.39889 -2.77826 0
M  V30 2611 H 230.109 -5.4113 -3.51922 0
M  V30 2612 H 230.877 -7.47823 -3.3272 0
M  V30 2613 N 233.54 1.10788 -1.12088 0
M  V30 2614 C 234.786 1.82942 -0.875226 0
M  V30 2615 C 235.119 1.84779 0.597538 0
M  V30 2616 O 234.394 1.30578 1.44152 0
M  V30 2617 C 234.677 3.29789 -1.44606 0
M  V30 2618 C 234.53 3.36307 -2.98693 0
M  V30 2619 C 235.849 4.26064 -1.10261 0
M  V30 2620 H 232.968 0.664195 -0.319397 0
M  V30 2621 H 235.61 1.29867 -1.38689 0
M  V30 2622 H 233.76 3.75118 -1.01089 0
M  V30 2623 H 235.432 2.99487 -3.50864 0
M  V30 2624 H 233.675 2.76318 -3.34411 0
M  V30 2625 H 234.346 4.39694 -3.33726 0
M  V30 2626 H 236.822 3.88951 -1.4784 0
M  V30 2627 H 235.698 5.27183 -1.52869 0
M  V30 2628 H 235.959 4.42098 -0.0142953 0
M  V30 2629 N 235.018 0.912232 1.28515 0
M  V30 2630 C 235.965 0.397954 2.27343 0
M  V30 2631 C 236.935 -0.526766 1.57526 0
M  V30 2632 O 238.12 -0.449292 1.85435 0
M  V30 2633 C 235.26 -0.357263 3.43246 0
M  V30 2634 C 234.373 0.599788 4.27816 0
M  V30 2635 C 233.508 -0.173725 5.30916 0
M  V30 2636 C 232.547 0.777039 6.07148 0
M  V30 2637 N 231.684 0.0371398 7.0209 0
M  V30 2638 H 236.524 1.24577 2.70711 0
M  V30 2639 H 234.061 0.625612 1.33133 0
M  V30 2640 H 236.019 -0.8113 4.09236 0
M  V30 2641 H 234.649 -1.16943 3.00872 0
M  V30 2642 H 233.701 1.17235 3.61884 0
M  V30 2643 H 235.013 1.32704 4.80823 0
M  V30 2644 H 234.167 -0.688394 6.02782 0
M  V30 2645 H 232.906 -0.934041 4.78672 0
M  V30 2646 H 231.911 1.3031 5.34134 0
M  V30 2647 H 233.136 1.53689 6.61481 0
M  V30 2648 H 231.082 -0.705213 6.52198 0
M  V30 2649 H 230.999 0.704249 7.52713 0
M  V30 2650 H 232.267 -0.457383 7.78157 0
M  V30 2651 N 236.496 -1.42363 0.676048 0
M  V30 2652 C 237.426 -2.33497 0.0124832 0
M  V30 2653 C 238.407 -1.50748 -0.787981 0
M  V30 2654 O 239.592 -1.79346 -0.744884 0
M  V30 2655 C 236.722 -3.34377 -0.938582 0
M  V30 2656 C 235.676 -4.27289 -0.246622 0
M  V30 2657 C 235.002 -5.18386 -1.31071 0
M  V30 2658 C 236.302 -5.14916 0.875125 0
M  V30 2659 H 237.996 -2.89233 0.773593 0
M  V30 2660 H 235.542 -1.39073 0.37346 0
M  V30 2661 H 237.495 -3.97044 -1.41188 0
M  V30 2662 H 236.219 -2.76947 -1.73113 0
M  V30 2663 H 234.878 -3.66018 0.206456 0
M  V30 2664 H 234.526 -4.57282 -2.09528 0
M  V30 2665 H 234.226 -5.81378 -0.852839 0
M  V30 2666 H 235.75 -5.83929 -1.78492 0
M  V30 2667 H 237.164 -5.71262 0.482983 0
M  V30 2668 H 235.561 -5.86747 1.25887 0
M  V30 2669 H 236.631 -4.53242 1.72335 0
M  V30 2670 N 237.974 -0.419461 -1.51915 0
M  V30 2671 C 238.937 0.389116 -2.25873 0
M  V30 2672 C 239.937 0.964924 -1.28631 0
M  V30 2673 O 241.127 0.842179 -1.52489 0
M  V30 2674 C 238.259 1.54874 -3.03689 0
M  V30 2675 H 239.452 -0.258799 -2.98781 0
M  V30 2676 H 237.005 -0.172209 -1.55348 0
M  V30 2677 H 237.74 2.23323 -2.35154 0
M  V30 2678 H 237.525 1.14223 -3.75094 0
M  V30 2679 H 239.015 2.12046 -3.59759 0
M  V30 2680 N 239.452 1.56882 -0.150215 0
M  V30 2681 C 240.698 1.96518 0.500834 0
M  V30 2682 C 241.031 1.03527 1.64304 0
M  V30 2683 O 240.306 0.0782751 1.94342 0
M  V30 2684 C 240.589 3.45822 1.00395 0
M  V30 2685 C 240.442 4.49591 -0.136983 0
M  V30 2686 C 241.761 3.97704 1.88467 0
M  V30 2687 H 238.88 0.714535 0.18058 0
M  V30 2688 H 241.522 1.88577 -0.232091 0
M  V30 2689 H 239.672 3.5272 1.62851 0
M  V30 2690 H 241.344 4.5477 -0.77343 0
M  V30 2691 H 239.587 4.26441 -0.795652 0
M  V30 2692 H 240.258 5.51402 0.256815 0
M  V30 2693 H 242.734 3.93304 1.35834 0
M  V30 2694 H 241.61 5.0263 2.20578 0
M  V30 2695 H 241.871 3.40252 2.82279 0
M  V30 2696 N 240.93 -0.123565 1.57115 0
M  V30 2697 C 241.863 -1.18202 1.95201 0
M  V30 2698 C 242.841 -1.40349 0.821031 0
M  V30 2699 O 244.025 -1.54578 1.07879 0
M  V30 2700 C 241.152 -2.53671 2.24429 0
M  V30 2701 C 240.198 -2.4798 3.46999 0
M  V30 2702 S 241.031 -1.92389 4.99747 0
M  V30 2703 C 242.187 -3.2954 5.32123 0
M  V30 2704 H 242.42 -0.857212 2.84674 0
M  V30 2705 H 239.953 -0.33014 1.50829 0
M  V30 2706 H 241.911 -3.3162 2.41947 0
M  V30 2707 H 240.572 -2.83332 1.35579 0
M  V30 2708 H 239.765 -3.47758 3.64801 0
M  V30 2709 H 239.367 -1.7815 3.28844 0
M  V30 2710 H 241.659 -4.25736 5.27025 0
M  V30 2711 H 242.602 -3.16569 6.33395 0
M  V30 2712 H 243.01 -3.27758 4.59603 0
M  V30 2713 N 242.408 -1.52605 -0.393616 0
M  V30 2714 C 243.819 -1.59417 -0.971761 0
M  V30 2715 C 244.17 -0.444173 -1.91106 0
M  V30 2716 O 243.295 0.433382 -2.12016 0
M  V30 2717 C 243.89 -2.88936 -1.76921 0
M  V30 2718 C 242.449 -2.98175 -2.29714 0
M  V30 2719 C 241.596 -2.54491 -1.10135 0
M  V30 2720 H 244.547 -1.57751 -0.173317 0
M  V30 2721 H 244.568 -2.75163 -2.62804 0
M  V30 2722 H 244.08 -3.72616 -1.08532 0
M  V30 2723 H 242.181 -2.19024 -3.01429 0
M  V30 2724 H 242.294 -4.02726 -2.59517 0
M  V30 2725 H 240.658 -2.08702 -1.45999 0
M  V30 2726 H 241.441 -3.4056 -0.432874 0
M  V30 2727 N 243.887 0.651787 -1.4349 0
M  V30 2728 C 244.837 1.75783 -1.45205 0
M  V30 2729 C 245.821 1.57679 -0.320328 0
M  V30 2730 O 247.013 1.67767 -0.564211 0
M  V30 2731 C 244.142 3.14377 -1.3792 0
M  V30 2732 C 243.228 3.38023 -2.56127 0
M  V30 2733 N 243.619 3.32135 -3.81471 0
M  V30 2734 C 241.917 3.68747 -2.50882 0
M  V30 2735 C 242.618 3.55902 -4.60118 0
M  V30 2736 N 241.594 3.77783 -3.90872 0
M  V30 2737 H 245.396 1.69657 -2.39987 0
M  V30 2738 H 242.91 0.853508 -1.38163 0
M  V30 2739 H 244.907 3.93666 -1.37231 0
M  V30 2740 H 243.567 3.21683 -0.441596 0
M  V30 2741 H 244.578 3.11515 -4.13738 0
M  V30 2742 H 241.255 3.8316 -1.65816 0
M  V30 2743 H 242.645 3.57116 -5.69138 0
M  V30 2744 N 245.365 1.30045 0.890287 0
M  V30 2745 C 246.313 1.15873 2.01683 0
M  V30 2746 C 247.307 0.0719403 1.69247 0
M  V30 2747 O 248.513 0.232414 1.78493 0
M  V30 2748 H 244.888 0.358203 0.661207 0
M  V30 2749 H 246.859 2.11229 2.10772 0
M  V30 2750 C 245.608 0.861842 3.36849 0
M  V30 2751 H 244.931 1.69016 3.62317 0
M  V30 2752 H 246.371 0.802762 4.16331 0
M  V30 2753 C 244.83 -0.435132 3.34078 0
M  V30 2754 O 245.36 -1.4583 3.74295 0
M  V30 2755 N 243.566 -0.444377 2.87182 0
M  V30 2756 H 243.113 0.388723 2.5465 0
M  V30 2757 H 243.071 -1.31213 2.85711 0
M  V30 2758 N 246.843 -1.10192 1.12674 0
M  V30 2759 C 247.79 -2.16606 0.796906 0
M  V30 2760 C 248.76 -1.64394 -0.237476 0
M  V30 2761 O 249.945 -1.90474 -0.111484 0
M  V30 2762 C 247.085 -3.44116 0.26043 0
M  V30 2763 C 246.198 -4.10268 1.35293 0
M  V30 2764 C 245.333 -5.25507 0.775621 0
M  V30 2765 C 244.372 -5.83567 1.84706 0
M  V30 2766 N 243.509 -6.90179 1.28829 0
M  V30 2767 H 248.349 -2.44163 1.70846 0
M  V30 2768 H 245.886 -1.19846 0.85295 0
M  V30 2769 H 247.844 -4.17143 -0.0686814 0
M  V30 2770 H 246.474 -3.16901 -0.614274 0
M  V30 2771 H 245.526 -3.35184 1.79877 0
M  V30 2772 H 246.838 -4.4946 2.16303 0
M  V30 2773 H 245.992 -6.05398 0.397327 0
M  V30 2774 H 244.731 -4.87656 -0.0656581 0
M  V30 2775 H 243.736 -5.02344 2.23452 0
M  V30 2776 H 244.961 -6.23482 2.69161 0
M  V30 2777 H 242.907 -6.54322 0.468881 0
M  V30 2778 H 242.824 -7.28097 2.03497 0
M  V30 2779 H 244.092 -7.73844 0.937311 0
M  V30 2780 N 248.321 -0.919034 -1.28029 0
M  V30 2781 C 249.269 -0.401753 -2.29104 0
M  V30 2782 C 250.263 0.509354 -1.61561 0
M  V30 2783 O 251.469 0.390014 -1.75724 0
M  V30 2784 H 247.844 -0.111331 -0.743713 0
M  V30 2785 H 249.815 -1.2672 -2.70156 0
M  V30 2786 C 248.564 0.338148 -3.46052 0
M  V30 2787 H 247.887 -0.353732 -3.98232 0
M  V30 2788 H 249.327 0.664653 -4.18758 0
M  V30 2789 C 247.786 1.54798 -2.99231 0
M  V30 2790 O 248.316 2.64696 -3.02157 0
M  V30 2791 N 246.522 1.3968 -2.54829 0
M  V30 2792 H 246.069 0.502698 -2.52647 0
M  V30 2793 H 246.027 2.20755 -2.23863 0
M  V30 2794 N 249.799 1.42003 -0.683588 0
M  V30 2795 C 251.076 1.95112 -0.138075 0
M  V30 2796 C 251.456 1.62359 1.34918 0
M  V30 2797 O 250.804 0.924311 2.08971 0
M  V30 2798 C 251.014 3.46505 -0.416581 0
M  V30 2799 C 252.362 4.23254 -0.337834 0
M  V30 2800 O 253.386 3.54468 -0.35082 0
M  V30 2801 O 252.245 5.45743 -0.287596 0
M  V30 2802 H 249.339 0.826961 -0.00797996 0
M  V30 2803 H 251.885 1.51784 -0.758924 0
M  V30 2804 H 250.657 3.63582 -1.4465 0
M  V30 2805 H 250.28 3.969 0.235839 0
M  V30 2806 N 251.277 0.427512 1.51691 0
M  V30 2807 C 252.523 -0.142439 2.02299 0
M  V30 2808 C 252.856 -1.43214 1.31162 0
M  V30 2809 O 252.131 -1.89833 0.423511 0
M  V30 2810 C 252.414 -0.371301 3.58181 0
M  V30 2811 C 252.267 0.936358 4.39946 0
M  V30 2812 C 253.586 -1.14542 4.24933 0
M  V30 2813 H 250.705 -0.0502937 0.735282 0
M  V30 2814 H 253.347 0.564584 1.81418 0
M  V30 2815 H 251.497 -0.973559 3.76104 0
M  V30 2816 H 253.169 1.57184 4.33694 0
M  V30 2817 H 251.412 1.5432 4.05423 0
M  V30 2818 H 252.083 0.730388 5.47147 0
M  V30 2819 H 254.559 -0.635362 4.11221 0
M  V30 2820 H 253.435 -1.27431 5.33903 0
M  V30 2821 H 253.696 -2.17093 3.85127 0
M  V30 2822 N 252.755 -1.56801 0.158532 0
M  V30 2823 C 253.685 -2.20347 -0.772609 0
M  V30 2824 C 254.666 -1.15518 -1.24859 0
M  V30 2825 O 255.851 -1.43902 -1.30406 0
M  V30 2826 C 252.981 -2.83417 -2.00729 0
M  V30 2827 C 251.935 -3.94174 -1.66765 0
M  V30 2828 C 251.261 -4.44233 -2.97592 0
M  V30 2829 C 252.561 -5.14392 -0.905447 0
M  V30 2830 H 254.255 -2.98413 -0.242959 0
M  V30 2831 H 251.801 -1.43537 -0.115419 0
M  V30 2832 H 253.754 -3.26543 -2.6636 0
M  V30 2833 H 252.478 -2.02701 -2.56086 0
M  V30 2834 H 251.137 -3.51684 -1.03508 0
M  V30 2835 H 250.785 -3.60325 -3.50963 0
M  V30 2836 H 250.485 -5.18945 -2.75626 0
M  V30 2837 H 252.009 -4.90037 -3.64274 0
M  V30 2838 H 253.423 -5.5429 -1.46408 0
M  V30 2839 H 251.82 -5.9494 -0.7853 0
M  V30 2840 H 252.89 -4.84795 0.100668 0
M  V30 2841 N 254.233 0.115231 -1.57178 0
M  V30 2842 C 255.181 1.16014 -2.01602 0
M  V30 2843 C 256.175 1.42653 -0.913587 0
M  V30 2844 O 257.381 1.42571 -1.09879 0
M  V30 2845 H 253.756 0.391252 -0.642204 0
M  V30 2846 H 255.727 0.758998 -2.88586 0
M  V30 2847 C 254.476 2.47767 -2.4394 0
M  V30 2848 H 253.799 2.28108 -3.28339 0
M  V30 2849 H 255.239 3.19432 -2.78818 0
M  V30 2850 C 253.698 3.10617 -1.30455 0
M  V30 2851 O 254.228 3.96846 -0.622585 0
M  V30 2852 N 252.434 2.70553 -1.06064 0
M  V30 2853 H 251.981 2.00527 -1.61699 0
M  V30 2854 H 251.939 3.12934 -0.303284 0
M  V30 2855 N 255.711 1.52812 0.385517 0
M  V30 2856 C 256.641 1.80808 1.47752 0
M  V30 2857 C 257.622 0.660318 1.5676 0
M  V30 2858 O 258.807 0.908246 1.71652 0
M  V30 2859 C 255.937 1.98008 2.85324 0
M  V30 2860 C 254.891 3.13709 2.91154 0
M  V30 2861 C 254.217 3.16169 4.31209 0
M  V30 2862 C 255.517 4.52709 2.60483 0
M  V30 2863 H 257.211 2.72253 1.24573 0
M  V30 2864 H 254.757 1.31003 0.597839 0
M  V30 2865 H 256.71 2.16176 3.61726 0
M  V30 2866 H 255.434 1.03255 3.09848 0
M  V30 2867 H 254.093 2.95329 2.17201 0
M  V30 2868 H 253.741 2.19092 4.52778 0
M  V30 2869 H 253.441 3.93894 4.36029 0
M  V30 2870 H 254.965 3.36496 5.09512 0
M  V30 2871 H 256.379 4.71173 3.26602 0
M  V30 2872 H 254.776 5.32528 2.76648 0
M  V30 2873 H 255.846 4.59186 1.55809 0
M  V30 2874 N 257.189 -0.644168 1.43834 0
M  V30 2875 C 258.119 -1.76814 1.52509 0
M  V30 2876 C 259.1 -1.65823 0.379052 0
M  V30 2877 O 260.285 -1.84781 0.597466 0
M  V30 2878 C 257.415 -3.15288 1.4564 0
M  V30 2879 C 256.369 -3.41053 2.58586 0
M  V30 2880 C 255.695 -4.79421 2.36769 0
M  V30 2881 C 256.995 -3.34902 4.00797 0
M  V30 2882 H 258.689 -1.69812 2.46586 0
M  V30 2883 H 256.235 -0.815542 1.1868 0
M  V30 2884 H 258.188 -3.93681 1.50311 0
M  V30 2885 H 256.912 -3.23043 0.480725 0
M  V30 2886 H 255.571 -2.65035 2.53282 0
M  V30 2887 H 255.219 -4.83863 1.37424 0
M  V30 2888 H 254.919 -4.9762 3.12487 0
M  V30 2889 H 256.443 -5.6006 2.43238 0
M  V30 2890 H 257.857 -4.03218 4.07539 0
M  V30 2891 H 256.254 -3.64637 4.76613 0
M  V30 2892 H 257.324 -2.32928 4.25291 0
M  V30 2893 N 258.668 -1.30515 -0.883378 0
M  V30 2894 C 259.6 -1.12846 -1.99496 0
M  V30 2895 C 260.613 -0.0712571 -1.62644 0
M  V30 2896 O 261.802 -0.317432 -1.75655 0
M  V30 2897 C 258.902 -0.699123 -3.3161 0
M  V30 2898 C 258.075 -1.83842 -3.96889 0
M  V30 2899 C 257.134 -1.39737 -5.07307 0
M  V30 2900 O 256.16 -2.10485 -5.28852 0
M  V30 2901 N 257.362 -0.277279 -5.79837 0
M  V30 2902 H 260.127 -2.08585 -2.15203 0
M  V30 2903 H 257.688 -1.22672 -1.05656 0
M  V30 2904 H 259.68 -0.387044 -4.02845 0
M  V30 2905 H 258.25 0.166276 -3.12157 0
M  V30 2906 H 257.47 -2.31853 -3.18807 0
M  V30 2907 H 258.758 -2.60187 -4.37241 0
M  V30 2908 H 258.156 0.3122 -5.64838 0
M  V30 2909 H 256.713 -0.0246623 -6.51795 0
M  V30 2910 N 260.146 1.09593 -1.13257 0
M  V30 2911 C 261.109 2.14359 -0.811358 0
M  V30 2912 C 262.109 1.59808 0.178377 0
M  V30 2913 O 263.299 1.74132 -0.0484911 0
M  V30 2914 C 260.431 3.40269 -0.207276 0
M  V30 2915 H 261.624 2.44284 -1.73969 0
M  V30 2916 H 259.177 1.25102 -0.936973 0
M  V30 2917 H 259.912 3.15969 0.73036 0
M  V30 2918 H 259.697 3.81154 -0.919992 0
M  V30 2919 H 261.187 4.176 0.000667944 0
M  V30 2920 N 261.624 0.925811 1.2754 0
M  V30 2921 C 262.557 0.367836 2.25216 0
M  V30 2922 C 263.535 -0.534738 1.53556 0
M  V30 2923 O 264.719 -0.475672 1.824 0
M  V30 2924 C 261.846 -0.47298 3.35381 0
M  V30 2925 C 260.892 0.365898 4.24928 0
M  V30 2926 S 261.725 1.78025 5.05042 0
M  V30 2927 C 262.881 0.947068 6.18693 0
M  V30 2928 H 263.114 1.19568 2.72196 0
M  V30 2929 H 260.647 0.727867 1.36167 0
M  V30 2930 H 262.605 -0.952242 3.99303 0
M  V30 2931 H 261.266 -1.27533 2.87044 0
M  V30 2932 H 260.459 -0.277582 5.03235 0
M  V30 2933 H 260.061 0.779261 3.65792 0
M  V30 2934 H 262.353 0.182201 6.77255 0
M  V30 2935 H 263.296 1.70309 6.87314 0
M  V30 2936 H 263.704 0.489913 5.6237 0
M  V30 2937 N 263.102 -1.41638 0.69111 0
M  V30 2938 C 264.327 -2.06148 0.227583 0
M  V30 2939 C 264.752 -1.51652 -1.11281 0
M  V30 2940 O 264.11 -0.64164 -1.69566 0
M  V30 2941 C 264.158 -3.60095 0.190858 0
M  V30 2942 O 263.262 -4.03845 -0.835664 0
M  V30 2943 H 262.603 -0.654434 0.112306 0
M  V30 2944 H 265.133 -1.81484 0.944714 0
M  V30 2945 H 265.143 -4.07995 0.020207 0
M  V30 2946 H 263.818 -3.99129 1.16915 0
M  V30 2947 H 262.395 -3.67458 -0.63473 0
M  V30 2948 N 264.58 -0.43555 -1.51462 0
M  V30 2949 C 265.808 0.130242 -2.0649 0
M  V30 2950 C 266.223 1.36614 -1.30315 0
M  V30 2951 O 265.58 1.78869 -0.362223 0
M  V30 2952 C 265.631 0.454253 -3.58635 0
M  V30 2953 O 265.352 -0.73259 -4.31931 0
M  V30 2954 C 266.853 1.07091 -4.3017 0
M  V30 2955 H 264.073 0.00871669 -0.670943 0
M  V30 2956 H 266.617 -0.614117 -1.95061 0
M  V30 2957 H 264.772 1.14851 -3.69984 0
M  V30 2958 H 265.186 -0.455787 -5.22516 0
M  V30 2959 H 266.66 1.24764 -5.37716 0
M  V30 2960 H 267.137 2.05144 -3.88346 0
M  V30 2961 H 267.743 0.416089 -4.2326 0
M  V30 2962 N 266.058 1.56714 -0.166846 0
M  V30 2963 C 267.305 1.96747 0.479252 0
M  V30 2964 C 267.633 1.05263 1.63554 0
M  V30 2965 O 266.888 0.0858098 1.95512 0
M  V30 2966 C 267.187 3.42889 1.00806 0
M  V30 2967 C 266.853 4.50889 -0.0318574 0
M  V30 2968 C 265.515 4.8015 -0.317675 0
M  V30 2969 C 267.867 5.15949 -0.737956 0
M  V30 2970 C 265.195 5.71772 -1.31506 0
M  V30 2971 C 267.547 6.08647 -1.72429 0
M  V30 2972 C 266.211 6.36277 -2.0176 0
M  V30 2973 H 265.481 0.719949 0.175371 0
M  V30 2974 H 268.128 1.89756 -0.257864 0
M  V30 2975 H 266.433 3.4681 1.82291 0
M  V30 2976 H 268.13 3.71203 1.51689 0
M  V30 2977 H 264.72 4.28128 0.201088 0
M  V30 2978 H 268.904 4.93458 -0.530351 0
M  V30 2979 H 264.16 5.91465 -1.54853 0
M  V30 2980 H 268.334 6.58129 -2.27682 0
M  V30 2981 H 265.961 7.07075 -2.79194 0
M  V30 2982 N 267.536 -0.106894 1.57237 0
M  V30 2983 C 268.761 -0.830287 1.90055 0
M  V30 2984 C 269.186 -1.72064 0.75998 0
M  V30 2985 O 268.544 -1.78982 -0.288991 0
M  V30 2986 C 268.592 -1.6295 3.21683 0
M  V30 2987 O 267.696 -2.73748 3.08441 0
M  V30 2988 H 267.037 -0.228855 0.623315 0
M  V30 2989 H 269.567 -0.085658 2.04421 0
M  V30 2990 H 269.577 -2.01621 3.54701 0
M  V30 2991 H 268.252 -0.975989 4.04286 0
M  V30 2992 H 266.829 -2.38192 2.86913 0
M  V30 2993 N 269.014 -1.53014 -0.377408 0
M  V30 2994 C 270.291 -1.59215 -1.13622 0
M  V30 2995 C 270.671 -0.392407 -2.07421 0
M  V30 2996 O 270.019 0.618342 -2.19975 0
M  V30 2997 C 270.229 -2.93669 -1.88573 0
M  V30 2998 C 271.577 -3.47822 -2.43526 0
M  V30 2999 O 272.601 -2.9562 -1.98715 0
M  V30 3000 O 271.46 -4.39055 -3.25412 0
M  V30 3001 H 268.554 -0.642625 -0.52054 0
M  V30 3002 H 271.1 -1.65353 -0.381625 0
M  V30 3003 H 269.872 -3.7243 -1.20048 0
M  V30 3004 H 269.495 -2.90968 -2.70968 0
M  V30 3005 N 270.492 0.636531 -1.44174 0
M  V30 3006 C 271.72 1.42353 -1.50144 0
M  V30 3007 C 272.135 1.88389 -0.124575 0
M  V30 3008 O 271.492 1.6051 0.868489 0
M  V30 3009 C 271.543 2.64744 -2.46156 0
M  V30 3010 O 271.264 2.20629 -3.7849 0
M  V30 3011 C 272.765 3.57929 -2.61537 0
M  V30 3012 H 269.985 0.436752 -0.5094 0
M  V30 3013 H 272.529 0.778933 -1.89084 0
M  V30 3014 H 270.684 3.25307 -2.10366 0
M  V30 3015 H 271.098 2.99938 -4.30276 0
M  V30 3016 H 272.572 4.40428 -3.32757 0
M  V30 3017 H 273.049 4.06382 -1.66585 0
M  V30 3018 H 273.655 3.03238 -2.98206 0
M  V30 3019 N 271.97 1.30982 0.876444 0
M  V30 3020 C 272.903 1.12414 1.98591 0
M  V30 3021 C 273.881 0.0294078 1.62573 0
M  V30 3022 O 275.065 0.184598 1.87594 0
M  V30 3023 C 272.192 0.716276 3.3104 0
M  V30 3024 C 271.238 1.81311 3.86042 0
M  V30 3025 S 272.071 3.41727 4.1229 0
M  V30 3026 C 273.227 3.02863 5.47745 0
M  V30 3027 H 273.46 2.06338 2.14037 0
M  V30 3028 H 270.993 1.15393 1.02586 0
M  V30 3029 H 272.951 0.487697 4.07593 0
M  V30 3030 H 271.612 -0.203749 3.13438 0
M  V30 3031 H 270.805 1.48021 4.81774 0
M  V30 3032 H 270.407 1.99641 3.16259 0
M  V30 3033 H 272.699 2.51353 6.29148 0
M  V30 3034 H 273.642 3.97533 5.8598 0
M  V30 3035 H 274.05 2.40487 5.10711 0
M  V30 3036 N 273.449 -1.08991 1.13837 0
M  V30 3037 C 274.726 -1.77863 0.813876 0
M  V30 3038 C 275.106 -1.99375 -0.693746 0
M  V30 3039 O 274.454 -1.59875 -1.63255 0
M  V30 3040 C 274.664 -3.0986 1.60586 0
M  V30 3041 C 276.012 -3.84493 1.8014 0
M  V30 3042 O 277.036 -3.19624 1.57222 0
M  V30 3043 O 275.895 -5.00957 2.18413 0
M  V30 3044 H 272.989 -0.771589 0.297624 0
M  V30 3045 H 275.535 -1.15507 1.24323 0
M  V30 3046 H 274.307 -2.89715 2.63022 0
M  V30 3047 H 273.93 -3.79942 1.17173 0
M  V30 3048 N 274.927 -0.932562 -1.27047 0
M  V30 3049 C 276.167 -0.582919 -1.95912 0
M  V30 3050 C 276.531 0.860629 -1.71631 0
M  V30 3051 O 277.732 1.31878 -2.34225 0
M  V30 3052 C 276.003 -0.905673 -3.45734 0
M  V30 3053 S 277.562 -0.665277 -4.33727 0
M  V30 3054 H 274.38 -0.215 -0.677714 0
M  V30 3055 H 276.982 -1.20204 -1.54179 0
M  V30 3056 H 275.686 -1.95386 -3.60905 0
M  V30 3057 H 275.217 -0.275939 -3.92431 0
M  V30 3058 H 277.232 0.474635 -4.93925 0
M  V30 3059 N 276.405 1.4127 -0.698611 0
M  V30 3060 C 277.352 2.30773 -0.0352094 0
M  V30 3061 C 278.322 1.47273 0.768111 0
M  V30 3062 O 279.507 1.76053 0.735524 0
M  V30 3063 C 276.647 3.33346 0.893 0
M  V30 3064 C 275.76 4.31924 0.0809695 0
M  V30 3065 C 274.895 5.21566 1.0071 0
M  V30 3066 C 273.934 6.11811 0.188155 0
M  V30 3067 N 273.071 6.93926 1.06825 0
M  V30 3068 H 277.911 2.86943 -0.804207 0
M  V30 3069 H 275.448 1.4132 -0.408294 0
M  V30 3070 H 277.406 3.91368 1.44523 0
M  V30 3071 H 276.036 2.78719 1.62836 0
M  V30 3072 H 275.088 3.75825 -0.588224 0
M  V30 3073 H 276.4 4.95716 -0.553801 0
M  V30 3074 H 275.554 5.84437 1.62845 0
M  V30 3075 H 274.293 4.58008 1.67572 0
M  V30 3076 H 273.298 5.47986 -0.446254 0
M  V30 3077 H 274.523 6.77425 -0.476716 0
M  V30 3078 H 272.469 6.32973 1.72283 0
M  V30 3079 H 272.386 7.54416 0.489123 0
M  V30 3080 H 273.654 7.61262 1.67632 0
M  V30 3081 N 277.883 0.443576 1.51229 0
M  V30 3082 C 279.129 -0.120975 2.02439 0
M  V30 3083 C 279.462 -1.41815 1.32674 0
M  V30 3084 O 278.737 -1.89373 0.443622 0
M  V30 3085 C 279.02 -0.333291 3.58554 0
M  V30 3086 C 278.873 0.982968 4.38928 0
M  V30 3087 C 280.192 -1.10028 4.26124 0
M  V30 3088 H 277.311 -0.0424923 0.735774 0
M  V30 3089 H 279.953 0.583794 1.80809 0
M  V30 3090 H 278.103 -0.933614 3.77115 0
M  V30 3091 H 279.775 1.61775 4.32003 0
M  V30 3092 H 278.018 1.58611 4.03763 0
M  V30 3093 H 278.689 0.788379 5.46341 0
M  V30 3094 H 281.165 -0.591711 4.11871 0
M  V30 3095 H 280.041 -1.21761 5.35225 0
M  V30 3096 H 280.302 -2.12996 3.87408 0
M  V30 3097 N 279.361 -1.56624 0.175154 0
M  V30 3098 C 280.607 -1.9729 -0.469506 0
M  V30 3099 C 280.94 -1.06128 -1.62636 0
M  V30 3100 O 280.215 -0.109183 -1.94193 0
M  V30 3101 C 280.498 -3.47375 -0.948804 0
M  V30 3102 C 280.351 -4.49317 0.208491 0
M  V30 3103 C 281.67 -4.00652 -1.82116 0
M  V30 3104 H 278.789 -0.717317 -0.16919 0
M  V30 3105 H 281.431 -1.88184 0.262062 0
M  V30 3106 H 279.581 -3.55267 -1.57219 0
M  V30 3107 H 281.253 -4.53482 0.845682 0
M  V30 3108 H 279.496 -4.25121 0.863395 0
M  V30 3109 H 280.167 -5.51741 -0.169059 0
M  V30 3110 H 282.643 -3.95416 -1.2956 0
M  V30 3111 H 281.519 -5.06075 -2.12554 0
M  V30 3112 H 281.78 -3.44699 -2.7683 0
M  V30 3113 N 280.839 0.0985539 -1.57292 0
M  V30 3114 C 282.087 0.801092 -1.85545 0
M  V30 3115 C 282.408 1.79438 -0.763353 0
M  V30 3116 O 281.678 1.94763 0.21073 0
M  V30 3117 H 280.258 0.29884 -0.684619 0
M  V30 3118 H 282.92 0.0810064 -1.94732 0
M  V30 3119 H 282.016 1.3338 -2.82163 0
M  V30 3120 N 282.317 1.53212 0.369288 0
M  V30 3121 C 283.566 1.68436 1.10961 0
M  V30 3122 C 283.879 0.440738 1.9057 0
M  V30 3123 O 285.085 0.473446 2.6734 0
M  V30 3124 C 283.541 2.97744 2.0218 0
M  V30 3125 C 283.149 4.29355 1.279 0
M  V30 3126 C 284.893 3.22334 2.76226 0
M  V30 3127 C 282.8 5.49755 2.17999 0
M  V30 3128 H 281.73 0.627568 0.41794 0
M  V30 3129 H 284.381 1.79713 0.370884 0
M  V30 3130 H 282.763 2.8026 2.79768 0
M  V30 3131 H 283.937 4.57458 0.554007 0
M  V30 3132 H 282.252 4.11179 0.657311 0
M  V30 3133 H 284.849 4.09471 3.43857 0
M  V30 3134 H 285.192 2.38238 3.41392 0
M  V30 3135 H 285.725 3.40475 2.05723 0
M  V30 3136 H 282.464 6.36318 1.57417 0
M  V30 3137 H 281.984 5.25937 2.88359 0
M  V30 3138 H 283.663 5.84401 2.77641 0
M  V30 3139 N 283.795 -0.628877 1.44509 0
M  V30 3140 C 285.02 -1.42048 1.5112 0
M  V30 3141 C 285.445 -1.87594 0.137818 0
M  V30 3142 O 284.803 -1.58873 -0.873437 0
M  V30 3143 C 284.851 -2.61541 2.48251 0
M  V30 3144 O 283.955 -3.61453 1.98559 0
M  V30 3145 H 283.296 -0.424942 0.510216 0
M  V30 3146 H 285.826 -0.767374 1.89664 0
M  V30 3147 H 285.836 -3.09057 2.66361 0
M  V30 3148 H 284.511 -2.27736 3.48007 0
M  V30 3149 H 283.088 -3.20731 1.90227 0
M  V30 3150 N 285.273 -1.31445 -0.869486 0
M  V30 3151 C 286.206 -1.13465 -1.97992 0
M  V30 3152 C 287.184 -0.0380291 -1.62556 0
M  V30 3153 O 288.368 -0.194544 -1.87493 0
M  V30 3154 C 285.495 -0.733822 -3.30655 0
M  V30 3155 C 284.541 -1.83356 -3.85075 0
M  V30 3156 S 285.374 -3.43909 -4.10472 0
M  V30 3157 C 286.53 -3.05763 -5.46132 0
M  V30 3158 H 286.763 -2.07471 -2.1294 0
M  V30 3159 H 284.296 -1.15936 -1.01972 0
M  V30 3160 H 286.254 -0.509306 -4.07328 0
M  V30 3161 H 284.915 0.187123 -3.13542 0
M  V30 3162 H 284.108 -1.50574 -4.80982 0
M  V30 3163 H 283.71 -2.01315 -3.15195 0
M  V30 3164 H 286.002 -2.54686 -6.27807 0
M  V30 3165 H 286.945 -4.00635 -5.83864 0
M  V30 3166 H 287.353 -2.43192 -5.09429 0
M  V30 3167 N 286.751 1.08385 -1.14413 0
M  V30 3168 C 287.976 1.85057 -0.936413 0
M  V30 3169 C 288.401 1.81055 0.509971 0
M  V30 3170 O 287.759 1.1958 1.36273 0
M  V30 3171 C 287.807 3.30505 -1.44217 0
M  V30 3172 O 286.911 4.07491 -0.634409 0
M  V30 3173 H 286.252 0.573425 -0.334784 0
M  V30 3174 H 288.782 1.36799 -1.52142 0
M  V30 3175 H 288.792 3.81348 -1.45043 0
M  V30 3176 H 287.467 3.32734 -2.49522 0
M  V30 3177 H 286.044 3.66368 -0.694902 0
M  V30 3178 N 288.23 0.939286 1.26551 0
M  V30 3179 C 289.177 0.446088 2.26448 0
M  V30 3180 C 290.147 -0.493234 1.58608 0
M  V30 3181 O 291.332 -0.409857 1.86346 0
M  V30 3182 C 288.472 -0.284375 3.43926 0
M  V30 3183 C 287.585 0.690399 4.26448 0
M  V30 3184 C 286.72 -0.0610712 5.31165 0
M  V30 3185 C 285.759 0.905649 6.05363 0
M  V30 3186 N 284.896 0.186055 7.01853 0
M  V30 3187 H 289.736 1.30291 2.68008 0
M  V30 3188 H 287.273 0.65371 1.31776 0
M  V30 3189 H 289.231 -0.724313 4.10864 0
M  V30 3190 H 287.861 -1.10535 3.03285 0
M  V30 3191 H 286.913 1.24885 3.59316 0
M  V30 3192 H 288.225 1.42873 4.779 0
M  V30 3193 H 287.379 -0.56038 6.04106 0
M  V30 3194 H 286.118 -0.832297 4.80546 0
M  V30 3195 H 285.123 1.4161 5.3125 0
M  V30 3196 H 286.348 1.67685 6.58072 0
M  V30 3197 H 284.294 -0.566714 6.53548 0
M  V30 3198 H 284.211 0.863752 7.51049 0
M  V30 3199 H 285.479 -0.292221 7.78952 0
M  V30 3200 N 289.708 -1.40897 0.706093 0
M  V30 3201 C 290.638 -2.33418 0.0620085 0
M  V30 3202 C 291.619 -1.52385 -0.755827 0
M  V30 3203 O 292.804 -1.80886 -0.706674 0
M  V30 3204 C 289.934 -3.36293 -0.867445 0
M  V30 3205 C 288.888 -4.27716 -0.155932 0
M  V30 3206 C 288.214 -5.2105 -1.20046 0
M  V30 3207 C 289.514 -5.12944 0.984149 0
M  V30 3208 H 291.208 -2.87527 0.83477 0
M  V30 3209 H 288.754 -1.38249 0.402875 0
M  V30 3210 H 290.707 -3.99949 -1.32735 0
M  V30 3211 H 289.431 -2.80556 -1.67199 0
M  V30 3212 H 288.09 -3.65498 0.284047 0
M  V30 3213 H 287.738 -4.61624 -1.99781 0
M  V30 3214 H 287.438 -5.83056 -0.729328 0
M  V30 3215 H 288.962 -5.87584 -1.66066 0
M  V30 3216 H 290.376 -5.70109 0.604048 0
M  V30 3217 H 288.773 -5.83945 1.38304 0
M  V30 3218 H 289.843 -4.49485 1.81911 0
M  V30 3219 N 291.186 -0.45159 -1.50991 0
M  V30 3220 C 292.434 0.109857 -2.01801 0
M  V30 3221 C 292.755 1.41958 -1.3369 0
M  V30 3222 O 292.025 1.9003 -0.475951 0
M  V30 3223 H 290.605 0.0435884 -0.745727 0
M  V30 3224 H 293.267 -0.597557 -1.85514 0
M  V30 3225 H 292.363 0.275489 -3.10882 0
M  V30 3226 N 292.664 1.56529 -0.183458 0
M  V30 3227 C 293.594 2.21549 0.737456 0
M  V30 3228 C 294.575 1.17489 1.23005 0
M  V30 3229 O 295.76 1.45959 1.281 0
M  V30 3230 C 292.89 2.86575 1.96194 0
M  V30 3231 C 291.844 3.96778 1.60473 0
M  V30 3232 C 291.17 4.48911 2.90487 0
M  V30 3233 C 292.47 5.15767 0.823497 0
M  V30 3234 H 294.164 2.98761 0.195453 0
M  V30 3235 H 291.71 1.43702 0.0925686 0
M  V30 3236 H 293.663 3.30739 2.61131 0
M  V30 3237 H 292.387 2.06749 2.52828 0
M  V30 3238 H 291.046 3.53286 0.978997 0
M  V30 3239 H 290.694 3.65862 3.45186 0
M  V30 3240 H 290.394 5.23265 2.67335 0
M  V30 3241 H 291.918 4.95771 3.56432 0
M  V30 3242 H 293.332 5.56549 1.37571 0
M  V30 3243 H 291.729 5.96114 0.690551 0
M  V30 3244 H 292.799 4.84574 -0.177782 0
M  V30 3245 N 294.142 -0.090211 1.57342 0
M  V30 3246 C 295.391 -0.791531 1.8552 0
M  V30 3247 C 295.704 -1.79659 0.773441 0
M  V30 3248 O 296.91 -2.54616 0.942497 0
M  V30 3249 C 295.366 -1.45856 3.2902 0
M  V30 3250 C 294.974 -0.493017 4.45279 0
M  V30 3251 C 296.718 -2.14332 3.66418 0
M  V30 3252 C 294.625 -1.16491 5.79814 0
M  V30 3253 H 293.555 -0.299356 0.692027 0
M  V30 3254 H 296.206 -0.0445343 1.83446 0
M  V30 3255 H 294.588 -2.25318 3.2565 0
M  V30 3256 H 295.762 0.270464 4.60006 0
M  V30 3257 H 294.077 0.0863061 4.16311 0
M  V30 3258 H 296.674 -2.65344 4.64216 0
M  V30 3259 H 297.017 -2.93447 2.95287 0
M  V30 3260 H 297.55 -1.41724 3.71698 0
M  V30 3261 H 294.289 -0.41447 6.54188 0
M  V30 3262 H 293.809 -1.8997 5.68921 0
M  V30 3263 H 295.488 -1.69001 6.24538 0
M  V30 3264 N 295.62 -1.53406 -0.361157 0
M  V30 3265 C 296.845 -1.74024 -1.12829 0
M  V30 3266 C 297.27 -0.470069 -1.82132 0
M  V30 3267 O 296.628 0.57619 -1.719 0
M  V30 3268 C 296.676 -2.90903 -2.13091 0
M  V30 3269 O 295.78 -2.59821 -3.20261 0
M  V30 3270 H 295.121 -0.577804 -0.327168 0
M  V30 3271 H 297.651 -2.00307 -0.41693 0
M  V30 3272 H 297.661 -3.17194 -2.56616 0
M  V30 3273 H 296.336 -3.83034 -1.62042 0
M  V30 3274 H 294.913 -2.44362 -2.81677 0
M  V30 3275 N 297.098 0.621204 -1.44841 0
M  V30 3276 C 298.514 0.94048 -1.28946 0
M  V30 3277 C 298.714 2.00154 -0.23249 0
M  V30 3278 O 297.77 2.49651 0.378237 0
M  V30 3279 C 299.083 1.39433 -2.66419 0
M  V30 3280 C 300.631 1.50927 -2.74208 0
M  V30 3281 C 301.106 1.99692 -4.12174 0
M  V30 3282 N 302.597 2.06947 -4.144 0
M  V30 3283 C 303.332 2.45871 -5.1801 0
M  V30 3284 N 302.828 2.83862 -6.31977 0
M  V30 3285 N 304.621 2.46092 -5.05366 0
M  V30 3286 H 296.772 -0.0803548 -2.12248 0
M  V30 3287 H 299.035 0.0266913 -0.947624 0
M  V30 3288 H 298.741 0.688925 -3.44887 0
M  V30 3289 H 298.615 2.36347 -2.93973 0
M  V30 3290 H 301.002 2.20561 -1.96053 0
M  V30 3291 H 301.083 0.523627 -2.50383 0
M  V30 3292 H 300.727 1.30649 -4.90809 0
M  V30 3293 H 300.657 2.99146 -4.33381 0
M  V30 3294 H 303.148 1.80232 -3.32152 0
M  V30 3295 H 303.461 3.12405 -7.0684 0
M  V30 3296 H 301.806 2.8159 -6.35399 0
M  V30 3297 H 304.997 2.1581 -4.15384 0
M  V30 3298 H 305.17 2.76102 -5.86235 0
M  V30 3299 N 298.576 1.31904 0.862503 0
M  V30 3300 C 299.804 1.24998 1.64873 0
M  V30 3301 C 300.219 -0.183425 1.87907 0
M  V30 3302 O 299.576 -1.11794 1.44251 0
M  V30 3303 C 299.627 1.99829 3.01248 0
M  V30 3304 O 299.348 3.37575 2.79239 0
M  V30 3305 C 300.849 1.99852 3.95694 0
M  V30 3306 H 298.069 0.431599 0.513773 0
M  V30 3307 H 300.613 1.73901 1.07604 0
M  V30 3308 H 298.768 1.54668 3.55185 0
M  V30 3309 H 299.182 3.75776 3.65914 0
M  V30 3310 H 300.656 2.56709 4.88676 0
M  V30 3311 H 301.133 0.982852 4.28062 0
M  V30 3312 H 301.739 2.44926 3.47694 0
M  V30 3313 N 300.054 -1.07777 1.14986 0
M  V30 3314 C 301.017 -2.13041 0.845358 0
M  V30 3315 C 302.017 -1.60071 -0.152931 0
M  V30 3316 O 303.207 -1.74033 0.0761879 0
M  V30 3317 C 300.339 -3.39896 0.261383 0
M  V30 3318 H 301.532 -2.41485 1.77834 0
M  V30 3319 H 299.085 -1.23595 0.956757 0
M  V30 3320 H 299.82 -3.17091 -0.68 0
M  V30 3321 H 299.605 -3.79642 0.980514 0
M  V30 3322 H 301.095 -4.17548 0.0657687 0
M  V30 3323 N 301.532 -0.945985 -1.26051 0
M  V30 3324 C 302.464 -0.416662 -2.25381 0
M  V30 3325 C 303.477 0.462712 -1.56086 0
M  V30 3326 O 304.666 0.272383 -1.7641 0
M  V30 3327 C 301.766 0.419812 -3.3629 0
M  V30 3328 C 300.939 -0.444531 -4.35135 0
M  V30 3329 C 299.998 0.332305 -5.2515 0
M  V30 3330 O 299.024 -0.266324 -5.68577 0
M  V30 3331 N 300.226 1.62763 -5.57215 0
M  V30 3332 H 302.991 -1.27059 -2.71433 0
M  V30 3333 H 300.552 -0.815392 -1.39868 0
M  V30 3334 H 302.544 0.947013 -3.93464 0
M  V30 3335 H 301.114 1.17456 -2.89694 0
M  V30 3336 H 300.334 -1.15291 -3.76964 0
M  V30 3337 H 301.622 -1.03478 -4.98166 0
M  V30 3338 H 301.02 2.13603 -5.23823 0
M  V30 3339 H 299.577 2.10097 -6.17011 0
M  V30 3340 N 303.011 1.40521 -0.713556 0
M  V30 3341 C 304.259 2.00527 -0.251692 0
M  V30 3342 C 304.58 1.56857 1.15848 0
M  V30 3343 O 303.85 0.807127 1.785 0
M  V30 3344 H 302.43 0.741551 -0.0900646 0
M  V30 3345 H 305.092 1.71887 -0.918733 0
M  V30 3346 H 304.188 3.10813 -0.283192 0
M  V30 3347 N 304.489 0.459591 1.5075 0
M  V30 3348 C 305.735 -0.0994966 2.02556 0
M  V30 3349 C 306.068 -1.40399 1.3417 0
M  V30 3350 O 305.343 -1.88892 0.463683 0
M  V30 3351 C 305.626 -0.295242 3.58888 0
M  V30 3352 C 305.479 1.02947 4.37861 0
M  V30 3353 C 306.798 -1.05502 4.27267 0
M  V30 3354 H 303.917 -0.034686 0.736183 0
M  V30 3355 H 306.559 0.602938 1.8018 0
M  V30 3356 H 304.709 -0.893563 3.78084 0
M  V30 3357 H 306.381 1.66348 4.30263 0
M  V30 3358 H 304.624 1.62885 4.02058 0
M  V30 3359 H 305.295 0.846281 5.45474 0
M  V30 3360 H 307.771 -0.547993 4.12476 0
M  V30 3361 H 306.647 -1.16077 5.36486 0
M  V30 3362 H 306.908 -2.08875 3.89645 0
M  V30 3363 N 305.967 -1.56429 0.191757 0
M  V30 3364 C 307.214 -1.97485 -0.447891 0
M  V30 3365 C 307.542 -1.07852 -1.61859 0
M  V30 3366 O 306.797 -0.116903 -1.95351 0
M  V30 3367 C 307.096 -3.44449 -0.953384 0
M  V30 3368 C 306.762 -4.50781 0.103586 0
M  V30 3369 C 305.424 -4.79584 0.394023 0
M  V30 3370 C 307.776 -5.1471 0.819946 0
M  V30 3371 C 305.104 -5.69607 1.40585 0
M  V30 3372 C 307.456 -6.05827 1.8209 0
M  V30 3373 C 306.12 -6.32987 2.11857 0
M  V30 3374 H 305.39 -0.722648 -0.163895 0
M  V30 3375 H 308.037 -1.89322 0.28802 0
M  V30 3376 H 306.342 -3.49666 -1.76751 0
M  V30 3377 H 308.039 -3.73569 -1.45765 0
M  V30 3378 H 304.629 -4.28394 -0.132951 0
M  V30 3379 H 308.813 -4.92552 0.608789 0
M  V30 3380 H 304.069 -5.88926 1.64243 0
M  V30 3381 H 308.243 -6.54424 2.38123 0
M  V30 3382 H 305.87 -7.02544 2.90407 0
M  V30 3383 N 307.445 0.0818655 -1.57387 0
M  V30 3384 C 308.693 0.781368 -1.86384 0
M  V30 3385 C 309.014 1.78618 -0.782342 0
M  V30 3386 O 308.284 1.94976 0.190061 0
M  V30 3387 H 306.864 0.291562 -0.687751 0
M  V30 3388 H 309.526 0.060348 -1.94807 0
M  V30 3389 H 308.622 1.3038 -2.83562 0
M  V30 3390 N 308.923 1.53595 0.353017 0
M  V30 3391 C 310.171 1.70049 1.09215 0
M  V30 3392 C 310.492 0.461406 1.89463 0
M  V30 3393 O 309.762 -0.524633 1.88744 0
M  V30 3394 H 308.342 0.626912 0.40619 0
M  V30 3395 H 311.004 1.90822 0.396585 0
M  V30 3396 H 310.1 2.56718 1.77488 0
M  V30 3397 N 310.401 -0.613514 1.45168 0
M  V30 3398 C 311.364 -1.7065 1.53007 0
M  V30 3399 C 312.364 -1.5548 0.410184 0
M  V30 3400 O 313.554 -1.60656 0.673455 0
M  V30 3401 C 310.686 -3.09875 1.42093 0
M  V30 3402 H 311.879 -1.65068 2.50385 0
M  V30 3403 H 309.432 -0.828728 1.32521 0
M  V30 3404 H 310.167 -3.21039 0.458769 0
M  V30 3405 H 309.952 -3.22293 2.23315 0
M  V30 3406 H 311.442 -3.895 1.50598 0
M  V30 3407 N 311.879 -1.3236 -0.855495 0
M  V30 3408 C 312.809 -1.23833 -1.97958 0
M  V30 3409 C 313.79 -0.122361 -1.69659 0
M  V30 3410 O 314.975 -0.30939 -1.9172 0
M  V30 3411 C 312.105 -0.959772 -3.33775 0
M  V30 3412 C 311.059 -2.03689 -3.76424 0
M  V30 3413 C 310.385 -1.61075 -5.09862 0
M  V30 3414 C 311.685 -3.4518 -3.9198 0
M  V30 3415 H 313.379 -2.1788 -2.0535 0
M  V30 3416 H 310.925 -1.04891 -0.986605 0
M  V30 3417 H 312.878 -0.886678 -4.11966 0
M  V30 3418 H 311.602 0.0163404 -3.26596 0
M  V30 3419 H 310.261 -2.10012 -3.00484 0
M  V30 3420 H 309.909 -0.622107 -4.99138 0
M  V30 3421 H 309.609 -2.33143 -5.39368 0
M  V30 3422 H 311.133 -1.55201 -5.90546 0
M  V30 3423 H 312.547 -3.4145 -4.60526 0
M  V30 3424 H 310.944 -4.1559 -4.32903 0
M  V30 3425 H 312.014 -3.84903 -2.94919 0
M  V30 3426 N 313.357 1.07166 -1.15556 0
M  V30 3427 C 314.585 1.83514 -0.955519 0
M  V30 3428 C 315 1.82163 0.49621 0
M  V30 3429 O 314.357 1.23441 1.34419 0
M  V30 3430 C 314.408 3.30515 -1.46432 0
M  V30 3431 O 314.129 3.31937 -2.85918 0
M  V30 3432 C 315.63 4.23625 -1.30603 0
M  V30 3433 H 312.85 0.578926 -0.339244 0
M  V30 3434 H 315.394 1.35265 -1.53374 0
M  V30 3435 H 313.549 3.76106 -0.928584 0
M  V30 3436 H 313.963 4.23794 -3.09029 0
M  V30 3437 H 315.437 5.24831 -1.71047 0
M  V30 3438 H 315.914 4.38485 -0.250441 0
M  V30 3439 H 316.52 3.83871 -1.83094 0
M  V30 3440 N 314.835 0.952656 1.25548 0
M  V30 3441 C 316.065 0.622592 1.96996 0
M  V30 3442 C 316.473 -0.809112 1.71026 0
M  V30 3443 O 315.816 -1.55258 0.981861 0
M  V30 3444 C 315.878 0.798946 3.5051 0
M  V30 3445 C 315.542 2.20744 4.00151 0
M  V30 3446 C 316.539 3.18394 4.11001 0
M  V30 3447 C 314.224 2.5311 4.33867 0
M  V30 3448 C 316.218 4.46504 4.54877 0
M  V30 3449 C 313.905 3.8145 4.7743 0
M  V30 3450 C 314.903 4.77959 4.87897 0
M  V30 3451 O 314.591 6.04012 5.30494 0
M  V30 3452 H 314.323 0.232503 0.634758 0
M  V30 3453 H 316.877 1.2789 1.60728 0
M  V30 3454 H 315.107 0.0854903 3.86605 0
M  V30 3455 H 316.796 0.47023 4.03167 0
M  V30 3456 H 317.562 2.94715 3.85186 0
M  V30 3457 H 313.441 1.78719 4.24948 0
M  V30 3458 H 316.985 5.21835 4.62962 0
M  V30 3459 H 312.882 4.04936 5.0269 0
M  V30 3460 H 313.65 6.0736 5.48685 0
M  V30 3461 N 316.313 -1.40141 0.720998 0
M  V30 3462 C 317.561 -2.0039 0.262323 0
M  V30 3463 C 317.882 -1.57469 -1.15015 0
M  V30 3464 O 317.152 -0.816582 -1.78069 0
M  V30 3465 H 315.732 -0.741063 0.093996 0
M  V30 3466 H 318.394 -1.71398 0.927835 0
M  V30 3467 H 317.49 -3.10658 0.299671 0
M  V30 3468 N 317.792 -0.46758 -1.50504 0
M  V30 3469 C 319.032 0.0874114 -2.04213 0
M  V30 3470 C 319.396 1.37301 -1.34211 0
M  V30 3471 O 320.597 2.01015 -1.78456 0
M  V30 3472 C 318.868 0.270571 -3.56374 0
M  V30 3473 S 320.427 0.784623 -4.31728 0
M  V30 3474 H 317.245 0.0176153 -0.710782 0
M  V30 3475 H 319.847 -0.633915 -1.84937 0
M  V30 3476 H 318.551 -0.670942 -4.04878 0
M  V30 3477 H 318.082 1.01811 -3.79997 0
M  V30 3478 H 320.097 2.05849 -4.51487 0
M  V30 3479 N 319.27 1.56325 -0.20005 0
M  V30 3480 C 320.519 1.96895 0.437652 0
M  V30 3481 C 320.832 1.08999 1.62415 0
M  V30 3482 O 322.038 1.39372 2.32997 0
M  V30 3483 C 320.494 3.50198 0.830025 0
M  V30 3484 C 320.102 4.46765 -0.332461 0
M  V30 3485 C 321.846 3.99526 1.43453 0
M  V30 3486 C 319.753 5.91344 0.0811468 0
M  V30 3487 H 318.683 0.735209 0.167282 0
M  V30 3488 H 321.334 1.81148 -0.292853 0
M  V30 3489 H 319.716 3.61467 1.61734 0
M  V30 3490 H 320.89 4.47231 -1.11 0
M  V30 3491 H 319.205 4.07657 -0.848789 0
M  V30 3492 H 321.802 5.05025 1.75652 0
M  V30 3493 H 322.145 3.44122 2.34277 0
M  V30 3494 H 322.678 3.91393 0.71109 0
M  V30 3495 H 319.417 6.50685 -0.793033 0
M  V30 3496 H 318.937 5.94121 0.823445 0
M  V30 3497 H 320.616 6.44945 0.515252 0
M  V30 3498 N 320.748 -0.0735177 1.57428 0
M  V30 3499 C 321.996 -0.771472 1.86796 0
M  V30 3500 C 322.317 -1.78201 0.791804 0
M  V30 3501 O 321.587 -1.95074 -0.179718 0
M  V30 3502 H 320.167 -0.28791 0.689287 0
M  V30 3503 H 322.829 -0.0500161 1.94836 0
M  V30 3504 H 321.925 -1.28874 2.8425 0
M  V30 3505 N 322.226 -1.5378 -0.344866 0
M  V30 3506 C 323.136 -1.84667 -1.4469 0
M  V30 3507 C 324.152 -0.736704 -1.57635 0
M  V30 3508 O 325.328 -1.02888 -1.73136 0
M  V30 3509 C 322.393 -2.04869 -2.79696 0
M  V30 3510 C 321.454 -3.28731 -2.76106 0
M  V30 3511 C 320.687 -3.4796 -4.04673 0
M  V30 3512 O 320.91 -2.71052 -5.01883 0
M  V30 3513 O 319.844 -4.41383 -4.09224 0
M  V30 3514 H 323.67 -2.78334 -1.21506 0
M  V30 3515 H 321.255 -1.39418 -0.536921 0
M  V30 3516 H 323.137 -2.19609 -3.59652 0
M  V30 3517 H 321.812 -1.14391 -3.02814 0
M  V30 3518 H 320.719 -3.19396 -1.94774 0
M  V30 3519 H 322.052 -4.19198 -2.57941 0
M  V30 3520 N 323.704 0.605807 -1.45491 0
M  V30 3521 C 325.115 1.18777 -1.44045 0
M  V30 3522 C 325.466 1.95471 -0.169001 0
M  V30 3523 O 324.591 2.0374 0.729324 0
M  V30 3524 C 325.186 2.16064 -2.60963 0
M  V30 3525 C 323.745 2.69633 -2.62631 0
M  V30 3526 C 322.892 1.45072 -2.36325 0
M  V30 3527 H 325.843 0.395017 -1.53705 0
M  V30 3528 H 325.864 2.9913 -2.35163 0
M  V30 3529 H 325.376 1.60217 -3.53486 0
M  V30 3530 H 323.477 3.29414 -1.74119 0
M  V30 3531 H 323.59 3.13944 -3.61906 0
M  V30 3532 H 321.954 1.74089 -1.85917 0
M  V30 3533 H 322.737 0.910899 -3.30995 0
M  V30 3534 N 325.182 1.32811 0.848464 0
M  V30 3535 C 326.114 1.18095 1.96433 0
M  V30 3536 C 327.127 0.114354 1.62398 0
M  V30 3537 O 328.316 0.363892 1.74751 0
M  V30 3538 C 325.416 0.786798 3.2964 0
M  V30 3539 C 324.589 1.943 3.91875 0
M  V30 3540 C 323.648 1.53138 5.03423 0
M  V30 3541 O 322.674 2.24432 5.23086 0
M  V30 3542 N 323.876 0.430915 5.78898 0
M  V30 3543 H 326.641 2.14218 2.09597 0
M  V30 3544 H 324.202 1.2543 1.02367 0
M  V30 3545 H 326.194 0.493715 4.01677 0
M  V30 3546 H 324.764 -0.0834541 3.12489 0
M  V30 3547 H 323.984 2.40224 3.12547 0
M  V30 3548 H 325.272 2.71689 4.30189 0
M  V30 3549 H 324.67 -0.162333 5.65467 0
M  V30 3550 H 323.227 0.197466 6.51501 0
M  V30 3551 N 326.66 -1.06551 1.16123 0
M  V30 3552 C 327.623 -2.12132 0.867906 0
M  V30 3553 C 328.623 -1.60224 -0.135944 0
M  V30 3554 O 329.813 -1.73943 0.0946422 0
M  V30 3555 C 326.945 -3.396 0.297419 0
M  V30 3556 H 328.138 -2.39586 1.80385 0
M  V30 3557 H 325.691 -1.22574 0.969812 0
M  V30 3558 H 326.426 -3.17794 -0.64633 0
M  V30 3559 H 326.211 -3.78581 1.02073 0
M  V30 3560 H 327.701 -4.17455 0.110052 0
M  V30 3561 N 328.138 -0.959301 -1.25041 0
M  V30 3562 C 329.549 -0.65667 -1.74771 0
M  V30 3563 C 329.9 0.827852 -1.77879 0
M  V30 3564 O 329.025 1.64783 -1.40269 0
M  V30 3565 C 329.62 -1.1853 -3.1739 0
M  V30 3566 C 328.179 -0.932734 -3.6466 0
M  V30 3567 C 327.326 -1.32558 -2.43564 0
M  V30 3568 H 330.277 -1.13558 -1.10862 0
M  V30 3569 H 330.298 -0.547582 -3.76539 0
M  V30 3570 H 329.81 -2.26576 -3.15095 0
M  V30 3571 H 327.911 0.13257 -3.72364 0
M  V30 3572 H 328.024 -1.57248 -4.52559 0
M  V30 3573 H 326.388 -0.743956 -2.43593 0
M  V30 3574 H 327.171 -2.41537 -2.43957 0
M  V30 3575 N 329.616 1.39756 -0.72842 0
M  V30 3576 C 330.864 2.00248 -0.272946 0
M  V30 3577 C 331.185 1.58077 1.14178 0
M  V30 3578 O 330.455 0.826014 1.77634 0
M  V30 3579 H 329.035 0.740554 -0.0979247 0
M  V30 3580 H 331.697 1.70903 -0.936912 0
M  V30 3581 H 330.793 3.10495 -0.316142 0
M  V30 3582 N 331.094 0.475555 1.50254 0
M  V30 3583 C 332.026 -0.352649 2.26471 0
M  V30 3584 C 333.039 -0.953165 1.3198 0
M  V30 3585 O 334.228 -0.840815 1.57457 0
M  V30 3586 C 331.328 -1.50902 3.0345 0
M  V30 3587 C 330.501 -1.02047 4.25329 0
M  V30 3588 C 329.56 -2.05142 4.84565 0
M  V30 3589 O 328.586 -1.63023 5.45355 0
M  V30 3590 N 329.788 -3.37987 4.71959 0
M  V30 3591 H 332.553 0.300767 2.98187 0
M  V30 3592 H 330.114 0.306598 1.5897 0
M  V30 3593 H 332.106 -2.19572 3.39956 0
M  V30 3594 H 330.676 -2.06705 2.34504 0
M  V30 3595 H 329.896 -0.159507 3.93877 0
M  V30 3596 H 331.184 -0.672061 5.04342 0
M  V30 3597 H 330.582 -3.74913 4.23623 0
M  V30 3598 H 329.139 -4.02443 5.12721 0
M  V30 3599 N 332.573 -1.56217 0.208337 0
M  V30 3600 C 333.822 -1.97124 -0.427204 0
M  V30 3601 C 334.135 -1.09859 -1.61835 0
M  V30 3602 O 335.341 -1.40606 -2.32255 0
M  V30 3603 C 333.797 -3.50633 -0.811442 0
M  V30 3604 C 333.405 -4.46582 0.35615 0
M  V30 3605 C 335.149 -4.00282 -1.41332 0
M  V30 3606 C 333.056 -5.91379 -0.0497852 0
M  V30 3607 H 331.986 -0.736086 -0.163381 0
M  V30 3608 H 334.637 -1.8099 0.302456 0
M  V30 3609 H 333.019 -3.62319 -1.59815 0
M  V30 3610 H 334.193 -4.46636 1.1337 0
M  V30 3611 H 332.508 -4.07202 0.870396 0
M  V30 3612 H 335.105 -5.0595 -1.72972 0
M  V30 3613 H 335.448 -3.45359 -2.32449 0
M  V30 3614 H 335.981 -3.91764 -0.690323 0
M  V30 3615 H 332.72 -6.50255 0.827529 0
M  V30 3616 H 332.24 -5.94549 -0.791926 0
M  V30 3617 H 333.919 -6.45209 -0.481042 0
M  V30 3618 N 334.051 0.0651679 -1.57465 0
M  V30 3619 C 335.328 0.79644 -1.78651 0
M  V30 3620 C 335.708 1.95454 -0.797566 0
M  V30 3621 O 335.056 2.27882 0.167946 0
M  V30 3622 C 335.266 1.26322 -3.25337 0
M  V30 3623 C 336.614 1.6939 -3.89348 0
M  V30 3624 O 337.638 1.35872 -3.29268 0
M  V30 3625 O 336.497 2.31471 -4.95059 0
M  V30 3626 H 333.591 0.382157 -0.733407 0
M  V30 3627 H 336.137 0.0447311 -1.69641 0
M  V30 3628 H 334.909 0.434859 -3.88876 0
M  V30 3629 H 334.532 2.07604 -3.39096 0
M  V30 3630 N 335.529 1.53961 0.336706 0
M  V30 3631 C 336.775 1.7179 1.07777 0
M  V30 3632 C 337.108 0.483263 1.88091 0
M  V30 3633 O 336.383 -0.519747 1.87427 0
M  V30 3634 C 336.666 2.98558 2.01334 0
M  V30 3635 C 336.519 4.32245 1.24437 0
M  V30 3636 C 337.838 3.21023 3.01052 0
M  V30 3637 H 334.957 0.625089 0.390426 0
M  V30 3638 H 337.599 1.86641 0.35567 0
M  V30 3639 H 335.749 2.86028 2.62908 0
M  V30 3640 H 337.421 4.56637 0.654243 0
M  V30 3641 H 335.664 4.30344 0.546458 0
M  V30 3642 H 336.335 5.17137 1.93063 0
M  V30 3643 H 338.811 3.32929 2.49595 0
M  V30 3644 H 337.687 4.11104 3.6371 0
M  V30 3645 H 337.948 2.37637 3.72802 0
M  V30 3646 N 337.007 -0.598083 1.45811 0
M  V30 3647 C 338.235 -1.38322 1.53866 0
M  V30 3648 C 338.65 -1.87992 0.174479 0
M  V30 3649 O 338.007 -1.62756 -0.825627 0
M  V30 3650 C 338.058 -2.58125 2.53089 0
M  V30 3651 O 337.779 -2.10516 3.84206 0
M  V30 3652 C 339.28 -3.50869 2.70935 0
M  V30 3653 H 336.5 -0.423093 0.520801 0
M  V30 3654 H 339.044 -0.728527 1.91083 0
M  V30 3655 H 337.199 -3.19615 2.18917 0
M  V30 3656 H 337.613 -2.88425 4.38077 0
M  V30 3657 H 339.087 -4.31451 3.44317 0
M  V30 3658 H 339.564 -4.01822 1.77301 0
M  V30 3659 H 340.17 -2.95225 3.06141 0
M  V30 3660 N 338.485 -1.33259 -0.841409 0
M  V30 3661 C 339.762 -1.15174 -1.58096 0
M  V30 3662 C 340.142 0.282858 -2.09196 0
M  V30 3663 O 339.49 1.28151 -1.89181 0
M  V30 3664 C 339.7 -2.1907 -2.71679 0
M  V30 3665 C 341.048 -2.53093 -3.40924 0
M  V30 3666 O 342.072 -2.17717 -2.81918 0
M  V30 3667 O 340.931 -3.1379 -4.47435 0
M  V30 3668 H 338.025 -0.445303 -0.696875 0
M  V30 3669 H 340.571 -1.44833 -0.884385 0
M  V30 3670 H 339.343 -3.15443 -2.31541 0
M  V30 3671 H 338.966 -1.90481 -3.49002 0
M  V30 3672 N 339.963 1.05934 -1.16686 0
M  V30 3673 C 340.893 2.1546 -0.899949 0
M  V30 3674 C 341.874 1.69391 0.155154 0
M  V30 3675 O 343.059 1.94199 0.00648693 0
M  V30 3676 C 340.189 3.44939 -0.404241 0
M  V30 3677 C 339.143 4.04536 -1.39767 0
M  V30 3678 C 338.469 5.29268 -0.760216 0
M  V30 3679 C 339.769 4.42893 -2.76845 0
M  V30 3680 H 341.463 2.38046 -1.81588 0
M  V30 3681 H 339.009 1.14404 -0.874514 0
M  V30 3682 H 340.962 4.20901 -0.204971 0
M  V30 3683 H 339.686 3.21983 0.547206 0
M  V30 3684 H 338.345 3.30635 -1.58355 0
M  V30 3685 H 337.993 5.02611 0.197831 0
M  V30 3686 H 337.693 5.70101 -1.42332 0
M  V30 3687 H 339.217 6.07924 -0.57105 0
M  V30 3688 H 340.631 5.09921 -2.62019 0
M  V30 3689 H 339.028 4.94721 -3.39663 0
M  V30 3690 H 340.098 3.53584 -3.31823 0
M  V30 3691 N 341.441 0.965919 1.2453 0
M  V30 3692 C 342.388 0.49402 2.25451 0
M  V30 3693 C 343.358 -0.45948 1.59618 0
M  V30 3694 O 344.543 -0.370238 1.87173 0
M  V30 3695 C 341.683 -0.211359 3.44452 0
M  V30 3696 C 340.796 0.7807 4.24887 0
M  V30 3697 C 339.931 0.0516105 5.31175 0
M  V30 3698 C 338.97 1.03385 6.03306 0
M  V30 3699 N 338.107 0.334887 7.01301 0
M  V30 3700 H 342.947 1.35946 2.65184 0
M  V30 3701 H 340.484 0.681515 1.3036 0
M  V30 3702 H 342.442 -0.637 4.12308 0
M  V30 3703 H 341.072 -1.04077 3.05562 0
M  V30 3704 H 340.124 1.32479 3.56586 0
M  V30 3705 H 341.436 1.52978 4.74762 0
M  V30 3706 H 340.59 -0.432114 6.05159 0
M  V30 3707 H 339.329 -0.730179 4.82203 0
M  V30 3708 H 338.334 1.52847 5.28127 0
M  V30 3709 H 339.559 1.81606 6.54367 0
M  V30 3710 H 337.505 -0.427959 6.54603 0
M  V30 3711 H 337.422 1.02287 7.49048 0
M  V30 3712 H 338.69 -0.126928 7.79397 0
M  V30 3713 N 342.919 -1.39368 0.735821 0
M  V30 3714 C 343.882 -2.2896 0.104874 0
M  V30 3715 C 344.882 -1.46347 -0.666274 0
M  V30 3716 O 346.072 -1.67014 -0.49517 0
M  V30 3717 C 343.204 -3.29857 -0.860656 0
M  V30 3718 H 344.397 -2.86259 0.894205 0
M  V30 3719 H 341.95 -1.48029 0.501704 0
M  V30 3720 H 342.685 -2.77615 -1.67631 0
M  V30 3721 H 342.47 -3.9087 -0.310327 0
M  V30 3722 H 343.96 -3.96893 -1.29867 0
M  V30 3723 N 344.397 -0.483516 -1.5 0
M  V30 3724 C 345.329 0.340634 -2.26655 0
M  V30 3725 C 346.342 0.946152 -1.32483 0
M  V30 3726 O 347.531 0.832453 -1.579 0
M  V30 3727 C 344.631 1.4929 -3.04246 0
M  V30 3728 C 343.804 0.997903 -4.25865 0
M  V30 3729 C 342.863 2.02569 -4.85646 0
M  V30 3730 O 341.889 1.60128 -5.46212 0
M  V30 3731 N 343.091 3.3548 -4.73744 0
M  V30 3732 H 345.856 -0.316577 -2.98023 0
M  V30 3733 H 343.417 -0.315024 -1.58806 0
M  V30 3734 H 345.409 2.17766 -3.41116 0
M  V30 3735 H 343.979 2.05458 -2.35597 0
M  V30 3736 H 343.199 0.138617 -3.93956 0
M  V30 3737 H 344.487 0.645305 -5.04691 0
M  V30 3738 H 343.885 3.72661 -4.25605 0
M  V30 3739 H 342.442 3.99718 -5.14848 0
M  V30 3740 N 345.875 1.56104 -0.216619 0
M  V30 3741 C 347.121 1.98466 0.417033 0
M  V30 3742 C 347.454 1.10403 1.59765 0
M  V30 3743 O 346.729 0.160632 1.93836 0
M  V30 3744 C 347.012 3.49769 0.85637 0
M  V30 3745 C 346.865 4.48606 -0.327546 0
M  V30 3746 C 348.184 4.05339 1.7143 0
M  V30 3747 H 345.303 0.721551 0.150112 0
M  V30 3748 H 347.945 1.87423 -0.311864 0
M  V30 3749 H 346.095 3.5931 1.47745 0
M  V30 3750 H 347.767 4.5108 -0.965618 0
M  V30 3751 H 346.01 4.22682 -0.975805 0
M  V30 3752 H 346.681 5.51995 0.0227149 0
M  V30 3753 H 349.157 3.98712 1.19031 0
M  V30 3754 H 348.033 5.11533 1.99061 0
M  V30 3755 H 348.294 3.51918 2.67593 0
M  V30 3756 N 347.353 -0.0568162 1.57498 0
M  V30 3757 C 348.581 -0.765626 1.92213 0
M  V30 3758 C 348.996 -1.70353 0.813961 0
M  V30 3759 O 348.353 -1.81268 -0.211701 0
M  V30 3760 C 348.404 -1.5465 3.2675 0
M  V30 3761 O 348.125 -0.646278 4.33307 0
M  V30 3762 C 349.626 -2.35497 3.75574 0
M  V30 3763 H 346.846 -0.216835 0.634999 0
M  V30 3764 H 349.39 -0.0226146 2.04487 0
M  V30 3765 H 347.545 -2.24165 3.15957 0
M  V30 3766 H 347.959 -1.19093 5.108 0
M  V30 3767 H 349.433 -2.85722 4.72299 0
M  V30 3768 H 349.91 -3.15692 3.05344 0
M  V30 3769 H 350.516 -1.7111 3.8936 0
M  V30 3770 N 348.832 -1.54138 -0.328536 0
M  V30 3771 C 349.762 -1.86167 -1.40939 0
M  V30 3772 C 350.743 -0.718044 -1.54202 0
M  V30 3773 O 351.928 -0.971328 -1.68163 0
M  V30 3774 C 349.058 -2.08461 -2.77779 0
M  V30 3775 C 348.012 -3.24299 -2.7931 0
M  V30 3776 C 347.338 -3.31955 -4.19178 0
M  V30 3777 C 348.638 -4.62065 -2.43502 0
M  V30 3778 H 350.332 -2.76689 -1.14383 0
M  V30 3779 H 347.878 -1.33132 -0.548806 0
M  V30 3780 H 349.831 -2.29453 -3.53454 0
M  V30 3781 H 348.555 -1.14684 -3.05802 0
M  V30 3782 H 347.214 -3.03187 -2.0609 0
M  V30 3783 H 346.862 -2.35745 -4.44335 0
M  V30 3784 H 346.562 -4.09805 -4.2111 0
M  V30 3785 H 348.086 -3.55175 -4.96672 0
M  V30 3786 H 349.5 -4.8297 -3.08889 0
M  V30 3787 H 347.897 -5.42429 -2.56693 0
M  V30 3788 H 348.967 -4.64652 -1.38659 0
M  V30 3789 N 350.31 0.590341 -1.46126 0
M  V30 3790 C 351.54 1.37304 -1.54373 0
M  V30 3791 C 351.948 1.88332 -0.181071 0
M  V30 3792 O 351.291 1.63852 0.830559 0
M  V30 3793 C 351.353 2.6012 -2.48149 0
M  V30 3794 C 351.017 2.30613 -3.94546 0
M  V30 3795 C 352.014 1.89915 -4.83971 0
M  V30 3796 C 349.699 2.42993 -4.39613 0
M  V30 3797 C 351.693 1.61981 -6.16475 0
M  V30 3798 C 349.38 2.14672 -5.72153 0
M  V30 3799 C 350.378 1.7423 -6.60404 0
M  V30 3800 O 350.066 1.46251 -7.90485 0
M  V30 3801 H 349.798 0.426086 -0.524811 0
M  V30 3802 H 352.352 0.72539 -1.92165 0
M  V30 3803 H 350.582 3.27664 -2.05361 0
M  V30 3804 H 352.271 3.22182 -2.46887 0
M  V30 3805 H 353.037 1.79872 -4.50412 0
M  V30 3806 H 348.916 2.73435 -3.71153 0
M  V30 3807 H 352.46 1.30341 -6.85315 0
M  V30 3808 H 348.357 2.24337 -6.05263 0
M  V30 3809 H 349.125 1.6016 -8.02677 0
M  V30 3810 O 351.827 1.43831 0.734505 0
M  V30 3811 H 352.518 1.35486 1.38431 0
M  V30 END ATOM
M  V30 BEGIN BOND
M  V30 END BOND
M  V30 END CTAB
M  END
$$$$
