drugbank_target|Q6GI75 Enoyl-[acyl-carrier-protein] reductase [NADPH] FabI (DB08604; DB11155)
 OpenBabel12092120513D

  0  0  0     0  0            999 V3000
M  V30 BEGIN CTAB
M  V30 COUNTS 3962 3989 0 0 0
M  V30 BEGIN ATOM
M  V30 1 H -0.908 1.98254 -0.117106 0
M  V30 2 N 0 1.576 0 0
M  V30 3 C 0.933 2.03868 1.02534 0
M  V30 4 C 1.911 0.928543 1.3348 0
M  V30 5 O 3.095 1.19667 1.45644 0
M  V30 6 C 0.222 2.43627 2.35294 0
M  V30 7 C -0.732 3.65373 2.2001 0
M  V30 8 S 0.101 5.13292 1.52614 0
M  V30 9 C 1.257 5.56322 2.86805 0
M  V30 10 H 1.49 2.90518 0.631377 0
M  V30 11 H -0.977 1.52953 0.210867 0
M  V30 12 H 0.981 2.67203 3.11629 0
M  V30 13 H -0.358 1.57376 2.7183 0
M  V30 14 H -1.165 3.90944 3.18086 0
M  V30 15 H -1.563 3.418 1.51819 0
M  V30 16 H 0.729 5.58782 3.83104 0
M  V30 17 H 1.672 6.56266 2.65933 0
M  V30 18 H 2.08 4.83886 2.90714 0
M  V30 19 N 1.4781 -0.272755 1.55222 0
M  V30 20 C 2.4081 -1.34136 1.91127 0
M  V30 21 C 3.3891 -1.51513 0.773168 0
M  V30 22 O 4.5741 -1.64552 1.03132 0
M  V30 23 C 1.7041 -2.70083 2.1834 0
M  V30 24 C 0.6581 -2.67437 3.34158 0
M  V30 25 C -0.0159 -4.06938 3.46851 0
M  V30 26 C 1.2841 -2.26686 4.70543 0
M  V30 27 H 2.9781 -1.04333 2.80633 0
M  V30 28 H 0.5241 -0.500454 1.35024 0
M  V30 29 H 2.4771 -3.44952 2.42046 0
M  V30 30 H 1.2011 -3.01469 1.25634 0
M  V30 31 H -0.1399 -1.95026 3.1042 0
M  V30 32 H -0.4919 -4.35547 2.51611 0
M  V30 33 H -0.7919 -4.06062 4.2472 0
M  V30 34 H 0.7321 -4.83545 3.72849 0
M  V30 35 H 2.1461 -2.91277 4.93792 0
M  V30 36 H 0.5431 -2.36971 5.5133 0
M  V30 37 H 1.6131 -1.21818 4.69349 0
M  V30 38 N 2.9562 -1.48159 -0.537278 0
M  V30 39 C 3.9042 -1.62573 -1.66352 0
M  V30 40 C 4.8982 -0.492366 -1.62087 0
M  V30 41 O 6.1042 -0.670847 -1.67032 0
M  V30 42 H 2.4792 -0.511992 -0.550789 0
M  V30 43 H 4.4502 -2.57176 -1.51337 0
M  V30 44 C 3.1992 -1.67583 -3.04649 0
M  V30 45 H 2.5222 -2.54151 -3.08622 0
M  V30 46 H 3.9622 -1.81713 -3.83088 0
M  V30 47 C 2.4212 -0.413039 -3.34358 0
M  V30 48 O 2.9512 0.477259 -3.98855 0
M  V30 49 N 1.1572 -0.286961 -2.8918 0
M  V30 50 H 0.7042 -1.01241 -2.36871 0
M  V30 51 H 0.6622 0.556963 -3.09427 0
M  V30 52 N 4.4343 0.785586 -1.36625 0
M  V30 53 C 5.3643 1.91259 -1.33949 0
M  V30 54 C 6.3453 1.68795 -0.210325 0
M  V30 55 O 7.5303 1.89854 -0.408561 0
M  V30 56 C 4.6603 3.28339 -1.13186 0
M  V30 57 C 3.6143 3.65335 -2.22967 0
M  V30 58 C 2.9403 5.00806 -1.87342 0
M  V30 59 C 4.2403 3.7352 -3.65075 0
M  V30 60 H 5.9343 1.93755 -2.28253 0
M  V30 61 H 3.4803 0.930788 -1.09874 0
M  V30 62 H 5.4333 4.06804 -1.09948 0
M  V30 63 H 4.1573 3.2624 -0.153332 0
M  V30 64 H 2.8163 2.89169 -2.25337 0
M  V30 65 H 2.4643 4.95233 -0.880545 0
M  V30 66 H 2.1643 5.26529 -2.60846 0
M  V30 67 H 3.6883 5.81687 -1.85667 0
M  V30 68 H 5.1023 4.42168 -3.64911 0
M  V30 69 H 3.4993 4.10731 -4.37516 0
M  V30 70 H 4.5693 2.74527 -3.99703 0
M  V30 71 N 5.9124 1.20967 1.01018 0
M  V30 72 C 6.8224 0.980157 2.13143 0
M  V30 73 C 7.8384 -0.0660665 1.73875 0
M  V30 74 O 9.0144 0.122821 2.01025 0
M  V30 75 C 6.0794 0.54216 3.42435 0
M  V30 76 C 5.1404 1.65999 3.95908 0
M  V30 77 C 4.3734 1.2428 5.19028 0
M  V30 78 O 4.5964 0.114196 5.70286 0
M  V30 79 O 3.5304 2.05271 5.65816 0
M  V30 80 H 7.3564 1.91913 2.35379 0
M  V30 81 H 4.9414 0.994099 1.11526 0
M  V30 82 H 6.8234 0.30744 4.20277 0
M  V30 83 H 5.4984 -0.36815 3.216 0
M  V30 84 H 4.4054 1.94906 3.19316 0
M  V30 85 H 5.7384 2.54753 4.21143 0
M  V30 86 N 7.3905 -1.2043 1.01659 0
M  V30 87 C 8.3385 -2.25249 0.580143 0
M  V30 88 C 9.3325 -1.65057 -0.381115 0
M  V30 89 O 10.5385 -1.78241 -0.251039 0
M  V30 90 H 6.9135 -0.732695 0.169299 0
M  V30 91 H 8.8845 -2.59389 1.47512 0
M  V30 92 C 7.6335 -3.47638 -0.065788 0
M  V30 93 H 6.9565 -3.94233 0.664874 0
M  V30 94 H 8.3965 -4.2268 -0.334282 0
M  V30 95 C 6.8555 -3.10447 -1.3086 0
M  V30 96 O 7.3855 -3.21981 -2.4019 0
M  V30 97 N 5.5915 -2.64996 -1.1927 0
M  V30 98 H 5.1385 -2.55811 -0.303064 0
M  V30 99 H 5.0965 -2.40482 -2.02523 0
M  V30 100 N 8.8686 -0.792821 -1.36206 0
M  V30 101 C 9.8156 -0.191653 -2.30003 0
M  V30 102 C 10.7856 0.666453 -1.52143 0
M  V30 103 O 11.9706 0.61442 -1.80636 0
M  V30 104 C 9.1106 0.664848 -3.38635 0
M  V30 105 C 8.2236 -0.212175 -4.31479 0
M  V30 106 C 7.3586 0.651022 -5.27196 0
M  V30 107 C 6.3976 -0.227247 -6.11678 0
M  V30 108 N 5.5346 0.595127 -6.99573 0
M  V30 109 H 10.3746 -0.996978 -2.80828 0
M  V30 110 H 7.9116 -0.503206 -1.38225 0
M  V30 111 H 9.8696 1.17645 -4.00269 0
M  V30 112 H 8.4996 1.43557 -2.89122 0
M  V30 113 H 7.5516 -0.841777 -3.70969 0
M  V30 114 H 8.8636 -0.888751 -4.90818 0
M  V30 115 H 8.0176 1.2283 -5.94136 0
M  V30 116 H 6.7566 1.36121 -4.68319 0
M  V30 117 H 5.7616 -0.816904 -5.43697 0
M  V30 118 H 6.9866 -0.93509 -6.72631 0
M  V30 119 H 4.9326 1.28955 -6.432 0
M  V30 120 H 4.8496 -0.0236952 -7.55996 0
M  V30 121 H 6.1176 1.15613 -7.70879 0
M  V30 122 N 10.3467 1.47872 -0.545128 0
M  V30 123 C 11.5747 2.06889 -0.021084 0
M  V30 124 C 11.9897 1.39955 1.2672 0
M  V30 125 O 11.3467 0.492036 1.75742 0
M  V30 126 C 11.3977 3.60996 0.190817 0
M  V30 127 O 11.1187 4.25419 -1.04644 0
M  V30 128 C 12.6197 4.36849 0.753521 0
M  V30 129 H 9.8397 0.669785 -0.0403635 0
M  V30 130 H 12.3837 1.90049 -0.755095 0
M  V30 131 H 10.5387 3.77391 0.87492 0
M  V30 132 H 10.9527 5.17785 -0.836611 0
M  V30 133 H 12.4267 5.45399 0.851139 0
M  V30 134 H 12.9037 4.02306 1.762 0
M  V30 135 H 13.5097 4.25169 0.105503 0
M  V30 136 N 11.8248 0.280983 1.55075 0
M  V30 137 C 13.0548 -0.336804 2.03836 0
M  V30 138 C 13.4628 -1.49577 1.15859 0
M  V30 139 O 12.8058 -1.82888 0.172503 0
M  V30 140 C 12.8678 -0.874616 3.48699 0
M  V30 141 C 12.5318 0.156478 4.56732 0
M  V30 142 C 13.5288 0.978032 5.10618 0
M  V30 143 C 11.2138 0.292409 5.01448 0
M  V30 144 C 13.2078 1.92165 6.07743 0
M  V30 145 C 10.8948 1.23949 5.98398 0
M  V30 146 C 11.8928 2.05261 6.51427 0
M  V30 147 O 11.5808 2.98367 7.4648 0
M  V30 148 H 11.3128 -0.0800885 0.671239 0
M  V30 149 H 13.8668 0.412589 2.01213 0
M  V30 150 H 12.0968 -1.67418 3.4858 0
M  V30 151 H 13.7858 -1.40612 3.80766 0
M  V30 152 H 14.5518 0.883782 4.7688 0
M  V30 153 H 10.4308 -0.330498 4.59814 0
M  V30 154 H 13.9748 2.55672 6.49059 0
M  V30 155 H 9.8718 1.33454 6.31554 0
M  V30 156 H 10.6398 2.93116 7.64215 0
M  V30 157 N 13.3029 -1.57598 0.00835791 0
M  V30 158 C 14.5489 -1.91211 -0.675732 0
M  V30 159 C 14.8819 -0.883139 -1.72958 0
M  V30 160 O 14.1569 0.097016 -1.94258 0
M  V30 161 C 14.4399 -3.35379 -1.31123 0
M  V30 162 C 14.2929 -4.48999 -0.268356 0
M  V30 163 C 15.6119 -3.7912 -2.23508 0
M  V30 164 H 12.7309 -0.695374 -0.244179 0
M  V30 165 H 15.3729 -1.89901 0.0613655 0
M  V30 166 H 13.5229 -3.36626 -1.93946 0
M  V30 167 H 15.1949 -4.59887 0.360844 0
M  V30 168 H 13.4379 -4.31873 0.408482 0
M  V30 169 H 14.1089 -5.46851 -0.752218 0
M  V30 170 H 16.5849 -3.79477 -1.70693 0
M  V30 171 H 15.4609 -4.80729 -2.64936 0
M  V30 172 H 15.7219 -3.13455 -3.11766 0
M  V30 173 N 14.781 0.264519 -1.55364 0
M  V30 174 C 16.03 0.992812 -1.75574 0
M  V30 175 C 16.343 1.87142 -0.568979 0
M  V30 176 O 17.549 2.63513 -0.653682 0
M  V30 177 C 16.005 1.81519 -3.10771 0
M  V30 178 C 15.613 0.984839 -4.37041 0
M  V30 179 C 17.357 2.53727 -3.40327 0
M  V30 180 C 15.264 1.80209 -5.63275 0
M  V30 181 H 14.194 0.374412 -0.65447 0
M  V30 182 H 16.845 0.248138 -1.81815 0
M  V30 183 H 15.227 2.60115 -2.98591 0
M  V30 184 H 16.401 0.242455 -4.60162 0
M  V30 185 H 14.716 0.37691 -4.14691 0
M  V30 186 H 17.313 3.15292 -4.3185 0
M  V30 187 H 17.656 3.24447 -2.60845 0
M  V30 188 H 18.189 1.82156 -3.53644 0
M  V30 189 H 14.928 1.13896 -6.45529 0
M  V30 190 H 14.448 2.52022 -5.44284 0
M  V30 191 H 16.127 2.37364 -6.01887 0
M  V30 192 N 16.2591 1.48442 0.529413 0
M  V30 193 C 17.1921 1.57577 1.65059 0
M  V30 194 C 18.1701 0.426198 1.56915 0
M  V30 195 O 19.3541 0.637877 1.77379 0
M  V30 196 C 16.4811 1.5043 3.03461 0
M  V30 197 C 15.5271 2.70235 3.29962 0
M  V30 198 S 16.3601 4.32198 3.16172 0
M  V30 199 C 17.5161 4.2765 4.57019 0
M  V30 200 H 17.7491 2.52427 1.5706 0
M  V30 201 H 15.2821 1.36982 0.712417 0
M  V30 202 H 17.2401 1.46992 3.8328 0
M  V30 203 H 15.9011 0.569167 3.089 0
M  V30 204 H 15.0941 2.61374 4.30929 0
M  V30 205 H 14.6961 2.70938 2.57815 0
M  V30 206 H 16.9881 3.97618 5.48549 0
M  V30 207 H 17.9311 5.28797 4.70934 0
M  V30 208 H 18.3391 3.5811 4.36368 0
M  V30 209 N 17.7372 -0.778329 1.37039 0
M  V30 210 C 18.9852 -1.53361 1.31623 0
M  V30 211 C 19.3062 -1.94739 -0.100831 0
M  V30 212 O 18.5762 -1.65797 -1.04347 0
M  V30 213 H 17.1562 -0.568794 0.484234 0
M  V30 214 H 19.8182 -0.926742 1.71457 0
M  V30 215 H 18.9142 -2.43606 1.95096 0
M  V30 216 N 19.2153 -1.21501 -1.00376 0
M  V30 217 C 20.4643 -1.02718 -1.73586 0
M  V30 218 C 20.7773 0.439589 -1.90596 0
M  V30 219 O 21.9833 0.746848 -2.61026 0
M  V30 220 C 20.4393 -1.78929 -3.1227 0
M  V30 221 C 20.0473 -3.29783 -3.03228 0
M  V30 222 C 21.7913 -1.68557 -3.89601 0
M  V30 223 C 19.6983 -3.98479 -4.36999 0
M  V30 224 H 18.6283 -0.380733 -0.650814 0
M  V30 225 H 21.2793 -1.45248 -1.1214 0
M  V30 226 H 19.6613 -1.29192 -3.74333 0
M  V30 227 H 20.8353 -3.86832 -2.50395 0
M  V30 228 H 19.1503 -3.40711 -2.39385 0
M  V30 229 H 21.7473 -2.17211 -4.88593 0
M  V30 230 H 22.0903 -0.644021 -4.11288 0
M  V30 231 H 22.6233 -2.15778 -3.34193 0
M  V30 232 H 19.3623 -5.02841 -4.20513 0
M  V30 233 H 18.8823 -3.46219 -4.89788 0
M  V30 234 H 20.5613 -4.03462 -5.05794 0
M  V30 235 N 20.6934 1.19889 -1.02296 0
M  V30 236 C 21.6564 2.21116 -0.603351 0
M  V30 237 C 22.6564 1.5738 0.329884 0
M  V30 238 O 23.8464 1.73802 0.117702 0
M  V30 239 C 20.9784 3.40696 0.117992 0
M  V30 240 H 22.1714 2.59754 -1.49893 0
M  V30 241 H 19.7244 1.33463 -0.813468 0
M  V30 242 H 20.4594 3.07569 1.0282 0
M  V30 243 H 20.2444 3.88188 -0.552511 0
M  V30 244 H 21.7344 4.15692 0.398696 0
M  V30 245 N 22.1715 0.800033 1.35784 0
M  V30 246 C 23.1195 0.193851 2.31791 0
M  V30 247 C 24.1135 -0.652744 1.56319 0
M  V30 248 O 25.3195 -0.546641 1.71499 0
M  V30 249 H 21.6945 0.04392 0.750716 0
M  V30 250 H 23.6655 1.01883 2.80468 0
M  V30 251 C 22.4145 -0.648338 3.41602 0
M  V30 252 H 21.7375 -0.00624665 3.998 0
M  V30 253 H 23.1775 -1.03898 4.11073 0
M  V30 254 C 21.6365 -1.8111 2.84079 0
M  V30 255 O 22.1665 -2.90825 2.77099 0
M  V30 256 N 20.3725 -1.62056 2.41218 0
M  V30 257 H 19.9195 -0.728123 2.47095 0
M  V30 258 H 19.8775 -2.40013 2.03079 0
M  V30 259 N 23.6496 -1.47581 0.552962 0
M  V30 260 C 24.5966 -2.29957 -0.197108 0
M  V30 261 C 25.5666 -1.38799 -0.912359 0
M  V30 262 O 26.7516 -1.67761 -0.908888 0
M  V30 263 C 23.8916 -3.22672 -1.22379 0
M  V30 264 C 23.0046 -4.28919 -0.515038 0
M  V30 265 C 22.1396 -5.0879 -1.52664 0
M  V30 266 C 21.1786 -6.06815 -0.802631 0
M  V30 267 N 20.3156 -6.7966 -1.76086 0
M  V30 268 H 25.1556 -2.93578 0.511486 0
M  V30 269 H 22.6926 -1.4471 0.264067 0
M  V30 270 H 24.6506 -3.74845 -1.83159 0
M  V30 271 H 23.2806 -2.60925 -1.90047 0
M  V30 272 H 22.3326 -3.79835 0.207192 0
M  V30 273 H 23.6446 -4.98773 0.0523425 0
M  V30 274 H 22.7986 -5.65091 -2.20809 0
M  V30 275 H 21.5376 -4.38828 -2.12794 0
M  V30 276 H 20.5426 -5.49695 -0.107238 0
M  V30 277 H 21.7676 -6.78784 -0.207135 0
M  V30 278 H 19.7136 -6.12432 -2.35081 0
M  V30 279 H 19.6306 -7.45669 -1.24552 0
M  V30 280 H 20.8986 -7.40538 -2.43359 0
M  V30 281 N 25.1277 -0.289203 -1.54924 0
M  V30 282 C 26.5437 0.0645403 -1.59469 0
M  V30 283 C 26.7437 1.53419 -1.30632 0
M  V30 284 O 25.7997 2.2852 -1.074 0
M  V30 285 C 27.1127 -0.32278 -2.98963 0
M  V30 286 C 28.6607 -0.270564 -3.11828 0
M  V30 287 C 29.1357 -0.632532 -4.53611 0
M  V30 288 N 30.6267 -0.584617 -4.59496 0
M  V30 289 C 31.3617 -0.837314 -5.67254 0
M  V30 290 N 30.8577 -1.15536 -6.83098 0
M  V30 291 N 32.6507 -0.765166 -5.56868 0
M  V30 292 H 24.8017 -1.24714 -1.71931 0
M  V30 293 H 27.0647 -0.504809 -0.802416 0
M  V30 294 H 26.7707 -1.34541 -3.24948 0
M  V30 295 H 26.6447 0.32944 -3.75759 0
M  V30 296 H 29.0317 0.742805 -2.85598 0
M  V30 297 H 29.1127 -0.957242 -2.37214 0
M  V30 298 H 28.7567 -1.64365 -4.80569 0
M  V30 299 H 28.6867 0.07609 -5.26545 0
M  V30 300 H 31.1777 -0.349248 -3.76283 0
M  V30 301 H 31.4907 -1.33447 -7.61191 0
M  V30 302 H 29.8357 -1.19328 -6.84679 0
M  V30 303 H 33.0267 -0.516432 -4.65243 0
M  V30 304 H 33.1997 -0.965477 -6.40767 0
M  V30 305 N 26.6058 1.57591 -0.0167156 0
M  V30 306 C 27.8308 1.9598 0.67872 0
M  V30 307 C 28.2558 0.892546 1.65575 0
M  V30 308 O 27.6138 -0.147772 1.80697 0
M  V30 309 C 27.6618 3.33468 1.37227 0
M  V30 310 O 26.7658 3.28954 2.48722 0
M  V30 311 H 26.1068 0.639339 0.17928 0
M  V30 312 H 28.6368 2.04463 -0.0748802 0
M  V30 313 H 28.6468 3.69417 1.7319 0
M  V30 314 H 27.3218 4.10694 0.656007 0
M  V30 315 H 25.8988 3.04705 2.14963 0
M  V30 316 N 28.0839 -0.256276 1.55502 0
M  V30 317 C 29.3329 -0.983486 1.76098 0
M  V30 318 C 29.6459 -1.86837 0.578896 0
M  V30 319 O 30.8519 -2.63163 0.667648 0
M  V30 320 C 29.3079 -1.79868 3.1173 0
M  V30 321 C 28.9159 -0.961648 4.37557 0
M  V30 322 C 30.6599 -2.51919 3.41668 0
M  V30 323 C 28.5669 -1.77219 5.64223 0
M  V30 324 H 27.4969 -0.370936 0.656447 0
M  V30 325 H 30.1479 -0.238492 1.81944 0
M  V30 326 H 28.5299 -2.58527 2.99966 0
M  V30 327 H 29.7039 -0.218048 4.60284 0
M  V30 328 H 28.0189 -0.354913 4.14885 0
M  V30 329 H 30.6159 -3.12998 4.33516 0
M  V30 330 H 30.9589 -3.23059 2.62562 0
M  V30 331 H 31.4919 -1.80278 3.54605 0
M  V30 332 H 28.2309 -1.10471 6.46124 0
M  V30 333 H 27.7509 -2.49132 5.45613 0
M  V30 334 H 29.4299 -2.34169 6.03137 0
M  V30 335 N 29.562 -1.4872 -0.521534 0
M  V30 336 C 30.525 -1.63379 -1.60748 0
M  V30 337 C 31.525 -0.50661 -1.52611 0
M  V30 338 O 32.715 -0.772601 -1.5613 0
M  V30 339 C 29.847 -1.61192 -3.00383 0
M  V30 340 H 31.04 -2.60217 -1.49087 0
M  V30 341 H 28.593 -1.37444 -0.744235 0
M  V30 342 H 29.328 -0.65863 -3.17541 0
M  V30 343 H 29.113 -2.43032 -3.07698 0
M  V30 344 H 30.603 -1.7466 -3.7932 0
M  V30 345 N 31.0401 0.771051 -1.3745 0
M  V30 346 C 32.2871 1.52963 -1.32697 0
M  V30 347 C 32.6151 1.94299 0.0883274 0
M  V30 348 O 31.8701 1.64397 1.0617 0
M  V30 349 C 32.1691 2.80676 -2.2126 0
M  V30 350 C 31.8351 2.58389 -3.69521 0
M  V30 351 C 30.4971 2.52019 -4.09927 0
M  V30 352 C 32.8491 2.38469 -4.63446 0
M  V30 353 C 30.1771 2.23721 -5.42371 0
M  V30 354 C 32.5291 2.11694 -5.96128 0
M  V30 355 C 31.1931 2.03769 -6.35637 0
M  V30 356 H 30.4631 0.559732 -0.485573 0
M  V30 357 H 33.1101 0.888083 -1.69662 0
M  V30 358 H 31.4151 3.49392 -1.77291 0
M  V30 359 H 33.1121 3.38557 -2.14895 0
M  V30 360 H 29.7021 2.6421 -3.37478 0
M  V30 361 H 33.8861 2.4238 -4.33089 0
M  V30 362 H 29.1421 2.16081 -5.71943 0
M  V30 363 H 33.3161 1.9528 -6.6846 0
M  V30 364 H 30.9431 1.81606 -7.38189 0
M  V30 365 N 32.5182 1.22032 0.997298 0
M  V30 366 C 33.7662 1.04016 1.73278 0
M  V30 367 C 34.0872 -0.426255 1.90284 0
M  V30 368 O 33.3572 -1.30694 1.45931 0
M  V30 369 H 31.9372 0.381897 0.642 0
M  V30 370 H 34.5992 1.5347 1.20137 0
M  V30 371 H 33.6952 1.51441 2.72896 0
M  V30 372 N 33.9963 -1.19345 1.0293 0
M  V30 373 C 35.2423 -1.89318 0.727083 0
M  V30 374 C 35.5753 -1.79446 -0.742483 0
M  V30 375 O 34.8503 -1.1871 -1.54072 0
M  V30 376 C 35.1333 -3.40238 1.17942 0
M  V30 377 C 34.9863 -3.58979 2.71024 0
M  V30 378 C 36.3053 -4.33479 0.760548 0
M  V30 379 H 33.4243 -0.687475 0.265606 0
M  V30 380 H 36.0663 -1.40477 1.2793 0
M  V30 381 H 34.2163 -3.81964 0.709608 0
M  V30 382 H 35.8883 -3.26421 3.25955 0
M  V30 383 H 34.1313 -3.02018 3.11396 0
M  V30 384 H 34.8023 -4.64823 2.9773 0
M  V30 385 H 37.2783 -3.99469 1.16464 0
M  V30 386 H 36.1543 -5.37664 1.10493 0
M  V30 387 H 36.4153 -4.40813 -0.337063 0
M  V30 388 N 35.4744 -0.807222 -1.35358 0
M  V30 389 C 36.4374 -0.223665 -2.28106 0
M  V30 390 C 37.4374 0.589354 -1.4961 0
M  V30 391 O 38.6274 0.407745 -1.69361 0
M  V30 392 C 35.7594 0.688149 -3.33882 0
M  V30 393 H 36.9524 -1.04169 -2.81227 0
M  V30 394 H 34.5054 -0.577921 -1.45223 0
M  V30 395 H 35.2404 1.52984 -2.85948 0
M  V30 396 H 35.0254 0.10687 -3.91954 0
M  V30 397 H 36.5154 1.09075 -4.03104 0
M  V30 398 N 36.9525 1.47285 -0.560781 0
M  V30 399 C 37.8995 2.30058 0.18491 0
M  V30 400 C 38.8695 1.39281 0.904986 0
M  V30 401 O 40.0545 1.68241 0.899979 0
M  V30 402 C 37.1945 3.23317 1.20666 0
M  V30 403 C 36.3075 4.29186 0.492285 0
M  V30 404 C 35.4425 5.09592 1.49964 0
M  V30 405 C 34.4815 6.07232 0.770439 0
M  V30 406 N 33.6185 6.80584 1.72479 0
M  V30 407 H 38.4585 2.93302 -0.527048 0
M  V30 408 H 35.9955 1.44568 -0.271738 0
M  V30 409 H 37.9535 3.75811 1.81168 0
M  V30 410 H 36.5835 2.61929 1.88661 0
M  V30 411 H 35.6355 3.7972 -0.227333 0
M  V30 412 H 36.9475 4.98738 -0.0787929 0
M  V30 413 H 36.1015 5.66254 2.17809 0
M  V30 414 H 34.8405 4.3995 2.10464 0
M  V30 415 H 33.8455 5.49745 0.0780846 0
M  V30 416 H 35.0705 6.78884 0.171134 0
M  V30 417 H 33.0165 6.1367 2.3183 0
M  V30 418 H 32.9335 7.46319 1.20596 0
M  V30 419 H 34.2015 7.41818 2.39428 0
M  V30 420 N 38.4306 0.297415 1.54768 0
M  V30 421 C 39.6766 -0.313376 2.00364 0
M  V30 422 C 40.0096 -1.53815 1.18553 0
M  V30 423 O 39.2846 -1.92739 0.261103 0
M  V30 424 C 39.5676 -0.673525 3.53745 0
M  V30 425 C 39.4206 0.560133 4.46299 0
M  V30 426 C 40.7396 -1.50143 4.13697 0
M  V30 427 H 37.8586 -0.112428 0.728374 0
M  V30 428 H 40.5006 0.4088 1.8555 0
M  V30 429 H 38.6506 -1.28881 3.665 0
M  V30 430 H 40.3226 1.19863 4.45455 0
M  V30 431 H 38.5656 1.19405 4.17043 0
M  V30 432 H 39.2366 0.26405 5.51368 0
M  V30 433 H 41.7126 -0.981588 4.04356 0
M  V30 434 H 40.5886 -1.72221 5.21182 0
M  V30 435 H 40.8496 -2.48952 3.65343 0
M  V30 436 N 39.9087 -1.5758 0.0250728 0
M  V30 437 C 40.8387 -2.13007 -0.956575 0
M  V30 438 C 41.8197 -1.0452 -1.342 0
M  V30 439 O 43.0047 -1.32332 -1.42133 0
M  V30 440 C 40.1347 -2.65386 -2.24026 0
M  V30 441 C 39.0887 -3.78623 -1.99571 0
M  V30 442 C 38.4147 -4.17414 -3.3417 0
M  V30 443 C 39.7147 -5.04867 -1.33814 0
M  V30 444 H 41.4087 -2.9528 -0.494991 0
M  V30 445 H 38.9547 -1.42042 -0.236651 0
M  V30 446 H 40.9077 -3.02794 -2.93076 0
M  V30 447 H 39.6317 -1.80268 -2.72343 0
M  V30 448 H 38.2907 -3.41646 -1.32941 0
M  V30 449 H 37.9387 -3.29284 -3.80238 0
M  V30 450 H 37.6387 -4.93719 -3.18615 0
M  V30 451 H 39.1627 -4.57402 -4.04495 0
M  V30 452 H 40.5767 -5.39888 -1.92857 0
M  V30 453 H 38.9737 -5.86144 -1.28669 0
M  V30 454 H 40.0437 -4.83904 -0.310561 0
M  V30 455 N 41.3868 0.248026 -1.55636 0
M  V30 456 C 42.6638 0.998988 -1.68165 0
M  V30 457 C 43.0438 2.03409 -0.564621 0
M  V30 458 O 42.3918 2.24378 0.432076 0
M  V30 459 C 42.6018 1.63334 -3.0842 0
M  V30 460 C 43.9498 2.13562 -3.66983 0
M  V30 461 O 44.9738 1.73277 -3.11213 0
M  V30 462 O 43.8328 2.87526 -4.64749 0
M  V30 463 H 40.9268 0.464933 -0.683935 0
M  V30 464 H 43.4728 0.241902 -1.67967 0
M  V30 465 H 42.2448 0.884583 -3.8117 0
M  V30 466 H 41.8678 2.45666 -3.12624 0
M  V30 467 N 42.8649 1.48995 0.513639 0
M  V30 468 C 43.7969 1.60836 1.63293 0
M  V30 469 C 44.8099 0.491701 1.55197 0
M  V30 470 O 45.9989 0.763238 1.6136 0
M  V30 471 C 43.0989 1.53731 3.02027 0
M  V30 472 C 42.2719 2.80715 3.35437 0
M  V30 473 C 41.3309 2.66837 4.53525 0
M  V30 474 O 40.3569 3.40753 4.55934 0
M  V30 475 N 41.5589 1.77539 5.52684 0
M  V30 476 H 44.3239 2.57366 1.53566 0
M  V30 477 H 41.8849 1.45925 0.701259 0
M  V30 478 H 43.8769 1.42118 3.78926 0
M  V30 479 H 42.4469 0.651092 3.05744 0
M  V30 480 H 41.6669 3.06772 2.47557 0
M  V30 481 H 42.9549 3.64927 3.54551 0
M  V30 482 H 42.3529 1.16719 5.53528 0
M  V30 483 H 40.9099 1.71856 6.28736 0
M  V30 484 N 44.343 -0.763751 1.37857 0
M  V30 485 C 45.273 -1.89103 1.36975 0
M  V30 486 C 46.254 -1.68439 0.237152 0
M  V30 487 O 47.439 -1.8918 0.438713 0
M  V30 488 C 44.569 -3.26496 1.18395 0
M  V30 489 C 43.523 -3.61741 2.28751 0
M  V30 490 C 42.849 -4.97762 1.95286 0
M  V30 491 C 44.149 -3.67665 3.70972 0
M  V30 492 H 45.843 -1.90099 2.31307 0
M  V30 493 H 43.389 -0.91319 1.11341 0
M  V30 494 H 45.342 -4.05003 1.16406 0
M  V30 495 H 44.066 -3.25955 0.205215 0
M  V30 496 H 42.725 -2.85547 2.29909 0
M  V30 497 H 42.373 -4.93769 0.959221 0
M  V30 498 H 42.073 -5.22313 2.69189 0
M  V30 499 H 43.597 -5.7866 1.94898 0
M  V30 500 H 45.011 -4.36307 3.719 0
M  V30 501 H 43.408 -4.03718 4.43995 0
M  V30 502 H 44.478 -2.68134 4.0402 0
M  V30 503 N 45.8211 -1.22559 -0.990812 0
M  V30 504 C 47.0691 -1.04933 -1.72724 0
M  V30 505 C 47.3901 0.416158 -1.90508 0
M  V30 506 O 46.6601 1.29918 -1.46622 0
M  V30 507 H 45.2401 -0.385296 -0.639965 0
M  V30 508 H 47.9021 -1.54105 -1.19322 0
M  V30 509 H 46.9981 -1.52886 -2.72089 0
M  V30 510 N 47.2992 1.18797 -1.03562 0
M  V30 511 C 48.2622 2.20464 -0.626769 0
M  V30 512 C 49.2622 1.57721 0.313173 0
M  V30 513 O 50.4522 1.73917 0.0992615 0
M  V30 514 C 47.5842 3.40802 0.0818498 0
M  V30 515 H 48.7772 2.58149 -1.5264 0
M  V30 516 H 46.3302 1.32593 -0.827578 0
M  V30 517 H 47.0652 3.08642 0.995518 0
M  V30 518 H 46.8502 3.8758 -0.593652 0
M  V30 519 H 48.3402 4.16092 0.354584 0
M  V30 520 N 48.7773 0.814389 1.34928 0
M  V30 521 C 49.7243 0.22822 2.29669 0
M  V30 522 C 50.6943 -0.642164 1.53184 0
M  V30 523 O 51.8793 -0.585605 1.81591 0
M  V30 524 C 49.0193 -0.61089 3.3965 0
M  V30 525 C 48.1323 0.280792 4.31086 0
M  V30 526 C 47.2673 -0.567067 5.28165 0
M  V30 527 C 46.3063 0.324531 6.11239 0
M  V30 528 N 45.4433 -0.483756 7.00431 0
M  V30 529 H 50.2833 1.04153 2.79206 0
M  V30 530 H 47.8203 0.525133 1.37407 0
M  V30 531 H 49.7783 -1.11263 4.0209 0
M  V30 532 H 48.4083 -1.38939 2.91369 0
M  V30 533 H 47.4603 0.900688 3.69583 0
M  V30 534 H 48.7723 0.966723 4.89342 0
M  V30 535 H 47.9263 -1.13363 5.96015 0
M  V30 536 H 46.6653 -1.28654 4.70425 0
M  V30 537 H 45.6703 0.903298 5.42329 0
M  V30 538 H 46.8953 1.04198 6.71059 0
M  V30 539 H 44.8413 -1.18706 6.45171 0
M  V30 540 H 44.7583 0.143965 7.55863 0
M  V30 541 H 46.0263 -1.03334 7.7262 0
M  V30 542 N 50.2554 -1.46986 0.568584 0
M  V30 543 C 51.1854 -2.32946 -0.160753 0
M  V30 544 C 52.1664 -1.44487 -0.897631 0
M  V30 545 O 53.3514 -1.73327 -0.875867 0
M  V30 546 C 50.4814 -3.26494 -1.18403 0
M  V30 547 C 49.4354 -4.24282 -0.562895 0
M  V30 548 C 48.7614 -5.07236 -1.69163 0
M  V30 549 C 50.0614 -5.19989 0.490761 0
M  V30 550 H 51.7554 -2.94175 0.556916 0
M  V30 551 H 49.3014 -1.4146 0.26927 0
M  V30 552 H 51.2544 -3.85477 -1.70251 0
M  V30 553 H 49.9784 -2.63343 -1.93179 0
M  V30 554 H 48.6374 -3.66541 -0.0656164 0
M  V30 555 H 48.2854 -4.4048 -2.42871 0
M  V30 556 H 47.9854 -5.7345 -1.28174 0
M  V30 557 H 49.5094 -5.6908 -2.21314 0
M  V30 558 H 50.9234 -5.73271 0.0579047 0
M  V30 559 H 49.3204 -5.94469 0.820165 0
M  V30 560 H 50.3904 -4.64777 1.3824 0
M  V30 561 N 51.7335 -0.305618 -1.54608 0
M  V30 562 C 52.9795 0.302746 -2.00528 0
M  V30 563 C 53.3125 1.53184 -1.19367 0
M  V30 564 O 52.5875 1.92598 -0.271321 0
M  V30 565 C 52.8705 0.654756 -3.54097 0
M  V30 566 C 52.7235 -0.583793 -4.45995 0
M  V30 567 C 54.0425 1.47947 -4.14487 0
M  V30 568 H 51.1615 0.108564 -0.72896 0
M  V30 569 H 53.8035 -0.418634 -1.85331 0
M  V30 570 H 51.9535 1.26935 -3.67178 0
M  V30 571 H 53.6255 -1.22224 -4.44814 0
M  V30 572 H 51.8685 -1.21615 -4.16404 0
M  V30 573 H 52.5395 -0.293287 -5.5122 0
M  V30 574 H 55.0155 0.96013 -4.04871 0
M  V30 575 H 53.8915 1.69454 -5.22088 0
M  V30 576 H 54.1525 2.47011 -3.66658 0
M  V30 577 N 53.2116 1.57565 -0.0334293 0
M  V30 578 C 54.4586 1.91978 0.644272 0
M  V30 579 C 54.7866 0.910231 1.71887 0
M  V30 580 O 54.0416 -0.0801961 1.95536 0
M  V30 581 C 54.3406 3.33112 1.29504 0
M  V30 582 C 54.0066 4.49537 0.350388 0
M  V30 583 C 52.6686 4.81115 0.0903974 0
M  V30 584 C 55.0206 5.20347 -0.298032 0
M  V30 585 C 52.3486 5.8086 -0.825746 0
M  V30 586 C 54.7006 6.2107 -1.20226 0
M  V30 587 C 53.3646 6.51088 -1.4711 0
M  V30 588 H 52.6346 0.702496 0.235756 0
M  V30 589 H 55.2816 1.91259 -0.0961176 0
M  V30 590 H 53.5866 3.30113 2.11028 0
M  V30 591 H 55.2836 3.57011 1.82603 0
M  V30 592 H 51.8736 4.24883 0.563205 0
M  V30 593 H 56.0576 4.96178 -0.110234 0
M  V30 594 H 51.3136 6.02461 -1.04169 0
M  V30 595 H 55.4876 6.75057 -1.71086 0
M  V30 596 H 53.1146 7.28193 -2.18264 0
M  V30 597 N 54.6897 -0.239769 1.55765 0
M  V30 598 C 55.9177 -0.98417 1.81994 0
M  V30 599 C 56.3327 -1.7867 0.610124 0
M  V30 600 O 55.6897 -1.77571 -0.421271 0
M  V30 601 C 55.7407 -1.91635 3.06526 0
M  V30 602 O 55.4617 -1.14629 4.22838 0
M  V30 603 C 56.9627 -2.77616 3.45607 0
M  V30 604 H 54.1827 -0.28928 0.605441 0
M  V30 605 H 56.7267 -0.260499 2.02834 0
M  V30 606 H 54.8817 -2.5942 2.87715 0
M  V30 607 H 55.2957 -1.77745 4.93464 0
M  V30 608 H 56.7697 -3.38759 4.35828 0
M  V30 609 H 57.2467 -3.4909 2.6652 0
M  V30 610 H 57.8527 -2.15271 3.66795 0
M  V30 611 N 56.1678 -1.49265 -0.50573 0
M  V30 612 C 57.3978 -1.61979 -1.28243 0
M  V30 613 C 57.8058 -0.288576 -1.86986 0
M  V30 614 O 57.1488 0.735408 -1.68337 0
M  V30 615 C 57.2108 -2.62632 -2.45489 0
M  V30 616 C 56.8748 -4.071 -2.07651 0
M  V30 617 C 57.8718 -4.94049 -1.61901 0
M  V30 618 C 55.5568 -4.52801 -2.17431 0
M  V30 619 C 57.5508 -6.24736 -1.26428 0
M  V30 620 C 55.2378 -5.83503 -1.8157 0
M  V30 621 C 56.2358 -6.69294 -1.36142 0
M  V30 622 O 55.9238 -7.9756 -1.00764 0
M  V30 623 H 55.6558 -0.54834 -0.395347 0
M  V30 624 H 58.2098 -1.96002 -0.614204 0
M  V30 625 H 56.4398 -2.2378 -3.15372 0
M  V30 626 H 58.1288 -2.64925 -3.07522 0
M  V30 627 H 58.8948 -4.5997 -1.53795 0
M  V30 628 H 54.7738 -3.86196 -2.51742 0
M  V30 629 H 58.3178 -6.91652 -0.908992 0
M  V30 630 H 54.2148 -6.17112 -1.89324 0
M  V30 631 H 54.9828 -8.10529 -1.13952 0
M  V30 632 N 57.6459 0.756429 -1.3826 0
M  V30 633 C 59.0619 1.0591 -1.19395 0
M  V30 634 C 59.2619 2.01459 -0.0406567 0
M  V30 635 O 58.3179 2.44909 0.614467 0
M  V30 636 C 59.6309 1.64191 -2.51916 0
M  V30 637 C 61.1789 1.76376 -2.58574 0
M  V30 638 C 61.6539 2.38069 -3.91264 0
M  V30 639 N 63.1449 2.45503 -3.92788 0
M  V30 640 C 63.8799 2.94126 -4.92217 0
M  V30 641 N 63.3759 3.42805 -6.02043 0
M  V30 642 N 65.1689 2.9314 -4.7961 0
M  V30 643 H 57.3199 0.122313 -2.12048 0
M  V30 644 H 59.5829 0.116892 -0.940766 0
M  V30 645 H 59.2889 1.01451 -3.3675 0
M  V30 646 H 59.1629 2.6329 -2.70108 0
M  V30 647 H 61.5499 2.38244 -1.74137 0
M  V30 648 H 61.6309 0.759894 -2.44252 0
M  V30 649 H 61.2749 1.76835 -4.76121 0
M  V30 650 H 61.2049 3.39091 -4.02895 0
M  V30 651 H 63.6959 2.1107 -3.13461 0
M  V30 652 H 64.0089 3.78354 -6.73846 0
M  V30 653 H 62.3539 3.4087 -6.05667 0
M  V30 654 H 65.5449 2.54419 -3.92923 0
M  V30 655 H 65.7179 3.30721 -5.5725 0
M  V30 656 N 59.124 1.23083 0.984299 0
M  V30 657 C 60.071 1.00854 2.07598 0
M  V30 658 C 61.041 -0.0726709 1.65941 0
M  V30 659 O 62.226 0.0786535 1.90638 0
M  V30 660 C 59.366 0.601645 3.39815 0
M  V30 661 C 58.479 1.75456 3.94765 0
M  V30 662 C 57.614 1.29482 5.15177 0
M  V30 663 C 56.653 2.41873 5.62284 0
M  V30 664 N 55.79 1.96885 6.73929 0
M  V30 665 H 60.63 1.943 2.25946 0
M  V30 666 H 58.167 0.968001 1.10762 0
M  V30 667 H 60.125 0.346854 4.15756 0
M  V30 668 H 58.755 -0.295803 3.21442 0
M  V30 669 H 57.807 2.12346 3.15616 0
M  V30 670 H 59.119 2.59965 4.25699 0
M  V30 671 H 58.273 0.997923 5.98437 0
M  V30 672 H 57.012 0.420046 4.85888 0
M  V30 673 H 56.017 2.72342 4.77608 0
M  V30 674 H 57.242 3.29881 5.93595 0
M  V30 675 H 55.188 1.11782 6.46406 0
M  V30 676 H 55.105 2.74956 7.04227 0
M  V30 677 H 56.373 1.70289 7.60672 0
M  V30 678 N 60.6021 -1.18246 1.0419 0
M  V30 679 C 61.5121 -2.25574 0.644476 0
M  V30 680 C 62.5281 -1.70845 -0.329826 0
M  V30 681 O 63.7041 -2.00554 -0.184443 0
M  V30 682 C 60.7691 -3.46697 0.014877 0
M  V30 683 C 59.8301 -4.16554 1.03834 0
M  V30 684 C 59.0631 -5.31894 0.438692 0
M  V30 685 O 59.2861 -5.65385 -0.754752 0
M  V30 686 O 58.2201 -5.90459 1.168 0
M  V30 687 H 62.0461 -2.61836 1.53869 0
M  V30 688 H 59.6311 -1.25352 0.812854 0
M  V30 689 H 61.5131 -4.20062 -0.335538 0
M  V30 690 H 60.1881 -3.12255 -0.853138 0
M  V30 691 H 59.0951 -3.45251 1.44057 0
M  V30 692 H 60.4281 -4.54998 1.87716 0
M  V30 693 N 62.0802 -0.821533 -1.34494 0
M  V30 694 C 63.4962 -0.507117 -1.51329 0
M  V30 695 C 63.6962 0.968964 -1.76673 0
M  V30 696 O 62.7522 1.75348 -1.81685 0
M  V30 697 C 64.0652 -1.36544 -2.67911 0
M  V30 698 C 65.6132 -1.36242 -2.81793 0
M  V30 699 C 66.0882 -2.2052 -4.01416 0
M  V30 700 N 67.5792 -2.18136 -4.08621 0
M  V30 701 C 68.3142 -2.80095 -5.00334 0
M  V30 702 N 67.8102 -3.51039 -5.9728 0
M  V30 703 N 69.6032 -2.69656 -4.93196 0
M  V30 704 H 61.7542 -1.77729 -1.16302 0
M  V30 705 H 64.0172 -0.757291 -0.570276 0
M  V30 706 H 63.7232 -2.41361 -2.55808 0
M  V30 707 H 63.5972 -1.02917 -3.62888 0
M  V30 708 H 65.9842 -0.322041 -2.93338 0
M  V30 709 H 66.0652 -1.73866 -1.87628 0
M  V30 710 H 65.7092 -3.24607 -3.90631 0
M  V30 711 H 65.6392 -1.80247 -4.94791 0
M  V30 712 H 68.1302 -1.6653 -3.39229 0
M  V30 713 H 68.4432 -3.95565 -6.63889 0
M  V30 714 H 66.7882 -3.55145 -5.97409 0
M  V30 715 H 69.9792 -2.13808 -4.16418 0
M  V30 716 H 70.1522 -3.1823 -5.64476 0
M  V30 717 N 63.5583 1.46682 -0.576371 0
M  V30 718 C 64.7833 2.07304 -0.0630475 0
M  V30 719 C 65.2083 1.42329 1.2298 0
M  V30 720 O 64.5663 0.504865 1.74129 0
M  V30 721 C 64.6143 3.60472 0.095895 0
M  V30 722 O 63.7183 3.95927 1.15394 0
M  V30 723 H 63.0593 0.661288 -0.0599463 0
M  V30 724 H 65.5893 1.88417 -0.797511 0
M  V30 725 H 65.5993 4.06865 0.304071 0
M  V30 726 H 64.2743 4.07157 -0.84828 0
M  V30 727 H 62.8513 3.61252 0.924724 0
M  V30 728 N 65.0364 0.313813 1.54444 0
M  V30 729 C 66.4524 -0.0391619 1.59552 0
M  V30 730 C 66.6524 -1.51322 1.33056 0
M  V30 731 O 65.7084 -2.26782 1.11022 0
M  V30 732 C 67.0214 0.370302 2.98411 0
M  V30 733 C 68.5694 0.320139 3.11358 0
M  V30 734 C 69.0444 0.704617 4.52547 0
M  V30 735 N 70.5354 0.657645 4.58508 0
M  V30 736 C 71.2704 0.927453 5.6585 0
M  V30 737 N 70.7664 1.26389 6.81174 0
M  V30 738 N 72.5594 0.853662 5.5558 0
M  V30 739 H 64.7104 1.27433 1.69925 0
M  V30 740 H 66.9734 0.517511 0.794284 0
M  V30 741 H 66.6794 1.39694 3.22767 0
M  V30 742 H 66.5534 -0.269619 3.76235 0
M  V30 743 H 68.9404 -0.697275 2.86744 0
M  V30 744 H 69.0214 0.99486 2.35661 0
M  V30 745 H 68.6654 1.7199 4.77893 0
M  V30 746 H 68.5954 0.00768843 5.26599 0
M  V30 747 H 71.0864 0.409067 3.75679 0
M  V30 748 H 71.3994 1.4554 7.58972 0
M  V30 749 H 69.7444 1.30206 6.82694 0
M  V30 750 H 72.9354 0.590383 4.64362 0
M  V30 751 H 73.1084 1.0673 6.3915 0
M  V30 752 N 66.5145 -1.57545 0.0417849 0
M  V30 753 C 67.4615 -2.10977 -0.935805 0
M  V30 754 C 68.4315 -1.01486 -1.31491 0
M  V30 755 O 69.6165 -1.2898 -1.40602 0
M  V30 756 C 66.7565 -2.65169 -2.2086 0
M  V30 757 C 65.8695 -3.88714 -1.88482 0
M  V30 758 C 65.0045 -4.31254 -3.1015 0
M  V30 759 C 64.0435 -5.47524 -2.7365 0
M  V30 760 N 63.1805 -5.85162 -3.87982 0
M  V30 761 H 68.0205 -2.94218 -0.473249 0
M  V30 762 H 65.5575 -1.45415 -0.221981 0
M  V30 763 H 67.5155 -2.94685 -2.95325 0
M  V30 764 H 66.1455 -1.8474 -2.64709 0
M  V30 765 H 65.1975 -3.65849 -1.04205 0
M  V30 766 H 66.5095 -4.73245 -1.57608 0
M  V30 767 H 65.6635 -4.62273 -3.92923 0
M  V30 768 H 64.4025 -3.45516 -3.44195 0
M  V30 769 H 63.4075 -5.16187 -1.89291 0
M  V30 770 H 64.6325 -6.34971 -2.40807 0
M  V30 771 H 62.5785 -5.02377 -4.21846 0
M  V30 772 H 62.4955 -6.64362 -3.60775 0
M  V30 773 H 63.7635 -6.20791 -4.71422 0
M  V30 774 N 67.9926 0.231505 -1.5589 0
M  V30 775 C 68.9026 1.308 -1.94752 0
M  V30 776 C 69.9186 1.51826 -0.849989 0
M  V30 777 O 71.0946 1.6515 -1.15271 0
M  V30 778 C 68.1596 2.63968 -2.24771 0
M  V30 779 C 67.2206 2.51331 -3.48039 0
M  V30 780 C 66.4536 3.78148 -3.76616 0
M  V30 781 O 66.6766 4.80722 -3.07022 0
M  V30 782 O 65.6106 3.75857 -4.70123 0
M  V30 783 H 69.4366 1.0083 -2.86474 0
M  V30 784 H 67.0216 0.433547 -1.42971 0
M  V30 785 H 68.9036 3.42633 -2.45318 0
M  V30 786 H 67.5786 2.9364 -1.36225 0
M  V30 787 H 66.4856 1.709 -3.32782 0
M  V30 788 H 67.8186 2.26601 -4.36936 0
M  V30 789 N 69.4707 1.49531 0.497807 0
M  V30 790 C 70.4007 1.6935 1.60757 0
M  V30 791 C 71.3817 0.542218 1.61227 0
M  V30 792 O 72.5667 0.778417 1.77917 0
M  V30 793 C 69.6967 1.76298 2.99226 0
M  V30 794 C 68.6507 2.91248 3.13622 0
M  V30 795 C 67.9767 2.83312 4.53474 0
M  V30 796 C 69.2767 4.3214 2.93346 0
M  V30 797 H 70.9707 2.62263 1.44425 0
M  V30 798 H 68.5167 1.26208 0.693367 0
M  V30 799 H 70.4697 1.88749 3.76765 0
M  V30 800 H 69.1937 0.799871 3.16654 0
M  V30 801 H 67.8527 2.78404 2.38509 0
M  V30 802 H 67.5007 1.84902 4.67782 0
M  V30 803 H 67.2007 3.60465 4.64046 0
M  V30 804 H 68.7247 2.97775 5.33069 0
M  V30 805 H 70.1387 4.45649 3.60652 0
M  V30 806 H 68.5357 5.1054 3.15387 0
M  V30 807 H 69.6057 4.46363 1.89441 0
M  V30 808 N 70.9488 -0.749086 1.3866 0
M  V30 809 C 71.8588 -1.89358 1.38494 0
M  V30 810 C 72.8748 -1.71708 0.281476 0
M  V30 811 O 74.0508 -1.94554 0.520643 0
M  V30 812 C 71.1158 -3.24782 1.21316 0
M  V30 813 C 70.1768 -3.54926 2.41508 0
M  V30 814 C 69.4098 -4.83888 2.2514 0
M  V30 815 O 69.6328 -5.56592 1.24746 0
M  V30 816 O 68.5668 -5.13612 3.13826 0
M  V30 817 H 72.3928 -1.92452 2.34938 0
M  V30 818 H 69.9778 -0.894981 1.19626 0
M  V30 819 H 71.8598 -4.05739 1.13814 0
M  V30 820 H 70.5348 -3.2249 0.279592 0
M  V30 821 H 69.4418 -2.74112 2.54585 0
M  V30 822 H 70.7748 -3.61983 3.3351 0
M  V30 823 N 72.4269 -1.23603 -0.977757 0
M  V30 824 C 73.3739 -1.01954 -2.07061 0
M  V30 825 C 74.3439 0.0638697 -1.65977 0
M  V30 826 O 75.5289 -0.0887624 -1.90593 0
M  V30 827 C 72.6689 -0.619658 -3.39491 0
M  V30 828 C 71.7819 -1.77547 -3.93829 0
M  V30 829 C 70.9169 -1.32212 -5.14484 0
M  V30 830 C 69.9559 -2.44852 -5.60994 0
M  V30 831 N 69.0929 -2.00456 -6.72876 0
M  V30 832 H 73.9329 -1.95495 -2.24913 0
M  V30 833 H 71.4699 -0.973861 -1.10247 0
M  V30 834 H 73.4279 -0.368898 -4.15566 0
M  V30 835 H 72.0579 0.278752 -3.21594 0
M  V30 836 H 71.1099 -2.14016 -3.14486 0
M  V30 837 H 72.4219 -2.62219 -4.24314 0
M  V30 838 H 71.5759 -1.02965 -5.97899 0
M  V30 839 H 70.3149 -0.445808 -4.85658 0
M  V30 840 H 69.3199 -2.74871 -4.76157 0
M  V30 841 H 70.5449 -3.33024 -5.91837 0
M  V30 842 H 68.4909 -1.15208 -6.45804 0
M  V30 843 H 68.4079 -2.78687 -7.02759 0
M  V30 844 H 69.6759 -1.7432 -7.59758 0
M  V30 845 N 73.905 1.17692 -1.04816 0
M  V30 846 C 74.835 2.23777 -0.666791 0
M  V30 847 C 75.816 1.66796 0.33361 0
M  V30 848 O 77.001 1.93039 0.212042 0
M  V30 849 C 74.131 3.47281 -0.0367933 0
M  V30 850 C 73.085 4.17059 -0.961546 0
M  V30 851 C 72.411 5.34342 -0.195626 0
M  V30 852 C 73.711 4.69713 -2.28402 0
M  V30 853 H 75.405 2.55933 -1.55367 0
M  V30 854 H 72.951 1.23019 -0.748484 0
M  V30 855 H 74.904 4.20706 0.241775 0
M  V30 856 H 73.628 3.14381 0.885004 0
M  V30 857 H 72.287 3.45541 -1.22462 0
M  V30 858 H 71.935 4.97692 0.728816 0
M  V30 859 H 71.635 5.81966 -0.811775 0
M  V30 860 H 73.159 6.10553 0.0757473 0
M  V30 861 H 74.573 5.34794 -2.06563 0
M  V30 862 H 72.97 5.279 -2.8538 0
M  V30 863 H 74.04 3.86726 -2.92525 0
M  V30 864 N 75.3831 0.828654 1.34056 0
M  V30 865 C 76.3131 0.269443 2.3194 0
M  V30 866 C 77.2941 -0.617247 1.58506 0
M  V30 867 O 78.4791 -0.542931 1.86456 0
M  V30 868 C 75.6091 -0.564793 3.42677 0
M  V30 869 C 74.5631 0.225241 4.27407 0
M  V30 870 C 73.8891 -0.7321 5.29664 0
M  V30 871 C 75.1891 1.43663 5.02154 0
M  V30 872 H 76.8831 1.08728 2.7896 0
M  V30 873 H 74.4291 0.524283 1.34117 0
M  V30 874 H 76.3821 -0.966233 4.10173 0
M  V30 875 H 75.1061 -1.41574 2.9432 0
M  V30 876 H 73.7651 0.608117 3.61521 0
M  V30 877 H 73.4131 -1.57916 4.77568 0
M  V30 878 H 73.1131 -0.20767 5.87233 0
M  V30 879 H 74.6371 -1.13128 6.00029 0
M  V30 880 H 76.0511 1.1089 5.62473 0
M  V30 881 H 74.4481 1.89711 5.69324 0
M  V30 882 H 75.5181 2.21181 4.31517 0
M  V30 883 N 76.8612 -1.46375 0.584142 0
M  V30 884 C 77.7712 -2.34115 -0.150728 0
M  V30 885 C 78.7872 -1.49838 -0.884567 0
M  V30 886 O 79.9632 -1.82704 -0.847429 0
M  V30 887 C 77.0282 -3.2705 -1.15062 0
M  V30 888 C 76.0892 -4.27228 -0.421293 0
M  V30 889 C 75.3222 -5.15722 -1.37355 0
M  V30 890 O 75.5452 -5.07176 -2.61014 0
M  V30 891 O 74.4792 -5.95383 -0.883355 0
M  V30 892 H 78.3052 -2.98309 0.569708 0
M  V30 893 H 75.8902 -1.45373 0.344535 0
M  V30 894 H 77.7722 -3.84381 -1.72712 0
M  V30 895 H 76.4472 -2.65451 -1.8525 0
M  V30 896 H 75.3542 -3.7358 0.197085 0
M  V30 897 H 76.6872 -4.91616 0.239641 0
M  V30 898 N 78.3393 -0.321999 -1.54275 0
M  V30 899 C 79.2713 0.578671 -2.21775 0
M  V30 900 C 80.2843 1.08109 -1.21722 0
M  V30 901 O 81.4733 0.994938 -1.482 0
M  V30 902 C 78.5733 1.80661 -2.86731 0
M  V30 903 C 77.7463 1.44314 -4.12907 0
M  V30 904 C 76.8053 2.52845 -4.61472 0
M  V30 905 O 75.8313 2.17054 -5.2619 0
M  V30 906 N 77.0333 3.83748 -4.35566 0
M  V30 907 H 79.7983 0.000709447 -2.997 0
M  V30 908 H 77.3593 -0.145132 -1.61248 0
M  V30 909 H 79.3513 2.52655 -3.16145 0
M  V30 910 H 77.9213 2.29245 -2.12521 0
M  V30 911 H 77.1413 0.554906 -3.90275 0
M  V30 912 H 78.4293 1.17598 -4.95023 0
M  V30 913 H 77.8273 4.15625 -3.83761 0
M  V30 914 H 76.3843 4.51977 -4.69638 0
M  V30 915 N 79.8174 1.5752 -0.0501392 0
M  V30 916 C 80.7474 2.14502 0.922566 0
M  V30 917 C 81.7284 1.06642 1.3252 0
M  V30 918 O 82.9134 1.34577 1.4001 0
M  V30 919 C 80.0434 2.68916 2.19776 0
M  V30 920 C 78.9974 3.8175 1.93523 0
M  V30 921 C 78.3234 4.22677 3.27487 0
M  V30 922 C 79.6234 5.06932 1.25765 0
M  V30 923 H 81.3174 2.9603 0.447952 0
M  V30 924 H 78.8634 1.42401 0.214024 0
M  V30 925 H 80.8164 3.07419 2.88222 0
M  V30 926 H 79.5404 1.84578 2.69441 0
M  V30 927 H 78.1994 3.43718 1.27489 0
M  V30 928 H 77.8474 3.35291 3.74952 0
M  V30 929 H 77.5474 4.98725 3.1072 0
M  V30 930 H 79.0714 4.63779 3.97166 0
M  V30 931 H 80.4854 5.42888 1.84244 0
M  V30 932 H 78.8824 5.88116 1.19328 0
M  V30 933 H 79.9524 4.84337 0.233536 0
M  V30 934 N 81.2955 -0.223234 1.56011 0
M  V30 935 C 82.2435 -1.29627 1.93131 0
M  V30 936 C 83.2375 -1.48608 0.813146 0
M  V30 937 O 84.4435 -1.49802 0.997966 0
M  V30 938 H 80.8185 -0.434563 0.613726 0
M  V30 939 H 82.7895 -0.955995 2.82672 0
M  V30 940 C 81.5385 -2.63983 2.26292 0
M  V30 941 H 80.8615 -2.50185 3.11846 0
M  V30 942 H 82.3015 -3.3788 2.56151 0
M  V30 943 C 80.7605 -3.18866 1.08747 0
M  V30 944 O 81.2905 -4.00192 0.347727 0
M  V30 945 N 79.4965 -2.77217 0.871743 0
M  V30 946 H 79.0435 -2.1119 1.47501 0
M  V30 947 H 79.0015 -3.1428 0.0869905 0
M  V30 948 N 82.7736 -1.49793 -0.48987 0
M  V30 949 C 83.7056 -1.63413 -1.60713 0
M  V30 950 C 84.7186 -0.516329 -1.54395 0
M  V30 951 O 85.9076 -0.788812 -1.60125 0
M  V30 952 C 83.0076 -1.58516 -2.99543 0
M  V30 953 C 82.1806 -2.86016 -3.30928 0
M  V30 954 C 81.2396 -2.74018 -4.49222 0
M  V30 955 O 80.2656 -3.47964 -4.50455 0
M  V30 956 N 81.4676 -1.86309 -5.4979 0
M  V30 957 H 84.2326 -2.59777 -1.49452 0
M  V30 958 H 81.7936 -1.47022 -0.677955 0
M  V30 959 H 83.7856 -1.48128 -3.76617 0
M  V30 960 H 82.3556 -0.69965 -3.0467 0
M  V30 961 H 81.5756 -3.10672 -2.42645 0
M  V30 962 H 82.8636 -3.70521 -3.487 0
M  V30 963 H 82.2616 -1.2551 -5.51601 0
M  V30 964 H 80.8186 -1.81837 -6.25922 0
M  V30 965 N 84.2517 0.741722 -1.39055 0
M  V30 966 C 85.6627 1.31966 -1.32068 0
M  V30 967 C 86.0137 1.96192 0.0180797 0
M  V30 968 O 85.1387 1.95861 0.920196 0
M  V30 969 C 85.7337 2.39954 -2.39181 0
M  V30 970 C 84.2927 2.93438 -2.35735 0
M  V30 971 C 83.4397 1.66936 -2.21422 0
M  V30 972 H 86.3907 0.539721 -1.4924 0
M  V30 973 H 86.4117 3.20182 -2.05581 0
M  V30 974 H 85.9237 1.9318 -3.36605 0
M  V30 975 H 84.0247 3.4451 -1.41929 0
M  V30 976 H 84.1377 3.4701 -3.30335 0
M  V30 977 H 82.5017 1.91016 -1.68478 0
M  V30 978 H 83.2847 1.22224 -3.20806 0
M  V30 979 N 85.7298 1.2412 0.971189 0
M  V30 980 C 86.6398 1.04747 2.09917 0
M  V30 981 C 87.6558 -0.0107162 1.73997 0
M  V30 982 O 88.8318 0.186714 2.00533 0
M  V30 983 C 85.8968 0.650828 3.40537 0
M  V30 984 C 84.9578 1.7851 3.90426 0
M  V30 985 C 84.1908 1.40729 5.14812 0
M  V30 986 O 84.4138 0.29557 5.69634 0
M  V30 987 O 83.3478 2.23168 5.58999 0
M  V30 988 H 87.1738 1.99304 2.29154 0
M  V30 989 H 84.7588 1.02908 1.08307 0
M  V30 990 H 86.6408 0.440992 4.19086 0
M  V30 991 H 85.3158 -0.265649 3.22608 0
M  V30 992 H 84.2228 2.04966 3.12953 0
M  V30 993 H 85.5558 2.68023 4.12825 0
M  V30 994 N 87.2079 -1.17134 1.05439 0
M  V30 995 C 88.1709 -2.19439 0.661764 0
M  V30 996 C 89.1709 -1.58199 -0.288042 0
M  V30 997 O 90.3609 -1.74053 -0.0715803 0
M  V30 998 C 87.4929 -3.40889 -0.0276209 0
M  V30 999 H 88.6859 -2.55688 1.56728 0
M  V30 1000 H 86.2389 -1.31259 0.848567 0
M  V30 1001 H 86.9739 -3.10187 -0.94629 0
M  V30 1002 H 86.7589 -3.86586 0.655238 0
M  V30 1003 H 88.2489 -4.16603 -0.288342 0
M  V30 1004 N 88.686 -0.835752 -1.33615 0
M  V30 1005 C 89.636 -0.238856 -2.26745 0
M  V30 1006 C 90.62 0.604343 -1.49119 0
M  V30 1007 O 91.812 0.456822 -1.71003 0
M  V30 1008 C 88.941 0.587725 -3.38232 0
M  V30 1009 C 88.027 -0.266811 -4.2326 0
M  V30 1010 N 88.418 -1.34403 -4.87616 0
M  V30 1011 C 86.716 -0.0533131 -4.45968 0
M  V30 1012 C 87.417 -1.86819 -5.50884 0
M  V30 1013 N 86.393 -1.17013 -5.30857 0
M  V30 1014 H 90.195 -1.06266 -2.74016 0
M  V30 1015 H 87.709 -0.679881 -1.47483 0
M  V30 1016 H 89.706 1.03161 -4.03935 0
M  V30 1017 H 88.366 1.40954 -2.9251 0
M  V30 1018 H 89.377 -1.7269 -4.88261 0
M  V30 1019 H 86.054 0.735312 -4.10974 0
M  V30 1020 H 87.444 -2.7701 -6.1214 0
M  V30 1021 N 90.1641 1.46063 -0.591896 0
M  V30 1022 C 91.0941 2.33172 0.123673 0
M  V30 1023 C 92.0751 1.45897 0.87453 0
M  V30 1024 O 93.2601 1.74698 0.848181 0
M  V30 1025 C 90.3901 3.28336 1.13194 0
M  V30 1026 C 89.3441 4.25124 0.495324 0
M  V30 1027 C 88.6701 5.09863 1.61071 0
M  V30 1028 C 89.9701 5.19143 -0.573425 0
M  V30 1029 H 91.6641 2.93252 -0.603646 0
M  V30 1030 H 89.2101 1.41014 -0.291741 0
M  V30 1031 H 91.1631 3.88137 1.64097 0
M  V30 1032 H 89.8871 2.66383 1.88965 0
M  V30 1033 H 88.5461 3.66599 0.00729452 0
M  V30 1034 H 88.1941 4.44288 2.35832 0
M  V30 1035 H 87.8941 5.75417 1.19035 0
M  V30 1036 H 89.4181 5.72529 2.12233 0
M  V30 1037 H 90.8321 5.73106 -0.1491 0
M  V30 1038 H 89.2291 5.93089 -0.914636 0
M  V30 1039 H 90.2991 4.62519 -1.45617 0
M  V30 1040 N 91.6422 0.330177 1.54103 0
M  V30 1041 C 92.8722 -0.271784 2.04805 0
M  V30 1042 C 93.2802 -1.45816 1.20559 0
M  V30 1043 O 92.6232 -1.82247 0.2306 0
M  V30 1044 C 92.6852 -0.763238 3.51305 0
M  V30 1045 C 92.3492 0.301705 4.56003 0
M  V30 1046 C 93.3462 1.13999 5.07248 0
M  V30 1047 C 91.0312 0.451793 5.00264 0
M  V30 1048 C 93.0252 2.11402 6.01322 0
M  V30 1049 C 90.7122 1.42924 5.94151 0
M  V30 1050 C 91.7102 2.25882 6.44567 0
M  V30 1051 O 91.3982 3.21965 7.3661 0
M  V30 1052 H 91.1302 -0.058693 0.673447 0
M  V30 1053 H 93.6842 0.476395 1.99799 0
M  V30 1054 H 91.9142 -1.56244 3.5373 0
M  V30 1055 H 93.6032 -1.28427 3.85047 0
M  V30 1056 H 94.3692 1.03505 4.73827 0
M  V30 1057 H 90.2482 -0.184044 4.60632 0
M  V30 1058 H 93.7922 2.76192 6.40596 0
M  V30 1059 H 89.6892 1.53479 6.26988 0
M  V30 1060 H 90.4572 3.17281 7.54503 0
M  V30 1061 N 93.1203 -1.57491 0.0584922 0
M  V30 1062 C 94.0523 -2.08916 -0.942694 0
M  V30 1063 C 95.0653 -1.0185 -1.27006 0
M  V30 1064 O 96.2543 -1.29398 -1.22957 0
M  V30 1065 C 93.3543 -2.52341 -2.26224 0
M  V30 1066 C 92.5273 -3.82827 -2.1157 0
M  V30 1067 C 91.5863 -4.12487 -3.26712 0
M  V30 1068 O 90.6123 -4.82295 -3.02292 0
M  V30 1069 N 91.8143 -3.64978 -4.5141 0
M  V30 1070 H 94.5793 -2.95437 -0.503722 0
M  V30 1071 H 92.1403 -1.61397 -0.12757 0
M  V30 1072 H 94.1323 -2.69254 -3.02133 0
M  V30 1073 H 92.7023 -1.7103 -2.61663 0
M  V30 1074 H 91.9223 -3.75425 -1.20208 0
M  V30 1075 H 93.2103 -4.68263 -1.99015 0
M  V30 1076 H 92.6083 -3.08558 -4.7414 0
M  V30 1077 H 91.1653 -3.87115 -5.2439 0
M  V30 1078 N 94.5984 0.214957 -1.56127 0
M  V30 1079 C 95.8474 0.936451 -1.78643 0
M  V30 1080 C 96.1604 1.85237 -0.628229 0
M  V30 1081 O 97.3664 2.613 -0.737186 0
M  V30 1082 C 95.8224 1.7154 -3.16389 0
M  V30 1083 C 95.4304 0.845299 -4.39953 0
M  V30 1084 C 97.1744 2.42772 -3.48227 0
M  V30 1085 C 95.0814 1.62198 -5.68723 0
M  V30 1086 H 94.0114 0.353401 -0.666051 0
M  V30 1087 H 96.6624 0.190169 -1.82512 0
M  V30 1088 H 95.0444 2.50484 -3.06715 0
M  V30 1089 H 96.2184 0.0959353 -4.607 0
M  V30 1090 H 94.5334 0.244789 -4.1568 0
M  V30 1091 H 97.1304 3.01394 -4.41663 0
M  V30 1092 H 97.4734 3.15984 -2.71035 0
M  V30 1093 H 98.0064 1.70813 -3.5926 0
M  V30 1094 H 94.7454 0.933011 -6.48826 0
M  V30 1095 H 94.2654 2.34579 -5.52026 0
M  V30 1096 H 95.9444 2.18095 -6.09133 0
M  V30 1097 N 96.0765 1.50051 0.48192 0
M  V30 1098 C 97.3535 1.51009 1.2432 0
M  V30 1099 C 97.7335 0.248587 2.09631 0
M  V30 1100 O 97.0815 -0.768409 2.15192 0
M  V30 1101 C 97.2915 2.79981 2.08355 0
M  V30 1102 C 98.6395 3.3022 2.66908 0
M  V30 1103 O 99.6635 2.81228 2.18607 0
M  V30 1104 O 98.5225 4.15595 3.54884 0
M  V30 1105 H 95.6165 0.605239 0.563573 0
M  V30 1106 H 98.1625 1.62332 0.494627 0
M  V30 1107 H 96.9345 3.63275 1.45419 0
M  V30 1108 H 96.5575 2.7161 2.90368 0
M  V30 1109 N 97.5546 -0.734337 1.39446 0
M  V30 1110 C 98.8006 -1.49613 1.36908 0
M  V30 1111 C 99.1336 -1.94169 -0.0347829 0
M  V30 1112 O 98.4086 -1.66833 -0.999847 0
M  V30 1113 C 98.6916 -2.73534 2.34203 0
M  V30 1114 C 98.5446 -2.34993 3.83534 0
M  V30 1115 C 99.8636 -3.75635 2.29317 0
M  V30 1116 H 96.9826 -0.542714 0.498629 0
M  V30 1117 H 99.6246 -0.839597 1.70443 0
M  V30 1118 H 97.7746 -3.29553 2.05736 0
M  V30 1119 H 99.4466 -1.84601 4.22753 0
M  V30 1120 H 97.6896 -1.67213 4.00278 0
M  V30 1121 H 98.3606 -3.23738 4.47099 0
M  V30 1122 H 100.837 -3.29203 2.54489 0
M  V30 1123 H 99.7126 -4.60008 2.99472 0
M  V30 1124 H 99.9736 -4.22603 1.29842 0
M  V30 1125 N 99.0327 -1.24633 -0.964593 0
M  V30 1126 C 99.9647 -0.999302 -2.06268 0
M  V30 1127 C 100.978 0.0323226 -1.62768 0
M  V30 1128 O 102.167 -0.205079 -1.77318 0
M  V30 1129 C 99.2667 -0.486816 -3.35385 0
M  V30 1130 C 98.4397 -1.5823 -4.07777 0
M  V30 1131 C 97.4987 -1.07191 -5.15166 0
M  V30 1132 O 96.5247 -1.76426 -5.41168 0
M  V30 1133 N 97.7267 0.0920373 -5.80427 0
M  V30 1134 H 100.492 -1.94477 -2.28033 0
M  V30 1135 H 98.0527 -1.15704 -1.13244 0
M  V30 1136 H 100.045 -0.130066 -4.04491 0
M  V30 1137 H 98.6147 0.364459 -3.10468 0
M  V30 1138 H 97.8347 -2.11109 -3.32906 0
M  V30 1139 H 99.1227 -2.31854 -4.52903 0
M  V30 1140 H 98.5207 0.670784 -5.61709 0
M  V30 1141 H 97.0777 0.389905 -6.50633 0
M  V30 1142 N 100.511 1.16574 -1.06058 0
M  V30 1143 C 101.736 1.91493 -0.796562 0
M  V30 1144 C 102.161 1.76773 0.642868 0
M  V30 1145 O 101.519 1.09142 1.44768 0
M  V30 1146 C 101.567 3.40293 -1.19303 0
M  V30 1147 O 100.671 4.11074 -0.330394 0
M  V30 1148 H 100.012 0.596678 -0.291326 0
M  V30 1149 H 102.542 1.47708 -1.41575 0
M  V30 1150 H 102.552 3.91057 -1.16356 0
M  V30 1151 H 101.227 3.50326 -2.24153 0
M  V30 1152 H 99.8038 3.70513 -0.421225 0
M  V30 1153 N 101.989 0.842826 1.3317 0
M  V30 1154 C 103.266 0.362216 1.92217 0
M  V30 1155 C 103.646 -1.15289 1.76838 0
M  V30 1156 O 102.994 -1.96914 1.15919 0
M  V30 1157 C 103.204 0.813495 3.39387 0
M  V30 1158 C 104.552 0.823804 4.16532 0
M  V30 1159 O 105.576 0.757358 3.48055 0
M  V30 1160 O 104.435 0.915193 5.38782 0
M  V30 1161 H 101.529 0.103317 0.820521 0
M  V30 1162 H 104.075 0.928942 1.42017 0
M  V30 1163 H 102.847 1.85624 3.4447 0
M  V30 1164 H 102.47 0.223561 3.96971 0
M  V30 1165 N 103.467 -1.45747 0.599634 0
M  V30 1166 C 104.377 -2.34262 -0.125888 0
M  V30 1167 C 105.393 -1.50768 -0.868625 0
M  V30 1168 O 106.569 -1.83592 -0.828003 0
M  V30 1169 C 103.634 -3.28252 -1.11587 0
M  V30 1170 C 102.695 -4.27651 -0.375956 0
M  V30 1171 C 101.928 -5.1715 -1.31877 0
M  V30 1172 O 102.151 -5.09916 -2.55621 0
M  V30 1173 O 101.085 -5.96286 -0.820157 0
M  V30 1174 H 104.911 -2.97688 0.601315 0
M  V30 1175 H 102.496 -1.44999 0.359934 0
M  V30 1176 H 104.378 -3.86191 -1.68626 0
M  V30 1177 H 103.053 -2.67401 -1.82424 0
M  V30 1178 H 101.96 -3.7335 0.236698 0
M  V30 1179 H 103.293 -4.91334 0.29177 0
M  V30 1180 N 104.945 -0.338344 -1.53925 0
M  V30 1181 C 105.855 0.529421 -2.28548 0
M  V30 1182 C 106.871 1.11645 -1.3346 0
M  V30 1183 O 108.047 1.13325 -1.66492 0
M  V30 1184 C 105.112 1.66713 -3.03987 0
M  V30 1185 C 104.173 1.11041 -4.14691 0
M  V30 1186 C 103.406 2.19389 -4.86522 0
M  V30 1187 O 103.629 3.40013 -4.57982 0
M  V30 1188 O 102.563 1.83976 -5.73094 0
M  V30 1189 H 106.389 -0.0770399 -3.03602 0
M  V30 1190 H 103.974 -0.103555 -1.49041 0
M  V30 1191 H 105.856 2.32918 -3.5118 0
M  V30 1192 H 104.531 2.25949 -2.31794 0
M  V30 1193 H 103.438 0.413024 -3.71813 0
M  V30 1194 H 104.771 0.562975 -4.8897 0
M  V30 1195 N 106.423 1.57458 -0.0668435 0
M  V30 1196 C 107.669 1.93587 0.6043 0
M  V30 1197 C 108.002 0.946722 1.69561 0
M  V30 1198 O 107.277 -0.0248516 1.94484 0
M  V30 1199 C 107.56 3.40014 1.18585 0
M  V30 1200 C 107.413 4.49685 0.101529 0
M  V30 1201 C 108.732 3.87154 2.09284 0
M  V30 1202 H 105.851 0.703958 0.218202 0
M  V30 1203 H 108.493 1.89542 -0.131804 0
M  V30 1204 H 106.643 3.43592 1.81319 0
M  V30 1205 H 108.315 4.5823 -0.531279 0
M  V30 1206 H 106.558 4.30059 -0.568487 0
M  V30 1207 H 107.229 5.49266 0.54874 0
M  V30 1208 H 109.705 3.85551 1.56491 0
M  V30 1209 H 108.581 4.90231 2.46911 0
M  V30 1210 H 108.842 3.2481 2.99918 0
M  V30 1211 N 107.901 -0.206675 1.56239 0
M  V30 1212 C 109.15 -0.926964 1.79138 0
M  V30 1213 C 109.463 -1.84901 0.638043 0
M  V30 1214 O 110.669 -2.60906 0.751033 0
M  V30 1215 C 109.125 -1.6986 3.17294 0
M  V30 1216 C 108.733 -0.821956 4.40395 0
M  V30 1217 C 110.477 -2.40922 3.4951 0
M  V30 1218 C 108.384 -1.59179 5.69575 0
M  V30 1219 H 107.314 -0.349864 0.667915 0
M  V30 1220 H 109.965 -0.180487 1.8261 0
M  V30 1221 H 108.347 -2.48853 3.08039 0
M  V30 1222 H 109.521 -0.0715019 4.60745 0
M  V30 1223 H 107.836 -0.222741 4.15804 0
M  V30 1224 H 110.433 -2.99047 4.43255 0
M  V30 1225 H 110.776 -3.14542 2.72707 0
M  V30 1226 H 111.309 -1.68905 3.60161 0
M  V30 1227 H 108.048 -0.898589 6.49312 0
M  V30 1228 H 107.568 -2.31648 5.53262 0
M  V30 1229 H 109.247 -2.14862 6.10281 0
M  V30 1230 N 109.379 -1.50304 -0.473955 0
M  V30 1231 C 110.327 -1.69482 -1.59307 0
M  V30 1232 C 111.321 -0.560669 -1.59853 0
M  V30 1233 O 112.527 -0.741087 -1.64036 0
M  V30 1234 H 108.902 -0.534892 -0.528578 0
M  V30 1235 H 110.873 -2.63364 -1.40293 0
M  V30 1236 C 109.622 -1.80354 -2.97267 0
M  V30 1237 H 108.945 -2.67012 -2.97564 0
M  V30 1238 H 110.385 -1.97798 -3.75036 0
M  V30 1239 C 108.844 -0.55448 -3.32306 0
M  V30 1240 O 109.374 0.307661 -4.0052 0
M  V30 1241 N 107.58 -0.409354 -2.87702 0
M  V30 1242 H 107.127 -1.11196 -2.32364 0
M  V30 1243 H 107.085 0.425223 -3.11511 0
M  V30 1244 N 110.857 0.726932 -1.39834 0
M  V30 1245 C 112.105 1.4837 -1.37225 0
M  V30 1246 C 112.426 1.94979 0.0284857 0
M  V30 1247 O 111.696 1.69555 0.981213 0
M  V30 1248 H 110.276 0.55043 -0.505011 0
M  V30 1249 H 112.938 0.862468 -1.74778 0
M  V30 1250 H 112.034 2.36198 -2.04003 0
M  V30 1251 N 112.336 1.25143 0.95797 0
M  V30 1252 C 113.583 1.09692 1.70217 0
M  V30 1253 C 113.911 -0.362654 1.91089 0
M  V30 1254 O 113.166 -1.28386 1.47701 0
M  V30 1255 C 113.465 1.79272 3.09187 0
M  V30 1256 C 113.131 3.29196 3.08125 0
M  V30 1257 C 111.793 3.70096 3.07543 0
M  V30 1258 C 114.145 4.24995 3.0171 0
M  V30 1259 C 111.473 5.05213 2.9829 0
M  V30 1260 C 113.825 5.60132 2.93999 0
M  V30 1261 C 112.489 6.00365 2.9175 0
M  V30 1262 H 111.759 0.401393 0.622868 0
M  V30 1263 H 114.406 1.55372 1.11945 0
M  V30 1264 H 112.711 1.26014 3.70982 0
M  V30 1265 H 114.408 1.64773 3.65583 0
M  V30 1266 H 110.998 2.96651 3.09348 0
M  V30 1267 H 115.182 3.9439 3.01281 0
M  V30 1268 H 110.438 5.35569 2.94916 0
M  V30 1269 H 114.612 6.3406 2.87996 0
M  V30 1270 H 112.239 7.05023 2.84336 0
M  V30 1271 N 113.814 -1.1601 1.06675 0
M  V30 1272 C 114.724 -2.24156 0.692179 0
M  V30 1273 C 115.74 -1.71507 -0.293513 0
M  V30 1274 O 116.916 -2.009 -0.141861 0
M  V30 1275 C 113.981 -3.46587 0.0884131 0
M  V30 1276 C 113.042 -4.14257 1.12646 0
M  V30 1277 C 112.275 -5.30844 0.551416 0
M  V30 1278 O 112.498 -5.66858 -0.634656 0
M  V30 1279 O 111.432 -5.87848 1.29298 0
M  V30 1280 H 115.258 -2.58513 1.59388 0
M  V30 1281 H 112.843 -1.23599 0.83926 0
M  V30 1282 H 114.725 -4.20679 -0.246361 0
M  V30 1283 H 113.4 -3.13994 -0.786712 0
M  V30 1284 H 112.307 -3.42118 1.51348 0
M  V30 1285 H 113.64 -4.50914 1.97325 0
M  V30 1286 N 115.292 -0.849877 -1.32721 0
M  V30 1287 C 116.224 -0.248332 -2.27851 0
M  V30 1288 C 117.237 0.577218 -1.52224 0
M  V30 1289 O 118.426 0.402489 -1.73903 0
M  V30 1290 C 115.526 0.668107 -3.32249 0
M  V30 1291 C 114.699 -0.120534 -4.37234 0
M  V30 1292 C 113.758 0.720932 -5.21238 0
M  V30 1293 O 112.784 0.156166 -5.68986 0
M  V30 1294 N 113.986 2.03647 -5.43607 0
M  V30 1295 H 116.751 -1.06575 -2.80111 0
M  V30 1296 H 114.312 -0.709395 -1.45531 0
M  V30 1297 H 116.304 1.23627 -3.85355 0
M  V30 1298 H 114.874 1.38621 -2.80184 0
M  V30 1299 H 114.094 -0.870108 -3.84477 0
M  V30 1300 H 115.382 -0.662406 -5.0447 0
M  V30 1301 H 114.78 2.51871 -5.06535 0
M  V30 1302 H 113.337 2.55287 -5.99727 0
M  V30 1303 N 116.77 1.45427 -0.607355 0
M  V30 1304 C 118.019 2.01452 -0.100036 0
M  V30 1305 C 118.332 1.48159 1.27704 0
M  V30 1306 O 119.538 1.96159 1.87707 0
M  V30 1307 C 117.994 3.59672 -0.128158 0
M  V30 1308 C 117.602 4.21962 -1.50507 0
M  V30 1309 C 119.346 4.23262 0.323932 0
M  V30 1310 C 117.253 5.72333 -1.48959 0
M  V30 1311 H 116.183 0.75325 -0.0336299 0
M  V30 1312 H 118.834 1.66901 -0.76265 0
M  V30 1313 H 117.216 3.91411 0.601105 0
M  V30 1314 H 118.39 4.01796 -2.25602 0
M  V30 1315 H 116.705 3.70565 -1.89923 0
M  V30 1316 H 119.302 5.33522 0.354691 0
M  V30 1317 H 119.645 3.93921 1.34656 0
M  V30 1318 H 120.178 3.96239 -0.352056 0
M  V30 1319 H 116.917 6.06373 -2.48981 0
M  V30 1320 H 116.437 5.94691 -0.781214 0
M  V30 1321 H 118.116 6.35525 -1.21313 0
M  V30 1322 N 118.248 0.346503 1.53744 0
M  V30 1323 C 119.496 -0.248612 2.00565 0
M  V30 1324 C 119.817 -1.5083 1.23593 0
M  V30 1325 O 119.087 -1.92858 0.343912 0
M  V30 1326 H 117.667 -0.0948564 0.740953 0
M  V30 1327 H 120.329 0.468341 1.89189 0
M  V30 1328 H 119.425 -0.488994 3.08245 0
M  V30 1329 N 119.726 -1.57421 0.075193 0
M  V30 1330 C 120.673 -2.12915 -0.890843 0
M  V30 1331 C 121.643 -1.04252 -1.29309 0
M  V30 1332 O 122.828 -1.31933 -1.37834 0
M  V30 1333 C 119.968 -2.69795 -2.15186 0
M  V30 1334 C 119.081 -3.92624 -1.80194 0
M  V30 1335 C 118.216 -4.37736 -3.00933 0
M  V30 1336 C 117.255 -5.53205 -2.61974 0
M  V30 1337 N 116.392 -5.9326 -3.75483 0
M  V30 1338 H 121.232 -2.95156 -0.410735 0
M  V30 1339 H 118.769 -1.45854 -0.191086 0
M  V30 1340 H 120.727 -3.00883 -2.89008 0
M  V30 1341 H 119.357 -1.90313 -2.60731 0
M  V30 1342 H 118.409 -3.67977 -0.964218 0
M  V30 1343 H 119.721 -4.76482 -1.47534 0
M  V30 1344 H 118.875 -4.70503 -3.8303 0
M  V30 1345 H 117.614 -3.52739 -3.36789 0
M  V30 1346 H 116.619 -5.20086 -1.783 0
M  V30 1347 H 117.844 -6.39936 -2.27284 0
M  V30 1348 H 115.79 -5.11212 -4.11094 0
M  V30 1349 H 115.707 -6.71865 -3.46602 0
M  V30 1350 H 116.975 -6.30651 -4.58148 0
M  V30 1351 N 121.204 0.198386 -1.56346 0
M  V30 1352 C 122.481 0.944982 -1.71258 0
M  V30 1353 C 122.861 2.0151 -0.629048 0
M  V30 1354 O 122.209 2.25639 0.360473 0
M  V30 1355 C 122.419 1.5344 -3.1346 0
M  V30 1356 C 123.767 2.01778 -3.73591 0
M  V30 1357 O 124.791 1.63288 -3.16568 0
M  V30 1358 O 123.65 2.72594 -4.73661 0
M  V30 1359 H 120.744 0.442939 -0.69838 0
M  V30 1360 H 123.29 0.188342 -1.68652 0
M  V30 1361 H 122.062 0.762869 -3.83792 0
M  V30 1362 H 121.685 2.35596 -3.20282 0
M  V30 1363 N 122.682 1.50554 0.465978 0
M  V30 1364 C 123.928 1.62038 1.21949 0
M  V30 1365 C 124.261 0.322116 1.9151 0
M  V30 1366 O 123.536 -0.676723 1.82348 0
M  V30 1367 C 123.819 2.80421 2.25912 0
M  V30 1368 C 123.672 4.20144 1.60622 0
M  V30 1369 C 124.991 2.94354 3.27176 0
M  V30 1370 H 122.11 0.589752 0.441998 0
M  V30 1371 H 124.752 1.82956 0.51257 0
M  V30 1372 H 122.902 2.62717 2.86203 0
M  V30 1373 H 124.574 4.49449 1.03889 0
M  V30 1374 H 122.817 4.24165 0.909211 0
M  V30 1375 H 123.488 4.98914 2.36196 0
M  V30 1376 H 125.964 3.10578 2.76913 0
M  V30 1377 H 124.84 3.788 3.97242 0
M  V30 1378 H 125.101 2.05186 3.916 0
M  V30 1379 N 124.16 -0.719506 1.40217 0
M  V30 1380 C 125.408 -1.47641 1.3801 0
M  V30 1381 C 125.729 -1.94992 -0.018145 0
M  V30 1382 O 124.999 -1.70073 -0.972207 0
M  V30 1383 H 123.579 -0.547744 0.507923 0
M  V30 1384 H 126.241 -0.853187 1.75233 0
M  V30 1385 H 125.337 -2.35112 2.05253 0
M  V30 1386 N 125.638 -1.25649 -0.95132 0
M  V30 1387 C 126.586 -1.06118 -2.06982 0
M  V30 1388 C 127.58 0.00889169 -1.69398 0
M  V30 1389 O 128.786 -0.146988 -1.79399 0
M  V30 1390 H 125.161 -0.326248 -0.677544 0
M  V30 1391 H 127.132 -2.00932 -2.2061 0
M  V30 1392 C 125.881 -0.700145 -3.40578 0
M  V30 1393 H 125.204 -1.51537 -3.69968 0
M  V30 1394 H 126.644 -0.603211 -4.19687 0
M  V30 1395 C 125.103 0.59403 -3.31622 0
M  V30 1396 O 125.633 1.63522 -3.66911 0
M  V30 1397 N 123.839 0.58089 -2.84735 0
M  V30 1398 H 123.386 -0.266783 -2.56215 0
M  V30 1399 H 123.344 1.44695 -2.79125 0
M  V30 1400 N 127.117 1.15442 -1.07289 0
M  V30 1401 C 128.366 1.85557 -0.790669 0
M  V30 1402 C 128.679 1.83186 0.685739 0
M  V30 1403 O 129.885 2.48977 1.0827 0
M  V30 1404 C 128.341 3.33038 -1.36433 0
M  V30 1405 C 127.949 3.43856 -2.8717 0
M  V30 1406 C 129.693 4.0834 -1.1601 0
M  V30 1407 C 127.6 4.85482 -3.3773 0
M  V30 1408 H 126.53 0.695122 -0.292098 0
M  V30 1409 H 129.181 1.30219 -1.29287 0
M  V30 1410 H 127.563 3.88043 -0.789864 0
M  V30 1411 H 128.737 2.98961 -3.50655 0
M  V30 1412 H 127.052 2.81998 -3.06376 0
M  V30 1413 H 129.649 5.12859 -1.51262 0
M  V30 1414 H 129.992 4.16182 -0.0991007 0
M  V30 1415 H 130.525 3.59603 -1.70089 0
M  V30 1416 H 127.264 4.82823 -4.43353 0
M  V30 1417 H 126.784 5.30961 -2.78999 0
M  V30 1418 H 128.463 5.54335 -3.33648 0
M  V30 1419 N 128.595 0.856903 1.32268 0
M  V30 1420 C 129.872 0.382583 1.91822 0
M  V30 1421 C 130.252 -1.13407 1.78051 0
M  V30 1422 O 129.6 -1.95673 1.18001 0
M  V30 1423 C 129.81 0.849446 3.38505 0
M  V30 1424 C 131.158 0.867936 4.15634 0
M  V30 1425 O 132.182 0.794232 3.47232 0
M  V30 1426 O 131.041 0.972286 5.37781 0
M  V30 1427 H 128.135 0.112014 0.819379 0
M  V30 1428 H 130.681 0.943952 1.41024 0
M  V30 1429 H 129.453 1.89267 3.42482 0
M  V30 1430 H 129.076 0.265652 3.96712 0
M  V30 1431 N 130.073 -1.45103 0.615059 0
M  V30 1432 C 131.321 -2.01784 0.112955 0
M  V30 1433 C 131.642 -1.48504 -1.26378 0
M  V30 1434 O 130.912 -0.682245 -1.83636 0
M  V30 1435 H 129.492 -0.745993 0.0387668 0
M  V30 1436 H 132.154 -1.77808 0.798141 0
M  V30 1437 H 131.25 -3.12025 0.0684069 0
M  V30 1438 N 131.551 -0.354651 -1.53558 0
M  V30 1439 C 132.797 0.238797 -2.01389 0
M  V30 1440 C 133.13 1.49309 -1.2418 0
M  V30 1441 O 132.405 1.91638 -0.332457 0
M  V30 1442 C 132.688 0.541771 -3.56001 0
M  V30 1443 C 132.541 -0.725388 -4.43912 0
M  V30 1444 C 133.86 1.34685 -4.18984 0
M  V30 1445 H 130.979 0.0853177 -0.732045 0
M  V30 1446 H 133.621 -0.477384 -1.83905 0
M  V30 1447 H 131.771 1.15189 -3.71031 0
M  V30 1448 H 133.443 -1.36313 -4.407 0
M  V30 1449 H 131.686 -1.34801 -4.12324 0
M  V30 1450 H 132.357 -0.468505 -5.50008 0
M  V30 1451 H 134.833 0.830837 -4.07721 0
M  V30 1452 H 133.709 1.52759 -5.27215 0
M  V30 1453 H 133.97 2.35221 -3.74331 0
M  V30 1454 N 133.029 1.57378 -0.0835403 0
M  V30 1455 C 134.259 1.97975 0.590713 0
M  V30 1456 C 134.667 0.961083 1.62972 0
M  V30 1457 O 134.01 -0.0590879 1.83605 0
M  V30 1458 C 134.072 3.34915 1.3066 0
M  V30 1459 C 133.736 4.55069 0.419698 0
M  V30 1460 C 134.733 5.18868 -0.32749 0
M  V30 1461 C 132.418 5.0114 0.341137 0
M  V30 1462 C 134.412 6.27098 -1.14134 0
M  V30 1463 C 132.099 6.0924 -0.476374 0
M  V30 1464 C 133.097 6.72083 -1.21627 0
M  V30 1465 O 132.785 7.781 -2.02028 0
M  V30 1466 H 132.517 0.655818 0.163947 0
M  V30 1467 H 135.071 2.04807 -0.156021 0
M  V30 1468 H 133.301 3.24733 2.09966 0
M  V30 1469 H 134.99 3.60037 1.87424 0
M  V30 1470 H 135.756 4.84211 -0.276459 0
M  V30 1471 H 131.635 4.51996 0.90668 0
M  V30 1472 H 135.179 6.7608 -1.71935 0
M  V30 1473 H 131.076 6.43329 -0.528927 0
M  V30 1474 H 131.844 7.95034 -1.94586 0
M  V30 1475 N 134.507 -0.190092 1.56449 0
M  V30 1476 C 135.457 -1.23977 1.91347 0
M  V30 1477 C 136.441 -1.40747 0.779693 0
M  V30 1478 O 137.633 -1.43033 1.04262 0
M  V30 1479 C 134.762 -2.58347 2.26079 0
M  V30 1480 C 133.848 -2.4535 3.45925 0
M  V30 1481 N 134.239 -2.02039 4.63696 0
M  V30 1482 C 132.537 -2.76229 3.50162 0
M  V30 1483 C 133.238 -2.01053 5.4585 0
M  V30 1484 N 132.214 -2.42747 4.8639 0
M  V30 1485 H 136.016 -0.896318 2.79899 0
M  V30 1486 H 133.53 -0.398496 1.57435 0
M  V30 1487 H 135.527 -3.34173 2.49267 0
M  V30 1488 H 134.187 -2.93512 1.38856 0
M  V30 1489 H 135.198 -1.7267 4.88268 0
M  V30 1490 H 131.875 -3.15556 2.73369 0
M  V30 1491 H 133.265 -1.69426 6.50188 0
M  V30 1492 N 135.985 -1.50799 -0.457987 0
M  V30 1493 C 137.21 -1.66496 -1.23668 0
M  V30 1494 C 137.635 -0.353288 -1.84752 0
M  V30 1495 O 136.993 0.684346 -1.67888 0
M  V30 1496 C 137.041 -2.76763 -2.3116 0
M  V30 1497 O 136.145 -2.38928 -3.36136 0
M  V30 1498 H 135.486 -0.555828 -0.363252 0
M  V30 1499 H 138.016 -1.9725 -0.543474 0
M  V30 1500 H 138.026 -3.00232 -2.76269 0
M  V30 1501 H 136.701 -3.71954 -1.86073 0
M  V30 1502 H 135.278 -2.25953 -2.96647 0
M  V30 1503 N 137.463 0.71206 -1.40597 0
M  V30 1504 C 138.712 1.46754 -1.38369 0
M  V30 1505 C 139.025 1.95598 0.0097839 0
M  V30 1506 O 140.231 2.71059 0.154677 0
M  V30 1507 C 138.687 2.65289 -2.43207 0
M  V30 1508 C 138.295 2.23301 -3.88382 0
M  V30 1509 C 140.039 3.43008 -2.50091 0
M  V30 1510 C 137.946 3.38696 -4.84808 0
M  V30 1511 H 136.876 0.55118 -0.514506 0
M  V30 1512 H 139.527 0.774616 -1.66349 0
M  V30 1513 H 137.909 3.36769 -2.08332 0
M  V30 1514 H 139.083 1.59218 -4.32419 0
M  V30 1515 H 137.398 1.58618 -3.85006 0
M  V30 1516 H 139.995 4.28881 -3.1932 0
M  V30 1517 H 140.338 3.87065 -1.53253 0
M  V30 1518 H 140.871 2.78574 -2.83974 0
M  V30 1519 H 137.61 2.99668 -5.82992 0
M  V30 1520 H 137.13 4.01683 -4.45433 0
M  V30 1521 H 138.809 4.04712 -5.04794 0
M  V30 1522 N 138.941 1.26152 0.944643 0
M  V30 1523 C 139.904 1.07474 2.0244 0
M  V30 1524 C 140.904 0.0242064 1.60782 0
M  V30 1525 O 142.094 0.267302 1.72137 0
M  V30 1526 C 139.226 0.633956 3.34953 0
M  V30 1527 H 140.419 2.03336 2.20442 0
M  V30 1528 H 137.972 1.087 1.12312 0
M  V30 1529 H 138.707 -0.326811 3.22649 0
M  V30 1530 H 138.492 1.39247 3.66542 0
M  V30 1531 H 139.982 0.52501 4.14287 0
M  V30 1532 N 140.419 -1.14872 1.07899 0
M  V30 1533 C 141.666 -1.85789 0.805532 0
M  V30 1534 C 141.994 -1.82649 -0.668561 0
M  V30 1535 O 141.249 -1.24858 -1.50695 0
M  V30 1536 C 141.548 -3.34223 1.26609 0
M  V30 1537 C 141.214 -3.57555 2.74709 0
M  V30 1538 C 139.876 -3.63631 3.1516 0
M  V30 1539 C 142.228 -3.66803 3.70277 0
M  V30 1540 C 139.556 -3.76473 4.49983 0
M  V30 1541 C 141.908 -3.8117 5.04869 0
M  V30 1542 C 140.572 -3.85494 5.44932 0
M  V30 1543 H 139.842 -0.679849 0.294765 0
M  V30 1544 H 142.489 -1.3572 1.35101 0
M  V30 1545 H 140.794 -3.86536 0.640103 0
M  V30 1546 H 142.491 -3.87511 1.03132 0
M  V30 1547 H 139.081 -3.5347 2.42398 0
M  V30 1548 H 143.265 -3.61404 3.40149 0
M  V30 1549 H 138.521 -3.7808 4.80484 0
M  V30 1550 H 142.695 -3.87268 5.78789 0
M  V30 1551 H 140.322 -3.95197 6.49403 0
M  V30 1552 N 141.898 -0.863906 -1.31812 0
M  V30 1553 C 142.861 -0.320212 -2.26952 0
M  V30 1554 C 143.861 0.525369 -1.51975 0
M  V30 1555 O 145.051 0.335547 -1.70938 0
M  V30 1556 C 142.183 0.545919 -3.365 0
M  V30 1557 H 143.376 -1.16004 -2.76556 0
M  V30 1558 H 140.929 -0.638995 -1.42641 0
M  V30 1559 H 141.664 1.40718 -2.92179 0
M  V30 1560 H 141.449 -0.0594674 -3.92055 0
M  V30 1561 H 142.939 0.918796 -4.07367 0
M  V30 1562 N 143.376 1.44774 -0.622745 0
M  V30 1563 C 144.324 2.32387 0.0994683 0
M  V30 1564 C 145.318 1.46859 0.844326 0
M  V30 1565 O 146.524 1.63254 0.758174 0
M  V30 1566 H 142.899 0.750273 0.0509291 0
M  V30 1567 H 144.87 2.91062 -0.65767 0
M  V30 1568 C 143.619 3.30723 1.07319 0
M  V30 1569 H 142.942 3.96541 0.509462 0
M  V30 1570 H 144.382 3.94725 1.54817 0
M  V30 1571 C 142.841 2.59021 2.15429 0
M  V30 1572 O 143.371 2.38286 3.23393 0
M  V30 1573 N 141.577 2.189 1.91131 0
M  V30 1574 H 141.124 2.35964 1.03337 0
M  V30 1575 H 141.082 1.71251 2.63668 0
M  V30 1576 N 144.854 0.36279 1.53368 0
M  V30 1577 C 145.787 -0.528507 2.21996 0
M  V30 1578 C 146.765 -1.0852 1.21087 0
M  V30 1579 O 147.949 -1.14186 1.4998 0
M  V30 1580 C 145.076 -1.72893 2.91249 0
M  V30 1581 C 144.122 -1.29994 4.06207 0
M  V30 1582 S 144.955 -0.303575 5.34639 0
M  V30 1583 C 146.111 -1.51039 6.07403 0
M  V30 1584 H 146.344 0.0543423 2.9725 0
M  V30 1585 H 143.877 0.146889 1.537 0
M  V30 1586 H 145.835 -2.41751 3.31763 0
M  V30 1587 H 144.496 -2.28303 2.15724 0
M  V30 1588 H 143.689 -2.19549 4.53667 0
M  V30 1589 H 143.291 -0.690608 3.67569 0
M  V30 1590 H 145.583 -2.44186 6.31965 0
M  V30 1591 H 146.526 -1.07721 6.99858 0
M  V30 1592 H 146.934 -1.71518 5.37812 0
M  V30 1593 N 146.332 -1.57332 0.0918853 0
M  V30 1594 C 147.242 -2.17368 -0.882505 0
M  V30 1595 C 148.258 -1.14226 -1.31257 0
M  V30 1596 O 149.434 -1.46582 -1.38115 0
M  V30 1597 C 146.499 -2.73962 -2.12476 0
M  V30 1598 C 145.56 -3.92048 -1.7492 0
M  V30 1599 C 144.793 -4.45933 -2.93223 0
M  V30 1600 O 145.016 -3.98764 -4.07852 0
M  V30 1601 O 143.95 -5.36999 -2.71875 0
M  V30 1602 H 147.776 -3.01031 -0.40172 0
M  V30 1603 H 145.361 -1.48813 -0.132291 0
M  V30 1604 H 147.243 -3.10147 -2.85283 0
M  V30 1605 H 145.918 -1.93347 -2.59613 0
M  V30 1606 H 144.825 -3.6068 -0.993025 0
M  V30 1607 H 146.158 -4.74017 -1.32548 0
M  V30 1608 N 147.81 0.181792 -1.56548 0
M  V30 1609 C 149.087 0.926765 -1.72251 0
M  V30 1610 C 149.467 2.00831 -0.650386 0
M  V30 1611 O 148.815 2.26008 0.336521 0
M  V30 1612 C 149.025 1.50106 -3.1507 0
M  V30 1613 C 150.373 1.97805 -3.75711 0
M  V30 1614 O 151.397 1.59922 -3.18282 0
M  V30 1615 O 150.256 2.67555 -4.76525 0
M  V30 1616 H 147.35 0.435506 -0.703039 0
M  V30 1617 H 149.896 0.170443 -1.68842 0
M  V30 1618 H 148.668 0.72212 -3.84579 0
M  V30 1619 H 148.291 2.32186 -3.22763 0
M  V30 1620 N 149.288 1.51039 0.449983 0
M  V30 1621 C 150.218 1.74379 1.55288 0
M  V30 1622 C 151.199 0.593236 1.5942 0
M  V30 1623 O 152.384 0.834625 1.7535 0
M  V30 1624 C 149.514 1.85728 2.93466 0
M  V30 1625 C 148.468 3.01078 3.04197 0
M  V30 1626 C 147.794 2.97595 4.44231 0
M  V30 1627 C 149.094 4.41254 2.7945 0
M  V30 1628 H 150.788 2.66725 1.36008 0
M  V30 1629 H 148.334 1.2835 0.652864 0
M  V30 1630 H 150.287 2.0064 3.70569 0
M  V30 1631 H 149.011 0.900207 3.13949 0
M  V30 1632 H 147.67 2.85851 2.29531 0
M  V30 1633 H 147.318 1.99691 4.61663 0
M  V30 1634 H 147.018 3.75046 4.52343 0
M  V30 1635 H 148.542 3.14583 5.23326 0
M  V30 1636 H 149.956 4.56897 3.46292 0
M  V30 1637 H 148.353 5.20315 2.98985 0
M  V30 1638 H 149.423 4.52164 1.75144 0
M  V30 1639 N 150.766 -0.704594 1.40972 0
M  V30 1640 C 152.182 -1.01406 1.23244 0
M  V30 1641 C 152.382 -2.01169 0.115399 0
M  V30 1642 O 151.438 -2.47021 -0.523147 0
M  V30 1643 C 152.751 -1.54728 2.57836 0
M  V30 1644 C 154.299 -1.66658 2.64942 0
M  V30 1645 C 154.774 -2.23383 3.9983 0
M  V30 1646 N 156.265 -2.30756 4.01629 0
M  V30 1647 C 157 -2.75655 5.02794 0
M  V30 1648 N 156.496 -3.20225 6.14352 0
M  V30 1649 N 158.289 -2.75138 4.90159 0
M  V30 1650 H 150.44 -0.0435285 2.12355 0
M  V30 1651 H 152.703 -0.0818951 0.944456 0
M  V30 1652 H 152.409 -0.888832 3.40283 0
M  V30 1653 H 152.283 -2.53084 2.79693 0
M  V30 1654 H 154.67 -2.31617 1.8286 0
M  V30 1655 H 154.751 -0.668717 2.46904 0
M  V30 1656 H 154.395 -1.59043 4.82357 0
M  V30 1657 H 154.325 -3.23904 4.15203 0
M  V30 1658 H 156.816 -1.99291 3.21079 0
M  V30 1659 H 157.129 -3.53084 6.87424 0
M  V30 1660 H 155.474 -3.18156 6.17901 0
M  V30 1661 H 158.665 -2.39661 4.02095 0
M  V30 1662 H 158.838 -3.09812 5.6914 0
M  V30 1663 N 152.244 -1.26651 -0.937939 0
M  V30 1664 C 153.492 -1.12165 -1.68118 0
M  V30 1665 C 153.813 0.334983 -1.92101 0
M  V30 1666 O 153.083 1.23583 -1.52 0
M  V30 1667 H 151.663 -0.412093 -0.623048 0
M  V30 1668 H 154.325 -1.59027 -1.12678 0
M  V30 1669 H 153.421 -1.64289 -2.6536 0
M  V30 1670 N 153.722 1.14298 -1.08507 0
M  V30 1671 C 155.138 1.37347 -0.812901 0
M  V30 1672 C 155.338 1.93052 0.577325 0
M  V30 1673 O 154.394 2.14389 1.33393 0
M  V30 1674 C 155.707 2.33359 -1.89642 0
M  V30 1675 C 157.255 2.46996 -1.92255 0
M  V30 1676 C 157.73 3.46309 -2.99724 0
M  V30 1677 N 159.221 3.53853 -2.98902 0
M  V30 1678 C 159.956 4.3055 -3.787 0
M  V30 1679 N 159.452 5.10482 -4.6838 0
M  V30 1680 N 161.245 4.25757 -3.66998 0
M  V30 1681 H 153.396 0.764867 -1.9815 0
M  V30 1682 H 155.659 0.398966 -0.859959 0
M  V30 1683 H 155.365 1.99565 -2.89597 0
M  V30 1684 H 155.239 3.33274 -1.76659 0
M  V30 1685 H 157.626 2.80081 -0.929445 0
M  V30 1686 H 157.707 1.47039 -2.09316 0
M  V30 1687 H 157.351 3.13957 -3.99241 0
M  V30 1688 H 157.281 4.46049 -2.79907 0
M  V30 1689 H 159.772 2.96812 -2.33904 0
M  V30 1690 H 160.085 5.66284 -5.25873 0
M  V30 1691 H 158.43 5.09747 -4.72422 0
M  V30 1692 H 161.621 3.62383 -2.96304 0
M  V30 1693 H 161.794 4.85279 -4.29427 0
M  V30 1694 N 155.201 0.870884 1.31352 0
M  V30 1695 C 156.448 0.482273 1.96673 0
M  V30 1696 C 156.776 -0.965638 1.68836 0
M  V30 1697 O 156.031 -1.69514 0.977937 0
M  V30 1698 C 156.33 0.687157 3.50732 0
M  V30 1699 C 155.996 2.108 3.9859 0
M  V30 1700 C 154.658 2.49656 4.1137 0
M  V30 1701 C 157.01 3.03459 4.23748 0
M  V30 1702 C 154.338 3.80412 4.46659 0
M  V30 1703 C 156.69 4.3373 4.60501 0
M  V30 1704 C 155.354 4.725 4.71487 0
M  V30 1705 H 154.624 0.176476 0.719679 0
M  V30 1706 H 157.271 1.10405 1.56471 0
M  V30 1707 H 155.576 -0.0177476 3.91796 0
M  V30 1708 H 157.273 0.366284 3.99324 0
M  V30 1709 H 153.863 1.79633 3.8914 0
M  V30 1710 H 158.047 2.74665 4.13368 0
M  V30 1711 H 153.303 4.1021 4.53362 0
M  V30 1712 H 157.477 5.05578 4.78919 0
M  V30 1713 H 155.104 5.73859 4.98588 0
M  V30 1714 N 156.679 -1.44442 0.630414 0
M  V30 1715 C 157.904 -2.06927 0.139944 0
M  V30 1716 C 158.329 -1.46795 -1.17613 0
M  V30 1717 O 157.687 -0.569144 -1.72135 0
M  V30 1718 C 157.735 -3.6058 0.0379581 0
M  V30 1719 O 156.839 -3.99937 -1.0062 0
M  V30 1720 H 156.18 -0.658608 0.0844483 0
M  V30 1721 H 158.71 -1.85327 0.866891 0
M  V30 1722 H 158.72 -4.07714 -0.152856 0
M  V30 1723 H 157.395 -4.03728 0.998809 0
M  V30 1724 H 155.972 -3.64436 -0.79001 0
M  V30 1725 N 158.157 -0.370918 -1.53173 0
M  V30 1726 C 159.067 0.480823 -2.2962 0
M  V30 1727 C 160.083 1.08789 -1.35798 0
M  V30 1728 O 161.259 1.09768 -1.68858 0
M  V30 1729 C 158.324 1.60227 -3.07454 0
M  V30 1730 C 157.385 1.0222 -4.16953 0
M  V30 1731 C 156.618 2.0902 -4.91066 0
M  V30 1732 O 156.841 3.30222 -4.65091 0
M  V30 1733 O 155.775 1.71778 -5.76867 0
M  V30 1734 H 159.601 -0.141421 -3.03371 0
M  V30 1735 H 157.186 -0.135146 -1.48787 0
M  V30 1736 H 159.068 2.25417 -3.56041 0
M  V30 1737 H 157.743 2.20982 -2.36535 0
M  V30 1738 H 156.65 0.334064 -3.72605 0
M  V30 1739 H 157.983 0.459131 -4.90054 0
M  V30 1740 N 159.635 1.57281 -0.100228 0
M  V30 1741 C 160.863 1.98879 0.570509 0
M  V30 1742 C 161.278 0.979476 1.61405 0
M  V30 1743 O 160.635 -0.0302288 1.82475 0
M  V30 1744 C 160.686 3.4052 1.2136 0
M  V30 1745 O 160.407 4.37588 0.211786 0
M  V30 1746 C 161.908 3.97149 1.96945 0
M  V30 1747 H 159.128 0.653428 0.152555 0
M  V30 1748 H 161.672 2.03697 -0.18103 0
M  V30 1749 H 159.827 3.367 1.91603 0
M  V30 1750 H 160.241 5.20118 0.676607 0
M  V30 1751 H 161.715 4.98393 2.37294 0
M  V30 1752 H 162.192 3.3525 2.83733 0
M  V30 1753 H 162.798 4.04458 1.31506 0
M  V30 1754 N 161.113 -0.173488 1.56642 0
M  V30 1755 C 162.338 -0.910149 1.86363 0
M  V30 1756 C 162.763 -1.75132 0.686318 0
M  V30 1757 O 162.121 -1.77595 -0.364643 0
M  V30 1758 C 162.169 -1.76447 3.14482 0
M  V30 1759 O 161.273 -2.86584 2.96553 0
M  V30 1760 H 160.614 -0.255086 0.613047 0
M  V30 1761 H 163.144 -0.172283 2.03873 0
M  V30 1762 H 163.154 -2.16483 3.45831 0
M  V30 1763 H 161.829 -1.14658 3.99783 0
M  V30 1764 H 160.406 -2.50146 2.76553 0
M  V30 1765 N 162.591 -1.51276 -0.441967 0
M  V30 1766 C 164.007 -1.39349 -0.778083 0
M  V30 1767 C 164.207 -0.472212 -1.95889 0
M  V30 1768 O 163.263 0.0743551 -2.5239 0
M  V30 1769 C 164.576 -2.81292 -1.0628 0
M  V30 1770 C 166.124 -2.9041 -1.16751 0
M  V30 1771 C 166.599 -4.33251 -1.48519 0
M  V30 1772 N 168.09 -4.36336 -1.55453 0
M  V30 1773 C 168.825 -5.43885 -1.81596 0
M  V30 1774 N 168.321 -6.61601 -2.05562 0
M  V30 1775 N 170.114 -5.3136 -1.8334 0
M  V30 1776 H 162.265 -2.09729 0.335774 0
M  V30 1777 H 164.528 -0.943925 0.0878028 0
M  V30 1778 H 164.234 -3.50678 -0.267905 0
M  V30 1779 H 164.108 -3.20334 -1.99163 0
M  V30 1780 H 166.495 -2.21225 -1.95304 0
M  V30 1781 H 166.576 -2.54871 -0.217801 0
M  V30 1782 H 166.22 -5.02984 -0.704958 0
M  V30 1783 H 166.15 -4.66299 -2.44689 0
M  V30 1784 H 168.641 -3.51466 -1.38853 0
M  V30 1785 H 168.954 -7.39361 -2.24867 0
M  V30 1786 H 167.299 -6.64725 -2.02894 0
M  V30 1787 H 170.49 -4.38382 -1.64132 0
M  V30 1788 H 170.663 -6.15258 -2.03377 0
M  V30 1789 N 164.069 0.697108 -1.41344 0
M  V30 1790 C 164.979 1.84088 -1.45427 0
M  V30 1791 C 165.995 1.70545 -0.34501 0
M  V30 1792 O 167.171 1.92488 -0.592492 0
M  V30 1793 C 164.236 3.20056 -1.33286 0
M  V30 1794 C 163.297 3.45718 -2.54514 0
M  V30 1795 C 162.53 4.75199 -2.42944 0
M  V30 1796 O 162.753 5.51579 -1.45318 0
M  V30 1797 O 161.687 5.0161 -3.32672 0
M  V30 1798 H 165.513 1.836 -2.41919 0
M  V30 1799 H 163.098 0.849966 -1.22866 0
M  V30 1800 H 164.98 4.01236 -1.28794 0
M  V30 1801 H 163.655 3.2123 -0.39909 0
M  V30 1802 H 162.562 2.64474 -2.64583 0
M  V30 1803 H 163.895 3.49356 -3.46715 0
M  V30 1804 N 165.547 1.27147 0.931209 0
M  V30 1805 C 166.795 1.13055 1.6752 0
M  V30 1806 C 167.116 -0.324791 1.92276 0
M  V30 1807 O 166.386 -1.22775 1.52654 0
M  V30 1808 H 164.966 0.415391 0.620854 0
M  V30 1809 H 167.628 1.59623 1.11833 0
M  V30 1810 H 166.724 1.65694 2.64485 0
M  V30 1811 N 167.025 -1.13721 1.09112 0
M  V30 1812 C 168.272 -1.84924 0.825192 0
M  V30 1813 C 168.6 -1.83347 -0.649151 0
M  V30 1814 O 167.855 -1.26449 -1.49362 0
M  V30 1815 C 168.154 -3.32861 1.30146 0
M  V30 1816 C 167.82 -3.54621 2.78486 0
M  V30 1817 C 166.482 -3.60268 3.18999 0
M  V30 1818 C 168.834 -3.62855 3.74146 0
M  V30 1819 C 166.162 -3.71679 4.53951 0
M  V30 1820 C 168.514 -3.75793 5.08883 0
M  V30 1821 C 167.178 -3.79692 5.4899 0
M  V30 1822 H 166.448 -0.676684 0.301959 0
M  V30 1823 H 169.095 -1.3428 1.36533 0
M  V30 1824 H 167.4 -3.85835 0.681064 0
M  V30 1825 H 169.097 -3.86395 1.07236 0
M  V30 1826 H 165.687 -3.50879 2.46134 0
M  V30 1827 H 169.871 -3.57775 3.43963 0
M  V30 1828 H 165.127 -3.72963 4.84467 0
M  V30 1829 H 169.301 -3.81107 5.82864 0
M  V30 1830 H 166.928 -3.88287 6.53558 0
M  V30 1831 N 168.503 -0.877838 -1.30888 0
M  V30 1832 C 169.433 -0.35534 -2.3078 0
M  V30 1833 C 170.414 0.557994 -1.60687 0
M  V30 1834 O 171.599 0.473355 -1.88343 0
M  V30 1835 C 168.729 0.437221 -3.44537 0
M  V30 1836 C 167.683 -0.383715 -4.26276 0
M  V30 1837 C 167.009 0.535014 -5.32017 0
M  V30 1838 C 168.309 -1.62201 -4.96476 0
M  V30 1839 H 170.003 -1.19007 -2.74732 0
M  V30 1840 H 167.549 -0.573698 -1.32078 0
M  V30 1841 H 169.502 0.813334 -4.13477 0
M  V30 1842 H 168.226 1.30553 -2.99372 0
M  V30 1843 H 166.885 -0.741874 -3.59015 0
M  V30 1844 H 166.533 1.40083 -4.831 0
M  V30 1845 H 166.233 -0.0104211 -5.87599 0
M  V30 1846 H 167.757 0.907799 -6.03814 0
M  V30 1847 H 169.171 -1.31689 -5.5797 0
M  V30 1848 H 167.568 -2.10711 -5.61891 0
M  V30 1849 H 168.638 -2.37044 -4.23011 0
M  V30 1850 N 169.982 1.44106 -0.638065 0
M  V30 1851 C 170.912 2.33448 0.0494287 0
M  V30 1852 C 171.893 1.48606 0.827672 0
M  V30 1853 O 173.078 1.77308 0.792173 0
M  V30 1854 C 170.208 3.31771 1.02691 0
M  V30 1855 C 169.162 4.26485 0.359823 0
M  V30 1856 C 168.488 5.14729 1.44769 0
M  V30 1857 C 169.788 5.17056 -0.738296 0
M  V30 1858 H 171.482 2.91183 -0.696636 0
M  V30 1859 H 169.028 1.40014 -0.336456 0
M  V30 1860 H 170.981 3.93161 1.51666 0
M  V30 1861 H 169.705 2.7226 1.80395 0
M  V30 1862 H 168.364 3.66437 -0.10934 0
M  V30 1863 H 168.012 4.51566 2.21578 0
M  V30 1864 H 167.712 5.78913 1.00668 0
M  V30 1865 H 169.236 5.78991 1.93911 0
M  V30 1866 H 170.65 5.72342 -0.331354 0
M  V30 1867 H 169.047 5.89879 -1.10286 0
M  V30 1868 H 170.117 4.57652 -1.60258 0
M  V30 1869 N 171.46 0.379036 1.52974 0
M  V30 1870 C 172.423 -0.448865 2.24762 0
M  V30 1871 C 173.423 -0.998689 1.26027 0
M  V30 1872 O 174.613 -0.882313 1.50203 0
M  V30 1873 C 171.745 -1.62872 2.99476 0
M  V30 1874 H 172.938 0.179491 2.99362 0
M  V30 1875 H 170.491 0.13096 1.5575 0
M  V30 1876 H 171.226 -2.29479 2.29151 0
M  V30 1877 H 171.011 -1.24128 3.71934 0
M  V30 1878 H 172.501 -2.2151 3.5401 0
M  V30 1879 N 172.938 -1.57226 0.108567 0
M  V30 1880 C 173.87 -2.11809 -0.875752 0
M  V30 1881 C 174.883 -1.05839 -1.23701 0
M  V30 1882 O 176.072 -1.33245 -1.18778 0
M  V30 1883 C 173.172 -2.59411 -2.18081 0
M  V30 1884 C 172.345 -3.89364 -1.99284 0
M  V30 1885 C 171.404 -4.22672 -3.13424 0
M  V30 1886 O 170.43 -4.91668 -2.86795 0
M  V30 1887 N 171.632 -3.79154 -4.3957 0
M  V30 1888 H 174.397 -2.9689 -0.409477 0
M  V30 1889 H 171.958 -1.61721 -0.076158 0
M  V30 1890 H 173.95 -2.7873 -2.93414 0
M  V30 1891 H 172.52 -1.79268 -2.5609 0
M  V30 1892 H 171.74 -3.79059 -1.08203 0
M  V30 1893 H 173.028 -4.74358 -1.84017 0
M  V30 1894 H 172.426 -3.23486 -4.64083 0
M  V30 1895 H 170.983 -4.03602 -5.11809 0
M  V30 1896 N 174.416 0.165178 -1.56732 0
M  V30 1897 C 175.693 0.908443 -1.73224 0
M  V30 1898 C 176.073 2.0013 -0.67165 0
M  V30 1899 O 175.421 2.26353 0.31253 0
M  V30 1900 C 175.631 1.46756 -3.16644 0
M  V30 1901 C 176.979 1.93809 -3.77787 0
M  V30 1902 O 178.003 1.56537 -3.1996 0
M  V30 1903 O 176.862 2.62486 -4.79336 0
M  V30 1904 H 173.956 0.428025 -0.707618 0
M  V30 1905 H 176.502 0.152526 -1.69013 0
M  V30 1906 H 175.274 0.68129 -3.85323 0
M  V30 1907 H 174.897 2.28749 -3.25207 0
M  V30 1908 N 175.894 1.51508 0.433938 0
M  V30 1909 C 177.143 1.63578 1.18005 0
M  V30 1910 C 177.456 0.359514 1.92268 0
M  V30 1911 O 178.662 0.359632 2.69108 0
M  V30 1912 C 177.118 2.88901 2.14626 0
M  V30 1913 C 176.726 4.23544 1.45995 0
M  V30 1914 C 178.47 3.10328 2.89649 0
M  V30 1915 C 176.377 5.40014 2.4112 0
M  V30 1916 H 175.307 0.609277 0.444182 0
M  V30 1917 H 177.958 1.77978 0.446773 0
M  V30 1918 H 176.34 2.68142 2.91403 0
M  V30 1919 H 177.514 4.54696 0.747532 0
M  V30 1920 H 175.829 4.08021 0.831115 0
M  V30 1921 H 178.426 3.94518 3.60915 0
M  V30 1922 H 178.769 2.23544 3.51189 0
M  V30 1923 H 179.302 3.31443 2.19978 0
M  V30 1924 H 176.041 6.29068 1.84264 0
M  V30 1925 H 175.561 5.13233 3.10406 0
M  V30 1926 H 177.24 5.72099 3.02177 0
M  V30 1927 N 177.372 -0.689602 1.41712 0
M  V30 1928 C 178.597 -1.48329 1.44959 0
M  V30 1929 C 179.022 -1.8801 0.0581283 0
M  V30 1930 O 178.38 -1.55026 -0.940035 0
M  V30 1931 C 178.428 -2.71835 2.36935 0
M  V30 1932 O 177.532 -3.69549 1.8305 0
M  V30 1933 H 176.873 -0.446199 0.491734 0
M  V30 1934 H 179.403 -0.847127 1.86239 0
M  V30 1935 H 179.413 -3.20076 2.53013 0
M  V30 1936 H 178.088 -2.42291 3.38035 0
M  V30 1937 H 176.665 -3.2851 1.76452 0
M  V30 1938 N 178.85 -1.27639 -0.924453 0
M  V30 1939 C 180.075 -1.17101 -1.71179 0
M  V30 1940 C 180.5 0.268134 -1.86179 0
M  V30 1941 O 179.858 1.19415 -1.36418 0
M  V30 1942 C 179.906 -1.86313 -3.08739 0
M  V30 1943 O 179.01 -1.16331 -3.95652 0
M  V30 1944 H 178.351 -0.407091 -0.524569 0
M  V30 1945 H 180.881 -1.68767 -1.15666 0
M  V30 1946 H 180.891 -1.938 -3.59034 0
M  V30 1947 H 179.566 -2.91001 -2.97138 0
M  V30 1948 H 178.143 -1.16935 -3.54091 0
M  V30 1949 N 180.328 1.1314 -1.09713 0
M  V30 1950 C 181.558 1.88048 -0.855656 0
M  V30 1951 C 181.966 1.79537 0.596919 0
M  V30 1952 O 181.309 1.16196 1.42282 0
M  V30 1953 C 181.371 3.38314 -1.21589 0
M  V30 1954 C 181.035 3.70605 -2.67397 0
M  V30 1955 C 182.032 3.69596 -3.65643 0
M  V30 1956 C 179.717 4.0017 -3.03593 0
M  V30 1957 C 181.711 3.977 -4.9811 0
M  V30 1958 C 179.398 4.27935 -4.36251 0
M  V30 1959 C 180.396 4.26685 -5.33318 0
M  V30 1960 O 180.084 4.53767 -6.63589 0
M  V30 1961 H 179.816 0.60208 -0.307368 0
M  V30 1962 H 182.37 1.44128 -1.46343 0
M  V30 1963 H 180.6 3.82752 -0.551177 0
M  V30 1964 H 182.289 3.94552 -0.953083 0
M  V30 1965 H 183.055 3.46826 -3.39023 0
M  V30 1966 H 178.934 4.00289 -2.2867 0
M  V30 1967 H 182.478 3.9664 -5.73866 0
M  V30 1968 H 178.375 4.50178 -4.62613 0
M  V30 1969 H 179.143 4.71422 -6.69107 0
M  V30 1970 N 181.806 0.884767 1.30421 0
M  V30 1971 C 183.031 0.517288 2.00845 0
M  V30 1972 C 183.456 -0.886779 1.65885 0
M  V30 1973 O 182.814 -1.58768 0.875354 0
M  V30 1974 C 182.862 0.698994 3.5376 0
M  V30 1975 O 181.966 -0.255208 4.1161 0
M  V30 1976 H 181.307 0.203872 0.631927 0
M  V30 1977 H 183.837 1.19225 1.66272 0
M  V30 1978 H 183.847 0.597912 4.03595 0
M  V30 1979 H 182.522 1.72271 3.78544 0
M  V30 1980 H 181.099 -0.10784 3.72744 0
M  V30 1981 N 183.284 -1.43765 0.645699 0
M  V30 1982 C 184.214 -2.33471 -0.0370477 0
M  V30 1983 C 185.195 -1.49042 -0.819779 0
M  V30 1984 O 186.38 -1.77726 -0.782758 0
M  V30 1985 C 183.51 -3.32311 -1.0093 0
M  V30 1986 C 182.464 -4.2667 -0.337201 0
M  V30 1987 C 181.79 -5.1549 -1.42037 0
M  V30 1988 C 183.09 -5.16657 0.765706 0
M  V30 1989 H 184.784 -2.90809 0.712069 0
M  V30 1990 H 182.33 -1.39834 0.343876 0
M  V30 1991 H 184.283 -3.9396 -1.49578 0
M  V30 1992 H 183.007 -2.73213 -1.78948 0
M  V30 1993 H 181.666 -3.66374 0.128771 0
M  V30 1994 H 181.314 -4.52735 -2.1918 0
M  V30 1995 H 181.014 -5.79438 -0.975966 0
M  V30 1996 H 182.538 -5.80012 -1.90838 0
M  V30 1997 H 183.952 -5.72158 0.361702 0
M  V30 1998 H 182.349 -5.89286 1.13413 0
M  V30 1999 H 183.419 -4.56796 1.62683 0
M  V30 2000 N 184.763 -0.387143 -1.52771 0
M  V30 2001 C 185.991 0.195869 -2.05971 0
M  V30 2002 C 186.406 1.40691 -1.25903 0
M  V30 2003 O 185.763 1.79931 -0.305134 0
M  V30 2004 C 185.814 0.56812 -3.57008 0
M  V30 2005 O 185.535 -0.594803 -4.34043 0
M  V30 2006 C 187.036 1.20723 -4.26545 0
M  V30 2007 H 184.256 0.0300578 -0.670326 0
M  V30 2008 H 186.8 -0.551749 -1.96916 0
M  V30 2009 H 184.955 1.26564 -3.66143 0
M  V30 2010 H 185.369 -0.289322 -5.23701 0
M  V30 2011 H 186.843 1.41807 -5.33474 0
M  V30 2012 H 187.32 2.17395 -3.81623 0
M  V30 2013 H 187.926 0.550535 -4.21722 0
M  V30 2014 N 186.241 1.57166 -0.116904 0
M  V30 2015 C 187.49 1.94298 0.541407 0
M  V30 2016 C 187.803 1.00236 1.67964 0
M  V30 2017 O 189.009 1.26826 2.40057 0
M  V30 2018 C 187.465 3.45306 1.01449 0
M  V30 2019 C 187.073 4.47899 -0.0951738 0
M  V30 2020 C 188.817 3.91361 1.6443 0
M  V30 2021 C 186.724 5.90083 0.394491 0
M  V30 2022 H 185.654 0.725308 0.206019 0
M  V30 2023 H 188.305 1.82446 -0.196419 0
M  V30 2024 H 186.687 3.52385 1.80667 0
M  V30 2025 H 187.861 4.52486 -0.871374 0
M  V30 2026 H 186.176 4.11583 -0.631505 0
M  V30 2027 H 188.773 4.95004 2.02176 0
M  V30 2028 H 189.116 3.3122 2.52189 0
M  V30 2029 H 189.649 3.87073 0.917559 0
M  V30 2030 H 186.388 6.53974 -0.447004 0
M  V30 2031 H 185.908 5.88921 1.13722 0
M  V30 2032 H 187.587 6.41307 0.856399 0
M  V30 2033 N 187.719 -0.156864 1.56817 0
M  V30 2034 C 188.965 -0.872416 1.83076 0
M  V30 2035 C 189.298 -1.81261 0.697001 0
M  V30 2036 O 188.573 -1.92171 -0.30008 0
M  V30 2037 C 188.856 -1.65551 3.19789 0
M  V30 2038 C 188.709 -0.737467 4.43713 0
M  V30 2039 C 190.028 -2.62012 3.53606 0
M  V30 2040 H 187.147 -0.315715 0.665953 0
M  V30 2041 H 189.789 -0.138004 1.89498 0
M  V30 2042 H 187.939 -2.28159 3.14445 0
M  V30 2043 H 189.611 -0.123143 4.61136 0
M  V30 2044 H 187.854 -0.0464067 4.33775 0
M  V30 2045 H 188.525 -1.32122 5.35955 0
M  V30 2046 H 191.001 -2.09525 3.59497 0
M  V30 2047 H 189.877 -3.13861 4.50314 0
M  V30 2048 H 190.138 -3.42902 2.79053 0
M  V30 2049 N 189.197 -1.51736 -0.425897 0
M  V30 2050 C 190.16 -1.73271 -1.50032 0
M  V30 2051 C 191.16 -0.602639 -1.4908 0
M  V30 2052 O 192.35 -0.87033 -1.509 0
M  V30 2053 C 189.482 -1.79969 -2.89523 0
M  V30 2054 H 190.675 -2.69172 -1.32237 0
M  V30 2055 H 188.228 -1.41899 -0.65532 0
M  V30 2056 H 188.963 -0.859241 -3.1271 0
M  V30 2057 H 188.748 -2.62109 -2.91619 0
M  V30 2058 H 190.238 -1.9843 -3.67444 0
M  V30 2059 N 190.675 0.682077 -1.42076 0
M  V30 2060 C 191.625 1.78823 -1.41444 0
M  V30 2061 C 192.609 1.58323 -0.28681 0
M  V30 2062 O 193.801 1.68926 -0.528498 0
M  V30 2063 C 190.93 3.17232 -1.3122 0
M  V30 2064 C 190.016 3.4338 -2.489 0
M  V30 2065 N 190.407 3.40152 -3.7434 0
M  V30 2066 C 188.705 3.73986 -2.43003 0
M  V30 2067 C 189.406 3.65581 -4.52466 0
M  V30 2068 N 188.382 3.85989 -3.8277 0
M  V30 2069 H 192.184 1.7471 -2.36334 0
M  V30 2070 H 189.698 0.882622 -1.36321 0
M  V30 2071 H 191.695 3.96489 -1.2885 0
M  V30 2072 H 190.355 3.22547 -0.373263 0
M  V30 2073 H 191.366 3.20221 -4.07037 0
M  V30 2074 H 188.043 3.86591 -1.57651 0
M  V30 2075 H 189.433 3.69108 -5.61435 0
M  V30 2076 N 192.153 1.28127 0.917671 0
M  V30 2077 C 193.063 1.13556 2.05286 0
M  V30 2078 C 194.079 0.0630914 1.73886 0
M  V30 2079 O 195.255 0.271598 1.9956 0
M  V30 2080 C 192.32 0.794676 3.3747 0
M  V30 2081 C 191.381 1.94909 3.82504 0
M  V30 2082 C 190.614 1.62437 5.0838 0
M  V30 2083 O 190.837 0.536905 5.67867 0
M  V30 2084 O 189.771 2.46677 5.4903 0
M  V30 2085 H 193.597 2.08844 2.20495 0
M  V30 2086 H 191.182 1.07409 1.03845 0
M  V30 2087 H 193.064 0.618344 4.16839 0
M  V30 2088 H 191.739 -0.128581 3.23445 0
M  V30 2089 H 190.646 2.18055 3.03978 0
M  V30 2090 H 191.979 2.85291 4.01086 0
M  V30 2091 N 193.631 -1.12557 1.10312 0
M  V30 2092 C 194.594 -2.16434 0.75424 0
M  V30 2093 C 195.594 -1.59278 -0.220685 0
M  V30 2094 O 196.784 -1.742 0.00230591 0
M  V30 2095 C 193.916 -3.40699 0.116987 0
M  V30 2096 H 195.109 -2.48811 1.67431 0
M  V30 2097 H 192.662 -1.27542 0.903475 0
M  V30 2098 H 193.397 -3.13921 -0.813877 0
M  V30 2099 H 193.182 -3.83459 0.818613 0
M  V30 2100 H 194.672 -4.17451 -0.111387 0
M  V30 2101 N 195.109 -0.891671 -1.2995 0
M  V30 2102 C 196.056 -0.361736 -2.27948 0
M  V30 2103 C 197.026 0.551761 -1.56668 0
M  V30 2104 O 198.211 0.478736 -1.84696 0
M  V30 2105 C 195.351 0.411825 -3.42634 0
M  V30 2106 C 194.464 -0.531651 -4.28716 0
M  V30 2107 C 193.599 0.258167 -5.30572 0
M  V30 2108 C 192.638 -0.680349 -6.08307 0
M  V30 2109 N 191.775 0.0745613 -7.0206 0
M  V30 2110 H 196.615 -1.20254 -2.72659 0
M  V30 2111 H 194.152 -0.604352 -1.34112 0
M  V30 2112 H 196.11 0.876304 -4.07893 0
M  V30 2113 H 194.74 1.21715 -2.98974 0
M  V30 2114 H 193.792 -1.11463 -3.63703 0
M  V30 2115 H 195.104 -1.25038 -4.82874 0
M  V30 2116 H 194.258 0.784204 -6.0161 0
M  V30 2117 H 192.997 1.01008 -4.77126 0
M  V30 2118 H 192.002 -1.21796 -5.3614 0
M  V30 2119 H 193.227 -1.43145 -6.63842 0
M  V30 2120 H 191.173 0.808883 -6.50994 0
M  V30 2121 H 191.09 -0.584409 -7.53738 0
M  V30 2122 H 192.358 0.581123 -7.77331 0
M  V30 2123 N 196.587 1.43421 -0.653314 0
M  V30 2124 C 197.534 2.30768 0.0382271 0
M  V30 2125 C 198.504 1.44755 0.814576 0
M  V30 2126 O 199.689 1.73624 0.791162 0
M  V30 2127 C 196.829 3.30336 0.998599 0
M  V30 2128 C 195.942 4.31448 0.218342 0
M  V30 2129 C 195.077 5.18098 1.17252 0
M  V30 2130 C 194.116 6.10902 0.382702 0
M  V30 2131 N 193.253 6.90176 1.28848 0
M  V30 2132 H 198.093 2.89357 -0.712511 0
M  V30 2133 H 195.63 1.42548 -0.363128 0
M  V30 2134 H 197.588 3.86572 1.56901 0
M  V30 2135 H 196.218 2.73397 1.71621 0
M  V30 2136 H 195.27 3.77506 -0.46836 0
M  V30 2137 H 196.582 4.97227 -0.395812 0
M  V30 2138 H 195.736 5.7896 1.81356 0
M  V30 2139 H 194.475 4.52444 1.82058 0
M  V30 2140 H 193.48 5.49128 -0.27169 0
M  V30 2141 H 194.705 6.78598 -0.260957 0
M  V30 2142 H 192.651 6.27171 1.92334 0
M  V30 2143 H 192.568 7.52478 0.728887 0
M  V30 2144 H 193.836 7.55543 1.91766 0
M  V30 2145 N 198.065 0.39524 1.52563 0
M  V30 2146 C 198.995 -0.428384 2.29537 0
M  V30 2147 C 199.976 -1.05831 1.33169 0
M  V30 2148 O 201.161 -1.06995 1.62067 0
M  V30 2149 C 198.291 -1.55274 3.10656 0
M  V30 2150 C 197.245 -1.04855 4.14957 0
M  V30 2151 C 196.571 -2.26543 4.84337 0
M  V30 2152 C 197.871 -0.112324 5.22179 0
M  V30 2153 H 199.565 0.213867 2.98635 0
M  V30 2154 H 197.111 0.104298 1.43622 0
M  V30 2155 H 199.064 -2.1358 3.63265 0
M  V30 2156 H 197.788 -2.22266 2.39302 0
M  V30 2157 H 196.447 -0.487985 3.63338 0
M  V30 2158 H 196.095 -2.92059 4.09525 0
M  V30 2159 H 195.795 -1.93466 5.54837 0
M  V30 2160 H 197.319 -2.85481 5.39753 0
M  V30 2161 H 198.733 -0.603752 5.70112 0
M  V30 2162 H 197.13 0.128968 5.99961 0
M  V30 2163 H 198.2 0.837052 4.77621 0
M  V30 2164 N 199.544 -1.57102 0.125237 0
M  V30 2165 C 200.477 -2.11371 -0.860094 0
M  V30 2166 C 201.455 -1.03168 -1.25679 0
M  V30 2167 O 202.639 -1.30862 -1.35674 0
M  V30 2168 C 199.766 -2.61555 -2.1519 0
M  V30 2169 C 198.812 -3.81701 -1.9028 0
M  V30 2170 S 199.645 -5.23797 -1.11343 0
M  V30 2171 C 200.801 -5.77353 -2.41689 0
M  V30 2172 H 201.034 -2.94617 -0.39852 0
M  V30 2173 H 198.567 -1.54145 -0.0886555 0
M  V30 2174 H 200.525 -2.91122 -2.89411 0
M  V30 2175 H 199.186 -1.78479 -2.58465 0
M  V30 2176 H 198.379 -4.14985 -2.86014 0
M  V30 2177 H 197.981 -3.52783 -1.24178 0
M  V30 2178 H 200.273 -5.87458 -3.37489 0
M  V30 2179 H 201.216 -6.75323 -2.12942 0
M  V30 2180 H 201.624 -5.05457 -2.51342 0
M  V30 2181 N 201.022 0.148545 -1.56898 0
M  V30 2182 C 202.433 0.708766 -1.72723 0
M  V30 2183 C 202.784 1.81734 -0.739395 0
M  V30 2184 O 201.909 2.16194 0.0943169 0
M  V30 2185 C 202.504 1.29245 -3.13179 0
M  V30 2186 C 201.063 1.79925 -3.30611 0
M  V30 2187 C 200.21 0.687111 -2.68652 0
M  V30 2188 H 203.161 -0.0771063 -1.58513 0
M  V30 2189 H 203.182 2.16224 -3.13093 0
M  V30 2190 H 202.694 0.485382 -3.85053 0
M  V30 2191 H 200.795 2.63203 -2.63732 0
M  V30 2192 H 200.908 1.92903 -4.38549 0
M  V30 2193 H 199.272 1.11335 -2.29078 0
M  V30 2194 H 200.055 -0.108483 -3.43129 0
M  V30 2195 N 202.5 1.5196 0.417844 0
M  V30 2196 C 203.41 1.77554 1.53336 0
M  V30 2197 C 204.426 0.660655 1.6097 0
M  V30 2198 O 205.602 0.945099 1.77848 0
M  V30 2199 C 202.667 1.91291 2.89152 0
M  V30 2200 C 201.728 3.15183 2.91475 0
M  V30 2201 C 200.961 3.28256 4.20813 0
M  V30 2202 O 201.184 2.46798 5.14244 0
M  V30 2203 O 200.118 4.21356 4.29817 0
M  V30 2204 H 203.944 2.7222 1.34647 0
M  V30 2205 H 201.529 1.36698 0.602828 0
M  V30 2206 H 203.411 2.02199 3.69721 0
M  V30 2207 H 202.086 0.998129 3.07927 0
M  V30 2208 H 200.993 3.09739 2.09791 0
M  V30 2209 H 202.326 4.06414 2.77648 0
M  V30 2210 N 203.978 -0.674533 1.42435 0
M  V30 2211 C 205.226 -1.43175 1.42637 0
M  V30 2212 C 205.547 -1.94951 0.0438992 0
M  V30 2213 O 204.817 -1.7308 -0.917607 0
M  V30 2214 H 203.397 -0.531307 0.525092 0
M  V30 2215 H 206.059 -0.797006 1.77859 0
M  V30 2216 H 205.155 -2.28463 2.12629 0
M  V30 2217 N 205.456 -1.28612 -0.910864 0
M  V30 2218 C 206.704 -1.15705 -1.65701 0
M  V30 2219 C 207.025 0.29416 -1.92769 0
M  V30 2220 O 206.295 1.20331 -1.54588 0
M  V30 2221 H 204.875 -0.425216 -0.614167 0
M  V30 2222 H 207.537 -1.61381 -1.0928 0
M  V30 2223 H 206.633 -1.6988 -2.61815 0
M  V30 2224 N 206.934 1.1197 -1.10907 0
M  V30 2225 C 208.159 1.87942 -0.877064 0
M  V30 2226 C 208.584 1.79341 0.567314 0
M  V30 2227 O 207.942 1.15184 1.40009 0
M  V30 2228 C 207.99 3.34926 -1.33629 0
M  V30 2229 O 207.094 4.09303 -0.504447 0
M  V30 2230 H 206.435 0.583785 -0.316371 0
M  V30 2231 H 208.965 1.4157 -1.47712 0
M  V30 2232 H 208.975 3.8577 -1.32837 0
M  V30 2233 H 207.65 3.40504 -2.3881 0
M  V30 2234 H 206.227 3.68393 -0.577993 0
M  V30 2235 N 208.412 0.89855 1.29475 0
M  V30 2236 C 209.661 0.519863 1.94885 0
M  V30 2237 C 209.974 -0.9383 1.71625 0
M  V30 2238 O 211.18 -1.42445 2.31131 0
M  V30 2239 C 209.636 0.878836 3.49005 0
M  V30 2240 C 209.244 2.35569 3.81066 0
M  V30 2241 C 210.988 0.570004 4.20656 0
M  V30 2242 C 208.895 2.65558 5.28425 0
M  V30 2243 H 207.825 0.190692 0.729488 0
M  V30 2244 H 210.476 1.09539 1.47219 0
M  V30 2245 H 208.858 0.232253 3.95318 0
M  V30 2246 H 210.032 3.04773 3.45616 0
M  V30 2247 H 208.347 2.63343 3.22552 0
M  V30 2248 H 210.944 0.770925 5.29113 0
M  V30 2249 H 211.287 -0.491404 4.1339 0
M  V30 2250 H 211.82 1.17438 3.8007 0
M  V30 2251 H 208.559 3.70493 5.40754 0
M  V30 2252 H 208.079 2.00977 5.65127 0
M  V30 2253 H 209.758 2.51765 5.96006 0
M  V30 2254 N 209.89 -1.43072 0.660911 0
M  V30 2255 C 211.136 -2.0202 0.177708 0
M  V30 2256 C 211.469 -1.52066 -1.20787 0
M  V30 2257 O 210.744 -0.716987 -1.80802 0
M  V30 2258 C 211.027 -3.59561 0.197019 0
M  V30 2259 C 210.88 -4.19727 1.61706 0
M  V30 2260 C 212.199 -4.37664 -0.462396 0
M  V30 2261 H 209.318 -0.734034 0.0660494 0
M  V30 2262 H 211.96 -1.70272 0.843058 0
M  V30 2263 H 210.11 -3.86739 -0.369527 0
M  V30 2264 H 211.782 -4.03553 2.23479 0
M  V30 2265 H 210.025 -3.76084 2.16201 0
M  V30 2266 H 210.696 -5.28834 1.58237 0
M  V30 2267 H 213.172 -4.16095 0.0197215 0
M  V30 2268 H 212.048 -5.47305 -0.418188 0
M  V30 2269 H 212.309 -4.14493 -1.53778 0
M  V30 2270 N 211.368 -0.403325 -1.52352 0
M  V30 2271 C 212.331 0.413051 -2.25447 0
M  V30 2272 C 213.331 0.978513 -1.276 0
M  V30 2273 O 214.521 0.858305 -1.51587 0
M  V30 2274 C 211.653 1.58087 -3.02029 0
M  V30 2275 H 212.846 -0.227094 -2.99039 0
M  V30 2276 H 210.399 -0.155722 -1.55522 0
M  V30 2277 H 211.134 2.25804 -2.32772 0
M  V30 2278 H 210.919 1.18195 -3.73861 0
M  V30 2279 H 212.409 2.1585 -3.57489 0
M  V30 2280 N 212.846 1.57033 -0.133567 0
M  V30 2281 C 214.074 2.00044 0.528195 0
M  V30 2282 C 214.489 1.01349 1.59291 0
M  V30 2283 O 213.846 0.00848369 1.82498 0
M  V30 2284 C 213.897 3.43018 1.1411 0
M  V30 2285 O 213.618 4.37939 0.11892 0
M  V30 2286 C 215.119 4.01237 1.88477 0
M  V30 2287 H 212.339 0.656517 0.138661 0
M  V30 2288 H 214.883 2.03267 -0.224196 0
M  V30 2289 H 213.038 3.40688 1.84418 0
M  V30 2290 H 213.452 5.21436 0.56613 0
M  V30 2291 H 214.926 5.03314 2.26669 0
M  V30 2292 H 215.403 3.41193 2.76558 0
M  V30 2293 H 216.009 4.07156 1.22898 0
M  V30 2294 N 214.325 -0.140222 1.56975 0
M  V30 2295 C 215.553 -0.866437 1.87884 0
M  V30 2296 C 215.968 -1.74428 0.722517 0
M  V30 2297 O 215.325 -1.79891 -0.30749 0
M  V30 2298 C 215.376 -1.71753 3.18093 0
M  V30 2299 O 215.097 -0.875056 4.29272 0
M  V30 2300 C 216.598 -2.55074 3.62563 0
M  V30 2301 H 213.818 -0.25019 0.622612 0
M  V30 2302 H 216.362 -0.130977 2.0408 0
M  V30 2303 H 214.517 -2.40598 3.03631 0
M  V30 2304 H 214.931 -1.46002 5.03769 0
M  V30 2305 H 216.405 -3.10356 4.5649 0
M  V30 2306 H 216.882 -3.31434 2.88181 0
M  V30 2307 H 217.488 -1.91509 3.79743 0
M  V30 2308 N 215.803 -1.52179 -0.40978 0
M  V30 2309 C 217.033 -1.69807 -1.17682 0
M  V30 2310 C 217.441 -0.406908 -1.84773 0
M  V30 2311 O 216.784 0.626863 -1.72673 0
M  V30 2312 C 216.846 -2.77712 -2.2829 0
M  V30 2313 C 216.51 -4.19481 -1.81341 0
M  V30 2314 C 217.507 -5.03345 -1.30154 0
M  V30 2315 C 215.192 -4.65713 -1.88194 0
M  V30 2316 C 217.186 -6.31511 -0.864416 0
M  V30 2317 C 214.873 -5.93869 -1.44093 0
M  V30 2318 C 215.871 -6.76597 -0.933023 0
M  V30 2319 O 215.559 -8.02354 -0.49838 0
M  V30 2320 H 215.291 -0.572372 -0.359675 0
M  V30 2321 H 217.845 -1.99511 -0.488311 0
M  V30 2322 H 216.075 -2.43383 -3.00502 0
M  V30 2323 H 217.764 -2.83946 -2.90051 0
M  V30 2324 H 218.53 -4.68819 -1.24232 0
M  V30 2325 H 214.409 -4.01424 -2.26671 0
M  V30 2326 H 217.953 -6.96033 -0.467286 0
M  V30 2327 H 213.85 -6.27903 -1.49694 0
M  V30 2328 H 214.618 -8.16135 -0.621747 0
M  V30 2329 N 217.281 0.66697 -1.42791 0
M  V30 2330 C 218.211 1.79218 -1.49677 0
M  V30 2331 C 219.192 1.66405 -0.352623 0
M  V30 2332 O 220.377 1.85708 -0.567993 0
M  V30 2333 C 217.507 3.17565 -1.40605 0
M  V30 2334 C 216.461 3.45124 -2.53127 0
M  V30 2335 C 215.787 4.83127 -2.29112 0
M  V30 2336 C 217.087 3.41236 -3.95418 0
M  V30 2337 H 218.781 1.73713 -2.43853 0
M  V30 2338 H 216.327 0.83432 -1.17367 0
M  V30 2339 H 218.28 3.96022 -1.44029 0
M  V30 2340 H 217.004 3.23767 -0.429271 0
M  V30 2341 H 215.663 2.69031 -2.49034 0
M  V30 2342 H 215.311 4.85988 -1.29709 0
M  V30 2343 H 215.011 5.02528 -3.04531 0
M  V30 2344 H 216.535 5.63859 -2.34297 0
M  V30 2345 H 217.949 4.09651 -4.01073 0
M  V30 2346 H 216.346 3.72173 -4.70752 0
M  V30 2347 H 217.416 2.39665 -4.21532 0
M  V30 2348 N 218.759 1.29093 0.90403 0
M  V30 2349 C 220.007 1.16583 1.65085 0
M  V30 2350 C 220.328 -0.283933 1.92922 0
M  V30 2351 O 219.598 -1.19509 1.55224 0
M  V30 2352 H 218.178 0.428467 0.611903 0
M  V30 2353 H 220.84 1.61959 1.08422 0
M  V30 2354 H 219.936 1.71266 2.6091 0
M  V30 2355 N 220.237 -1.11381 1.11499 0
M  V30 2356 C 221.485 -1.8277 0.862524 0
M  V30 2357 C 221.806 -1.85097 -0.613534 0
M  V30 2358 O 221.076 -1.32198 -1.4457 0
M  V30 2359 H 219.656 -0.676823 0.316101 0
M  V30 2360 H 222.318 -1.34816 1.4075 0
M  V30 2361 H 221.414 -2.86614 1.23527 0
M  V30 2362 N 221.715 -0.905404 -1.28997 0
M  V30 2363 C 222.625 -0.392246 -2.31298 0
M  V30 2364 C 223.641 0.515889 -1.66176 0
M  V30 2365 O 224.817 0.404093 -1.97304 0
M  V30 2366 C 221.882 0.36686 -3.44754 0
M  V30 2367 C 220.943 -0.573485 -4.25452 0
M  V30 2368 C 220.176 0.149488 -5.33491 0
M  V30 2369 O 220.399 1.37255 -5.5364 0
M  V30 2370 O 219.333 -0.510919 -5.99728 0
M  V30 2371 H 223.159 -1.2411 -2.77183 0
M  V30 2372 H 220.744 -0.669926 -1.33538 0
M  V30 2373 H 222.626 0.795907 -4.13816 0
M  V30 2374 H 221.301 1.19169 -3.00966 0
M  V30 2375 H 220.208 -1.05176 -3.59011 0
M  V30 2376 H 221.541 -1.36489 -4.72897 0
M  V30 2377 N 223.193 1.4272 -0.668489 0
M  V30 2378 C 224.44 2.01624 -0.18814 0
M  V30 2379 C 224.768 1.5282 1.20317 0
M  V30 2380 O 224.023 0.718323 1.8204 0
M  V30 2381 C 224.322 3.57021 -0.164499 0
M  V30 2382 C 223.988 4.25232 -1.49962 0
M  V30 2383 C 222.65 4.4358 -1.8652 0
M  V30 2384 C 225.002 4.63727 -2.37921 0
M  V30 2385 C 222.33 4.97694 -3.10674 0
M  V30 2386 C 224.682 5.19218 -3.6138 0
M  V30 2387 C 223.346 5.3578 -3.98115 0
M  V30 2388 H 222.616 0.737795 -0.0688454 0
M  V30 2389 H 225.263 1.70991 -0.862225 0
M  V30 2390 H 223.568 3.87285 0.593079 0
M  V30 2391 H 225.265 4.00372 0.224271 0
M  V30 2392 H 221.855 4.11306 -1.20522 0
M  V30 2393 H 226.039 4.4923 -2.10964 0
M  V30 2394 H 221.295 5.08702 -3.39164 0
M  V30 2395 H 225.469 5.4799 -4.29743 0
M  V30 2396 H 223.096 5.77475 -4.94395 0
M  V30 2397 N 224.671 0.411399 1.52136 0
M  V30 2398 C 225.634 -0.401089 2.25663 0
M  V30 2399 C 226.634 -0.971732 1.28117 0
M  V30 2400 O 227.824 -0.850254 1.52041 0
M  V30 2401 C 224.956 -1.56483 3.02863 0
M  V30 2402 H 226.149 0.24295 2.98914 0
M  V30 2403 H 223.702 0.163968 1.55438 0
M  V30 2404 H 224.437 -2.24567 2.33967 0
M  V30 2405 H 224.222 -1.16211 3.74483 0
M  V30 2406 H 225.712 -2.13951 3.58629 0
M  V30 2407 N 226.149 -1.5696 0.141893 0
M  V30 2408 C 227.395 -1.9625 -0.511248 0
M  V30 2409 C 227.728 -1.02654 -1.64851 0
M  V30 2410 O 227.003 -0.0679676 -1.94381 0
M  V30 2411 C 227.286 -3.45285 -1.02227 0
M  V30 2412 C 227.139 -4.49658 0.113138 0
M  V30 2413 C 228.458 -3.96698 -1.90574 0
M  V30 2414 H 225.577 -0.713567 -0.184367 0
M  V30 2415 H 228.219 -1.88698 0.222087 0
M  V30 2416 H 226.369 -3.51852 -1.64719 0
M  V30 2417 H 228.041 -4.55174 0.749302 0
M  V30 2418 H 226.284 -4.26857 0.773026 0
M  V30 2419 H 226.955 -5.51258 -0.286053 0
M  V30 2420 H 229.431 -3.92578 -1.37918 0
M  V30 2421 H 228.307 -5.01453 -2.2324 0
M  V30 2422 H 228.568 -3.3875 -2.84079 0
M  V30 2423 N 227.627 0.131896 -1.57047 0
M  V30 2424 C 228.559 1.1878 -1.9602 0
M  V30 2425 C 229.572 1.38363 -0.857875 0
M  V30 2426 O 230.761 1.37666 -1.13623 0
M  V30 2427 C 227.861 2.55008 -2.23213 0
M  V30 2428 C 227.034 2.56201 -3.54513 0
M  V30 2429 C 226.093 3.7408 -3.70069 0
M  V30 2430 O 225.119 3.58258 -4.42312 0
M  V30 2431 N 226.321 4.92137 -3.07866 0
M  V30 2432 H 229.086 0.85639 -2.87204 0
M  V30 2433 H 226.647 0.321309 -1.5868 0
M  V30 2434 H 228.639 3.32404 -2.30846 0
M  V30 2435 H 227.209 2.80382 -1.3822 0
M  V30 2436 H 226.429 1.64613 -3.58185 0
M  V30 2437 H 227.717 2.54043 -4.4084 0
M  V30 2438 H 227.115 5.07895 -2.49116 0
M  V30 2439 H 225.672 5.67254 -3.21039 0
M  V30 2440 N 229.106 1.52395 0.401703 0
M  V30 2441 C 230.054 1.7689 1.51039 0
M  V30 2442 C 231.048 0.636298 1.56996 0
M  V30 2443 O 232.254 0.818507 1.60314 0
M  V30 2444 H 228.629 0.559502 0.502456 0
M  V30 2445 H 230.6 2.69757 1.27568 0
M  V30 2446 C 229.349 1.94331 2.88324 0
M  V30 2447 H 228.672 2.80905 2.84486 0
M  V30 2448 H 230.112 2.15466 3.65172 0
M  V30 2449 C 228.571 0.712396 3.29282 0
M  V30 2450 O 229.101 -0.116218 4.01532 0
M  V30 2451 N 227.307 0.546154 2.85422 0
M  V30 2452 H 226.854 1.22156 2.26794 0
M  V30 2453 H 226.812 -0.276113 3.13185 0
M  V30 2454 N 230.584 -0.659388 1.43143 0
M  V30 2455 C 231.814 -1.44513 1.47646 0
M  V30 2456 C 232.222 -1.88981 0.0910095 0
M  V30 2457 O 231.565 -1.59702 -0.907789 0
M  V30 2458 C 231.627 -2.71663 2.35456 0
M  V30 2459 C 231.291 -2.49175 3.83094 0
M  V30 2460 C 232.288 -2.1279 4.74359 0
M  V30 2461 C 229.973 -2.63691 4.27519 0
M  V30 2462 C 231.967 -1.9121 6.08044 0
M  V30 2463 C 229.654 -2.41726 5.61259 0
M  V30 2464 C 230.652 -2.0554 6.51339 0
M  V30 2465 O 230.34 -1.838 7.82606 0
M  V30 2466 H 230.072 -0.45064 0.503884 0
M  V30 2467 H 232.626 -0.816248 1.88485 0
M  V30 2468 H 230.856 -3.37089 1.89493 0
M  V30 2469 H 232.545 -3.33595 2.31235 0
M  V30 2470 H 233.311 -2.01157 4.41317 0
M  V30 2471 H 229.19 -2.90832 3.57684 0
M  V30 2472 H 232.734 -1.62889 6.78316 0
M  V30 2473 H 228.631 -2.52959 5.9387 0
M  V30 2474 H 229.399 -1.98275 7.94122 0
M  V30 2475 N 232.062 -1.29571 -0.897171 0
M  V30 2476 C 233.01 -1.14802 -2.02295 0
M  V30 2477 C 234.004 -0.0629637 -1.69283 0
M  V30 2478 O 235.21 -0.222945 -1.78614 0
M  V30 2479 H 231.585 -0.354692 -0.663097 0
M  V30 2480 H 233.556 -2.10108 -2.11889 0
M  V30 2481 C 232.305 -0.843966 -3.37302 0
M  V30 2482 H 231.628 -1.67093 -3.63208 0
M  V30 2483 H 233.068 -0.780672 -4.16751 0
M  V30 2484 C 231.527 0.452843 -3.33843 0
M  V30 2485 O 232.057 1.47813 -3.73516 0
M  V30 2486 N 230.263 0.459601 -2.86943 0
M  V30 2487 H 229.81 -0.375213 -2.54853 0
M  V30 2488 H 229.768 1.32726 -2.85011 0
M  V30 2489 N 233.54 1.10788 -1.12088 0
M  V30 2490 C 234.786 1.82942 -0.875226 0
M  V30 2491 C 235.119 1.84779 0.597538 0
M  V30 2492 O 234.394 1.30578 1.44152 0
M  V30 2493 C 234.677 3.29789 -1.44606 0
M  V30 2494 C 234.53 3.36307 -2.98693 0
M  V30 2495 C 235.849 4.26064 -1.10261 0
M  V30 2496 H 232.968 0.664195 -0.319397 0
M  V30 2497 H 235.61 1.29867 -1.38689 0
M  V30 2498 H 233.76 3.75118 -1.01089 0
M  V30 2499 H 235.432 2.99487 -3.50864 0
M  V30 2500 H 233.675 2.76318 -3.34411 0
M  V30 2501 H 234.346 4.39694 -3.33726 0
M  V30 2502 H 236.822 3.88951 -1.4784 0
M  V30 2503 H 235.698 5.27183 -1.52869 0
M  V30 2504 H 235.959 4.42098 -0.0142953 0
M  V30 2505 N 235.018 0.912232 1.28515 0
M  V30 2506 C 235.951 0.343928 2.25593 0
M  V30 2507 C 236.929 -0.550994 1.5298 0
M  V30 2508 O 238.113 -0.494991 1.81885 0
M  V30 2509 C 235.24 -0.508525 3.34861 0
M  V30 2510 C 234.286 0.320808 4.25292 0
M  V30 2511 S 235.119 1.72658 5.06902 0
M  V30 2512 C 236.275 0.881394 6.19663 0
M  V30 2513 H 236.508 1.16674 2.73449 0
M  V30 2514 H 234.041 0.713384 1.36931 0
M  V30 2515 H 235.999 -0.994539 3.9827 0
M  V30 2516 H 234.66 -1.30571 2.85675 0
M  V30 2517 H 233.853 -0.330941 5.02912 0
M  V30 2518 H 233.455 0.74042 3.66598 0
M  V30 2519 H 235.747 0.110359 6.7741 0
M  V30 2520 H 236.69 1.63009 6.89082 0
M  V30 2521 H 237.098 0.430239 5.62858 0
M  V30 2522 N 236.496 -1.42363 0.676048 0
M  V30 2523 C 237.744 -2.01123 0.198437 0
M  V30 2524 C 238.065 -1.53731 -1.19966 0
M  V30 2525 O 237.335 -0.759518 -1.80577 0
M  V30 2526 H 235.915 -0.743678 0.0703721 0
M  V30 2527 H 238.577 -1.74263 0.872837 0
M  V30 2528 H 237.673 -3.11454 0.200686 0
M  V30 2529 N 237.974 -0.419461 -1.51915 0
M  V30 2530 C 239.22 0.153166 -2.02221 0
M  V30 2531 C 239.553 1.43907 -1.30401 0
M  V30 2532 O 238.828 1.90055 -0.413438 0
M  V30 2533 C 239.111 0.390291 -3.57979 0
M  V30 2534 C 238.964 -0.913014 -4.40436 0
M  V30 2535 C 240.283 1.16794 -4.2432 0
M  V30 2536 H 237.402 0.0541924 -0.735005 0
M  V30 2537 H 240.044 -0.554955 -1.81715 0
M  V30 2538 H 238.194 0.993491 -3.75582 0
M  V30 2539 H 239.866 -1.54882 -4.34522 0
M  V30 2540 H 238.109 -1.52168 -4.06236 0
M  V30 2541 H 238.78 -0.701361 -5.47526 0
M  V30 2542 H 241.256 0.657161 -4.10878 0
M  V30 2543 H 240.132 1.3026 -5.3322 0
M  V30 2544 H 240.393 2.19132 -3.83971 0
M  V30 2545 N 239.452 1.56882 -0.150215 0
M  V30 2546 C 240.415 2.1573 0.774157 0
M  V30 2547 C 241.415 1.0999 1.17298 0
M  V30 2548 O 242.605 1.35613 1.09338 0
M  V30 2549 C 239.737 2.72302 2.05096 0
M  V30 2550 H 240.93 2.98752 0.262201 0
M  V30 2551 H 238.483 1.55985 0.099248 0
M  V30 2552 H 239.218 1.92956 2.6065 0
M  V30 2553 H 239.003 3.49665 1.77416 0
M  V30 2554 H 240.493 3.17632 2.71109 0
M  V30 2555 N 240.93 -0.123565 1.57115 0
M  V30 2556 C 241.877 -1.15177 2.00007 0
M  V30 2557 C 242.847 -1.41403 0.871454 0
M  V30 2558 O 244.032 -1.53346 1.13533 0
M  V30 2559 C 241.172 -2.47436 2.40561 0
M  V30 2560 C 240.285 -2.28184 3.66819 0
M  V30 2561 C 239.42 -3.53641 3.96373 0
M  V30 2562 C 238.459 -3.29528 5.15827 0
M  V30 2563 N 237.596 -4.47175 5.41275 0
M  V30 2564 H 242.436 -0.779008 2.87638 0
M  V30 2565 H 239.973 -0.373166 1.42288 0
M  V30 2566 H 241.931 -3.24584 2.62109 0
M  V30 2567 H 240.561 -2.82614 1.55978 0
M  V30 2568 H 239.613 -1.41976 3.52912 0
M  V30 2569 H 240.925 -2.0634 4.5412 0
M  V30 2570 H 240.079 -4.39209 4.18545 0
M  V30 2571 H 238.818 -3.78512 3.07538 0
M  V30 2572 H 237.823 -2.42349 4.93505 0
M  V30 2573 H 239.048 -3.06031 6.06236 0
M  V30 2574 H 236.994 -4.72175 4.55397 0
M  V30 2575 H 236.911 -4.28419 6.22891 0
M  V30 2576 H 238.179 -5.3389 5.67963 0
M  V30 2577 N 242.408 -1.52605 -0.393616 0
M  V30 2578 C 243.371 -1.76415 -1.46323 0
M  V30 2579 C 244.371 -0.634126 -1.47768 0
M  V30 2580 O 245.561 -0.902142 -1.4902 0
M  V30 2581 C 242.693 -1.8607 -2.85641 0
M  V30 2582 H 243.886 -2.71916 -1.26498 0
M  V30 2583 H 241.439 -1.43257 -0.625073 0
M  V30 2584 H 242.174 -0.925378 -3.10817 0
M  V30 2585 H 241.959 -2.68235 -2.85993 0
M  V30 2586 H 243.449 -2.06179 -3.63153 0
M  V30 2587 N 243.887 0.651787 -1.4349 0
M  V30 2588 C 245.112 1.44434 -1.48841 0
M  V30 2589 C 245.537 1.8779 -0.107955 0
M  V30 2590 O 244.895 1.57464 0.898602 0
M  V30 2591 C 244.943 2.65458 -2.44059 0
M  V30 2592 O 244.047 3.64566 -1.92784 0
M  V30 2593 H 243.388 0.433005 -0.503391 0
M  V30 2594 H 245.918 0.797451 -1.88419 0
M  V30 2595 H 245.928 3.13255 -2.6141 0
M  V30 2596 H 244.603 2.33244 -3.4434 0
M  V30 2597 H 243.18 3.23716 -1.851 0
M  V30 2598 N 245.365 1.30045 0.890287 0
M  V30 2599 C 246.295 1.18541 2.01172 0
M  V30 2600 C 247.276 0.0773356 1.69924 0
M  V30 2601 O 248.461 0.25845 1.92473 0
M  V30 2602 C 245.591 0.870941 3.36202 0
M  V30 2603 C 244.545 1.93637 3.81692 0
M  V30 2604 C 243.871 1.475 5.13953 0
M  V30 2605 C 245.171 3.34666 4.00994 0
M  V30 2606 H 246.865 2.12359 2.11054 0
M  V30 2607 H 244.411 1.02238 1.01407 0
M  V30 2608 H 246.364 0.777141 4.14172 0
M  V30 2609 H 245.088 -0.102926 3.26438 0
M  V30 2610 H 243.747 2.01972 3.05946 0
M  V30 2611 H 243.395 0.489551 5.00612 0
M  V30 2612 H 243.095 2.1876 5.4536 0
M  V30 2613 H 244.619 1.39489 5.94454 0
M  V30 2614 H 246.033 3.2912 4.69417 0
M  V30 2615 H 244.43 4.03966 4.43769 0
M  V30 2616 H 245.5 3.76949 3.05021 0
M  V30 2617 N 246.843 -1.10192 1.12674 0
M  V30 2618 C 247.753 -2.20172 0.810026 0
M  V30 2619 C 248.769 -1.72821 -0.202188 0
M  V30 2620 O 249.945 -2.01369 -0.0351691 0
M  V30 2621 C 247.01 -3.45631 0.272007 0
M  V30 2622 C 246.071 -4.07704 1.34447 0
M  V30 2623 C 245.304 -5.27175 0.832029 0
M  V30 2624 O 245.527 -5.69425 -0.333284 0
M  V30 2625 O 244.461 -5.80168 1.60277 0
M  V30 2626 H 248.287 -2.49701 1.72867 0
M  V30 2627 H 245.872 -1.18977 0.903597 0
M  V30 2628 H 247.754 -4.21394 -0.0230219 0
M  V30 2629 H 246.429 -3.17723 -0.619164 0
M  V30 2630 H 245.336 -3.33614 1.6927 0
M  V30 2631 H 246.669 -4.3982 2.2095 0
M  V30 2632 N 248.321 -0.919034 -1.28029 0
M  V30 2633 C 249.284 -0.416182 -2.2539 0
M  V30 2634 C 250.284 0.460438 -1.54067 0
M  V30 2635 O 251.474 0.262744 -1.72207 0
M  V30 2636 C 248.606 0.402707 -3.38513 0
M  V30 2637 H 249.799 -1.27629 -2.71387 0
M  V30 2638 H 247.352 -0.698919 -1.39803 0
M  V30 2639 H 248.087 1.282 -2.97885 0
M  V30 2640 H 247.872 -0.225698 -3.9145 0
M  V30 2641 H 249.362 0.745191 -4.10897 0
M  V30 2642 N 249.799 1.42003 -0.683588 0
M  V30 2643 C 250.747 2.326 0.000815408 0
M  V30 2644 C 251.741 1.50308 0.781278 0
M  V30 2645 O 252.947 1.66322 0.688251 0
M  V30 2646 H 249.322 0.751758 0.0190616 0
M  V30 2647 H 251.293 2.88011 -0.780528 0
M  V30 2648 C 250.042 3.34978 0.93195 0
M  V30 2649 H 249.365 3.98345 0.340817 0
M  V30 2650 H 250.805 4.00936 1.37936 0
M  V30 2651 C 249.264 2.67925 2.04249 0
M  V30 2652 O 249.794 2.51788 3.12995 0
M  V30 2653 N 248 2.2681 1.81675 0
M  V30 2654 H 247.547 2.40135 0.932363 0
M  V30 2655 H 247.505 1.8228 2.56167 0
M  V30 2656 N 251.277 0.427512 1.51691 0
M  V30 2657 C 252.523 -0.142439 2.02299 0
M  V30 2658 C 252.856 -1.43214 1.31162 0
M  V30 2659 O 252.131 -1.89833 0.423511 0
M  V30 2660 C 252.414 -0.371301 3.58181 0
M  V30 2661 C 252.267 0.936358 4.39946 0
M  V30 2662 C 253.586 -1.14542 4.24933 0
M  V30 2663 H 250.705 -0.0502937 0.735282 0
M  V30 2664 H 253.347 0.564584 1.81418 0
M  V30 2665 H 251.497 -0.973559 3.76104 0
M  V30 2666 H 253.169 1.57184 4.33694 0
M  V30 2667 H 251.412 1.5432 4.05423 0
M  V30 2668 H 252.083 0.730388 5.47147 0
M  V30 2669 H 254.559 -0.635362 4.11221 0
M  V30 2670 H 253.435 -1.27431 5.33903 0
M  V30 2671 H 253.696 -2.17093 3.85127 0
M  V30 2672 N 252.755 -1.56801 0.158532 0
M  V30 2673 C 253.702 -2.17337 -0.776729 0
M  V30 2674 C 254.672 -1.1096 -1.23601 0
M  V30 2675 O 255.857 -1.39054 -1.30647 0
M  V30 2676 C 252.997 -2.80822 -2.00582 0
M  V30 2677 C 252.11 -4.01624 -1.59129 0
M  V30 2678 C 251.245 -4.53072 -2.77306 0
M  V30 2679 C 250.284 -5.66314 -2.32282 0
M  V30 2680 N 249.421 -6.12329 -3.43508 0
M  V30 2681 H 254.261 -2.96918 -0.253701 0
M  V30 2682 H 251.798 -1.46661 -0.113504 0
M  V30 2683 H 253.756 -3.15779 -2.72652 0
M  V30 2684 H 252.386 -2.03866 -2.50277 0
M  V30 2685 H 251.438 -3.72571 -0.767806 0
M  V30 2686 H 252.75 -4.83633 -1.2207 0
M  V30 2687 H 251.904 -4.90145 -3.57551 0
M  V30 2688 H 250.643 -3.70095 -3.17617 0
M  V30 2689 H 249.648 -5.28806 -1.5048 0
M  V30 2690 H 250.873 -6.51085 -1.93043 0
M  V30 2691 H 248.819 -5.32284 -3.83418 0
M  V30 2692 H 248.736 -6.89293 -3.105 0
M  V30 2693 H 250.004 -6.5405 -4.24075 0
M  V30 2694 N 254.233 0.115231 -1.57178 0
M  V30 2695 C 255.463 0.835224 -1.88964 0
M  V30 2696 C 255.871 1.73774 -0.74829 0
M  V30 2697 O 255.214 1.81401 0.289739 0
M  V30 2698 C 255.276 1.7178 -3.15804 0
M  V30 2699 C 254.94 0.989198 -4.46166 0
M  V30 2700 C 255.937 0.328263 -5.18863 0
M  V30 2701 C 253.622 0.969256 -4.9286 0
M  V30 2702 C 255.616 -0.342873 -6.36477 0
M  V30 2703 C 253.303 0.294324 -6.10391 0
M  V30 2704 C 254.301 -0.360582 -6.82048 0
M  V30 2705 O 253.989 -1.02474 -7.97342 0
M  V30 2706 H 253.721 0.245197 -0.629964 0
M  V30 2707 H 256.275 0.10303 -2.05141 0
M  V30 2708 H 254.505 2.49173 -2.95719 0
M  V30 2709 H 256.194 2.31255 -3.33581 0
M  V30 2710 H 256.96 0.335263 -4.8384 0
M  V30 2711 H 252.839 1.46844 -4.36987 0
M  V30 2712 H 256.383 -0.854629 -6.92345 0
M  V30 2713 H 252.28 0.285099 -6.4487 0
M  V30 2714 H 253.048 -0.929594 -8.13204 0
M  V30 2715 N 255.711 1.52812 0.385517 0
M  V30 2716 C 256.641 1.80808 1.47752 0
M  V30 2717 C 257.622 0.660318 1.5676 0
M  V30 2718 O 258.807 0.908246 1.71652 0
M  V30 2719 C 255.937 1.98008 2.85324 0
M  V30 2720 C 254.891 3.13709 2.91154 0
M  V30 2721 C 254.217 3.16169 4.31209 0
M  V30 2722 C 255.517 4.52709 2.60483 0
M  V30 2723 H 257.211 2.72253 1.24573 0
M  V30 2724 H 254.757 1.31003 0.597839 0
M  V30 2725 H 256.71 2.16176 3.61726 0
M  V30 2726 H 255.434 1.03255 3.09848 0
M  V30 2727 H 254.093 2.95329 2.17201 0
M  V30 2728 H 253.741 2.19092 4.52778 0
M  V30 2729 H 253.441 3.93894 4.36029 0
M  V30 2730 H 254.965 3.36496 5.09512 0
M  V30 2731 H 256.379 4.71173 3.26602 0
M  V30 2732 H 254.776 5.32528 2.76648 0
M  V30 2733 H 255.846 4.59186 1.55809 0
M  V30 2734 N 257.189 -0.644168 1.43834 0
M  V30 2735 C 258.152 -1.73857 1.49353 0
M  V30 2736 C 259.152 -1.56315 0.377112 0
M  V30 2737 O 260.342 -1.62048 0.639226 0
M  V30 2738 C 257.474 -3.12819 1.35488 0
M  V30 2739 H 258.667 -1.70342 2.46827 0
M  V30 2740 H 256.22 -0.856652 1.30733 0
M  V30 2741 H 256.955 -3.2194 0.390569 0
M  V30 2742 H 256.74 -3.26958 2.16428 0
M  V30 2743 H 258.23 -3.92606 1.42302 0
M  V30 2744 N 258.668 -1.30515 -0.883378 0
M  V30 2745 C 259.598 -1.19607 -2.00541 0
M  V30 2746 C 260.579 -0.086346 -1.69881 0
M  V30 2747 O 261.764 -0.268654 -1.92333 0
M  V30 2748 C 258.894 -0.888758 -3.35736 0
M  V30 2749 C 257.848 -1.95659 -3.8066 0
M  V30 2750 C 257.174 -1.50224 -5.13164 0
M  V30 2751 C 258.474 -3.36788 -3.99213 0
M  V30 2752 H 260.168 -2.13476 -2.09925 0
M  V30 2753 H 257.714 -1.02775 -1.00863 0
M  V30 2754 H 259.667 -0.799094 -4.13754 0
M  V30 2755 H 258.391 0.0856125 -3.26488 0
M  V30 2756 H 257.05 -2.03591 -3.04871 0
M  V30 2757 H 256.698 -0.516092 -5.00345 0
M  V30 2758 H 256.398 -2.2165 -5.44192 0
M  V30 2759 H 257.922 -1.42639 -5.93706 0
M  V30 2760 H 259.336 -3.31605 -4.67665 0
M  V30 2761 H 257.733 -4.06314 -4.41621 0
M  V30 2762 H 258.803 -3.78561 -3.03017 0
M  V30 2763 N 260.146 1.09593 -1.13257 0
M  V30 2764 C 261.423 1.78293 -0.804432 0
M  V30 2765 C 261.803 1.99004 0.70431 0
M  V30 2766 O 261.151 1.59007 1.641 0
M  V30 2767 C 261.361 3.10707 -1.5894 0
M  V30 2768 C 262.709 3.85443 -1.78099 0
M  V30 2769 O 263.733 3.20454 -1.55525 0
M  V30 2770 O 262.592 5.02108 -2.15753 0
M  V30 2771 H 259.686 0.773156 -0.293528 0
M  V30 2772 H 262.232 1.16164 -1.23709 0
M  V30 2773 H 261.004 2.91106 -2.61482 0
M  V30 2774 H 260.627 3.80558 -1.15157 0
M  V30 2775 N 261.624 0.925811 1.2754 0
M  V30 2776 C 262.554 0.440748 2.29303 0
M  V30 2777 C 263.535 -0.497971 1.62648 0
M  V30 2778 O 264.72 -0.403126 1.8997 0
M  V30 2779 C 261.85 -0.309048 3.45922 0
M  V30 2780 C 260.804 0.54166 4.24559 0
M  V30 2781 C 260.13 -0.337191 5.33636 0
M  V30 2782 C 261.43 1.80516 4.90114 0
M  V30 2783 H 263.124 1.29121 2.70126 0
M  V30 2784 H 260.67 0.622323 1.29858 0
M  V30 2785 H 262.623 -0.659315 4.1621 0
M  V30 2786 H 261.347 -1.19352 3.04011 0
M  V30 2787 H 260.006 0.874609 3.56014 0
M  V30 2788 H 259.654 -1.22056 4.87966 0
M  V30 2789 H 259.354 0.228497 5.87156 0
M  V30 2790 H 260.878 -0.683072 6.06767 0
M  V30 2791 H 262.292 1.52307 5.52698 0
M  V30 2792 H 260.689 2.3142 5.53683 0
M  V30 2793 H 261.759 2.52581 4.13921 0
M  V30 2794 N 263.102 -1.41638 0.69111 0
M  V30 2795 C 264.35 -2.00902 0.219758 0
M  V30 2796 C 264.671 -1.54994 -1.18329 0
M  V30 2797 O 263.941 -0.778628 -1.79762 0
M  V30 2798 H 262.521 -0.74289 0.0782558 0
M  V30 2799 H 265.183 -1.73327 0.891271 0
M  V30 2800 H 264.279 -3.11224 0.233708 0
M  V30 2801 N 264.58 -0.43555 -1.51462 0
M  V30 2802 C 265.991 0.0279871 -1.86679 0
M  V30 2803 C 266.342 1.42104 -1.35281 0
M  V30 2804 O 265.467 2.04667 -0.702878 0
M  V30 2805 C 266.062 0.0575626 -3.38751 0
M  V30 2806 C 264.621 0.465507 -3.7351 0
M  V30 2807 C 263.768 -0.342996 -2.75171 0
M  V30 2808 H 266.719 -0.651473 -1.44712 0
M  V30 2809 H 266.74 0.867421 -3.70481 0
M  V30 2810 H 266.252 -0.956448 -3.7613 0
M  V30 2811 H 264.353 1.48519 -3.41721 0
M  V30 2812 H 264.466 0.191546 -4.78717 0
M  V30 2813 H 262.83 0.198442 -2.53926 0
M  V30 2814 H 263.613 -1.35585 -3.15391 0
M  V30 2815 N 266.058 1.56714 -0.166846 0
M  V30 2816 C 267.335 1.88412 0.525373 0
M  V30 2817 C 267.715 1.07602 1.81618 0
M  V30 2818 O 267.063 0.168621 2.27877 0
M  V30 2819 C 267.273 3.40363 0.771613 0
M  V30 2820 C 268.621 4.10007 1.1036 0
M  V30 2821 O 269.645 3.45655 0.860304 0
M  V30 2822 O 268.504 5.2369 1.56239 0
M  V30 2823 H 265.598 0.781587 0.270278 0
M  V30 2824 H 268.144 1.68458 -0.204946 0
M  V30 2825 H 266.916 3.91046 -0.141093 0
M  V30 2826 H 266.539 3.65914 1.55541 0
M  V30 2827 N 267.536 -0.106894 1.57237 0
M  V30 2828 C 268.484 -1.14944 2.02215 0
M  V30 2829 C 269.478 -1.42167 0.92114 0
M  V30 2830 O 270.684 -1.41987 1.10634 0
M  V30 2831 H 267.059 -0.387841 0.64427 0
M  V30 2832 H 269.03 -0.743683 2.88984 0
M  V30 2833 C 267.779 -2.4647 2.4525 0
M  V30 2834 H 267.102 -2.26363 3.29545 0
M  V30 2835 H 268.542 -3.17948 2.80508 0
M  V30 2836 C 267.001 -3.09921 1.321 0
M  V30 2837 O 267.531 -3.9651 0.643622 0
M  V30 2838 N 265.737 -2.69986 1.07497 0
M  V30 2839 H 265.284 -1.99667 1.62761 0
M  V30 2840 H 265.242 -3.12769 0.319876 0
M  V30 2841 N 269.014 -1.53014 -0.377408 0
M  V30 2842 C 270.263 -1.67845 -1.11853 0
M  V30 2843 C 270.576 -0.430625 -1.90801 0
M  V30 2844 O 271.782 -0.459261 -2.67587 0
M  V30 2845 C 270.238 -2.96668 -2.03756 0
M  V30 2846 C 269.846 -4.28671 -1.30175 0
M  V30 2847 C 271.59 -3.20865 -2.77932 0
M  V30 2848 C 269.497 -5.48591 -2.20911 0
M  V30 2849 H 268.427 -0.625343 -0.421263 0
M  V30 2850 H 271.078 -1.79514 -0.380409 0
M  V30 2851 H 269.46 -2.78773 -2.8125 0
M  V30 2852 H 270.634 -4.57157 -0.578259 0
M  V30 2853 H 268.949 -4.10825 -0.679108 0
M  V30 2854 H 271.546 -4.07642 -3.46024 0
M  V30 2855 H 271.889 -2.36424 -3.4265 0
M  V30 2856 H 272.422 -3.39379 -2.07525 0
M  V30 2857 H 269.161 -6.35474 -1.6079 0
M  V30 2858 H 268.681 -5.244 -2.91144 0
M  V30 2859 H 270.36 -5.8292 -2.80736 0
M  V30 2860 N 270.492 0.636531 -1.44174 0
M  V30 2861 C 271.908 0.954104 -1.27941 0
M  V30 2862 C 272.108 2.0039 -0.211248 0
M  V30 2863 O 271.164 2.49236 0.404695 0
M  V30 2864 C 272.477 1.4225 -2.64925 0
M  V30 2865 C 274.025 1.53827 -2.72592 0
M  V30 2866 C 274.5 2.04053 -4.10032 0
M  V30 2867 N 275.991 2.11331 -4.12182 0
M  V30 2868 C 276.726 2.51352 -5.15374 0
M  V30 2869 N 276.222 2.90549 -6.2893 0
M  V30 2870 N 278.015 2.51438 -5.02728 0
M  V30 2871 H 270.166 -0.0578386 -2.12321 0
M  V30 2872 H 272.429 0.0367406 -0.947288 0
M  V30 2873 H 272.135 0.725466 -3.44136 0
M  V30 2874 H 272.009 2.39451 -2.9145 0
M  V30 2875 H 274.396 2.22628 -1.93702 0
M  V30 2876 H 274.477 0.550154 -2.49814 0
M  V30 2877 H 274.121 1.35848 -4.89395 0
M  V30 2878 H 274.051 3.03726 -4.30184 0
M  V30 2879 H 276.542 1.83745 -3.30222 0
M  V30 2880 H 276.855 3.19884 -7.03487 0
M  V30 2881 H 275.2 2.88313 -6.32377 0
M  V30 2882 H 278.391 2.20203 -4.13072 0
M  V30 2883 H 278.564 2.82304 -5.83274 0
M  V30 2884 N 271.97 1.30982 0.876444 0
M  V30 2885 C 273.216 1.20474 1.63138 0
M  V30 2886 C 273.549 -0.238096 1.92735 0
M  V30 2887 O 272.824 -1.1692 1.55435 0
M  V30 2888 C 273.107 2.04244 2.96574 0
M  V30 2889 C 272.96 3.56793 2.73896 0
M  V30 2890 C 274.279 1.88684 3.97601 0
M  V30 2891 H 271.398 0.439001 0.591985 0
M  V30 2892 H 274.04 1.60704 1.01361 0
M  V30 2893 H 272.19 1.70063 3.493 0
M  V30 2894 H 273.862 4.01077 2.27892 0
M  V30 2895 H 272.105 3.80548 2.08245 0
M  V30 2896 H 272.776 4.10706 3.68815 0
M  V30 2897 H 275.252 2.18584 3.54062 0
M  V30 2898 H 274.128 2.4961 4.88862 0
M  V30 2899 H 274.389 0.848343 4.33884 0
M  V30 2900 N 273.449 -1.08991 1.13837 0
M  V30 2901 C 274.397 -2.17841 0.815347 0
M  V30 2902 C 275.391 -1.68164 -0.204233 0
M  V30 2903 O 276.597 -1.79897 -0.0609304 0
M  V30 2904 H 272.972 -0.710654 0.245915 0
M  V30 2905 H 274.943 -2.42315 1.74143 0
M  V30 2906 C 273.692 -3.46381 0.302614 0
M  V30 2907 H 273.015 -3.84979 1.0785 0
M  V30 2908 H 274.455 -4.23844 0.115074 0
M  V30 2909 C 272.914 -3.22556 -0.972591 0
M  V30 2910 O 273.444 -3.45599 -2.04754 0
M  V30 2911 N 271.65 -2.76134 -0.905455 0
M  V30 2912 H 271.197 -2.57582 -0.0305421 0
M  V30 2913 H 271.155 -2.60571 -1.75926 0
M  V30 2914 N 274.927 -0.932562 -1.27047 0
M  V30 2915 C 275.89 -0.440064 -2.24936 0
M  V30 2916 C 276.89 0.444071 -1.54547 0
M  V30 2917 O 278.08 0.244465 -1.72476 0
M  V30 2918 C 275.212 0.36678 -3.38921 0
M  V30 2919 H 276.405 -1.305 -2.70018 0
M  V30 2920 H 273.958 -0.713707 -1.39054 0
M  V30 2921 H 274.693 1.25033 -2.99228 0
M  V30 2922 H 274.478 -0.267204 -3.91188 0
M  V30 2923 H 275.968 0.701567 -4.11665 0
M  V30 2924 N 276.405 1.4127 -0.698611 0
M  V30 2925 C 277.654 2.00408 -0.227949 0
M  V30 2926 C 277.967 1.55981 1.18023 0
M  V30 2927 O 279.173 2.07699 1.74852 0
M  V30 2928 C 277.629 3.58129 -0.356636 0
M  V30 2929 C 277.237 4.11536 -1.77037 0
M  V30 2930 C 278.981 4.24466 0.0540969 0
M  V30 2931 C 276.888 5.61701 -1.85055 0
M  V30 2932 H 275.818 0.749586 -0.0814657 0
M  V30 2933 H 278.469 1.61713 -0.867249 0
M  V30 2934 H 276.851 3.94442 0.350965 0
M  V30 2935 H 278.025 3.86636 -2.50698 0
M  V30 2936 H 276.34 3.57736 -2.13105 0
M  V30 2937 H 278.937 5.34698 0.0146723 0
M  V30 2938 H 279.28 4.01687 1.09332 0
M  V30 2939 H 279.813 3.93198 -0.603337 0
M  V30 2940 H 276.552 5.89312 -2.8704 0
M  V30 2941 H 276.072 5.88519 -1.15783 0
M  V30 2942 H 277.751 6.26524 -1.61484 0
M  V30 2943 N 277.883 0.443576 1.51229 0
M  V30 2944 C 279.108 -0.121648 2.07043 0
M  V30 2945 C 279.533 -1.35156 1.30823 0
M  V30 2946 O 278.891 -1.7793 0.347934 0
M  V30 2947 C 278.939 -0.41624 3.5819 0
M  V30 2948 O 278.043 -1.50163 3.8409 0
M  V30 2949 H 277.384 0.000871367 0.663999 0
M  V30 2950 H 279.914 0.626706 1.94765 0
M  V30 2951 H 279.924 -0.664867 4.02546 0
M  V30 2952 H 278.599 0.482653 4.1309 0
M  V30 2953 H 277.176 -1.24248 3.51592 0
M  V30 2954 N 279.361 -1.56624 0.175154 0
M  V30 2955 C 280.324 -2.16934 -0.739738 0
M  V30 2956 C 281.324 -1.11842 -1.15533 0
M  V30 2957 O 282.514 -1.37335 -1.07167 0
M  V30 2958 C 279.646 -2.75531 -2.00738 0
M  V30 2959 H 280.839 -2.99131 -0.214639 0
M  V30 2960 H 278.392 -1.56123 -0.0744197 0
M  V30 2961 H 279.127 -1.97078 -2.57548 0
M  V30 2962 H 278.912 -3.52444 -1.71831 0
M  V30 2963 H 280.402 -3.21904 -2.66021 0
M  V30 2964 N 280.839 0.0985539 -1.57292 0
M  V30 2965 C 282.087 0.801092 -1.85545 0
M  V30 2966 C 282.408 1.79438 -0.763353 0
M  V30 2967 O 281.678 1.94763 0.21073 0
M  V30 2968 H 280.258 0.29884 -0.684619 0
M  V30 2969 H 282.92 0.0810064 -1.94732 0
M  V30 2970 H 282.016 1.3338 -2.82163 0
M  V30 2971 N 282.317 1.53212 0.369288 0
M  V30 2972 C 283.728 1.60943 0.946276 0
M  V30 2973 C 284.079 0.47452 1.90375 0
M  V30 2974 O 283.204 -0.399597 2.12679 0
M  V30 2975 C 283.799 2.91715 1.72302 0
M  V30 2976 C 282.358 3.01792 2.24941 0
M  V30 2977 C 281.505 2.56211 1.06072 0
M  V30 2978 H 284.456 1.58007 0.148198 0
M  V30 2979 H 284.477 2.79309 2.58393 0
M  V30 2980 H 283.989 3.74295 1.0259 0
M  V30 2981 H 282.09 2.23791 2.97906 0
M  V30 2982 H 282.203 4.06803 2.53077 0
M  V30 2983 H 280.567 2.10998 1.4266 0
M  V30 2984 H 281.35 3.41206 0.378639 0
M  V30 2985 N 283.795 -0.628877 1.44509 0
M  V30 2986 C 285.044 -1.38437 1.4669 0
M  V30 2987 C 285.357 -1.95322 0.104272 0
M  V30 2988 O 286.563 -2.715 0.00362163 0
M  V30 2989 C 285.019 -2.50659 2.5826 0
M  V30 2990 C 284.627 -2.00277 4.0074 0
M  V30 2991 C 286.371 -3.27844 2.69664 0
M  V30 2992 C 284.278 -3.09854 5.0373 0
M  V30 2993 H 283.208 -0.520245 0.545766 0
M  V30 2994 H 285.859 -0.676313 1.70582 0
M  V30 2995 H 284.241 -3.2405 2.27612 0
M  V30 2996 H 285.415 -1.33736 4.40966 0
M  V30 2997 H 283.73 -1.35901 3.93599 0
M  V30 2998 H 286.327 -4.09534 3.43781 0
M  V30 2999 H 286.67 -3.77471 1.75559 0
M  V30 3000 H 287.203 -2.61543 2.99733 0
M  V30 3001 H 283.942 -2.65168 5.99472 0
M  V30 3002 H 283.462 -3.7503 4.68095 0
M  V30 3003 H 285.141 -3.74592 5.27532 0
M  V30 3004 N 285.273 -1.31445 -0.869486 0
M  V30 3005 C 286.689 -1.10113 -1.15531 0
M  V30 3006 C 286.889 0.128087 -2.01092 0
M  V30 3007 O 285.945 0.817276 -2.38908 0
M  V30 3008 C 287.258 -2.37291 -1.84698 0
M  V30 3009 C 288.806 -2.42906 -1.97397 0
M  V30 3010 C 289.281 -3.69967 -2.69979 0
M  V30 3011 N 290.772 -3.70864 -2.77514 0
M  V30 3012 C 291.507 -4.65875 -3.34287 0
M  V30 3013 N 291.003 -5.71242 -3.91988 0
M  V30 3014 N 292.796 -4.53394 -3.3225 0
M  V30 3015 H 284.947 -2.1028 -0.299347 0
M  V30 3016 H 287.21 -0.927683 -0.195214 0
M  V30 3017 H 286.916 -3.27078 -1.29278 0
M  V30 3018 H 286.79 -2.47125 -2.84972 0
M  V30 3019 H 289.177 -1.53588 -2.51982 0
M  V30 3020 H 289.258 -2.37036 -0.961643 0
M  V30 3021 H 288.902 -4.59652 -2.16062 0
M  V30 3022 H 288.832 -3.73103 -3.7162 0
M  V30 3023 H 291.323 -2.94697 -2.36563 0
M  V30 3024 H 291.636 -6.39817 -4.33421 0
M  V30 3025 H 289.981 -5.75015 -3.90362 0
M  V30 3026 H 293.172 -3.70252 -2.8641 0
M  V30 3027 H 293.345 -5.27617 -3.76197 0
M  V30 3028 N 286.751 1.08385 -1.14413 0
M  V30 3029 C 287.979 1.84517 -0.936001 0
M  V30 3030 C 288.394 1.81626 0.515503 0
M  V30 3031 O 287.751 1.22008 1.35721 0
M  V30 3032 C 287.802 3.32049 -1.42918 0
M  V30 3033 O 287.523 3.34951 -2.82381 0
M  V30 3034 C 289.024 4.24986 -1.26103 0
M  V30 3035 H 286.244 0.582491 -0.333084 0
M  V30 3036 H 288.788 1.36885 -1.5193 0
M  V30 3037 H 286.943 3.7707 -0.888641 0
M  V30 3038 H 287.357 4.27048 -3.04517 0
M  V30 3039 H 288.831 5.26615 -1.6547 0
M  V30 3040 H 289.308 4.38726 -0.20392 0
M  V30 3041 H 289.914 3.85791 -1.79012 0
M  V30 3042 N 288.23 0.939286 1.26551 0
M  V30 3043 C 289.16 0.465044 2.28822 0
M  V30 3044 C 290.141 -0.480692 1.63167 0
M  V30 3045 O 291.326 -0.382955 1.90387 0
M  V30 3046 C 288.456 -0.27234 3.46231 0
M  V30 3047 C 287.41 0.58666 4.2396 0
M  V30 3048 C 286.736 -0.280573 5.33963 0
M  V30 3049 C 288.036 1.85704 4.88171 0
M  V30 3050 H 289.73 1.31979 2.68741 0
M  V30 3051 H 287.276 0.636061 1.29191 0
M  V30 3052 H 289.229 -0.615133 4.16886 0
M  V30 3053 H 287.953 -1.16121 3.0526 0
M  V30 3054 H 286.612 0.91232 3.55067 0
M  V30 3055 H 286.26 -1.16874 4.89234 0
M  V30 3056 H 285.96 0.29076 5.8688 0
M  V30 3057 H 287.484 -0.618678 6.07458 0
M  V30 3058 H 288.898 1.58161 5.51052 0
M  V30 3059 H 287.295 2.37279 5.51197 0
M  V30 3060 H 288.365 2.56957 4.11219 0
M  V30 3061 N 289.708 -1.40897 0.706093 0
M  V30 3062 C 290.933 -2.05895 0.249435 0
M  V30 3063 C 291.358 -1.52823 -1.09666 0
M  V30 3064 O 290.716 -0.659589 -1.68876 0
M  V30 3065 C 290.764 -3.59872 0.22904 0
M  V30 3066 O 289.868 -4.04708 -0.792784 0
M  V30 3067 H 289.209 -0.653206 0.119241 0
M  V30 3068 H 291.739 -1.80471 0.96391 0
M  V30 3069 H 291.749 -4.07951 0.0634791 0
M  V30 3070 H 290.424 -3.97866 1.21141 0
M  V30 3071 H 289.001 -3.68111 -0.59572 0
M  V30 3072 N 291.186 -0.45159 -1.50991 0
M  V30 3073 C 292.149 0.341117 -2.26647 0
M  V30 3074 C 293.149 0.937422 -1.30649 0
M  V30 3075 O 294.339 0.809644 -1.54241 0
M  V30 3076 C 291.471 1.48398 -3.06905 0
M  V30 3077 H 292.664 -0.322117 -2.98165 0
M  V30 3078 H 290.217 -0.205122 -1.54948 0
M  V30 3079 H 290.952 2.18284 -2.39838 0
M  V30 3080 H 290.737 1.06241 -3.77432 0
M  V30 3081 H 292.227 2.04367 -3.64176 0
M  V30 3082 N 292.664 1.56529 -0.183458 0
M  V30 3083 C 293.611 2.18546 0.742055 0
M  V30 3084 C 294.581 1.12912 1.2182 0
M  V30 3085 O 295.766 1.41115 1.28418 0
M  V30 3086 C 292.906 2.83977 1.96089 0
M  V30 3087 C 292.019 4.04105 1.52719 0
M  V30 3088 C 291.154 4.57427 2.70063 0
M  V30 3089 C 290.193 5.69938 2.23243 0
M  V30 3090 N 289.33 6.17717 3.33722 0
M  V30 3091 H 294.17 2.97284 0.206432 0
M  V30 3092 H 291.707 1.46823 0.0901571 0
M  V30 3093 H 293.665 3.20077 2.67594 0
M  V30 3094 H 292.295 2.07822 2.47002 0
M  V30 3095 H 291.347 3.73745 0.708436 0
M  V30 3096 H 292.659 4.85513 1.1436 0
M  V30 3097 H 291.813 4.95772 3.49708 0
M  V30 3098 H 290.552 3.75101 3.11689 0
M  V30 3099 H 289.557 5.31133 1.42048 0
M  V30 3100 H 290.782 6.54073 1.82661 0
M  V30 3101 H 288.728 5.38317 3.74902 0
M  V30 3102 H 288.645 6.94146 2.99495 0
M  V30 3103 H 289.913 6.60713 4.13616 0
M  V30 3104 N 294.142 -0.090211 1.57342 0
M  V30 3105 C 295.39 -0.791241 1.85967 0
M  V30 3106 C 295.711 -1.7903 0.772859 0
M  V30 3107 O 294.981 -1.94872 -0.200398 0
M  V30 3108 H 293.561 -0.295205 0.686195 0
M  V30 3109 H 296.223 -0.0706782 1.94772 0
M  V30 3110 H 295.319 -1.31882 2.82867 0
M  V30 3111 N 295.62 -1.53406 -0.361157 0
M  V30 3112 C 296.866 -1.70054 -1.10496 0
M  V30 3113 C 297.199 -0.453278 -1.88836 0
M  V30 3114 O 296.474 0.5495 -1.86576 0
M  V30 3115 C 296.757 -2.95317 -2.06058 0
M  V30 3116 C 296.61 -4.3021 -1.31298 0
M  V30 3117 C 297.929 -3.16193 -3.06121 0
M  V30 3118 H 295.048 -0.618799 -0.400321 0
M  V30 3119 H 297.69 -1.86052 -0.385318 0
M  V30 3120 H 295.84 -2.81809 -2.67425 0
M  V30 3121 H 297.512 -4.55538 -0.726807 0
M  V30 3122 H 295.755 -4.29421 -0.614853 0
M  V30 3123 H 296.426 -5.14 -2.01265 0
M  V30 3124 H 298.902 -3.28916 -2.5486 0
M  V30 3125 H 297.778 -4.05266 -3.70204 0
M  V30 3126 H 298.039 -2.31676 -3.76535 0
M  V30 3127 N 297.098 0.621204 -1.44841 0
M  V30 3128 C 298.346 1.37783 -1.47852 0
M  V30 3129 C 298.667 1.94653 -0.116224 0
M  V30 3130 O 297.937 1.76367 0.852737 0
M  V30 3131 H 296.517 0.511453 -0.544449 0
M  V30 3132 H 299.179 0.730446 -1.80694 0
M  V30 3133 H 298.275 2.20414 -2.20961 0
M  V30 3134 N 298.576 1.31904 0.862503 0
M  V30 3135 C 299.824 1.21776 1.61292 0
M  V30 3136 C 300.145 -0.222413 1.93727 0
M  V30 3137 O 299.415 -1.1451 1.58947 0
M  V30 3138 H 297.995 0.447717 0.597962 0
M  V30 3139 H 300.657 1.65326 1.03215 0
M  V30 3140 H 299.753 1.7948 2.5533 0
M  V30 3141 N 300.054 -1.07777 1.14986 0
M  V30 3142 C 301.301 -1.8029 0.922056 0
M  V30 3143 C 301.629 -1.86531 -0.55105 0
M  V30 3144 O 300.884 -1.34189 -1.42449 0
M  V30 3145 C 301.183 -3.25495 1.47608 0
M  V30 3146 C 300.849 -3.39361 2.96893 0
M  V30 3147 C 299.511 -3.42852 3.37647 0
M  V30 3148 C 301.863 -3.42512 3.92854 0
M  V30 3149 C 299.191 -3.47094 4.73015 0
M  V30 3150 C 301.543 -3.4829 5.28088 0
M  V30 3151 C 300.207 -3.50058 5.68345 0
M  V30 3152 H 299.477 -0.659727 0.337404 0
M  V30 3153 H 302.124 -1.26854 1.43459 0
M  V30 3154 H 300.429 -3.81683 0.88463 0
M  V30 3155 H 302.126 -3.80168 1.27568 0
M  V30 3156 H 298.716 -3.37339 2.64387 0
M  V30 3157 H 302.9 -3.3904 3.62444 0
M  V30 3158 H 298.156 -3.46758 5.03556 0
M  V30 3159 H 302.33 -3.49675 6.02246 0
M  V30 3160 H 299.957 -3.53097 6.73221 0
M  V30 3161 N 301.532 -0.945985 -1.26051 0
M  V30 3162 C 302.48 -0.450259 -2.282 0
M  V30 3163 C 303.474 0.47497 -1.62605 0
M  V30 3164 O 304.68 0.352653 -1.76512 0
M  V30 3165 H 301.055 -0.127081 -0.741184 0
M  V30 3166 H 303.026 -1.32422 -2.67408 0
M  V30 3167 C 301.775 0.26467 -3.46691 0
M  V30 3168 H 301.098 -0.438123 -3.97392 0
M  V30 3169 H 302.538 0.575678 -4.20074 0
M  V30 3170 C 300.997 1.48416 -3.02447 0
M  V30 3171 O 301.527 2.58227 -3.07704 0
M  V30 3172 N 299.733 1.34243 -2.57735 0
M  V30 3173 H 299.28 0.448994 -2.53657 0
M  V30 3174 H 299.238 2.15957 -2.28495 0
M  V30 3175 N 303.011 1.40521 -0.713556 0
M  V30 3176 C 304.239 2.05237 -0.261775 0
M  V30 3177 C 304.654 1.53755 1.09567 0
M  V30 3178 O 304.011 0.693268 1.6882 0
M  V30 3179 C 304.062 3.60763 -0.230706 0
M  V30 3180 O 303.783 4.10345 -1.53455 0
M  V30 3181 C 305.284 4.42651 0.239874 0
M  V30 3182 H 302.504 0.660533 -0.118057 0
M  V30 3183 H 305.048 1.79967 -0.971192 0
M  V30 3184 H 303.203 3.8501 0.429661 0
M  V30 3185 H 303.617 5.04526 -1.43366 0
M  V30 3186 H 305.091 5.51599 0.210468 0
M  V30 3187 H 305.568 4.20082 1.28171 0
M  V30 3188 H 306.174 4.23507 -0.390142 0
M  V30 3189 N 304.489 0.459591 1.5075 0
M  V30 3190 C 305.738 -0.100971 2.01447 0
M  V30 3191 C 306.051 -1.41816 1.34713 0
M  V30 3192 O 307.257 -2.06299 1.76502 0
M  V30 3193 C 305.713 -0.23047 3.59161 0
M  V30 3194 C 305.321 1.0776 4.34847 0
M  V30 3195 C 307.065 -0.743608 4.17936 0
M  V30 3196 C 304.972 0.91253 5.84317 0
M  V30 3197 H 303.902 -0.0415102 0.752856 0
M  V30 3198 H 306.553 0.592742 1.73663 0
M  V30 3199 H 304.935 -0.987703 3.83485 0
M  V30 3200 H 306.109 1.8449 4.22256 0
M  V30 3201 H 304.424 1.52097 3.87628 0
M  V30 3202 H 307.021 -0.883959 5.27343 0
M  V30 3203 H 307.364 -1.73196 3.78562 0
M  V30 3204 H 307.897 -0.04408 3.97776 0
M  V30 3205 H 304.636 1.87391 6.28144 0
M  V30 3206 H 304.156 0.185422 5.99513 0
M  V30 3207 H 305.835 0.574547 6.44444 0
M  V30 3208 N 305.967 -1.56429 0.191757 0
M  V30 3209 C 306.897 -2.21937 -0.725696 0
M  V30 3210 C 307.878 -1.1814 -1.2238 0
M  V30 3211 O 309.063 -1.46636 -1.27325 0
M  V30 3212 C 306.193 -2.87611 -1.94672 0
M  V30 3213 C 305.147 -3.97623 -1.58366 0
M  V30 3214 C 304.473 -4.50446 -2.88102 0
M  V30 3215 C 305.773 -5.16197 -0.796133 0
M  V30 3216 H 307.467 -2.98861 -0.179606 0
M  V30 3217 H 305.013 -1.43749 -0.0849464 0
M  V30 3218 H 306.966 -3.3212 -2.59373 0
M  V30 3219 H 305.69 -2.08087 -2.51728 0
M  V30 3220 H 304.349 -3.53801 -0.960247 0
M  V30 3221 H 303.997 -3.67688 -3.43241 0
M  V30 3222 H 303.697 -5.24675 -2.64556 0
M  V30 3223 H 305.221 -4.97654 -3.53798 0
M  V30 3224 H 306.635 -5.57271 -1.34618 0
M  V30 3225 H 305.032 -5.96471 -0.658928 0
M  V30 3226 H 306.102 -4.84473 0.203478 0
M  V30 3227 N 307.445 0.0818655 -1.57387 0
M  V30 3228 C 308.392 1.09834 -2.0299 0
M  V30 3229 C 309.362 1.39043 -0.908639 0
M  V30 3230 O 310.547 1.50282 -1.17559 0
M  V30 3231 C 307.687 2.40971 -2.47037 0
M  V30 3232 C 306.8 2.18379 -3.7274 0
M  V30 3233 C 305.935 3.43008 -4.0561 0
M  V30 3234 C 304.974 3.15736 -5.24383 0
M  V30 3235 N 304.111 4.32667 -5.52941 0
M  V30 3236 H 308.951 0.702472 -2.89602 0
M  V30 3237 H 306.488 0.33531 -1.43227 0
M  V30 3238 H 308.446 3.1752 -2.70623 0
M  V30 3239 H 307.076 2.78379 -1.63417 0
M  V30 3240 H 306.128 1.32569 -3.56552 0
M  V30 3241 H 307.44 1.94227 -4.59431 0
M  V30 3242 H 306.594 4.27958 -4.30043 0
M  V30 3243 H 305.333 3.70225 -3.17466 0
M  V30 3244 H 304.338 2.2918 -4.99757 0
M  V30 3245 H 305.563 2.8985 -6.14136 0
M  V30 3246 H 303.509 4.59935 -4.67756 0
M  V30 3247 H 303.426 4.11753 -6.34031 0
M  V30 3248 H 304.694 5.18644 -5.81918 0
M  V30 3249 N 308.923 1.53595 0.353017 0
M  V30 3250 C 309.833 1.83897 1.45667 0
M  V30 3251 C 310.849 0.728334 1.58023 0
M  V30 3252 O 312.025 1.01968 1.73679 0
M  V30 3253 C 309.09 2.03383 2.80778 0
M  V30 3254 C 308.151 3.27262 2.77845 0
M  V30 3255 C 307.384 3.45809 4.06512 0
M  V30 3256 O 307.607 2.68387 5.03314 0
M  V30 3257 O 306.541 4.39207 4.11559 0
M  V30 3258 H 310.367 2.77686 1.2298 0
M  V30 3259 H 307.952 1.39132 0.544308 0
M  V30 3260 H 309.834 2.17698 3.60812 0
M  V30 3261 H 308.509 1.12783 3.03417 0
M  V30 3262 H 307.416 3.18359 1.96465 0
M  V30 3263 H 308.749 4.17824 2.60161 0
M  V30 3264 N 310.401 -0.613514 1.45168 0
M  V30 3265 C 311.65 -1.36874 1.4815 0
M  V30 3266 C 311.963 -1.952 0.124982 0
M  V30 3267 O 313.169 -2.71481 0.0324176 0
M  V30 3268 C 311.625 -2.47905 2.60904 0
M  V30 3269 C 311.233 -1.96016 4.02842 0
M  V30 3270 C 312.977 -3.24965 2.73126 0
M  V30 3271 C 310.884 -3.04494 5.06988 0
M  V30 3272 H 309.814 -0.514428 0.551253 0
M  V30 3273 H 312.465 -0.658182 1.7129 0
M  V30 3274 H 310.847 -3.21618 2.31037 0
M  V30 3275 H 312.021 -1.29051 4.4236 0
M  V30 3276 H 310.336 -1.31719 3.95018 0
M  V30 3277 H 312.933 -4.05865 3.48106 0
M  V30 3278 H 313.276 -3.75588 1.79553 0
M  V30 3279 H 313.809 -2.5835 3.0249 0
M  V30 3280 H 310.548 -2.58795 6.0225 0
M  V30 3281 H 310.068 -3.70044 4.72046 0
M  V30 3282 H 311.747 -3.68976 5.31475 0
M  V30 3283 N 311.879 -1.3236 -0.855495 0
M  V30 3284 C 312.789 -1.23221 -1.99634 0
M  V30 3285 C 313.805 -0.145983 -1.73387 0
M  V30 3286 O 314.981 -0.366502 -1.98037 0
M  V30 3287 C 312.046 -0.954782 -3.33294 0
M  V30 3288 C 311.107 -2.12937 -3.72769 0
M  V30 3289 C 310.34 -1.86508 -5.00051 0
M  V30 3290 O 310.563 -0.807231 -5.64659 0
M  V30 3291 O 309.497 -2.72591 -5.36636 0
M  V30 3292 H 313.323 -2.19126 -2.1028 0
M  V30 3293 H 310.908 -1.12241 -0.986018 0
M  V30 3294 H 312.79 -0.816519 -4.13414 0
M  V30 3295 H 311.465 -0.0258854 -3.2369 0
M  V30 3296 H 310.372 -2.3231 -2.93228 0
M  V30 3297 H 311.705 -3.04102 -3.87018 0
M  V30 3298 N 313.357 1.07166 -1.15556 0
M  V30 3299 C 314.267 2.17947 -0.868116 0
M  V30 3300 C 315.283 1.73297 0.156297 0
M  V30 3301 O 316.459 2.01392 -0.0182327 0
M  V30 3302 C 313.524 3.44789 -0.36355 0
M  V30 3303 C 312.585 4.03996 -1.45209 0
M  V30 3304 C 311.818 5.24783 -0.971508 0
M  V30 3305 O 312.041 5.70109 0.182194 0
M  V30 3306 O 310.975 5.75715 -1.75603 0
M  V30 3307 H 314.801 2.4503 -1.79427 0
M  V30 3308 H 312.386 1.16539 -0.934824 0
M  V30 3309 H 314.268 4.21307 -0.0887113 0
M  V30 3310 H 312.943 3.19253 0.534708 0
M  V30 3311 H 311.85 3.29009 -1.78056 0
M  V30 3312 H 313.183 4.33808 -2.32533 0
M  V30 3313 N 314.835 0.952656 1.25548 0
M  V30 3314 C 316.251 0.656769 1.4546 0
M  V30 3315 C 316.451 -0.78633 1.85524 0
M  V30 3316 O 315.507 -1.56183 1.98402 0
M  V30 3317 C 316.82 1.62801 2.52817 0
M  V30 3318 C 318.368 1.63897 2.66659 0
M  V30 3319 C 318.843 2.5978 3.77198 0
M  V30 3320 N 320.334 2.58133 3.84606 0
M  V30 3321 C 321.069 3.29003 4.69621 0
M  V30 3322 N 320.565 4.09339 5.58939 0
M  V30 3323 N 322.358 3.179 4.63569 0
M  V30 3324 H 314.509 1.88526 0.978344 0
M  V30 3325 H 316.772 0.810815 0.491206 0
M  V30 3326 H 316.478 2.65869 2.30232 0
M  V30 3327 H 316.352 1.38898 3.50695 0
M  V30 3328 H 318.739 0.615481 2.8861 0
M  V30 3329 H 318.82 1.91858 1.69187 0
M  V30 3330 H 318.464 3.62254 3.55997 0
M  V30 3331 H 318.394 2.29105 4.7415 0
M  V30 3332 H 320.885 1.99809 3.20757 0
M  V30 3333 H 321.198 4.6034 6.20731 0
M  V30 3334 H 319.543 4.13438 5.58654 0
M  V30 3335 H 322.734 2.54612 3.92798 0
M  V30 3336 H 322.907 3.73398 5.29602 0
M  V30 3337 N 316.313 -1.40141 0.720998 0
M  V30 3338 C 317.276 -2.29058 0.0805834 0
M  V30 3339 C 318.276 -1.45632 -0.681758 0
M  V30 3340 O 319.466 -1.6648 -0.512856 0
M  V30 3341 C 316.598 -3.28925 -0.895593 0
M  V30 3342 H 317.791 -2.87191 0.863793 0
M  V30 3343 H 315.344 -1.48553 0.485975 0
M  V30 3344 H 316.079 -2.75822 -1.70566 0
M  V30 3345 H 315.864 -3.90519 -0.351766 0
M  V30 3346 H 317.354 -3.95494 -1.34069 0
M  V30 3347 N 317.792 -0.46758 -1.50504 0
M  V30 3348 C 319.203 -0.0116166 -1.86696 0
M  V30 3349 C 319.554 1.39202 -1.38265 0
M  V30 3350 O 318.679 2.0313 -0.746132 0
M  V30 3351 C 319.274 -0.0143044 -3.38797 0
M  V30 3352 C 317.833 0.386175 -3.74414 0
M  V30 3353 C 316.98 -0.401287 -2.74381 0
M  V30 3354 H 319.931 -0.682022 -1.43297 0
M  V30 3355 H 319.952 0.788641 -3.72237 0
M  V30 3356 H 319.464 -1.03602 -3.74016 0
M  V30 3357 H 317.565 1.41237 -3.44794 0
M  V30 3358 H 317.678 0.0899596 -4.79016 0
M  V30 3359 H 316.042 0.144536 -2.5429 0
M  V30 3360 H 316.825 -1.42244 -3.12444 0
M  V30 3361 N 319.27 1.56325 -0.20005 0
M  V30 3362 C 320.2 2.22318 0.713916 0
M  V30 3363 C 321.181 1.18788 1.21752 0
M  V30 3364 O 322.366 1.47309 1.26545 0
M  V30 3365 C 319.496 2.88639 1.93144 0
M  V30 3366 C 318.45 3.98457 1.56255 0
M  V30 3367 C 317.776 4.51967 2.85709 0
M  V30 3368 C 319.076 5.16612 0.768747 0
M  V30 3369 H 320.77 2.98952 0.163755 0
M  V30 3370 H 318.316 1.43792 0.0773219 0
M  V30 3371 H 320.269 3.33491 2.57608 0
M  V30 3372 H 318.993 2.09419 2.50621 0
M  V30 3373 H 317.652 3.54305 0.941471 0
M  V30 3374 H 317.3 3.69503 3.41287 0
M  V30 3375 H 317 5.26071 2.6177 0
M  V30 3376 H 318.524 4.99523 3.51154 0
M  V30 3377 H 319.938 5.57977 1.3166 0
M  V30 3378 H 318.335 5.96812 0.627286 0
M  V30 3379 H 319.405 4.84358 -0.229168 0
M  V30 3380 N 320.748 -0.0735177 1.57428 0
M  V30 3381 C 321.695 -1.08756 2.0357 0
M  V30 3382 C 322.665 -1.38559 0.916 0
M  V30 3383 O 323.85 -1.49656 1.18354 0
M  V30 3384 C 320.99 -2.39657 2.48311 0
M  V30 3385 C 320.103 -2.16399 3.73892 0
M  V30 3386 C 319.238 -3.40852 4.07423 0
M  V30 3387 C 318.277 -3.1295 5.2605 0
M  V30 3388 N 317.414 -4.29729 5.55228 0
M  V30 3389 H 322.254 -0.687104 2.8997 0
M  V30 3390 H 319.791 -0.327709 1.43403 0
M  V30 3391 H 321.749 -3.16081 2.72303 0
M  V30 3392 H 320.379 -2.77508 1.64891 0
M  V30 3393 H 319.431 -1.30676 3.57251 0
M  V30 3394 H 320.743 -1.91788 4.60455 0
M  V30 3395 H 319.897 -4.25671 4.32306 0
M  V30 3396 H 318.636 -3.68537 3.19425 0
M  V30 3397 H 317.641 -2.26526 5.00965 0
M  V30 3398 H 318.866 -2.86589 6.15665 0
M  V30 3399 H 316.812 -4.57448 4.70188 0
M  V30 3400 H 316.729 -4.08385 6.36206 0
M  V30 3401 H 317.997 -5.1555 5.84661 0
M  V30 3402 N 322.226 -1.5378 -0.344866 0
M  V30 3403 C 323.642 -1.44015 -0.687888 0
M  V30 3404 C 323.842 -0.595834 -1.92489 0
M  V30 3405 O 322.898 -0.0863064 -2.52352 0
M  V30 3406 C 324.211 -2.87481 -0.881758 0
M  V30 3407 C 325.759 -2.97247 -0.980459 0
M  V30 3408 C 326.234 -4.41819 -1.20665 0
M  V30 3409 N 327.725 -4.45339 -1.27389 0
M  V30 3410 C 328.46 -5.54333 -1.46639 0
M  V30 3411 N 327.956 -6.73335 -1.63071 0
M  V30 3412 N 329.749 -5.41944 -1.49176 0
M  V30 3413 H 321.9 -2.07169 0.468475 0
M  V30 3414 H 324.163 -0.93643 0.147655 0
M  V30 3415 H 323.869 -3.51672 -0.0443444 0
M  V30 3416 H 323.743 -3.32352 -1.78388 0
M  V30 3417 H 326.13 -2.33197 -1.8084 0
M  V30 3418 H 326.211 -2.5574 -0.0552713 0
M  V30 3419 H 325.855 -5.06449 -0.383652 0
M  V30 3420 H 325.785 -4.80917 -2.14539 0
M  V30 3421 H 328.276 -3.59585 -1.1622 0
M  V30 3422 H 328.589 -7.52165 -1.77391 0
M  V30 3423 H 326.934 -6.76282 -1.60209 0
M  V30 3424 H 330.125 -4.47932 -1.3592 0
M  V30 3425 H 330.298 -6.26946 -1.63837 0
M  V30 3426 N 323.704 0.605807 -1.45491 0
M  V30 3427 C 324.652 1.73754 -1.54636 0
M  V30 3428 C 325.646 1.64207 -0.416219 0
M  V30 3429 O 326.852 1.69979 -0.592199 0
M  V30 3430 H 323.227 0.574073 -0.485741 0
M  V30 3431 H 325.198 1.63169 -2.49837 0
M  V30 3432 C 323.947 3.12135 -1.53189 0
M  V30 3433 H 323.27 3.20141 -2.39478 0
M  V30 3434 H 324.71 3.91147 -1.63645 0
M  V30 3435 C 323.169 3.35921 -0.256616 0
M  V30 3436 O 323.699 3.96194 0.662798 0
M  V30 3437 N 321.905 2.90204 -0.151751 0
M  V30 3438 H 321.452 2.41336 -0.90081 0
M  V30 3439 H 321.41 3.06492 0.700699 0
M  V30 3440 N 325.182 1.32811 0.848464 0
M  V30 3441 C 326.428 1.23907 1.60546 0
M  V30 3442 C 326.761 -0.197161 1.93197 0
M  V30 3443 O 326.036 -1.13596 1.5788 0
M  V30 3444 C 326.319 2.10489 2.92175 0
M  V30 3445 C 326.172 3.62522 2.66266 0
M  V30 3446 C 327.491 1.97075 3.93509 0
M  V30 3447 H 324.61 0.451459 0.58254 0
M  V30 3448 H 327.252 1.62818 0.979296 0
M  V30 3449 H 325.402 1.77434 3.45614 0
M  V30 3450 H 327.074 4.05821 2.19334 0
M  V30 3451 H 325.317 3.84879 2.00126 0
M  V30 3452 H 325.988 4.18437 3.6002 0
M  V30 3453 H 328.464 2.26045 3.49346 0
M  V30 3454 H 327.34 2.59923 4.83457 0
M  V30 3455 H 327.601 0.940186 4.31987 0
M  V30 3456 N 326.66 -1.06551 1.16123 0
M  V30 3457 C 327.937 -1.76097 0.85142 0
M  V30 3458 C 328.317 -2.00802 -0.6513 0
M  V30 3459 O 327.665 -1.63302 -1.59827 0
M  V30 3460 C 327.875 -3.06384 1.67122 0
M  V30 3461 C 329.223 -3.80585 1.88255 0
M  V30 3462 O 330.247 -3.16218 1.63966 0
M  V30 3463 O 329.106 -4.96212 2.2899 0
M  V30 3464 H 326.2 -0.765102 0.313923 0
M  V30 3465 H 328.746 -1.12844 1.26745 0
M  V30 3466 H 327.518 -2.84071 2.69108 0
M  V30 3467 H 327.141 -3.77371 1.25206 0
M  V30 3468 N 328.138 -0.959301 -1.25041 0
M  V30 3469 C 329.07 -0.440543 -2.24926 0
M  V30 3470 C 330.083 0.446131 -1.56568 0
M  V30 3471 O 331.272 0.253657 -1.76689 0
M  V30 3472 C 328.372 0.38412 -3.36716 0
M  V30 3473 C 327.545 -0.490658 -4.34639 0
M  V30 3474 C 326.604 0.276587 -5.25473 0
M  V30 3475 O 325.63 -0.326614 -5.68262 0
M  V30 3476 N 326.832 1.56844 -5.5891 0
M  V30 3477 H 329.597 -1.29931 -2.70071 0
M  V30 3478 H 327.158 -0.830181 -1.38995 0
M  V30 3479 H 329.15 0.905228 -3.94446 0
M  V30 3480 H 327.72 1.14377 -2.90924 0
M  V30 3481 H 326.94 -1.19282 -3.7572 0
M  V30 3482 H 328.228 -1.08756 -4.97041 0
M  V30 3483 H 327.626 2.08036 -5.26059 0
M  V30 3484 H 326.183 2.03541 -6.19205 0
M  V30 3485 N 329.616 1.39756 -0.72842 0
M  V30 3486 C 330.862 2.00942 -0.273892 0
M  V30 3487 C 331.195 1.57656 1.13394 0
M  V30 3488 O 330.47 0.802434 1.77176 0
M  V30 3489 C 330.753 3.58211 -0.368346 0
M  V30 3490 C 330.606 4.11534 -1.81548 0
M  V30 3491 C 331.925 4.39372 0.253054 0
M  V30 3492 H 329.044 0.730047 -0.100996 0
M  V30 3493 H 331.686 1.66056 -0.923337 0
M  V30 3494 H 329.836 3.88061 0.184588 0
M  V30 3495 H 331.508 3.92431 -2.42478 0
M  V30 3496 H 329.751 3.65341 -2.33898 0
M  V30 3497 H 330.422 5.20682 -1.83288 0
M  V30 3498 H 332.898 4.15527 -0.218224 0
M  V30 3499 H 331.774 5.48677 0.156585 0
M  V30 3500 H 332.035 4.21358 1.33826 0
M  V30 3501 N 331.094 0.475555 1.50254 0
M  V30 3502 C 332.004 -0.321501 2.32387 0
M  V30 3503 C 333.02 -0.991755 1.42969 0
M  V30 3504 O 334.196 -0.978747 1.76018 0
M  V30 3505 C 331.261 -1.38667 3.17762 0
M  V30 3506 C 330.322 -0.732538 4.23004 0
M  V30 3507 C 329.555 -1.74695 5.04299 0
M  V30 3508 O 329.778 -2.97399 4.86734 0
M  V30 3509 O 328.712 -1.31631 5.8733 0
M  V30 3510 H 332.538 0.350071 3.01676 0
M  V30 3511 H 330.123 0.237321 1.47503 0
M  V30 3512 H 332.005 -2.00354 3.70724 0
M  V30 3513 H 330.68 -2.04163 2.51196 0
M  V30 3514 H 329.587 -0.0765902 3.74022 0
M  V30 3515 H 330.92 -0.120452 4.92053 0
M  V30 3516 N 332.573 -1.56217 0.208337 0
M  V30 3517 C 333.819 -1.98242 -0.427552 0
M  V30 3518 C 334.152 -1.09554 -1.60348 0
M  V30 3519 O 333.427 -0.15035 -1.93918 0
M  V30 3520 C 333.71 -3.4931 -0.874907 0
M  V30 3521 C 333.563 -4.48773 0.303751 0
M  V30 3522 C 334.882 -4.04424 -1.73577 0
M  V30 3523 H 332.001 -0.720744 -0.153936 0
M  V30 3524 H 334.643 -1.87586 0.30192 0
M  V30 3525 H 332.793 -3.58522 -1.49648 0
M  V30 3526 H 334.465 -4.51586 0.941682 0
M  V30 3527 H 332.708 -4.23194 0.953375 0
M  V30 3528 H 333.379 -5.51976 -0.0519883 0
M  V30 3529 H 335.855 -3.98075 -1.21143 0
M  V30 3530 H 334.731 -5.1047 -2.01771 0
M  V30 3531 H 334.992 -3.50494 -2.69456 0
M  V30 3532 N 334.051 0.0651679 -1.57465 0
M  V30 3533 C 335.299 0.761555 -1.87202 0
M  V30 3534 C 335.62 1.77778 -0.801243 0
M  V30 3535 O 334.89 1.95166 0.16937 0
M  V30 3536 H 333.47 0.284251 -0.690804 0
M  V30 3537 H 336.132 0.0396827 -1.9486 0
M  V30 3538 H 335.228 1.27365 -2.84929 0
M  V30 3539 N 335.529 1.53961 0.336706 0
M  V30 3540 C 336.476 1.82428 1.41381 0
M  V30 3541 C 337.446 0.670444 1.51968 0
M  V30 3542 O 338.631 0.915565 1.67398 0
M  V30 3543 C 335.771 2.04564 2.77934 0
M  V30 3544 C 334.884 3.32267 2.76084 0
M  V30 3545 C 334.019 3.44434 4.04399 0
M  V30 3546 C 333.058 4.66061 3.96804 0
M  V30 3547 N 332.195 4.75224 5.16823 0
M  V30 3548 H 337.035 2.74324 1.16405 0
M  V30 3549 H 334.572 1.35869 0.563752 0
M  V30 3550 H 336.53 2.15388 3.57301 0
M  V30 3551 H 335.16 1.15974 3.01247 0
M  V30 3552 H 334.212 3.3025 1.88784 0
M  V30 3553 H 335.524 4.21733 2.66351 0
M  V30 3554 H 334.678 3.54728 4.92192 0
M  V30 3555 H 333.417 2.53037 4.16921 0
M  V30 3556 H 332.422 4.55838 3.07396 0
M  V30 3557 H 333.647 5.58829 3.85858 0
M  V30 3558 H 331.593 3.86739 5.29876 0
M  V30 3559 H 331.51 5.58636 5.09374 0
M  V30 3560 H 332.778 4.89835 6.06367 0
M  V30 3561 N 337.007 -0.598083 1.45811 0
M  V30 3562 C 338.235 -1.38322 1.53866 0
M  V30 3563 C 338.65 -1.87992 0.174479 0
M  V30 3564 O 338.007 -1.62756 -0.825627 0
M  V30 3565 C 338.058 -2.58125 2.53089 0
M  V30 3566 O 337.779 -2.10516 3.84206 0
M  V30 3567 C 339.28 -3.50869 2.70935 0
M  V30 3568 H 336.5 -0.423093 0.520801 0
M  V30 3569 H 339.044 -0.728527 1.91083 0
M  V30 3570 H 337.199 -3.19615 2.18917 0
M  V30 3571 H 337.613 -2.88425 4.38077 0
M  V30 3572 H 339.087 -4.31451 3.44317 0
M  V30 3573 H 339.564 -4.01822 1.77301 0
M  V30 3574 H 340.17 -2.95225 3.06141 0
M  V30 3575 N 338.485 -1.33259 -0.841409 0
M  V30 3576 C 339.448 -1.23221 -1.9326 0
M  V30 3577 C 340.448 -0.151895 -1.60081 0
M  V30 3578 O 341.638 -0.403246 -1.69468 0
M  V30 3579 C 338.77 -0.898123 -3.28856 0
M  V30 3580 H 339.963 -2.2021 -2.03587 0
M  V30 3581 H 337.516 -1.17281 -1.03319 0
M  V30 3582 H 338.251 0.0693841 -3.24226 0
M  V30 3583 H 338.036 -1.67934 -3.54317 0
M  V30 3584 H 339.526 -0.852563 -4.08805 0
M  V30 3585 N 339.963 1.05934 -1.16686 0
M  V30 3586 C 340.926 2.11669 -0.879144 0
M  V30 3587 C 341.926 1.60294 0.127445 0
M  V30 3588 O 343.116 1.7389 -0.103865 0
M  V30 3589 C 340.248 3.39438 -0.315425 0
M  V30 3590 H 341.441 2.38626 -1.81653 0
M  V30 3591 H 338.994 1.22058 -0.976299 0
M  V30 3592 H 339.729 3.18132 0.629468 0
M  V30 3593 H 339.514 3.78034 -1.04079 0
M  V30 3594 H 341.004 4.17391 -0.132189 0
M  V30 3595 N 341.441 0.965919 1.2453 0
M  V30 3596 C 342.671 0.643451 1.96324 0
M  V30 3597 C 343.079 -0.790927 1.71875 0
M  V30 3598 O 342.422 -1.54208 0.998273 0
M  V30 3599 C 342.484 0.836078 3.49643 0
M  V30 3600 C 342.148 2.24975 3.97788 0
M  V30 3601 C 343.145 3.22735 4.07601 0
M  V30 3602 C 340.83 2.57697 4.31158 0
M  V30 3603 C 342.824 4.51303 4.50116 0
M  V30 3604 C 340.511 3.86492 4.73357 0
M  V30 3605 C 341.509 4.83107 4.828 0
M  V30 3606 O 341.197 6.09605 5.24058 0
M  V30 3607 H 340.929 0.239223 0.632257 0
M  V30 3608 H 343.483 1.29587 1.59362 0
M  V30 3609 H 341.713 0.12649 3.86493 0
M  V30 3610 H 343.402 0.512965 4.02646 0
M  V30 3611 H 344.168 2.98783 3.82039 0
M  V30 3612 H 340.047 1.83216 4.23028 0
M  V30 3613 H 343.591 5.26716 4.57401 0
M  V30 3614 H 339.488 4.10245 4.98366 0
M  V30 3615 H 340.256 6.13146 5.42213 0
M  V30 3616 N 342.919 -1.39368 0.735821 0
M  V30 3617 C 343.849 -2.33234 0.111506 0
M  V30 3618 C 344.83 -1.53954 -0.723334 0
M  V30 3619 O 346.015 -1.82344 -0.668147 0
M  V30 3620 C 343.145 -3.38057 -0.795917 0
M  V30 3621 C 342.099 -4.2795 -0.065172 0
M  V30 3622 C 341.425 -5.23479 -1.08967 0
M  V30 3623 C 342.725 -5.10741 1.09273 0
M  V30 3624 H 344.419 -2.85692 0.895571 0
M  V30 3625 H 341.965 -1.37364 0.432109 0
M  V30 3626 H 343.918 -4.02675 -1.24221 0
M  V30 3627 H 342.642 -2.8404 -1.61211 0
M  V30 3628 H 341.301 -3.64813 0.361511 0
M  V30 3629 H 340.949 -4.65758 -1.89944 0
M  V30 3630 H 340.649 -5.84472 -0.605489 0
M  V30 3631 H 342.173 -5.90974 -1.53565 0
M  V30 3632 H 343.587 -5.68699 0.724841 0
M  V30 3633 H 341.984 -5.8088 1.50659 0
M  V30 3634 H 343.054 -4.45525 1.91404 0
M  V30 3635 N 344.397 -0.483516 -1.5 0
M  V30 3636 C 345.327 0.293829 -2.31644 0
M  V30 3637 C 346.308 0.978864 -1.39112 0
M  V30 3638 O 347.493 0.973644 -1.68029 0
M  V30 3639 C 344.623 1.36897 -3.19181 0
M  V30 3640 C 343.577 0.804833 -4.20365 0
M  V30 3641 C 342.903 1.9792 -4.96721 0
M  V30 3642 C 344.203 -0.192313 -5.21946 0
M  V30 3643 H 345.897 -0.387616 -2.9688 0
M  V30 3644 H 343.443 -0.187856 -1.42769 0
M  V30 3645 H 345.396 1.92037 -3.751 0
M  V30 3646 H 344.12 2.07936 -2.51853 0
M  V30 3647 H 342.779 0.275319 -3.65565 0
M  V30 3648 H 342.427 2.67686 -4.25856 0
M  V30 3649 H 342.127 1.60789 -5.65173 0
M  V30 3650 H 343.651 2.53526 -5.55479 0
M  V30 3651 H 345.065 0.270333 -5.72662 0
M  V30 3652 H 343.462 -0.478543 -5.98189 0
M  V30 3653 H 344.532 -1.11409 -4.71928 0
M  V30 3654 N 345.875 1.56104 -0.216619 0
M  V30 3655 C 347.1 2.0301 0.424462 0
M  V30 3656 C 347.525 1.0955 1.52907 0
M  V30 3657 O 346.883 0.0827914 1.81111 0
M  V30 3658 C 346.931 3.4819 0.937883 0
M  V30 3659 O 346.035 3.57865 2.04955 0
M  V30 3660 H 345.376 0.656925 0.0966755 0
M  V30 3661 H 347.906 2.01859 -0.33381 0
M  V30 3662 H 347.916 3.88413 1.24897 0
M  V30 3663 H 346.591 4.15699 0.129387 0
M  V30 3664 H 345.168 3.29527 1.74546 0
M  V30 3665 N 347.353 -0.0568162 1.57498 0
M  V30 3666 C 348.63 -0.786954 1.79071 0
M  V30 3667 C 349.01 -1.95028 0.80792 0
M  V30 3668 O 348.358 -2.27968 -0.155858 0
M  V30 3669 C 348.568 -1.24594 3.26002 0
M  V30 3670 C 349.916 -1.67323 3.90241 0
M  V30 3671 O 350.94 -1.34124 3.29984 0
M  V30 3672 O 349.799 -2.28842 4.9628 0
M  V30 3673 H 346.893 -0.378262 0.735423 0
M  V30 3674 H 349.439 -0.035734 1.69662 0
M  V30 3675 H 348.211 -0.41423 3.89101 0
M  V30 3676 H 347.834 -2.05803 3.40192 0
M  V30 3677 N 348.832 -1.54138 -0.328536 0
M  V30 3678 C 349.762 -1.86167 -1.40939 0
M  V30 3679 C 350.743 -0.718044 -1.54202 0
M  V30 3680 O 351.928 -0.971328 -1.68163 0
M  V30 3681 C 349.058 -2.08461 -2.77779 0
M  V30 3682 C 348.012 -3.24299 -2.7931 0
M  V30 3683 C 347.338 -3.31955 -4.19178 0
M  V30 3684 C 348.638 -4.62065 -2.43502 0
M  V30 3685 H 350.332 -2.76689 -1.14383 0
M  V30 3686 H 347.878 -1.33132 -0.548806 0
M  V30 3687 H 349.831 -2.29453 -3.53454 0
M  V30 3688 H 348.555 -1.14684 -3.05802 0
M  V30 3689 H 347.214 -3.03187 -2.0609 0
M  V30 3690 H 346.862 -2.35745 -4.44335 0
M  V30 3691 H 346.562 -4.09805 -4.2111 0
M  V30 3692 H 348.086 -3.55175 -4.96672 0
M  V30 3693 H 349.5 -4.8297 -3.08889 0
M  V30 3694 H 347.897 -5.42429 -2.56693 0
M  V30 3695 H 348.967 -4.64652 -1.38659 0
M  V30 3696 N 350.31 0.590341 -1.46126 0
M  V30 3697 C 351.535 1.37991 -1.54833 0
M  V30 3698 C 351.96 1.87163 -0.187506 0
M  V30 3699 O 351.318 1.61133 0.831008 0
M  V30 3700 C 351.366 2.54867 -2.55098 0
M  V30 3701 O 350.47 3.56061 -2.08073 0
M  V30 3702 H 349.811 0.411265 -0.521303 0
M  V30 3703 H 352.341 0.716819 -1.91632 0
M  V30 3704 H 352.351 3.01886 -2.74461 0
M  V30 3705 H 351.026 2.18429 -3.53923 0
M  V30 3706 H 349.603 3.15574 -1.98664 0
M  V30 3707 N 351.788 1.33704 0.83433 0
M  V30 3708 C 353.013 1.28615 1.62705 0
M  V30 3709 C 353.438 -0.139242 1.87584 0
M  V30 3710 O 352.796 -1.09734 1.4432 0
M  V30 3711 C 352.844 2.07139 2.95171 0
M  V30 3712 O 351.948 1.4331 3.86699 0
M  V30 3713 H 351.289 0.44226 0.49528 0
M  V30 3714 H 353.819 1.76335 1.03766 0
M  V30 3715 H 353.829 2.18073 3.44831 0
M  V30 3716 H 352.504 3.10779 2.76386 0
M  V30 3717 H 351.081 1.4105 3.45195 0
M  V30 3718 N 353.266 -1.05314 1.17247 0
M  V30 3719 C 354.514 -1.77941 0.958194 0
M  V30 3720 C 354.835 -1.88089 -0.514556 0
M  V30 3721 O 354.105 -1.39676 -1.37359 0
M  V30 3722 H 352.685 -0.659116 0.351533 0
M  V30 3723 H 355.347 -1.27166 1.47699 0
M  V30 3724 H 354.443 -2.79663 1.38546 0
M  V30 3725 N 354.744 -0.972509 -1.24016 0
M  V30 3726 C 355.99 -0.637978 -1.92504 0
M  V30 3727 C 356.323 0.825383 -1.75787 0
M  V30 3728 O 355.598 1.59442 -1.11393 0
M  V30 3729 C 355.881 -1.01942 -3.45369 0
M  V30 3730 C 355.734 -2.53983 -3.71231 0
M  V30 3731 C 357.053 -0.55751 -4.36555 0
M  V30 3732 H 354.172 -0.233248 -0.699117 0
M  V30 3733 H 356.814 -1.21238 -1.46292 0
M  V30 3734 H 354.964 -0.530656 -3.84859 0
M  V30 3735 H 356.636 -3.10374 -3.41271 0
M  V30 3736 H 354.879 -2.96968 -3.16216 0
M  V30 3737 H 355.55 -2.75723 -4.78206 0
M  V30 3738 H 358.026 -0.977029 -4.04467 0
M  V30 3739 H 356.902 -0.85292 -5.42233 0
M  V30 3740 H 357.163 0.542328 -4.38761 0
M  V30 3741 N 356.222 1.38976 -0.743202 0
M  V30 3742 C 357.45 2.04636 -0.30525 0
M  V30 3743 C 357.865 1.56044 1.06281 0
M  V30 3744 O 357.222 0.728921 1.67311 0
M  V30 3745 C 357.273 3.60193 -0.307177 0
M  V30 3746 O 356.994 4.06998 -1.62124 0
M  V30 3747 C 358.495 4.4306 0.145928 0
M  V30 3748 H 355.715 0.65788 -0.132041 0
M  V30 3749 H 358.259 1.77866 -1.00915 0
M  V30 3750 H 356.414 3.85835 0.347898 0
M  V30 3751 H 356.828 5.01371 -1.54036 0
M  V30 3752 H 358.302 5.51921 0.0934183 0
M  V30 3753 H 358.779 4.22706 1.19231 0
M  V30 3754 H 359.385 4.22584 -0.479886 0
M  V30 3755 N 357.7 0.491464 1.49741 0
M  V30 3756 C 358.948 -0.0563141 2.02022 0
M  V30 3757 C 359.269 -1.38363 1.37407 0
M  V30 3758 O 358.539 -1.88702 0.526166 0
M  V30 3759 H 357.119 -0.0238014 0.746621 0
M  V30 3760 H 359.781 0.646533 1.83864 0
M  V30 3761 H 358.877 -0.192967 3.11503 0
M  V30 3762 N 359.178 -1.55987 0.224894 0
M  V30 3763 C 360.088 -2.24066 -0.69511 0
M  V30 3764 C 361.104 -1.24939 -1.21104 0
M  V30 3765 O 362.28 -1.5776 -1.25195 0
M  V30 3766 C 359.345 -2.90983 -1.88493 0
M  V30 3767 C 358.406 -4.05462 -1.41064 0
M  V30 3768 C 357.639 -4.69179 -2.54375 0
M  V30 3769 O 357.862 -4.31895 -3.72589 0
M  V30 3770 O 356.796 -5.58108 -2.25386 0
M  V30 3771 H 360.622 -3.03353 -0.145149 0
M  V30 3772 H 358.207 -1.49399 -0.00569476 0
M  V30 3773 H 360.089 -3.33209 -2.57972 0
M  V30 3774 H 358.764 -2.14653 -2.42293 0
M  V30 3775 H 357.671 -3.67798 -0.683774 0
M  V30 3776 H 359.004 -4.83545 -0.918985 0
M  V30 3777 N 360.656 0.0484629 -1.57525 0
M  V30 3778 C 361.604 1.07359 -2.06341 0
M  V30 3779 C 362.598 1.3865 -0.973269 0
M  V30 3780 O 363.804 1.37783 -1.15827 0
M  V30 3781 H 360.179 0.363662 -0.65822 0
M  V30 3782 H 362.15 0.635916 -2.91545 0
M  V30 3783 C 360.899 2.37198 -2.54229 0
M  V30 3784 H 360.222 2.13977 -3.37719 0
M  V30 3785 H 361.662 3.07319 -2.92115 0
M  V30 3786 C 360.121 3.04805 -1.43511 0
M  V30 3787 O 360.651 3.93848 -0.79034 0
M  V30 3788 N 358.857 2.65811 -1.17444 0
M  V30 3789 H 358.404 1.93488 -1.70059 0
M  V30 3790 H 358.362 3.11366 -0.435737 0
M  V30 3791 N 362.134 1.5431 0.320358 0
M  V30 3792 C 363.383 1.7188 1.05546 0
M  V30 3793 C 363.696 0.501143 1.89071 0
M  V30 3794 O 364.902 0.558258 2.65699 0
M  V30 3795 C 363.358 3.04025 1.92605 0
M  V30 3796 C 362.966 4.33207 1.14176 0
M  V30 3797 C 364.71 3.30959 2.65832 0
M  V30 3798 C 362.617 5.56412 2.00399 0
M  V30 3799 H 361.547 0.640547 0.397763 0
M  V30 3800 H 364.198 1.80802 0.313522 0
M  V30 3801 H 362.58 2.89019 2.7071 0
M  V30 3802 H 363.754 4.58989 0.40819 0
M  V30 3803 H 362.069 4.13062 0.526165 0
M  V30 3804 H 364.666 4.20203 3.30656 0
M  V30 3805 H 365.009 2.48979 3.33639 0
M  V30 3806 H 365.542 3.46847 1.94787 0
M  V30 3807 H 362.281 6.41004 1.37094 0
M  V30 3808 H 361.801 5.34844 2.7148 0
M  V30 3809 H 363.48 5.92938 2.58908 0
M  V30 3810 N 363.613 -0.582584 1.46437 0
M  V30 3811 C 364.563 -1.68654 1.53426 0
M  V30 3812 C 365.547 -1.55971 0.395194 0
M  V30 3813 O 366.739 -1.64884 0.643612 0
M  V30 3814 C 363.868 -3.07439 1.52762 0
M  V30 3815 C 362.954 -3.25418 2.71963 0
M  V30 3816 N 363.345 -3.13556 3.96883 0
M  V30 3817 C 361.643 -3.56357 2.68189 0
M  V30 3818 C 362.344 -3.33543 4.76575 0
M  V30 3819 N 361.32 -3.58704 4.08451 0
M  V30 3820 H 365.122 -1.58014 2.47808 0
M  V30 3821 H 362.636 -0.786617 1.42078 0
M  V30 3822 H 364.633 -3.86671 1.55857 0
M  V30 3823 H 363.293 -3.1921 0.594573 0
M  V30 3824 H 364.304 -2.9142 4.28129 0
M  V30 3825 H 360.981 -3.74812 1.83908 0
M  V30 3826 H 362.371 -3.29555 5.85528 0
M  V30 3827 N 365.091 -1.34144 -0.827227 0
M  V30 3828 C 366.337 -1.26446 -1.58554 0
M  V30 3829 C 366.67 0.1664 -1.93486 0
M  V30 3830 O 365.945 1.1107 -1.59667 0
M  V30 3831 C 366.228 -2.15111 -2.8879 0
M  V30 3832 C 366.081 -3.66712 -2.60465 0
M  V30 3833 C 367.4 -2.03311 -3.90324 0
M  V30 3834 H 364.519 -0.46067 -0.575284 0
M  V30 3835 H 367.161 -1.64356 -0.953269 0
M  V30 3836 H 365.311 -1.8291 -3.42748 0
M  V30 3837 H 366.983 -4.09259 -2.1285 0
M  V30 3838 H 365.226 -3.88014 -1.93978 0
M  V30 3839 H 365.897 -4.24112 -3.53317 0
M  V30 3840 H 368.373 -2.31574 -3.45706 0
M  V30 3841 H 367.249 -2.67582 -4.79261 0
M  V30 3842 H 367.51 -1.00879 -4.30437 0
M  V30 3843 N 366.569 1.04691 -1.17803 0
M  V30 3844 C 367.846 1.7472 -0.879328 0
M  V30 3845 C 368.226 2.01812 0.619271 0
M  V30 3846 O 367.574 1.65824 1.57209 0
M  V30 3847 C 367.784 3.03686 -1.71976 0
M  V30 3848 C 369.132 3.77542 -1.94286 0
M  V30 3849 O 370.156 3.13569 -1.68976 0
M  V30 3850 O 369.015 4.92506 -2.36855 0
M  V30 3851 H 366.109 0.760011 -0.326056 0
M  V30 3852 H 368.655 1.10813 -1.28525 0
M  V30 3853 H 367.427 2.79754 -2.73594 0
M  V30 3854 H 367.05 3.75332 -1.31194 0
M  V30 3855 N 368.047 0.979072 1.23499 0
M  V30 3856 C 369.272 0.664845 1.96455 0
M  V30 3857 C 369.697 -0.761287 1.72006 0
M  V30 3858 O 369.055 -1.51837 0.990713 0
M  V30 3859 C 369.103 0.959479 3.47601 0
M  V30 3860 O 368.207 0.0508168 4.12369 0
M  V30 3861 H 367.548 0.250185 0.615064 0
M  V30 3862 H 370.078 1.31231 1.5697 0
M  V30 3863 H 370.088 0.895642 3.98048 0
M  V30 3864 H 368.763 1.99876 3.64723 0
M  V30 3865 H 367.34 0.16895 3.72517 0
M  V30 3866 N 369.525 -1.3858 0.750561 0
M  V30 3867 C 370.773 -1.99789 0.30477 0
M  V30 3868 C 371.094 -1.59874 -1.11649 0
M  V30 3869 O 370.364 -0.85417 -1.76297 0
M  V30 3870 H 368.944 -0.738902 0.109694 0
M  V30 3871 H 371.606 -1.69391 0.963983 0
M  V30 3872 H 370.702 -3.09952 0.365499 0
M  V30 3873 N 371.003 -0.499398 -1.49478 0
M  V30 3874 C 372.25 0.0456899 -2.02448 0
M  V30 3875 C 372.578 1.37142 -1.37921 0
M  V30 3876 O 371.833 1.89111 -0.503544 0
M  V30 3877 C 372.132 0.248424 -3.56536 0
M  V30 3878 C 371.798 -0.999107 -4.39692 0
M  V30 3879 C 370.46 -1.34108 -4.62135 0
M  V30 3880 C 372.812 -1.82842 -4.88076 0
M  V30 3881 C 370.14 -2.51191 -5.30208 0
M  V30 3882 C 372.492 -2.99076 -5.57437 0
M  V30 3883 C 371.156 -3.33655 -5.78127 0
M  V30 3884 H 370.426 0.0167191 -0.740811 0
M  V30 3885 H 373.073 -0.65923 -1.79795 0
M  V30 3886 H 371.378 1.03586 -3.77859 0
M  V30 3887 H 373.075 0.684605 -3.95113 0
M  V30 3888 H 369.665 -0.722729 -4.22463 0
M  V30 3889 H 373.849 -1.57737 -4.70566 0
M  V30 3890 H 369.105 -2.78221 -5.44429 0
M  V30 3891 H 373.279 -3.63664 -5.93904 0
M  V30 3892 H 370.906 -4.24483 -6.30649 0
M  V30 3893 N 372.481 1.55866 -0.233164 0
M  V30 3894 C 373.431 2.17442 0.685774 0
M  V30 3895 C 374.415 1.12617 1.14918 0
M  V30 3896 O 375.607 1.3857 1.10124 0
M  V30 3897 C 372.736 2.86685 1.88856 0
M  V30 3898 C 371.822 3.98749 1.4443 0
M  V30 3899 N 372.213 5.00744 0.713364 0
M  V30 3900 C 370.511 4.11052 1.73068 0
M  V30 3901 C 371.212 5.79673 0.485205 0
M  V30 3902 N 370.188 5.33454 1.04536 0
M  V30 3903 H 373.99 2.93659 0.119022 0
M  V30 3904 H 371.504 1.62362 -0.0348995 0
M  V30 3905 H 373.501 3.29218 2.55776 0
M  V30 3906 H 372.161 2.11967 2.45967 0
M  V30 3907 H 373.172 5.16613 0.364861 0
M  V30 3908 H 369.849 3.47495 2.31416 0
M  V30 3909 H 371.239 6.71829 -0.097365 0
M  V30 3910 N 373.959 -0.0401083 1.57549 0
M  V30 3911 C 374.922 -1.02871 2.04817 0
M  V30 3912 C 375.922 -1.29708 0.950388 0
M  V30 3913 O 377.112 -1.24897 1.21435 0
M  V30 3914 C 374.244 -2.36443 2.45576 0
M  V30 3915 H 375.437 -0.620631 2.93408 0
M  V30 3916 H 372.99 -0.286667 1.53649 0
M  V30 3917 H 373.725 -2.82021 1.60108 0
M  V30 3918 H 373.51 -2.18296 3.25713 0
M  V30 3919 H 375 -3.07441 2.82612 0
M  V30 3920 N 375.437 -1.54477 -0.31217 0
M  V30 3921 C 376.686 -1.72438 -1.04633 0
M  V30 3922 C 376.999 -0.511163 -1.88803 0
M  V30 3923 O 378.205 -0.572341 -2.65399 0
M  V30 3924 C 376.661 -3.05043 -1.9099 0
M  V30 3925 C 376.269 -4.33806 -1.11877 0
M  V30 3926 C 378.013 -3.32364 -2.64073 0
M  V30 3927 C 375.92 -5.57467 -1.97445 0
M  V30 3928 H 374.85 -0.642647 -0.394361 0
M  V30 3929 H 377.501 -1.80966 -0.303929 0
M  V30 3930 H 375.883 -2.90451 -2.69173 0
M  V30 3931 H 377.057 -4.59199 -0.383843 0
M  V30 3932 H 375.372 -4.13336 -0.504252 0
M  V30 3933 H 377.969 -4.21951 -3.28423 0
M  V30 3934 H 378.312 -2.50745 -3.32314 0
M  V30 3935 H 378.845 -3.47875 -1.92944 0
M  V30 3936 H 375.584 -6.41722 -1.33692 0
M  V30 3937 H 375.104 -5.36277 -2.6864 0
M  V30 3938 H 376.783 -5.94303 -2.5576 0
M  V30 3939 N 376.915 0.57481 -1.46744 0
M  V30 3940 C 377.862 1.68329 -1.57905 0
M  V30 3941 C 378.832 1.60625 -0.422927 0
M  V30 3942 O 380.017 1.79721 -0.640711 0
M  V30 3943 C 377.157 3.06665 -1.58274 0
M  V30 3944 C 376.27 3.24935 -2.84678 0
M  V30 3945 C 375.405 4.53566 -2.76499 0
M  V30 3946 C 374.444 4.65207 -3.97806 0
M  V30 3947 N 373.581 5.85172 -3.87967 0
M  V30 3948 H 378.421 1.58127 -2.52587 0
M  V30 3949 H 375.958 0.770552 -1.25303 0
M  V30 3950 H 377.916 3.86745 -1.56473 0
M  V30 3951 H 376.546 3.15745 -0.671194 0
M  V30 3952 H 375.598 2.38405 -2.96424 0
M  V30 3953 H 376.91 3.29403 -3.7456 0
M  V30 3954 H 376.064 5.41885 -2.72848 0
M  V30 3955 H 374.803 4.51548 -1.8427 0
M  V30 3956 H 373.808 3.75304 -4.0178 0
M  V30 3957 H 375.033 4.68997 -4.9114 0
M  V30 3958 H 372.979 5.84137 -2.98529 0
M  V30 3959 H 372.896 5.90943 -4.71511 0
M  V30 3960 H 374.164 6.759 -3.88303 0
M  V30 3961 O 378.432 1.44602 0.719209 0
M  V30 3962 H 379.123 1.36947 1.36986 0
M  V30 END ATOM
M  V30 BEGIN BOND
M  V30 END BOND
M  V30 END CTAB
M  END
$$$$
