drugbank_target|Q6IQ20 N-acyl-phosphatidylethanolamine-hydrolyzing phospholipase D (DB14009)
 OpenBabel12092121093D

  0  0  0     0  0            999 V3000
M  V30 BEGIN CTAB
M  V30 COUNTS 6306 6405 0 0 0
M  V30 BEGIN ATOM
M  V30 1 H -0.908 1.98254 -0.117106 0
M  V30 2 N 0 1.576 0 0
M  V30 3 C 0.933 2.03868 1.02534 0
M  V30 4 C 1.911 0.928543 1.3348 0
M  V30 5 O 3.095 1.19667 1.45644 0
M  V30 6 C 0.222 2.43627 2.35294 0
M  V30 7 C -0.732 3.65373 2.2001 0
M  V30 8 S 0.101 5.13292 1.52614 0
M  V30 9 C 1.257 5.56322 2.86805 0
M  V30 10 H 1.49 2.90518 0.631377 0
M  V30 11 H -0.977 1.52953 0.210867 0
M  V30 12 H 0.981 2.67203 3.11629 0
M  V30 13 H -0.358 1.57376 2.7183 0
M  V30 14 H -1.165 3.90944 3.18086 0
M  V30 15 H -1.563 3.418 1.51819 0
M  V30 16 H 0.729 5.58782 3.83104 0
M  V30 17 H 1.672 6.56266 2.65933 0
M  V30 18 H 2.08 4.83886 2.90714 0
M  V30 19 N 1.4781 -0.272755 1.55222 0
M  V30 20 C 2.7551 -1.02562 1.66555 0
M  V30 21 C 3.1351 -2.04282 0.532189 0
M  V30 22 O 2.4831 -2.23662 -0.467717 0
M  V30 23 C 2.6931 -1.6822 3.05782 0
M  V30 24 C 4.0411 -2.19373 3.63539 0
M  V30 25 O 5.0651 -1.78206 3.08417 0
M  V30 26 O 3.9241 -2.94883 4.60115 0
M  V30 27 H 1.0181 -0.475755 0.676451 0
M  V30 28 H 3.5641 -0.268593 1.67561 0
M  V30 29 H 2.3361 -0.945112 3.79715 0
M  V30 30 H 1.9591 -2.50609 3.08676 0
M  V30 31 N 2.9562 -1.48159 -0.537278 0
M  V30 32 C 3.8662 -1.64807 -1.6696 0
M  V30 33 C 4.8822 -0.530651 -1.65711 0
M  V30 34 O 6.0582 -0.800784 -1.84796 0
M  V30 35 C 3.1232 -1.67708 -3.03438 0
M  V30 36 C 2.1842 -2.91025 -3.156 0
M  V30 37 C 1.4172 -2.93778 -4.45567 0
M  V30 38 O 1.6402 -2.05153 -5.3223 0
M  V30 39 O 0.5742 -3.85868 -4.61941 0
M  V30 40 H 4.4002 -2.6066 -1.55853 0
M  V30 41 H 1.9852 -1.31475 -0.709549 0
M  V30 42 H 3.8672 -1.7218 -3.84619 0
M  V30 43 H 2.5422 -0.750278 -3.14885 0
M  V30 44 H 1.4492 -2.92089 -2.33741 0
M  V30 45 H 2.7822 -3.83065 -3.09066 0
M  V30 46 N 4.4343 0.785586 -1.36625 0
M  V30 47 C 5.3823 1.91978 -1.31329 0
M  V30 48 C 6.3763 1.68162 -0.204416 0
M  V30 49 O 7.5823 1.76122 -0.371645 0
M  V30 50 H 3.9573 0.631087 -0.408942 0
M  V30 51 H 5.9283 1.93562 -2.27104 0
M  V30 52 C 4.6773 3.29055 -1.12329 0
M  V30 53 H 4.0003 3.4795 -1.96903 0
M  V30 54 H 5.4403 4.08756 -1.12671 0
M  V30 55 C 3.8993 3.36461 0.171861 0
M  V30 56 O 4.4293 3.84576 1.16035 0
M  V30 57 N 2.6353 2.89782 0.217846 0
M  V30 58 H 2.1823 2.50819 -0.587183 0
M  V30 59 H 2.1403 2.95119 1.08408 0
M  V30 60 N 5.9124 1.20967 1.01018 0
M  V30 61 C 6.8224 0.980157 2.13143 0
M  V30 62 C 7.8384 -0.0660665 1.73875 0
M  V30 63 O 9.0144 0.122821 2.01025 0
M  V30 64 C 6.0794 0.54216 3.42435 0
M  V30 65 C 5.1404 1.65999 3.95908 0
M  V30 66 C 4.3734 1.2428 5.19028 0
M  V30 67 O 4.5964 0.114196 5.70286 0
M  V30 68 O 3.5304 2.05271 5.65816 0
M  V30 69 H 7.3564 1.91913 2.35379 0
M  V30 70 H 4.9414 0.994099 1.11526 0
M  V30 71 H 6.8234 0.30744 4.20277 0
M  V30 72 H 5.4984 -0.36815 3.216 0
M  V30 73 H 4.4054 1.94906 3.19316 0
M  V30 74 H 5.7384 2.54753 4.21143 0
M  V30 75 N 7.3905 -1.2043 1.01659 0
M  V30 76 C 8.6155 -1.94318 0.724942 0
M  V30 77 C 9.0405 -1.74266 -0.708034 0
M  V30 78 O 8.3985 -1.03694 -1.48719 0
M  V30 79 C 8.4465 -3.44486 1.06591 0
M  V30 80 O 7.5505 -4.12017 0.177599 0
M  V30 81 H 6.8915 -0.60708 0.26898 0
M  V30 82 H 9.4215 -1.52861 1.35995 0
M  V30 83 H 9.4315 -3.95106 1.01762 0
M  V30 84 H 8.1065 -3.58404 2.10997 0
M  V30 85 H 6.6835 -3.71821 0.283421 0
M  V30 86 N 8.8686 -0.792821 -1.36206 0
M  V30 87 C 9.8166 -0.181555 -2.3189 0
M  V30 88 C 10.8106 0.661025 -1.55971 0
M  V30 89 O 12.0166 0.555728 -1.71206 0
M  V30 90 H 8.3916 -0.0399382 -0.750939 0
M  V30 91 H 10.3626 -1.00394 -2.81005 0
M  V30 92 C 9.1116 0.666444 -3.41253 0
M  V30 93 H 8.4346 0.0274489 -3.99791 0
M  V30 94 H 9.8746 1.06076 -4.10517 0
M  V30 95 C 8.3336 1.82614 -2.83114 0
M  V30 96 O 8.8636 2.9229 -2.75553 0
M  V30 97 N 7.0696 1.63333 -2.40356 0
M  V30 98 H 6.6166 0.741217 -2.46706 0
M  V30 99 H 6.5746 2.41087 -2.01803 0
M  V30 100 N 10.3467 1.47872 -0.545128 0
M  V30 101 C 11.2787 2.27869 0.246621 0
M  V30 102 C 12.2917 1.36282 0.890561 0
M  V30 103 O 13.4807 1.61207 0.766449 0
M  V30 104 C 10.5807 3.10159 1.36582 0
M  V30 105 C 9.7537 4.29627 0.820954 0
M  V30 106 C 8.8127 4.93607 1.82314 0
M  V30 107 O 7.8387 5.52366 1.37406 0
M  V30 108 N 9.0407 4.87211 3.15603 0
M  V30 109 H 11.8057 2.96459 -0.439539 0
M  V30 110 H 9.3667 1.57367 -0.380421 0
M  V30 111 H 11.3587 3.49829 2.03474 0
M  V30 112 H 9.9287 2.43891 1.9554 0
M  V30 113 H 9.1487 3.94192 -0.0244032 0
M  V30 114 H 10.4367 5.06928 0.436063 0
M  V30 115 H 9.8347 4.40651 3.54744 0
M  V30 116 H 8.3917 5.30937 3.78087 0
M  V30 117 N 11.8248 0.280983 1.55075 0
M  V30 118 C 13.0498 -0.340154 2.04592 0
M  V30 119 C 13.4748 -1.48246 1.15779 0
M  V30 120 O 12.8328 -1.80614 0.15761 0
M  V30 121 C 12.8808 -0.793104 3.5177 0
M  V30 122 O 11.9848 -1.89981 3.66034 0
M  V30 123 H 11.3258 -0.0694289 0.66036 0
M  V30 124 H 13.8558 0.416993 2.00306 0
M  V30 125 H 13.8658 -1.08729 3.93245 0
M  V30 126 H 12.5408 0.0426163 4.15878 0
M  V30 127 H 11.1178 -1.60771 3.36463 0
M  V30 128 N 13.3029 -1.57598 0.00835791 0
M  V30 129 C 14.2329 -2.1198 -0.979113 0
M  V30 130 C 15.2139 -1.03091 -1.35301 0
M  V30 131 O 16.3989 -1.30818 -1.43528 0
M  V30 132 C 13.5289 -2.62995 -2.26828 0
M  V30 133 C 12.4829 -3.76485 -2.03576 0
M  V30 134 C 11.8089 -4.13846 -3.38579 0
M  V30 135 C 13.1089 -5.0342 -1.39161 0
M  V30 136 H 14.8029 -2.94738 -0.526281 0
M  V30 137 H 12.3489 -1.41783 -0.251704 0
M  V30 138 H 14.3019 -2.99669 -2.96271 0
M  V30 139 H 13.0259 -1.7737 -2.7424 0
M  V30 140 H 11.6849 -3.40217 -1.36557 0
M  V30 141 H 11.3329 -3.25232 -3.83709 0
M  V30 142 H 11.0329 -4.90312 -3.23834 0
M  V30 143 H 12.5569 -4.53086 -4.09323 0
M  V30 144 H 13.9709 -5.37812 -1.98573 0
M  V30 145 H 12.3679 -5.84746 -1.34878 0
M  V30 146 H 13.4379 -4.83548 -0.361868 0
M  V30 147 N 14.781 0.264519 -1.55364 0
M  V30 148 C 15.714 1.35297 -1.83766 0
M  V30 149 C 16.692 1.47171 -0.691336 0
M  V30 150 O 17.876 1.63663 -0.935238 0
M  V30 151 C 15.003 2.72847 -2.00679 0
M  V30 152 C 14.049 2.78214 -3.23263 0
M  V30 153 S 14.882 2.36601 -4.80396 0
M  V30 154 C 16.038 3.7611 -5.00292 0
M  V30 155 H 16.271 1.11003 -2.758 0
M  V30 156 H 13.804 0.464596 -1.47244 0
M  V30 157 H 15.762 3.52057 -2.11108 0
M  V30 158 H 14.423 2.94388 -1.09518 0
M  V30 159 H 13.616 3.7919 -3.3201 0
M  V30 160 H 13.218 2.07034 -3.11469 0
M  V30 161 H 15.51 4.71457 -4.86554 0
M  V30 162 H 16.453 3.7231 -6.02321 0
M  V30 163 H 16.861 3.67806 -4.28228 0
M  V30 164 N 16.2591 1.48442 0.529413 0
M  V30 165 C 17.4871 1.60151 1.30994 0
M  V30 166 C 17.9021 0.261985 1.86973 0
M  V30 167 O 17.2591 -0.748805 1.66431 0
M  V30 168 C 17.3101 2.64854 2.46038 0
M  V30 169 O 17.0311 3.93608 1.92365 0
M  V30 170 C 18.5321 2.87007 3.37849 0
M  V30 171 H 15.7521 0.539971 0.398338 0
M  V30 172 H 18.2961 1.94273 0.638597 0
M  V30 173 H 16.4511 2.33589 3.09055 0
M  V30 174 H 16.8651 4.51055 2.67675 0
M  V30 175 H 18.3391 3.64068 4.14919 0
M  V30 176 H 18.8161 1.95852 3.93114 0
M  V30 177 H 19.4221 3.19579 2.80623 0
M  V30 178 N 17.7372 -0.778329 1.37039 0
M  V30 179 C 18.9622 -1.57248 1.35233 0
M  V30 180 C 19.3872 -1.87999 -0.0615568 0
M  V30 181 O 18.7452 -1.48734 -1.03672 0
M  V30 182 C 18.7932 -2.86353 2.19167 0
M  V30 183 O 17.8972 -3.80442 1.59178 0
M  V30 184 H 17.2382 -0.476569 0.462362 0
M  V30 185 H 19.7682 -0.963853 1.80474 0
M  V30 186 H 19.7782 -3.35519 2.32145 0
M  V30 187 H 18.4532 -2.63299 3.21942 0
M  V30 188 H 17.0302 -3.39067 1.55203 0
M  V30 189 N 19.2153 -1.21501 -1.00376 0
M  V30 190 C 20.4403 -1.05977 -1.78279 0
M  V30 191 C 20.8653 0.385994 -1.84097 0
M  V30 192 O 20.2233 1.27849 -1.28547 0
M  V30 193 C 20.2713 -1.66302 -3.19963 0
M  V30 194 O 19.3753 -0.909333 -4.0225 0
M  V30 195 H 18.7163 -0.372906 -0.549397 0
M  V30 196 H 21.2463 -1.6107 -1.26165 0
M  V30 197 H 21.2563 -1.70574 -3.70632 0
M  V30 198 H 19.9313 -2.71515 -3.15043 0
M  V30 199 H 18.5083 -0.941795 -3.60811 0
M  V30 200 N 20.6934 1.19889 -1.02296 0
M  V30 201 C 21.6254 2.22334 -0.556787 0
M  V30 202 C 22.6384 1.58674 0.364199 0
M  V30 203 O 23.8274 1.77768 0.161533 0
M  V30 204 C 20.9274 3.38257 0.208694 0
M  V30 205 C 20.1004 4.31504 -0.71577 0
M  V30 206 C 19.1594 5.262 0.00325597 0
M  V30 207 O 18.1854 5.65798 -0.621357 0
M  V30 208 N 19.3874 5.66303 1.27599 0
M  V30 209 H 22.1524 2.62957 -1.43784 0
M  V30 210 H 19.7134 1.34495 -0.901261 0
M  V30 211 H 21.7054 3.98616 0.699111 0
M  V30 212 H 20.2754 2.96472 0.991102 0
M  V30 213 H 19.4954 3.69016 -1.38638 0
M  V30 214 H 20.7834 4.9072 -1.34428 0
M  V30 215 H 20.1814 5.36155 1.80429 0
M  V30 216 H 18.7384 6.28942 1.71102 0
M  V30 217 N 22.1715 0.800033 1.35784 0
M  V30 218 C 23.4015 0.389041 2.02904 0
M  V30 219 C 23.8095 -1.0027 1.60445 0
M  V30 220 O 23.1525 -1.65633 0.794453 0
M  V30 221 C 23.2145 0.385495 3.57427 0
M  V30 222 C 22.8785 1.72662 4.23127 0
M  V30 223 C 23.8755 2.68385 4.4527 0
M  V30 224 C 21.5605 2.00883 4.60381 0
M  V30 225 C 23.5545 3.90517 5.03761 0
M  V30 226 C 21.2415 3.2328 5.18588 0
M  V30 227 C 22.2395 4.17915 5.40218 0
M  V30 228 O 21.9275 5.38153 5.97199 0
M  V30 229 H 21.6595 0.157032 0.657508 0
M  V30 230 H 24.2135 1.08311 1.74522 0
M  V30 231 H 22.4435 -0.365128 3.84972 0
M  V30 232 H 24.1325 -0.00228296 4.059 0
M  V30 233 H 24.8985 2.47872 4.16874 0
M  V30 234 H 20.7775 1.28037 4.42863 0
M  V30 235 H 24.3215 4.64395 5.2056 0
M  V30 236 H 20.2185 3.43667 5.4641 0
M  V30 237 H 20.9865 5.3936 6.15656 0
M  V30 238 N 23.6496 -1.47581 0.552962 0
M  V30 239 C 25.0606 -1.86324 0.118463 0
M  V30 240 C 25.4116 -1.46006 -1.3106 0
M  V30 241 O 24.5366 -0.861182 -1.98526 0
M  V30 242 C 25.1316 -3.3816 0.20821 0
M  V30 243 C 23.6906 -3.7601 -0.171226 0
M  V30 244 C 22.8376 -2.71634 0.557686 0
M  V30 245 H 25.7886 -1.39159 0.762928 0
M  V30 246 H 25.8096 -3.76141 -0.574278 0
M  V30 247 H 25.3216 -3.67473 1.24841 0
M  V30 248 H 23.4226 -3.52313 -1.21269 0
M  V30 249 H 23.5356 -4.78745 0.184379 0
M  V30 250 H 21.8996 -2.547 0.00125792 0
M  V30 251 H 22.6826 -3.0379 1.59896 0
M  V30 252 N 25.1277 -0.289203 -1.54924 0
M  V30 253 C 26.0747 0.592115 -2.23075 0
M  V30 254 C 27.0447 1.13881 -1.20915 0
M  V30 255 O 28.2297 1.18551 -1.495 0
M  V30 256 C 25.3697 1.76376 -2.96623 0
M  V30 257 C 24.4827 1.24959 -4.13533 0
M  V30 258 C 23.6177 2.38416 -4.74691 0
M  V30 259 C 22.6567 1.84072 -5.83767 0
M  V30 260 N 21.7937 2.91057 -6.38929 0
M  V30 261 H 26.6337 0.00432038 -2.98 0
M  V30 262 H 24.1707 -0.00963529 -1.47097 0
M  V30 263 H 26.1287 2.45268 -3.3749 0
M  V30 264 H 24.7587 2.32337 -2.24097 0
M  V30 265 H 23.8107 0.453307 -3.77689 0
M  V30 266 H 25.1227 0.811662 -4.92152 0
M  V30 267 H 24.2767 3.15276 -5.18349 0
M  V30 268 H 23.0157 2.8553 -3.95378 0
M  V30 269 H 22.0207 1.05697 -5.39545 0
M  V30 270 H 23.2457 1.37877 -6.64956 0
M  V30 271 H 21.1917 3.37526 -5.62505 0
M  V30 272 H 21.1087 2.51724 -7.12861 0
M  V30 273 H 22.3767 3.6785 -6.87246 0
M  V30 274 N 26.6058 1.57591 -0.0167156 0
M  V30 275 C 27.5158 2.1291 0.98521 0
M  V30 276 C 28.5318 1.07834 1.36557 0
M  V30 277 O 29.7078 1.39826 1.44951 0
M  V30 278 C 26.7728 2.63512 2.25305 0
M  V30 279 C 25.8338 3.83256 1.93426 0
M  V30 280 C 25.0668 4.31435 3.14165 0
M  V30 281 O 25.2898 3.78851 4.26413 0
M  V30 282 O 24.2238 5.23416 2.97186 0
M  V30 283 H 28.0498 2.98772 0.544888 0
M  V30 284 H 25.6348 1.48012 0.203141 0
M  V30 285 H 27.5168 2.96183 2.99756 0
M  V30 286 H 26.1918 1.8074 2.68542 0
M  V30 287 H 25.0988 3.55531 1.16398 0
M  V30 288 H 26.4318 4.67153 1.55013 0
M  V30 289 N 28.0839 -0.256276 1.55502 0
M  V30 290 C 29.0469 -1.30047 1.88734 0
M  V30 291 C 30.0469 -1.4154 0.763086 0
M  V30 292 O 31.2369 -1.40403 1.03115 0
M  V30 293 C 28.3689 -2.67953 2.10747 0
M  V30 294 H 29.5619 -1.01802 2.82093 0
M  V30 295 H 27.1149 -0.495134 1.4825 0
M  V30 296 H 27.8499 -3.01351 1.19825 0
M  V30 297 H 27.6349 -2.60993 2.92617 0
M  V30 298 H 29.1249 -3.43368 2.37673 0
M  V30 299 N 29.562 -1.4872 -0.521534 0
M  V30 300 C 30.808 -1.574 -1.27879 0
M  V30 301 C 31.141 -0.250817 -1.92573 0
M  V30 302 O 30.416 0.743934 -1.79711 0
M  V30 303 C 30.699 -2.71843 -2.36164 0
M  V30 304 C 30.552 -4.13893 -1.76105 0
M  V30 305 C 31.871 -2.82008 -3.37875 0
M  V30 306 H 28.99 -0.572941 -0.463581 0
M  V30 307 H 31.632 -1.80927 -0.580119 0
M  V30 308 H 29.782 -2.51914 -2.95756 0
M  V30 309 H 31.454 -4.45284 -1.20499 0
M  V30 310 H 29.697 -4.20498 -1.06601 0
M  V30 311 H 30.368 -4.89804 -2.5455 0
M  V30 312 H 32.844 -3.00086 -2.88249 0
M  V30 313 H 31.72 -3.63796 -4.11028 0
M  V30 314 H 31.981 -1.90511 -3.98946 0
M  V30 315 N 31.0401 0.771051 -1.3745 0
M  V30 316 C 32.4561 1.07171 -1.18265 0
M  V30 317 C 32.6561 2.01491 -0.019287 0
M  V30 318 O 31.7121 2.44244 0.640408 0
M  V30 319 C 33.0251 1.66854 -2.50161 0
M  V30 320 C 34.5731 1.79109 -2.56689 0
M  V30 321 C 35.0481 2.42205 -3.88717 0
M  V30 322 N 36.5391 2.49655 -3.90162 0
M  V30 323 C 37.2741 2.9933 -4.8907 0
M  V30 324 N 36.7701 3.49172 -5.98374 0
M  V30 325 N 38.5631 2.9821 -4.76474 0
M  V30 326 H 30.7141 0.144796 -2.11906 0
M  V30 327 H 32.9771 0.126863 -0.939473 0
M  V30 328 H 32.6831 1.05017 -3.35655 0
M  V30 329 H 32.5571 2.6614 -2.673 0
M  V30 330 H 34.9441 2.40077 -1.71601 0
M  V30 331 H 35.0251 0.785757 -2.43433 0
M  V30 332 H 34.6691 1.81875 -4.74219 0
M  V30 333 H 34.5991 3.43345 -3.99276 0
M  V30 334 H 37.0901 2.14383 -3.11205 0
M  V30 335 H 37.4031 3.8548 -6.69795 0
M  V30 336 H 35.7481 3.47275 -6.02018 0
M  V30 337 H 38.9391 2.58572 -3.90203 0
M  V30 338 H 39.1121 3.36613 -5.53711 0
M  V30 339 N 32.5182 1.22032 0.997298 0
M  V30 340 C 33.4652 0.986467 2.08656 0
M  V30 341 C 34.4352 -0.0902671 1.65855 0
M  V30 342 O 35.6202 0.0584294 1.90711 0
M  V30 343 C 32.7602 0.565569 3.40434 0
M  V30 344 C 31.8732 1.71259 3.96604 0
M  V30 345 C 31.0082 1.24011 5.16522 0
M  V30 346 C 30.0472 2.35896 5.64818 0
M  V30 347 N 29.1842 1.89726 6.7598 0
M  V30 348 H 34.0242 1.91892 2.27994 0
M  V30 349 H 31.5612 0.956199 1.11782 0
M  V30 350 H 33.5192 0.302738 4.161 0
M  V30 351 H 32.1492 -0.329879 3.2111 0
M  V30 352 H 31.2012 2.08986 3.17851 0
M  V30 353 H 32.5132 2.55436 4.28432 0
M  V30 354 H 31.6672 0.934395 5.99461 0
M  V30 355 H 30.4062 0.368487 4.86306 0
M  V30 356 H 29.4112 2.67261 4.8047 0
M  V30 357 H 30.6362 3.23567 5.97061 0
M  V30 358 H 28.5822 1.0492 6.47555 0
M  V30 359 H 28.4992 2.67471 7.07103 0
M  V30 360 H 29.7672 1.62211 7.62435 0
M  V30 361 N 33.9963 -1.19345 1.0293 0
M  V30 362 C 35.4123 -1.41069 0.746446 0
M  V30 363 C 35.6123 -1.90078 -0.668776 0
M  V30 364 O 34.6683 -2.0778 -1.4347 0
M  V30 365 C 35.9813 -2.42141 1.78292 0
M  V30 366 C 37.5293 -2.55887 1.80252 0
M  V30 367 C 38.0043 -3.60214 2.8286 0
M  V30 368 N 39.4953 -3.67711 2.81679 0
M  V30 369 C 40.2303 -4.48128 3.57727 0
M  V30 370 N 39.7263 -5.32248 4.43491 0
M  V30 371 N 41.5193 -4.42782 3.46267 0
M  V30 372 H 33.6703 -0.858536 1.94275 0
M  V30 373 H 35.9333 -0.439541 0.839945 0
M  V30 374 H 35.6393 -2.13155 2.79746 0
M  V30 375 H 35.5133 -3.41323 1.60557 0
M  V30 376 H 37.9003 -2.84196 0.794757 0
M  V30 377 H 37.9813 -1.56858 2.02062 0
M  V30 378 H 37.6253 -3.32647 3.83807 0
M  V30 379 H 37.5553 -4.58895 2.58307 0
M  V30 380 H 40.0463 -3.07634 2.19476 0
M  V30 381 H 40.3593 -5.90729 4.98256 0
M  V30 382 H 38.7043 -5.31707 4.47564 0
M  V30 383 H 41.8953 -3.76107 2.78677 0
M  V30 384 H 42.0683 -5.05215 4.05785 0
M  V30 385 N 35.4744 -0.807222 -1.35358 0
M  V30 386 C 36.4064 -0.175717 -2.28525 0
M  V30 387 C 37.4194 0.625354 -1.5031 0
M  V30 388 O 38.6084 0.457611 -1.72535 0
M  V30 389 C 35.7084 0.773471 -3.29956 0
M  V30 390 C 34.8814 0.0186296 -4.37396 0
M  V30 391 C 33.9404 0.886395 -5.18681 0
M  V30 392 O 32.9664 0.337106 -5.68201 0
M  V30 393 N 34.1684 2.20839 -5.36852 0
M  V30 394 H 36.9334 -0.976091 -2.83359 0
M  V30 395 H 34.4944 -0.662737 -1.47714 0
M  V30 396 H 36.4864 1.35824 -3.81227 0
M  V30 397 H 35.0564 1.47465 -2.75632 0
M  V30 398 H 34.2764 -0.747349 -3.87051 0
M  V30 399 H 35.5644 -0.501577 -5.06322 0
M  V30 400 H 34.9624 2.67858 -4.98265 0
M  V30 401 H 33.5194 2.74237 -5.91301 0
M  V30 402 N 36.9525 1.47285 -0.560781 0
M  V30 403 C 37.9005 2.31756 0.197942 0
M  V30 404 C 38.8945 1.43146 0.905854 0
M  V30 405 O 40.1005 1.59891 0.826733 0
M  V30 406 H 36.4755 0.747438 0.0827049 0
M  V30 407 H 38.4465 2.9359 -0.533629 0
M  V30 408 C 37.1955 3.25874 1.21249 0
M  V30 409 H 36.5185 3.94023 0.67719 0
M  V30 410 H 37.9585 3.87803 1.71419 0
M  V30 411 C 36.4175 2.49651 2.26221 0
M  V30 412 O 36.9475 2.24355 3.33208 0
M  V30 413 N 35.1535 2.10597 2.00243 0
M  V30 414 H 34.7005 2.31369 1.13252 0
M  V30 415 H 34.6585 1.59913 2.70694 0
M  V30 416 N 38.4306 0.297415 1.54768 0
M  V30 417 C 39.6556 -0.318435 2.04941 0
M  V30 418 C 40.0806 -1.4701 1.17345 0
M  V30 419 O 39.4386 -1.80436 0.176758 0
M  V30 420 C 39.4866 -0.755749 3.52592 0
M  V30 421 O 38.5906 -1.86088 3.68028 0
M  V30 422 H 37.9316 -0.062421 0.661059 0
M  V30 423 H 40.4616 0.438215 1.99852 0
M  V30 424 H 40.4716 -1.04552 3.94376 0
M  V30 425 H 39.1466 0.0867233 4.1581 0
M  V30 426 H 37.7236 -1.57193 3.38149 0
M  V30 427 N 39.9087 -1.5758 0.0250728 0
M  V30 428 C 40.8717 -2.08896 -0.943139 0
M  V30 429 C 41.8717 -1.00321 -1.25668 0
M  V30 430 O 43.0617 -1.26495 -1.19769 0
M  V30 431 C 40.1937 -2.55143 -2.26086 0
M  V30 432 H 41.3867 -2.95723 -0.498775 0
M  V30 433 H 38.9397 -1.54703 -0.222888 0
M  V30 434 H 39.6747 -1.71633 -2.75159 0
M  V30 435 H 39.4597 -3.34461 -2.04641 0
M  V30 436 H 40.9497 -2.95083 -2.95492 0
M  V30 437 N 41.3868 0.248026 -1.55636 0
M  V30 438 C 42.8028 0.596483 -1.48035 0
M  V30 439 C 43.0028 1.88386 -0.715039 0
M  V30 440 O 42.0588 2.51319 -0.243944 0
M  V30 441 C 43.3718 0.700258 -2.92433 0
M  V30 442 C 44.9198 0.792659 -3.02797 0
M  V30 443 C 45.3948 0.928005 -4.485 0
M  V30 444 N 46.8858 0.992903 -4.52433 0
M  V30 445 C 47.6208 1.11687 -5.62418 0
M  V30 446 N 47.1168 1.20645 -6.82214 0
M  V30 447 N 48.9098 1.14994 -5.50212 0
M  V30 448 H 41.0608 -0.597109 -2.03834 0
M  V30 449 H 43.3238 -0.205925 -0.925364 0
M  V30 450 H 43.0298 -0.175658 -3.51261 0
M  V30 451 H 42.9038 1.57255 -3.42857 0
M  V30 452 H 45.2908 1.65903 -2.4405 0
M  V30 453 H 45.3718 -0.104762 -2.55585 0
M  V30 454 H 45.0158 0.0661971 -5.07857 0
M  V30 455 H 44.9458 1.84045 -4.93391 0
M  V30 456 H 47.4368 0.935064 -3.66149 0
M  V30 457 H 47.7498 1.30008 -7.61786 0
M  V30 458 H 46.0948 1.17605 -6.84977 0
M  V30 459 H 49.2858 1.07643 -4.55555 0
M  V30 460 H 49.4588 1.24311 -6.35965 0
M  V30 461 N 42.8649 1.48995 0.513639 0
M  V30 462 C 43.8129 1.65199 1.63744 0
M  V30 463 C 44.8069 0.51809 1.61283 0
M  V30 464 O 46.0129 0.697335 1.65943 0
M  V30 465 H 42.3879 0.52069 0.542574 0
M  V30 466 H 44.3589 2.59552 1.47226 0
M  V30 467 C 43.1079 1.72409 3.01945 0
M  V30 468 H 42.4309 2.59029 3.04539 0
M  V30 469 H 43.8709 1.87785 3.80148 0
M  V30 470 C 42.3299 0.46618 3.33659 0
M  V30 471 O 42.8599 -0.413744 3.99564 0
M  V30 472 N 41.0659 0.332931 2.88687 0
M  V30 473 H 40.6129 1.04996 2.35231 0
M  V30 474 H 40.5709 -0.507665 3.10274 0
M  V30 475 N 44.343 -0.763751 1.37857 0
M  V30 476 C 45.568 -1.55805 1.36893 0
M  V30 477 C 45.993 -1.88054 -0.0416135 0
M  V30 478 O 45.351 -1.49825 -1.02089 0
M  V30 479 C 45.399 -2.84012 2.22192 0
M  V30 480 O 44.503 -3.78732 1.63204 0
M  V30 481 H 43.844 -0.471638 0.46739 0
M  V30 482 H 46.374 -0.944657 1.81487 0
M  V30 483 H 46.384 -3.33037 2.35691 0
M  V30 484 H 45.059 -2.59869 3.24716 0
M  V30 485 H 43.636 -3.37402 1.58791 0
M  V30 486 N 45.8211 -1.22559 -0.990812 0
M  V30 487 C 47.0691 -1.04933 -1.72724 0
M  V30 488 C 47.3901 0.416158 -1.90508 0
M  V30 489 O 46.6601 1.29918 -1.46622 0
M  V30 490 H 45.2401 -0.385296 -0.639965 0
M  V30 491 H 47.9021 -1.54105 -1.19322 0
M  V30 492 H 46.9981 -1.52886 -2.72089 0
M  V30 493 N 47.2992 1.18797 -1.03562 0
M  V30 494 C 48.2622 2.20464 -0.626769 0
M  V30 495 C 49.2622 1.57721 0.313173 0
M  V30 496 O 50.4522 1.73917 0.0992615 0
M  V30 497 C 47.5842 3.40802 0.0818498 0
M  V30 498 H 48.7772 2.58149 -1.5264 0
M  V30 499 H 46.3302 1.32593 -0.827578 0
M  V30 500 H 47.0652 3.08642 0.995518 0
M  V30 501 H 46.8502 3.8758 -0.593652 0
M  V30 502 H 48.3402 4.16092 0.354584 0
M  V30 503 N 48.7773 0.814389 1.34928 0
M  V30 504 C 50.0023 0.410097 2.03305 0
M  V30 505 C 50.4273 -0.973464 1.60951 0
M  V30 506 O 49.7853 -1.63185 0.789964 0
M  V30 507 C 49.8333 0.51049 3.56968 0
M  V30 508 O 48.9373 -0.473035 4.09678 0
M  V30 509 H 48.2783 0.170088 0.641846 0
M  V30 510 H 50.8083 1.10244 1.72358 0
M  V30 511 H 50.8183 0.383135 4.06197 0
M  V30 512 H 49.4933 1.51963 3.87144 0
M  V30 513 H 48.0703 -0.305272 3.71648 0
M  V30 514 N 50.2554 -1.46986 0.568584 0
M  V30 515 C 51.5324 -1.95592 -0.0174074 0
M  V30 516 C 51.9124 -1.51124 -1.47393 0
M  V30 517 O 51.2604 -0.755329 -2.15655 0
M  V30 518 C 51.4704 -3.48719 0.139913 0
M  V30 519 C 52.8184 -4.246 0.000426376 0
M  V30 520 O 53.8424 -3.56135 0.0680316 0
M  V30 521 O 52.7014 -5.46302 -0.146988 0
M  V30 522 H 49.7954 -0.82498 -0.0577599 0
M  V30 523 H 52.3414 -1.57335 0.635909 0
M  V30 524 H 51.1134 -3.73927 1.15301 0
M  V30 525 H 50.7364 -3.93771 -0.550491 0
M  V30 526 N 51.7335 -0.305618 -1.54608 0
M  V30 527 C 52.9585 0.307562 -2.05107 0
M  V30 528 C 53.3835 1.46385 -1.18123 0
M  V30 529 O 52.7415 1.8034 -0.186324 0
M  V30 530 C 52.7895 0.73704 -3.52987 0
M  V30 531 O 51.8935 1.84134 -3.6901 0
M  V30 532 H 51.2345 0.0589143 -0.661381 0
M  V30 533 H 53.7645 -0.448807 -1.99617 0
M  V30 534 H 53.7745 1.02459 -3.94925 0
M  V30 535 H 52.4495 -0.108773 -4.15758 0
M  V30 536 H 51.0265 1.55398 -3.38978 0
M  V30 537 N 53.2116 1.57565 -0.0334293 0
M  V30 538 C 54.4366 1.96689 0.657895 0
M  V30 539 C 54.8616 0.910057 1.64619 0
M  V30 540 O 54.2196 -0.128598 1.80843 0
M  V30 541 C 54.2676 3.34905 1.33683 0
M  V30 542 O 53.3716 3.31574 2.45219 0
M  V30 543 H 52.7126 0.641205 0.172489 0
M  V30 544 H 55.2426 2.04372 -0.0965621 0
M  V30 545 H 55.2526 3.71234 1.69262 0
M  V30 546 H 53.9276 4.11366 0.612411 0
M  V30 547 H 52.5046 3.06968 2.11719 0
M  V30 548 N 54.6897 -0.239769 1.55765 0
M  V30 549 C 56.1057 -0.588624 1.48349 0
M  V30 550 C 56.3057 -1.88005 0.72502 0
M  V30 551 O 55.3617 -2.51186 0.257269 0
M  V30 552 C 56.6747 -0.68474 2.928 0
M  V30 553 C 58.2227 -0.77659 3.03213 0
M  V30 554 C 58.6977 -0.904207 4.48986 0
M  V30 555 N 60.1887 -0.968896 4.52953 0
M  V30 556 C 60.9237 -1.08703 5.63002 0
M  V30 557 N 60.4197 -1.17026 6.82845 0
M  V30 558 N 62.2127 -1.12074 5.50814 0
M  V30 559 H 54.3637 0.607911 2.03515 0
M  V30 560 H 56.6267 0.21083 0.924259 0
M  V30 561 H 56.3327 0.194284 3.51163 0
M  V30 562 H 56.2067 -1.55435 3.43686 0
M  V30 563 H 58.5937 -1.64606 2.44926 0
M  V30 564 H 58.6747 0.118315 2.55526 0
M  V30 565 H 58.3187 -0.0392633 5.07885 0
M  V30 566 H 58.2487 -1.81426 4.9436 0
M  V30 567 H 60.7397 -0.915633 3.6664 0
M  V30 568 H 61.0527 -1.25966 7.62465 0
M  V30 569 H 59.3977 -1.13971 6.85591 0
M  V30 570 H 62.5887 -1.05226 4.5612 0
M  V30 571 H 62.7617 -1.20936 6.36615 0
M  V30 572 N 56.1678 -1.49265 -0.50573 0
M  V30 573 C 57.4148 -1.58513 -1.26015 0
M  V30 574 C 57.7428 -0.26972 -1.92621 0
M  V30 575 O 56.9978 0.741997 -1.81088 0
M  V30 576 C 57.2968 -2.69008 -2.35308 0
M  V30 577 C 56.9628 -4.10662 -1.86192 0
M  V30 578 C 55.6248 -4.49212 -1.72516 0
M  V30 579 C 57.9768 -4.99336 -1.49375 0
M  V30 580 C 55.3048 -5.74214 -1.20394 0
M  V30 581 C 57.6568 -6.24852 -0.987072 0
M  V30 582 C 56.3208 -6.62236 -0.836669 0
M  V30 583 H 55.5908 -0.580041 -0.461122 0
M  V30 584 H 58.2378 -1.83078 -0.561665 0
M  V30 585 H 56.5428 -2.38396 -3.10926 0
M  V30 586 H 58.2398 -2.73373 -2.93374 0
M  V30 587 H 54.8298 -3.8023 -1.97795 0
M  V30 588 H 59.0138 -4.70212 -1.5879 0
M  V30 589 H 54.2698 -6.01883 -1.07458 0
M  V30 590 H 58.4438 -6.92944 -0.692983 0
M  V30 591 H 56.0708 -7.58979 -0.430607 0
M  V30 592 N 57.6459 0.756429 -1.3826 0
M  V30 593 C 58.8709 1.55077 -1.37717 0
M  V30 594 C 59.2959 1.88073 0.03164 0
M  V30 595 O 58.6539 1.50364 1.01293 0
M  V30 596 C 58.7019 2.8283 -2.23695 0
M  V30 597 O 57.8059 3.77862 -1.6521 0
M  V30 598 H 57.1469 0.469152 -0.469885 0
M  V30 599 H 59.6769 0.935019 -1.81985 0
M  V30 600 H 59.6869 3.31783 -2.37453 0
M  V30 601 H 58.3619 2.58144 -3.2609 0
M  V30 602 H 56.9389 3.36555 -1.60578 0
M  V30 603 N 59.124 1.23083 0.984299 0
M  V30 604 C 60.54 0.992637 1.24975 0
M  V30 605 C 60.74 -0.308618 1.99123 0
M  V30 606 O 59.796 -1.02905 2.30579 0
M  V30 607 C 61.109 2.19698 2.05312 0
M  V30 608 C 62.657 2.24147 2.18465 0
M  V30 609 C 63.132 3.44157 3.02192 0
M  V30 610 N 64.623 3.44372 3.09777 0
M  V30 611 C 65.358 4.33886 3.74874 0
M  V30 612 N 64.854 5.3363 4.41827 0
M  V30 613 N 66.647 4.21639 3.71721 0
M  V30 614 H 58.798 2.06731 0.487453 0
M  V30 615 H 61.061 0.906339 0.277944 0
M  V30 616 H 60.767 3.1411 1.58201 0
M  V30 617 H 60.641 2.20465 3.06064 0
M  V30 618 H 63.028 1.30277 2.64786 0
M  V30 619 H 63.109 2.27415 1.17115 0
M  V30 620 H 62.753 4.38332 2.56568 0
M  V30 621 H 62.683 3.3813 4.03702 0
M  V30 622 H 65.174 2.72201 2.62135 0
M  V30 623 H 65.487 5.98196 4.89266 0
M  V30 624 H 63.832 5.37534 4.40548 0
M  V30 625 H 67.023 3.42962 3.18582 0
M  V30 626 H 67.196 4.91604 4.22173 0
M  V30 627 N 60.6021 -1.18246 1.0419 0
M  V30 628 C 61.5491 -2.2192 0.634037 0
M  V30 629 C 62.5191 -1.62179 -0.358765 0
M  V30 630 O 63.7041 -1.89122 -0.252466 0
M  V30 631 C 60.8441 -3.451 0.00445535 0
M  V30 632 C 59.9571 -4.19174 1.04487 0
M  V30 633 C 59.0921 -5.29813 0.383676 0
M  V30 634 C 58.1311 -5.9566 1.4091 0
M  V30 635 N 57.2681 -6.97834 0.772784 0
M  V30 636 H 62.1081 -2.56164 1.52263 0
M  V30 637 H 59.6451 -1.25843 0.761701 0
M  V30 638 H 61.6031 -4.15485 -0.377919 0
M  V30 639 H 60.2331 -3.11472 -0.847652 0
M  V30 640 H 59.2851 -3.47604 1.54518 0
M  V30 641 H 60.5971 -4.64267 1.82368 0
M  V30 642 H 59.7511 -6.06677 -0.0528366 0
M  V30 643 H 58.4901 -4.85825 -0.427208 0
M  V30 644 H 57.4951 -5.17535 1.85574 0
M  V30 645 H 58.7201 -6.4173 2.22171 0
M  V30 646 H 56.6661 -6.55998 -0.0177708 0
M  V30 647 H 56.5831 -7.41186 1.48928 0
M  V30 648 H 57.8511 -7.78665 0.36071 0
M  V30 649 N 62.0802 -0.821533 -1.34494 0
M  V30 650 C 63.3052 -0.420873 -2.03085 0
M  V30 651 C 63.7302 0.964915 -1.61465 0
M  V30 652 O 63.0882 1.62763 -0.798607 0
M  V30 653 C 63.1362 -0.529414 -3.56693 0
M  V30 654 O 62.2402 0.451302 -4.09923 0
M  V30 655 H 61.5812 -0.173489 -0.640935 0
M  V30 656 H 64.1112 -1.11157 -1.71771 0
M  V30 657 H 64.1212 -0.404671 -4.05988 0
M  V30 658 H 62.7962 -1.54014 -3.86332 0
M  V30 659 H 61.3732 0.285558 -3.71805 0
M  V30 660 N 63.5583 1.46682 -0.576371 0
M  V30 661 C 64.8053 2.02412 -0.0595339 0
M  V30 662 C 65.1333 1.44859 1.29793 0
M  V30 663 O 64.3883 0.601099 1.8624 0
M  V30 664 C 64.6873 3.57345 0.062886 0
M  V30 665 C 64.3533 4.33908 -1.22616 0
M  V30 666 C 63.0153 4.54544 -1.57933 0
M  V30 667 C 65.3673 4.77919 -2.07948 0
M  V30 668 C 62.6953 5.16444 -2.78393 0
M  V30 669 C 65.0473 5.41149 -3.27629 0
M  V30 670 C 63.7113 5.60014 -3.63236 0
M  V30 671 H 62.9813 0.74068 -0.021785 0
M  V30 672 H 65.6283 1.76128 -0.751735 0
M  V30 673 H 63.9333 3.82729 0.838178 0
M  V30 674 H 65.6303 3.98136 0.478439 0
M  V30 675 H 62.2203 4.18138 -0.941202 0
M  V30 676 H 66.4043 4.61738 -1.81967 0
M  V30 677 H 61.6603 5.29242 -3.06126 0
M  V30 678 H 65.8343 5.74211 -3.94023 0
M  V30 679 H 63.4613 6.07748 -4.56669 0
M  V30 680 N 65.0364 0.313813 1.54444 0
M  V30 681 C 65.9834 -0.55655 2.23989 0
M  V30 682 C 66.9534 -1.11943 1.22711 0
M  V30 683 O 68.1384 -1.16158 1.51367 0
M  V30 684 C 65.2784 -1.71635 2.99392 0
M  V30 685 C 64.3914 -1.18364 4.15468 0
M  V30 686 C 63.5264 -2.30834 4.78424 0
M  V30 687 C 62.5654 -1.74762 5.86622 0
M  V30 688 N 61.7024 -2.80855 6.43479 0
M  V30 689 H 66.5424 0.0430893 2.97969 0
M  V30 690 H 64.0794 0.0330359 1.47063 0
M  V30 691 H 66.0374 -2.39868 3.41349 0
M  V30 692 H 64.6674 -2.28742 2.27765 0
M  V30 693 H 63.7194 -0.393163 3.78363 0
M  V30 694 H 65.0314 -0.733262 4.93381 0
M  V30 695 H 64.1854 -3.0699 5.23299 0
M  V30 696 H 62.9244 -2.79204 3.99871 0
M  V30 697 H 61.9294 -0.970995 5.41158 0
M  V30 698 H 63.1544 -1.2728 6.67066 0
M  V30 699 H 61.1004 -3.28535 5.67804 0
M  V30 700 H 61.0174 -2.40351 7.16776 0
M  V30 701 H 62.2854 -3.5687 6.93011 0
M  V30 702 N 66.5145 -1.57545 0.0417849 0
M  V30 703 C 67.4445 -2.14009 -0.933929 0
M  V30 704 C 68.4255 -1.05938 -1.33083 0
M  V30 705 O 69.6105 -1.33833 -1.40721 0
M  V30 706 C 66.7405 -2.67747 -2.21199 0
M  V30 707 C 65.6945 -3.80718 -1.95544 0
M  V30 708 C 65.0205 -4.20935 -3.29724 0
M  V30 709 C 66.3205 -5.06258 -1.28452 0
M  V30 710 H 68.0145 -2.95788 -0.463645 0
M  V30 711 H 65.5605 -1.42285 -0.221573 0
M  V30 712 H 67.5135 -3.05886 -2.89848 0
M  V30 713 H 66.2375 -1.83147 -2.70416 0
M  V30 714 H 64.8965 -3.43037 -1.2931 0
M  V30 715 H 64.5445 -3.33298 -3.76724 0
M  V30 716 H 64.2445 -4.9707 -3.13361 0
M  V30 717 H 65.7685 -4.61666 -3.9962 0
M  V30 718 H 67.1825 -5.41903 -1.8712 0
M  V30 719 H 65.5795 -5.87475 -1.22445 0
M  V30 720 H 66.6495 -4.84207 -0.259219 0
M  V30 721 N 67.9926 0.231505 -1.5589 0
M  V30 722 C 69.2696 0.981096 -1.69215 0
M  V30 723 C 69.6496 2.02799 -0.586164 0
M  V30 724 O 68.9976 2.24823 0.408253 0
M  V30 725 C 69.2076 1.60054 -3.10135 0
M  V30 726 C 70.5556 2.09658 -3.69227 0
M  V30 727 O 71.5796 1.69967 -3.13033 0
M  V30 728 O 70.4386 2.8258 -4.67772 0
M  V30 729 H 67.5326 0.457653 -0.688827 0
M  V30 730 H 70.0786 0.224073 -1.68214 0
M  V30 731 H 68.8506 0.844105 -3.82087 0
M  V30 732 H 68.4736 2.42336 -3.15212 0
M  V30 733 N 69.4707 1.49531 0.497807 0
M  V30 734 C 70.7007 1.62657 1.27382 0
M  V30 735 C 71.1087 0.298488 1.86831 0
M  V30 736 O 70.4517 -0.72647 1.68725 0
M  V30 737 C 70.5137 2.6393 2.44093 0
M  V30 738 C 70.1777 4.08195 2.05489 0
M  V30 739 C 71.1747 4.949 1.59279 0
M  V30 740 C 68.8597 4.53948 2.15026 0
M  V30 741 C 70.8537 6.25397 1.23113 0
M  V30 742 C 68.5407 5.84458 1.78473 0
M  V30 743 C 69.5387 6.70006 1.32591 0
M  V30 744 O 69.2267 7.98083 0.965327 0
M  V30 745 H 68.9587 0.550429 0.392434 0
M  V30 746 H 71.5127 1.96325 0.603801 0
M  V30 747 H 69.7427 2.25449 3.14181 0
M  V30 748 H 71.4317 2.66552 3.06113 0
M  V30 749 H 72.1977 4.60779 1.51354 0
M  V30 750 H 68.0767 3.87525 2.4969 0
M  V30 751 H 71.6207 6.92125 0.872299 0
M  V30 752 H 67.5177 6.18107 1.86048 0
M  V30 753 H 68.2857 8.11122 1.09652 0
M  V30 754 N 70.9488 -0.749086 1.3866 0
M  V30 755 C 72.3648 -1.05276 1.19955 0
M  V30 756 C 72.5648 -2.01435 0.05134 0
M  V30 757 O 71.6208 -2.45232 -0.60147 0
M  V30 758 C 72.9338 -1.62853 2.52783 0
M  V30 759 C 74.4818 -1.75002 2.59506 0
M  V30 760 C 74.9568 -2.35991 3.92521 0
M  V30 761 N 76.4478 -2.43416 3.94085 0
M  V30 762 C 77.1828 -2.91511 4.9377 0
M  V30 763 N 76.6788 -3.39608 6.03853 0
M  V30 764 N 78.4718 -2.90592 4.81157 0
M  V30 765 H 70.6228 -0.111066 2.12109 0
M  V30 766 H 72.8858 -0.111901 0.941373 0
M  V30 767 H 72.5918 -0.99664 3.37283 0
M  V30 768 H 72.4658 -2.61854 2.715 0
M  V30 769 H 74.8528 -2.37317 1.75398 0
M  V30 770 H 74.9338 -0.74693 2.44652 0
M  V30 771 H 74.5778 -1.74308 4.77053 0
M  V30 772 H 74.5078 -3.3695 4.04688 0
M  V30 773 H 76.9988 -2.09405 3.14576 0
M  V30 774 H 77.3118 -3.74775 6.75843 0
M  V30 775 H 75.6568 -3.37653 6.07466 0
M  V30 776 H 78.8478 -2.52332 3.94267 0
M  V30 777 H 79.0208 -3.27762 5.58996 0
M  V30 778 N 72.4269 -1.23603 -0.977757 0
M  V30 779 C 73.3569 -1.04401 -2.0886 0
M  V30 780 C 74.3379 0.0399052 -1.70053 0
M  V30 781 O 75.5229 -0.125246 -1.93796 0
M  V30 782 C 72.6529 -0.637269 -3.41403 0
M  V30 783 C 71.6069 -1.66883 -3.94124 0
M  V30 784 C 70.9329 -1.11745 -5.22893 0
M  V30 785 C 72.2329 -3.06247 -4.23096 0
M  V30 786 H 73.9269 -1.97316 -2.25182 0
M  V30 787 H 71.4729 -0.950096 -1.08209 0
M  V30 788 H 73.4259 -0.48998 -4.18542 0
M  V30 789 H 72.1499 0.327557 -3.24953 0
M  V30 790 H 70.8089 -1.80416 -3.19133 0
M  V30 791 H 70.4569 -0.143527 -5.02795 0
M  V30 792 H 70.1569 -1.80672 -5.59134 0
M  V30 793 H 71.6809 -0.982067 -6.02651 0
M  V30 794 H 73.0949 -2.96001 -4.90975 0
M  V30 795 H 71.4919 -3.72436 -4.70544 0
M  V30 796 H 72.5619 -3.55041 -3.30263 0
M  V30 797 N 73.905 1.17692 -1.04816 0
M  V30 798 C 74.815 2.25229 -0.65643 0
M  V30 799 C 75.831 1.71018 0.320761 0
M  V30 800 O 77.007 2.00649 0.173805 0
M  V30 801 C 74.072 3.46684 -0.0332629 0
M  V30 802 C 73.133 4.15997 -1.06042 0
M  V30 803 C 72.366 5.31654 -0.466893 0
M  V30 804 O 72.589 5.65777 0.724758 0
M  V30 805 O 71.523 5.89831 -1.1993 0
M  V30 806 H 75.349 2.61016 -1.55255 0
M  V30 807 H 72.934 1.24919 -0.81949 0
M  V30 808 H 74.816 4.20234 0.313256 0
M  V30 809 H 73.491 3.12703 0.836566 0
M  V30 810 H 72.398 3.44482 -1.45886 0
M  V30 811 H 73.731 4.53996 -1.90127 0
M  V30 812 N 75.3831 0.828654 1.34056 0
M  V30 813 C 76.2931 0.256725 2.33191 0
M  V30 814 C 77.3091 -0.611898 1.62886 0
M  V30 815 O 78.4851 -0.51844 1.94613 0
M  V30 816 C 75.5501 -0.567238 3.42028 0
M  V30 817 C 74.6111 0.324458 4.28072 0
M  V30 818 C 73.8441 -0.460274 5.31712 0
M  V30 819 O 74.0671 -1.693 5.44696 0
M  V30 820 O 73.0011 0.160391 6.01686 0
M  V30 821 H 76.8271 1.07739 2.83947 0
M  V30 822 H 74.4121 0.59093 1.37217 0
M  V30 823 H 76.2941 -1.03582 4.08471 0
M  V30 824 H 74.9691 -1.36513 2.93506 0
M  V30 825 H 73.8761 0.840659 3.64532 0
M  V30 826 H 75.2091 1.08685 4.8005 0
M  V30 827 N 76.8612 -1.46375 0.584142 0
M  V30 828 C 78.1382 -1.956 0.0033388 0
M  V30 829 C 78.5182 -1.52679 -1.45782 0
M  V30 830 O 77.8662 -0.77816 -2.14842 0
M  V30 831 C 78.0762 -3.48551 0.176891 0
M  V30 832 C 79.4242 -4.24576 0.0454609 0
M  V30 833 O 80.4482 -3.56043 0.105801 0
M  V30 834 O 79.3072 -5.46427 -0.0890376 0
M  V30 835 H 76.4012 -0.825547 -0.0490066 0
M  V30 836 H 78.9472 -1.56652 0.65256 0
M  V30 837 H 77.7192 -3.72683 1.1926 0
M  V30 838 H 77.3422 -3.94332 -0.508695 0
M  V30 839 N 78.3393 -0.321999 -1.54275 0
M  V30 840 C 79.5853 0.281461 -2.00837 0
M  V30 841 C 79.9183 1.51909 -1.20985 0
M  V30 842 O 79.1933 1.923 -0.291733 0
M  V30 843 C 79.4763 0.617162 -3.54772 0
M  V30 844 C 79.3293 -0.631064 -4.45351 0
M  V30 845 C 80.6483 1.43542 -4.16033 0
M  V30 846 H 77.7673 0.100826 -0.730071 0
M  V30 847 H 80.4093 -0.438268 -1.84876 0
M  V30 848 H 78.5593 1.23034 -3.68504 0
M  V30 849 H 80.2313 -1.26934 -4.43492 0
M  V30 850 H 78.4743 -1.26025 -4.15091 0
M  V30 851 H 79.1453 -0.351735 -5.50878 0
M  V30 852 H 81.6213 0.917134 -4.05867 0
M  V30 853 H 80.4973 1.63907 -5.23856 0
M  V30 854 H 80.7583 2.43108 -3.69257 0
M  V30 855 N 79.8174 1.5752 -0.0501392 0
M  V30 856 C 81.0454 1.96963 0.633492 0
M  V30 857 C 81.4604 0.927631 1.6444 0
M  V30 858 O 80.8174 -0.0882665 1.82286 0
M  V30 859 C 80.8684 3.36487 1.32132 0
M  V30 860 O 80.5894 4.36693 0.350894 0
M  V30 861 C 82.0904 3.90682 2.09481 0
M  V30 862 H 79.3104 0.648244 0.173266 0
M  V30 863 H 81.8544 2.0417 -0.116134 0
M  V30 864 H 80.0094 3.30434 2.02218 0
M  V30 865 H 80.4234 5.17702 0.841735 0
M  V30 866 H 81.8974 4.90591 2.5303 0
M  V30 867 H 82.3744 3.26053 2.94255 0
M  V30 868 H 82.9804 4.00069 1.44307 0
M  V30 869 N 81.2955 -0.223234 1.56011 0
M  V30 870 C 82.2425 -1.27664 1.92277 0
M  V30 871 C 83.2125 -1.46659 0.779763 0
M  V30 872 O 84.3975 -1.60256 1.03551 0
M  V30 873 C 81.5375 -2.62234 2.24338 0
M  V30 874 C 80.6505 -2.51051 3.51564 0
M  V30 875 C 79.7855 -3.78133 3.7308 0
M  V30 876 C 78.8245 -3.61665 4.93827 0
M  V30 877 N 77.9615 -4.80693 5.11741 0
M  V30 878 H 82.8015 -0.960358 2.82101 0
M  V30 879 H 80.3385 -0.462901 1.39627 0
M  V30 880 H 82.2965 -3.40596 2.40936 0
M  V30 881 H 80.9265 -2.91961 1.3769 0
M  V30 882 H 79.9785 -1.64132 3.43169 0
M  V30 883 H 81.2905 -2.34803 4.40079 0
M  V30 884 H 80.4445 -4.64938 3.89766 0
M  V30 885 H 79.1835 -3.97304 2.82844 0
M  V30 886 H 78.1885 -2.73244 4.77093 0
M  V30 887 H 79.4135 -3.43966 5.85546 0
M  V30 888 H 77.3595 -5.00181 4.24446 0
M  V30 889 H 77.2765 -4.67165 5.94384 0
M  V30 890 H 78.5445 -5.6893 5.3286 0
M  V30 891 N 82.7736 -1.49793 -0.48987 0
M  V30 892 C 83.9986 -1.63836 -1.27172 0
M  V30 893 C 84.4236 -0.31402 -1.8546 0
M  V30 894 O 83.7816 0.719803 -1.66399 0
M  V30 895 C 83.8296 -2.71797 -2.36978 0
M  V30 896 O 82.9336 -2.31744 -3.41128 0
M  V30 897 H 82.2746 -0.547997 -0.37496 0
M  V30 898 H 84.8046 -1.96053 -0.585191 0
M  V30 899 H 84.8146 -2.94305 -2.82575 0
M  V30 900 H 83.4896 -3.67923 -1.93921 0
M  V30 901 H 82.0666 -2.1961 -3.01373 0
M  V30 902 N 84.2517 0.741722 -1.39055 0
M  V30 903 C 85.1987 1.85566 -1.37237 0
M  V30 904 C 86.1687 1.64457 -0.233072 0
M  V30 905 O 87.3537 1.85957 -0.427147 0
M  V30 906 C 84.4937 3.23004 -1.215 0
M  V30 907 C 83.6067 3.55864 -2.44918 0
M  V30 908 C 82.7417 4.82669 -2.21821 0
M  V30 909 C 81.7807 5.08351 -3.40948 0
M  V30 910 N 80.9177 6.26356 -3.17211 0
M  V30 911 H 85.7577 1.86455 -2.32462 0
M  V30 912 H 83.2947 0.911176 -1.15482 0
M  V30 913 H 85.2527 4.02331 -1.10389 0
M  V30 914 H 83.8827 3.21411 -0.29908 0
M  V30 915 H 82.9347 2.7129 -2.66657 0
M  V30 916 H 84.2467 3.70765 -3.33668 0
M  V30 917 H 83.4007 5.69962 -2.07914 0
M  V30 918 H 82.1397 4.69929 -1.30454 0
M  V30 919 H 81.1447 4.19522 -3.55361 0
M  V30 920 H 82.3697 5.22981 -4.33207 0
M  V30 921 H 80.3157 6.14917 -2.28502 0
M  V30 922 H 80.2327 6.41813 -3.99515 0
M  V30 923 H 81.5007 7.16506 -3.06984 0
M  V30 924 N 85.7298 1.2412 0.971189 0
M  V30 925 C 86.6768 1.0305 2.06517 0
M  V30 926 C 87.6468 -0.0550666 1.66009 0
M  V30 927 O 88.8318 0.0988688 1.90544 0
M  V30 928 C 85.9718 0.637653 3.39158 0
M  V30 929 C 85.0848 1.79633 3.92882 0
M  V30 930 C 84.2198 1.34939 5.13775 0
M  V30 931 C 83.2588 2.47823 5.59687 0
M  V30 932 N 82.3958 2.04022 6.71803 0
M  V30 933 H 87.2358 1.96685 2.23873 0
M  V30 934 H 84.7728 0.979694 1.09729 0
M  V30 935 H 86.7308 0.390931 4.15364 0
M  V30 936 H 85.3608 -0.261693 3.21737 0
M  V30 937 H 84.4128 2.15681 3.13346 0
M  V30 938 H 85.7248 2.64466 4.22918 0
M  V30 939 H 84.8788 1.06134 5.97345 0
M  V30 940 H 83.6178 0.471557 4.85415 0
M  V30 941 H 82.6228 2.77392 4.74693 0
M  V30 942 H 83.8478 3.36158 5.90063 0
M  V30 943 H 81.7938 1.18632 6.45184 0
M  V30 944 H 81.7108 2.82409 7.01271 0
M  V30 945 H 82.9788 1.78347 7.58823 0
M  V30 946 N 87.2079 -1.17134 1.05439 0
M  V30 947 C 88.4559 -1.87085 0.764429 0
M  V30 948 C 88.7769 -1.81584 -0.710787 0
M  V30 949 O 88.0469 -1.24349 -1.51374 0
M  V30 950 H 86.6269 -0.692627 0.279779 0
M  V30 951 H 89.2889 -1.42087 1.33406 0
M  V30 952 H 88.3849 -2.92759 1.0816 0
M  V30 953 N 88.686 -0.835752 -1.33615 0
M  V30 954 C 89.633 -0.26473 -2.29277 0
M  V30 955 C 90.603 0.617712 -1.54187 0
M  V30 956 O 91.788 0.556641 -1.825 0
M  V30 957 C 88.928 0.556777 -3.40579 0
M  V30 958 C 88.041 -0.349339 -4.30585 0
M  V30 959 C 87.176 0.482969 -5.29 0
M  V30 960 C 86.215 -0.421732 -6.10645 0
M  V30 961 N 85.352 0.372262 -7.01112 0
M  V30 962 H 90.192 -1.08582 -2.77514 0
M  V30 963 H 87.729 -0.546927 -1.36554 0
M  V30 964 H 89.687 1.04852 -4.03809 0
M  V30 965 H 88.317 1.34286 -2.93542 0
M  V30 966 H 87.369 -0.959372 -3.68104 0
M  V30 967 H 88.681 -1.04445 -4.87742 0
M  V30 968 H 87.835 1.03866 -5.97743 0
M  V30 969 H 86.574 1.21153 -4.72412 0
M  V30 970 H 85.579 -0.989464 -5.40823 0
M  V30 971 H 86.804 -1.14861 -6.69316 0
M  V30 972 H 84.75 1.08426 -6.46977 0
M  V30 973 H 84.667 -0.264198 -7.55538 0
M  V30 974 H 85.935 0.910293 -7.74167 0
M  V30 975 N 90.1641 1.46063 -0.591896 0
M  V30 976 C 91.4411 1.95595 -0.0137119 0
M  V30 977 C 91.8211 1.5345 1.4497 0
M  V30 978 O 91.1691 0.789543 2.14426 0
M  V30 979 C 91.3791 3.48453 -0.195373 0
M  V30 980 C 92.7271 4.24546 -0.0679765 0
M  V30 981 O 93.7511 3.55982 -0.124681 0
M  V30 982 O 92.6101 5.46467 0.0600579 0
M  V30 983 H 89.7041 0.825795 0.0446279 0
M  V30 984 H 92.2501 1.56303 -0.660859 0
M  V30 985 H 91.0221 3.72045 -1.21235 0
M  V30 986 H 90.6451 3.94597 0.487775 0
M  V30 987 N 91.6422 0.330177 1.54103 0
M  V30 988 C 92.8902 -0.269871 2.0029 0
M  V30 989 C 93.2112 -1.52133 1.21986 0
M  V30 990 O 92.4812 -1.93212 0.323438 0
M  V30 991 H 91.0612 -0.10271 0.739905 0
M  V30 992 H 93.7232 0.448249 1.89675 0
M  V30 993 H 92.8192 -0.52166 3.07709 0
M  V30 994 N 93.1203 -1.57491 0.0584922 0
M  V30 995 C 94.5363 -1.56792 -0.298091 0
M  V30 996 C 94.7363 -1.06679 -1.70944 0
M  V30 997 O 93.7923 -0.726672 -2.41818 0
M  V30 998 C 95.1053 -3.00461 -0.119879 0
M  V30 999 C 96.6533 -3.1242 -0.190428 0
M  V30 1000 C 97.1283 -4.57982 -0.0406567 0
M  V30 1001 N 98.6193 -4.63099 -0.0966958 0
M  V30 1002 C 99.3543 -5.734 -0.00502943 0
M  V30 1003 N 98.8503 -6.9266 0.139402 0
M  V30 1004 N 100.643 -5.62067 -0.0611391 0
M  V30 1005 H 92.7943 -1.88386 0.98105 0
M  V30 1006 H 95.0573 -0.867865 0.381463 0
M  V30 1007 H 94.7633 -3.41187 0.85349 0
M  V30 1008 H 94.6373 -3.66843 -0.877833 0
M  V30 1009 H 97.0243 -2.71589 -1.15427 0
M  V30 1010 H 97.1053 -2.48702 0.598405 0
M  V30 1011 H 96.7493 -4.995 0.919897 0
M  V30 1012 H 96.6793 -5.19715 -0.848727 0
M  V30 1013 H 99.1703 -3.77331 -0.207277 0
M  V30 1014 H 99.4833 -7.72536 0.201855 0
M  V30 1015 H 97.8283 -6.94781 0.174586 0
M  V30 1016 H 101.019 -4.67782 -0.172583 0
M  V30 1017 H 101.192 -6.47999 0.0137562 0
M  V30 1018 N 94.5984 0.214957 -1.56127 0
M  V30 1019 C 95.8454 0.938372 -1.79446 0
M  V30 1020 C 96.1734 1.8407 -0.628378 0
M  V30 1021 O 95.4284 1.91837 0.386925 0
M  V30 1022 C 95.7274 1.80314 -3.0858 0
M  V30 1023 C 95.3934 1.05349 -4.3842 0
M  V30 1024 C 94.0554 0.846435 -4.73697 0
M  V30 1025 C 96.4074 0.524588 -5.18553 0
M  V30 1026 C 93.7354 0.098683 -5.86617 0
M  V30 1027 C 96.0874 -0.209853 -6.32252 0
M  V30 1028 C 94.7514 -0.428102 -6.66126 0
M  V30 1029 H 94.0214 0.343375 -0.656639 0
M  V30 1030 H 96.6684 0.206077 -1.90388 0
M  V30 1031 H 94.9734 2.6035 -2.92789 0
M  V30 1032 H 96.6704 2.36513 -3.23825 0
M  V30 1033 H 93.2604 1.22486 -4.10725 0
M  V30 1034 H 97.4444 0.672008 -4.91729 0
M  V30 1035 H 92.7004 -0.0805753 -6.11347 0
M  V30 1036 H 96.8744 -0.627157 -6.9357 0
M  V30 1037 H 94.5014 -1.00944 -7.53468 0
M  V30 1038 N 96.0765 1.50051 0.48192 0
M  V30 1039 C 97.3225 1.60736 1.2366 0
M  V30 1040 C 97.6555 0.301786 1.91841 0
M  V30 1041 O 96.9305 -0.696025 1.8162 0
M  V30 1042 C 97.2135 2.78009 2.28874 0
M  V30 1043 C 97.0665 4.18416 1.65069 0
M  V30 1044 C 98.3855 2.90867 3.30279 0
M  V30 1045 H 95.5045 0.585031 0.448228 0
M  V30 1046 H 98.1465 1.82402 0.531946 0
M  V30 1047 H 96.2965 2.59667 2.88973 0
M  V30 1048 H 97.9685 4.48322 1.0865 0
M  V30 1049 H 96.2115 4.23177 0.954148 0
M  V30 1050 H 96.8825 4.96381 2.41474 0
M  V30 1051 H 99.3585 3.07623 2.80191 0
M  V30 1052 H 98.2345 3.74566 4.01238 0
M  V30 1053 H 98.4955 2.01021 3.93755 0
M  V30 1054 N 97.5546 -0.734337 1.39446 0
M  V30 1055 C 98.5026 -1.86971 1.38364 0
M  V30 1056 C 99.4966 -1.67288 0.266687 0
M  V30 1057 O 100.703 -1.74621 0.436755 0
M  V30 1058 H 97.0776 -0.615474 0.432082 0
M  V30 1059 H 99.0486 -1.85 2.34132 0
M  V30 1060 C 97.7976 -3.2466 1.24465 0
M  V30 1061 H 97.1206 -3.40402 2.09682 0
M  V30 1062 H 98.5606 -4.04292 1.27764 0
M  V30 1063 C 97.0196 -3.36867 -0.0468674 0
M  V30 1064 O 97.5496 -3.88618 -1.01681 0
M  V30 1065 N 95.7556 -2.90391 -0.110145 0
M  V30 1066 H 95.3026 -2.48466 0.679868 0
M  V30 1067 H 95.2606 -2.98939 -0.973799 0
M  V30 1068 N 99.0327 -1.24633 -0.964593 0
M  V30 1069 C 100.444 -1.08045 -1.5226 0
M  V30 1070 C 100.795 0.347116 -1.93105 0
M  V30 1071 O 99.9197 1.23588 -1.77637 0
M  V30 1072 C 100.515 -1.95514 -2.76695 0
M  V30 1073 C 99.0737 -1.8314 -3.28841 0
M  V30 1074 C 98.2207 -1.90262 -2.01732 0
M  V30 1075 H 101.172 -1.38064 -0.782553 0
M  V30 1076 H 101.193 -1.48925 -3.50145 0
M  V30 1077 H 100.705 -2.99407 -2.46936 0
M  V30 1078 H 98.8057 -0.82092 -3.63444 0
M  V30 1079 H 98.9187 -2.67406 -3.97531 0
M  V30 1080 H 97.2827 -1.34027 -2.16584 0
M  V30 1081 H 98.0657 -2.9574 -1.74334 0
M  V30 1082 N 100.511 1.16574 -1.06058 0
M  V30 1083 C 101.757 1.87565 -0.78683 0
M  V30 1084 C 102.112 1.80012 0.679214 0
M  V30 1085 O 101.405 1.20327 1.49104 0
M  V30 1086 C 101.599 3.36195 -1.21275 0
M  V30 1087 C 101.428 3.58216 -2.71866 0
M  V30 1088 C 100.198 3.7444 -3.39298 0
M  V30 1089 C 102.396 3.57134 -3.70081 0
M  V30 1090 N 100.378 3.84389 -4.78663 0
M  V30 1091 C 101.749 3.73038 -4.9522 0
M  V30 1092 C 103.804 3.40332 -3.63426 0
M  V30 1093 C 102.507 3.73879 -6.14497 0
M  V30 1094 C 104.533 3.42466 -4.82153 0
M  V30 1095 C 103.895 3.58887 -6.06118 0
M  V30 1096 H 99.9938 0.704081 -0.340284 0
M  V30 1097 H 102.578 1.39885 -1.35426 0
M  V30 1098 H 100.749 3.82522 -0.673179 0
M  V30 1099 H 102.481 3.94839 -0.887917 0
M  V30 1100 H 99.2358 3.74662 -2.89699 0
M  V30 1101 H 99.6598 3.93138 -5.51155 0
M  V30 1102 H 104.302 3.26566 -2.68541 0
M  V30 1103 H 102.02 3.86427 -7.09718 0
M  V30 1104 H 105.606 3.30712 -4.78666 0
M  V30 1105 H 104.486 3.60454 -6.9645 0
M  V30 1106 N 101.989 0.842826 1.3317 0
M  V30 1107 C 103.4 0.496651 1.79973 0
M  V30 1108 C 103.751 -0.984641 1.69703 0
M  V30 1109 O 102.876 -1.76743 1.24863 0
M  V30 1110 C 103.471 0.894727 3.26772 0
M  V30 1111 C 102.03 0.600629 3.71577 0
M  V30 1112 C 101.177 1.10091 2.5451 0
M  V30 1113 H 104.128 1.03116 1.20635 0
M  V30 1114 H 104.149 0.206347 3.7994 0
M  V30 1115 H 103.661 1.97287 3.34215 0
M  V30 1116 H 101.762 -0.467284 3.69658 0
M  V30 1117 H 101.875 1.15863 4.64879 0
M  V30 1118 H 100.239 0.52162 2.49301 0
M  V30 1119 H 101.022 2.18591 2.64713 0
M  V30 1120 N 103.467 -1.45747 0.599634 0
M  V30 1121 C 104.695 -2.06668 0.0978551 0
M  V30 1122 C 105.11 -1.44562 -1.21439 0
M  V30 1123 O 104.467 -0.556923 -1.73795 0
M  V30 1124 C 104.518 -3.61456 -0.0567044 0
M  V30 1125 O 104.239 -4.21242 1.20361 0
M  V30 1126 C 105.74 -4.39345 -0.590869 0
M  V30 1127 H 102.96 -0.667825 0.0651943 0
M  V30 1128 H 105.504 -1.87115 0.82511 0
M  V30 1129 H 103.659 -3.80378 -0.734251 0
M  V30 1130 H 104.073 -5.14323 1.02821 0
M  V30 1131 H 105.547 -5.48182 -0.648131 0
M  V30 1132 H 106.024 -4.08568 -1.61147 0
M  V30 1133 H 106.63 -4.25268 0.0523679 0
M  V30 1134 N 104.945 -0.338344 -1.53925 0
M  V30 1135 C 106.191 0.252842 -2.01822 0
M  V30 1136 C 106.546 1.48612 -1.22197 0
M  V30 1137 O 105.839 1.89238 -0.299892 0
M  V30 1138 C 106.033 0.62448 -3.51902 0
M  V30 1139 C 105.862 -0.571235 -4.46057 0
M  V30 1140 C 104.632 -1.07493 -4.93734 0
M  V30 1141 C 106.83 -1.42807 -4.94076 0
M  V30 1142 N 104.812 -2.23351 -5.71828 0
M  V30 1143 C 106.183 -2.43362 -5.70241 0
M  V30 1144 C 108.238 -1.45412 -4.76193 0
M  V30 1145 C 106.941 -3.46346 -6.30426 0
M  V30 1146 C 108.967 -2.47274 -5.37224 0
M  V30 1147 C 108.329 -3.46555 -6.13253 0
M  V30 1148 H 104.428 0.0559669 -0.779995 0
M  V30 1149 H 107.012 -0.476732 -1.88773 0
M  V30 1150 H 105.183 1.32317 -3.65167 0
M  V30 1151 H 106.915 1.19841 -3.86549 0
M  V30 1152 H 103.67 -0.643848 -4.69203 0
M  V30 1153 H 104.094 -2.81834 -6.15548 0
M  V30 1154 H 108.736 -0.700171 -4.16962 0
M  V30 1155 H 106.454 -4.22638 -6.88769 0
M  V30 1156 H 110.04 -2.50109 -5.25297 0
M  V30 1157 H 108.92 -4.24083 -6.59638 0
M  V30 1158 N 106.423 1.57458 -0.0668435 0
M  V30 1159 C 107.37 2.12439 0.902122 0
M  V30 1160 C 108.34 1.03565 1.2986 0
M  V30 1161 O 109.525 1.312 1.38532 0
M  V30 1162 C 106.665 2.6865 2.16614 0
M  V30 1163 C 105.778 3.91663 1.82274 0
M  V30 1164 C 104.913 4.36134 3.0325 0
M  V30 1165 C 103.952 5.51808 2.64904 0
M  V30 1166 N 103.089 5.9126 3.78624 0
M  V30 1167 H 107.929 2.94934 0.426382 0
M  V30 1168 H 105.466 1.4575 0.198819 0
M  V30 1169 H 107.424 2.99346 2.90599 0
M  V30 1170 H 106.054 1.88928 2.61737 0
M  V30 1171 H 105.106 3.6746 0.983719 0
M  V30 1172 H 106.418 4.75693 1.50059 0
M  V30 1173 H 105.572 4.68465 3.85519 0
M  V30 1174 H 104.311 3.50948 3.38655 0
M  V30 1175 H 103.316 5.19133 1.81055 0
M  V30 1176 H 104.541 6.38722 2.30675 0
M  V30 1177 H 102.487 5.09024 4.138 0
M  V30 1178 H 102.404 6.70018 3.5016 0
M  V30 1179 H 103.672 6.28212 4.61486 0
M  V30 1180 N 107.901 -0.206675 1.56239 0
M  V30 1181 C 108.849 -1.27571 1.94495 0
M  V30 1182 C 109.843 -1.47737 0.828862 0
M  V30 1183 O 111.049 -1.48735 1.0138 0
M  V30 1184 H 107.424 -0.428029 0.6183 0
M  V30 1185 H 109.395 -0.925961 2.8367 0
M  V30 1186 C 108.144 -2.61568 2.29079 0
M  V30 1187 H 107.467 -2.46863 3.14482 0
M  V30 1188 H 108.907 -3.35144 2.5972 0
M  V30 1189 C 107.366 -3.17695 1.12123 0
M  V30 1190 O 107.896 -3.99801 0.390153 0
M  V30 1191 N 106.102 -2.76276 0.901097 0
M  V30 1192 H 105.649 -2.09613 1.49733 0
M  V30 1193 H 105.607 -3.1417 0.120319 0
M  V30 1194 N 109.379 -1.50304 -0.473955 0
M  V30 1195 C 110.79 -1.54042 -1.0549 0
M  V30 1196 C 111.141 -0.342248 -1.93192 0
M  V30 1197 O 110.266 0.545157 -2.09421 0
M  V30 1198 C 110.861 -2.79152 -1.91989 0
M  V30 1199 C 109.42 -2.8558 -2.45196 0
M  V30 1200 C 108.567 -2.48295 -1.2347 0
M  V30 1201 H 111.518 -1.5661 -0.256693 0
M  V30 1202 H 111.539 -2.60845 -2.7702 0
M  V30 1203 H 111.051 -3.66339 -1.28131 0
M  V30 1204 H 109.152 -2.02738 -3.12615 0
M  V30 1205 H 109.265 -3.88403 -2.80499 0
M  V30 1206 H 107.629 -2.00669 -1.56856 0
M  V30 1207 H 108.412 -3.37787 -0.612789 0
M  V30 1208 N 110.857 0.726932 -1.39834 0
M  V30 1209 C 112.082 1.52121 -1.40976 0
M  V30 1210 C 112.507 1.88098 -0.00826029 0
M  V30 1211 O 111.865 1.52479 0.980807 0
M  V30 1212 C 111.913 2.78021 -2.29644 0
M  V30 1213 O 111.017 3.74272 -1.73188 0
M  V30 1214 H 110.358 0.45908 -0.479731 0
M  V30 1215 H 112.888 0.896207 -1.83927 0
M  V30 1216 H 112.898 3.26671 -2.44438 0
M  V30 1217 H 111.573 2.51169 -3.31492 0
M  V30 1218 H 110.15 3.33073 -1.6768 0
M  V30 1219 N 112.336 1.25143 0.95797 0
M  V30 1220 C 113.585 1.0909 1.69654 0
M  V30 1221 C 113.898 -0.368548 1.92097 0
M  V30 1222 O 115.104 -0.649455 2.63618 0
M  V30 1223 C 113.56 1.90395 3.05414 0
M  V30 1224 C 113.168 3.4081 2.90779 0
M  V30 1225 C 114.912 1.82901 3.83076 0
M  V30 1226 C 112.819 4.14423 4.21909 0
M  V30 1227 H 111.749 0.404625 0.636235 0
M  V30 1228 H 114.4 1.4931 1.06672 0
M  V30 1229 H 112.782 1.42996 3.69281 0
M  V30 1230 H 113.956 3.95859 2.35865 0
M  V30 1231 H 112.271 3.49361 2.26575 0
M  V30 1232 H 114.868 2.35196 4.80195 0
M  V30 1233 H 115.211 0.796224 4.08615 0
M  V30 1234 H 115.744 2.28033 3.25954 0
M  V30 1235 H 112.483 5.18102 4.01561 0
M  V30 1236 H 112.003 3.64159 4.76601 0
M  V30 1237 H 113.682 4.21956 4.90471 0
M  V30 1238 N 113.814 -1.1601 1.06675 0
M  V30 1239 C 115.225 -1.68235 0.809565 0
M  V30 1240 C 115.576 -1.8454 -0.666303 0
M  V30 1241 O 114.701 -1.54374 -1.5165 0
M  V30 1242 C 115.296 -3.05585 1.46299 0
M  V30 1243 C 113.855 -3.54915 1.25349 0
M  V30 1244 C 113.002 -2.30804 1.53703 0
M  V30 1245 H 115.953 -1.00318 1.22971 0
M  V30 1246 H 115.974 -3.70174 0.880431 0
M  V30 1247 H 115.486 -2.93686 2.53713 0
M  V30 1248 H 113.587 -3.72067 0.199261 0
M  V30 1249 H 113.7 -4.36774 1.9689 0
M  V30 1250 H 112.064 -2.36007 0.957739 0
M  V30 1251 H 112.847 -2.21499 2.62284 0
M  V30 1252 N 115.292 -0.849877 -1.32721 0
M  V30 1253 C 116.24 -0.279745 -2.30912 0
M  V30 1254 C 117.234 0.594278 -1.58634 0
M  V30 1255 O 118.44 0.482613 -1.73409 0
M  V30 1256 H 114.815 -0.0717521 -0.748569 0
M  V30 1257 H 116.786 -1.12222 -2.76494 0
M  V30 1258 C 115.535 0.521108 -3.43773 0
M  V30 1259 H 114.858 -0.142141 -3.99547 0
M  V30 1260 H 116.298 0.885693 -4.14646 0
M  V30 1261 C 114.757 1.70442 -2.90605 0
M  V30 1262 O 115.287 2.8034 -2.87702 0
M  V30 1263 N 113.493 1.52991 -2.47067 0
M  V30 1264 H 113.04 0.635914 -2.49628 0
M  V30 1265 H 112.998 2.32311 -2.11847 0
M  V30 1266 N 116.77 1.45427 -0.607355 0
M  V30 1267 C 118.016 2.0254 -0.102607 0
M  V30 1268 C 118.349 1.47478 1.26348 0
M  V30 1269 O 117.624 0.64939 1.83339 0
M  V30 1270 C 117.907 3.60044 -0.0634347 0
M  V30 1271 C 117.76 4.2544 -1.46017 0
M  V30 1272 C 119.079 4.35646 0.624514 0
M  V30 1273 H 116.198 0.73598 -0.0387607 0
M  V30 1274 H 118.84 1.73284 -0.779282 0
M  V30 1275 H 116.99 3.85101 0.512808 0
M  V30 1276 H 118.662 4.11569 -2.08347 0
M  V30 1277 H 116.905 3.83849 -2.02094 0
M  V30 1278 H 117.576 5.34342 -1.385 0
M  V30 1279 H 120.052 4.15882 0.134723 0
M  V30 1280 H 118.928 5.45376 0.621028 0
M  V30 1281 H 119.189 4.08501 1.69055 0
M  V30 1282 N 118.248 0.346503 1.53744 0
M  V30 1283 C 119.178 -0.501193 2.28058 0
M  V30 1284 C 120.159 -1.10014 1.29734 0
M  V30 1285 O 121.344 -1.12097 1.58581 0
M  V30 1286 C 118.474 -1.65078 3.05559 0
M  V30 1287 C 117.428 -1.18003 4.11411 0
M  V30 1288 C 116.754 -2.41837 4.76884 0
M  V30 1289 C 118.054 -0.278394 5.21558 0
M  V30 1290 H 119.748 0.11875 2.99164 0
M  V30 1291 H 117.294 0.0585531 1.43881 0
M  V30 1292 H 119.247 -2.25028 3.56287 0
M  V30 1293 H 117.971 -2.29767 2.32109 0
M  V30 1294 H 116.63 -0.603331 3.61601 0
M  V30 1295 H 116.278 -3.0494 4.00026 0
M  V30 1296 H 115.978 -2.1102 5.48402 0
M  V30 1297 H 117.502 -3.02508 5.30397 0
M  V30 1298 H 118.916 -0.784823 5.67903 0
M  V30 1299 H 117.313 -0.0619707 6.00068 0
M  V30 1300 H 118.383 0.684677 4.80042 0
M  V30 1301 N 119.726 -1.57421 0.075193 0
M  V30 1302 C 121.142 -1.57099 -0.281444 0
M  V30 1303 C 121.342 -1.08486 -1.69803 0
M  V30 1304 O 120.398 -0.752279 -2.41033 0
M  V30 1305 C 121.711 -3.00571 -0.0880041 0
M  V30 1306 C 123.259 -3.12605 -0.157281 0
M  V30 1307 C 123.734 -4.57999 0.0079207 0
M  V30 1308 N 125.225 -4.63176 -0.0475725 0
M  V30 1309 C 125.96 -5.73373 0.0557876 0
M  V30 1310 N 125.456 -6.92473 0.21286 0
M  V30 1311 N 127.249 -5.621 -0.00152098 0
M  V30 1312 H 119.4 -1.87335 1.00098 0
M  V30 1313 H 121.663 -0.86377 0.390646 0
M  V30 1314 H 121.369 -3.40262 0.889629 0
M  V30 1315 H 121.243 -3.67754 -0.838875 0
M  V30 1316 H 123.63 -2.72798 -1.1254 0
M  V30 1317 H 123.711 -2.48053 0.62475 0
M  V30 1318 H 123.355 -4.98496 0.972824 0
M  V30 1319 H 123.285 -5.20586 -0.793556 0
M  V30 1320 H 125.776 -3.7753 -0.167244 0
M  V30 1321 H 126.089 -7.72279 0.283781 0
M  V30 1322 H 124.434 -6.94556 0.248267 0
M  V30 1323 H 127.625 -4.67938 -0.122958 0
M  V30 1324 H 127.798 -6.47948 0.0824844 0
M  V30 1325 N 121.204 0.198386 -1.56346 0
M  V30 1326 C 122.45 0.916115 -1.81601 0
M  V30 1327 C 122.805 1.81025 -0.651744 0
M  V30 1328 O 122.098 1.88316 0.353229 0
M  V30 1329 C 122.292 1.77031 -3.10475 0
M  V30 1330 C 122.121 0.960365 -4.39326 0
M  V30 1331 C 120.891 0.646093 -5.01152 0
M  V30 1332 C 123.089 0.314628 -5.13337 0
M  V30 1333 N 121.071 -0.182828 -6.13628 0
M  V30 1334 C 122.442 -0.37664 -6.18855 0
M  V30 1335 C 124.497 0.230019 -4.97368 0
M  V30 1336 C 123.2 -1.14445 -7.10137 0
M  V30 1337 C 125.226 -0.524389 -5.89071 0
M  V30 1338 C 124.588 -1.20412 -6.94032 0
M  V30 1339 H 120.687 0.314732 -0.715868 0
M  V30 1340 H 123.271 0.185102 -1.93818 0
M  V30 1341 H 121.442 2.47295 -2.99499 0
M  V30 1342 H 123.174 2.42727 -3.2383 0
M  V30 1343 H 119.929 0.969724 -4.63566 0
M  V30 1344 H 120.353 -0.586802 -6.74452 0
M  V30 1345 H 124.995 0.741184 -4.16253 0
M  V30 1346 H 122.713 -1.66706 -7.90718 0
M  V30 1347 H 126.299 -0.591167 -5.78789 0
M  V30 1348 H 125.179 -1.77853 -7.63766 0
M  V30 1349 N 122.682 1.50554 0.465978 0
M  V30 1350 C 123.612 1.72722 1.57128 0
M  V30 1351 C 124.593 0.576294 1.6004 0
M  V30 1352 O 125.778 0.81598 1.76225 0
M  V30 1353 C 122.908 1.82605 2.95419 0
M  V30 1354 C 121.862 2.97835 3.07373 0
M  V30 1355 C 121.188 2.92867 4.47363 0
M  V30 1356 C 122.488 4.38265 2.84114 0
M  V30 1357 H 124.182 2.65267 1.38829 0
M  V30 1358 H 121.728 1.2765 0.666441 0
M  V30 1359 H 123.681 1.96698 3.72677 0
M  V30 1360 H 122.405 0.866858 3.14886 0
M  V30 1361 H 121.064 2.83401 2.3255 0
M  V30 1362 H 120.712 1.94783 4.63755 0
M  V30 1363 H 120.412 3.70227 4.56296 0
M  V30 1364 H 121.936 3.09015 5.26633 0
M  V30 1365 H 123.35 4.53198 3.51118 0
M  V30 1366 H 121.747 5.17115 3.04487 0
M  V30 1367 H 122.817 4.50281 1.7993 0
M  V30 1368 N 124.16 -0.719506 1.40217 0
M  V30 1369 C 125.409 -1.47486 1.37589 0
M  V30 1370 C 125.722 -1.9559 -0.0201568 0
M  V30 1371 O 126.928 -2.70973 -0.169049 0
M  V30 1372 C 125.384 -2.66575 2.41796 0
M  V30 1373 C 124.992 -2.25358 3.87192 0
M  V30 1374 C 126.736 -3.4433 2.48269 0
M  V30 1375 C 124.643 -3.41262 4.83005 0
M  V30 1376 H 123.573 -0.553901 0.511576 0
M  V30 1377 H 126.224 -0.783427 1.65936 0
M  V30 1378 H 124.606 -3.3787 2.06543 0
M  V30 1379 H 125.78 -1.61509 4.31569 0
M  V30 1380 H 124.095 -1.60657 3.84159 0
M  V30 1381 H 126.692 -4.30569 3.17041 0
M  V30 1382 H 127.035 -3.87872 1.51198 0
M  V30 1383 H 127.568 -2.80076 2.82493 0
M  V30 1384 H 124.307 -3.02755 5.81394 0
M  V30 1385 H 123.827 -4.0404 4.43297 0
M  V30 1386 H 125.506 -4.07383 5.02641 0
M  V30 1387 N 125.638 -1.25649 -0.95132 0
M  V30 1388 C 126.571 -1.00644 -2.04807 0
M  V30 1389 C 127.549 0.0654271 -1.62468 0
M  V30 1390 O 128.733 -0.074911 -1.88351 0
M  V30 1391 C 125.86 -0.522052 -3.34653 0
M  V30 1392 C 124.906 -1.58495 -3.95957 0
M  V30 1393 S 125.739 -3.17108 -4.31512 0
M  V30 1394 C 126.895 -2.70412 -5.64471 0
M  V30 1395 H 127.128 -1.93508 -2.25703 0
M  V30 1396 H 124.661 -1.09216 -1.09139 0
M  V30 1397 H 126.619 -0.24923 -4.09743 0
M  V30 1398 H 125.28 0.386146 -3.11717 0
M  V30 1399 H 124.473 -1.1968 -4.89584 0
M  V30 1400 H 124.075 -1.80862 -3.2736 0
M  V30 1401 H 126.367 -2.14245 -6.42733 0
M  V30 1402 H 127.31 -3.62693 -6.08161 0
M  V30 1403 H 127.718 -2.10302 -5.23864 0
M  V30 1404 N 127.117 1.15442 -1.07289 0
M  V30 1405 C 128.027 2.23786 -0.704057 0
M  V30 1406 C 129.043 1.7166 0.284413 0
M  V30 1407 O 130.219 2.00972 0.131205 0
M  V30 1408 C 127.284 3.46535 -0.106792 0
M  V30 1409 C 126.345 4.13654 -1.14842 0
M  V30 1410 C 125.578 5.30544 -0.57956 0
M  V30 1411 O 125.801 5.67187 0.604585 0
M  V30 1412 O 124.735 5.87154 -1.32414 0
M  V30 1413 H 128.561 2.57664 -1.60757 0
M  V30 1414 H 126.146 1.23152 -0.845803 0
M  V30 1415 H 128.028 4.20804 0.224048 0
M  V30 1416 H 126.703 3.14407 0.770049 0
M  V30 1417 H 125.61 3.4131 -1.5316 0
M  V30 1418 H 126.943 4.49861 -1.99714 0
M  V30 1419 N 128.595 0.856903 1.32268 0
M  V30 1420 C 129.542 0.301172 2.28827 0
M  V30 1421 C 130.512 -0.593104 1.5515 0
M  V30 1422 O 131.697 -0.527537 1.83362 0
M  V30 1423 C 128.837 -0.502523 3.41422 0
M  V30 1424 C 127.95 0.417797 4.29975 0
M  V30 1425 C 127.085 -0.398749 5.29701 0
M  V30 1426 C 126.124 0.518827 6.09897 0
M  V30 1427 N 125.261 -0.260674 7.01616 0
M  V30 1428 H 130.101 1.12983 2.75751 0
M  V30 1429 H 127.638 0.568582 1.35667 0
M  V30 1430 H 129.596 -0.984141 4.05426 0
M  V30 1431 H 128.226 -1.29599 2.95642 0
M  V30 1432 H 127.278 1.01781 3.66531 0
M  V30 1433 H 128.59 1.12191 4.86019 0
M  V30 1434 H 127.744 -0.943435 5.9932 0
M  V30 1435 H 126.483 -1.13622 4.7428 0
M  V30 1436 H 125.488 1.07538 5.39181 0
M  V30 1437 H 126.713 1.25495 6.67404 0
M  V30 1438 H 124.659 -0.981198 6.4862 0
M  V30 1439 H 124.576 0.384364 7.55022 0
M  V30 1440 H 125.844 -0.787014 7.75517 0
M  V30 1441 N 130.073 -1.45103 0.615059 0
M  V30 1442 C 131.35 -1.95549 0.0448276 0
M  V30 1443 C 131.73 -1.55737 -1.4251 0
M  V30 1444 O 131.078 -0.823556 -2.13143 0
M  V30 1445 C 131.288 -3.48098 0.250785 0
M  V30 1446 C 132.636 -4.24384 0.135509 0
M  V30 1447 O 133.66 -3.55738 0.181299 0
M  V30 1448 O 132.519 -5.46493 0.0268878 0
M  V30 1449 H 129.613 -0.8264 -0.0314845 0
M  V30 1450 H 132.159 -1.55232 0.685642 0
M  V30 1451 H 130.931 -3.7007 1.27139 0
M  V30 1452 H 130.554 -3.95323 -0.424937 0
M  V30 1453 N 131.551 -0.354651 -1.53558 0
M  V30 1454 C 132.501 0.513179 -2.2215 0
M  V30 1455 C 133.485 1.05734 -1.21281 0
M  V30 1456 O 134.677 0.989202 -1.46778 0
M  V30 1457 C 131.806 1.65798 -3.00609 0
M  V30 1458 C 130.892 1.12722 -4.08845 0
M  V30 1459 N 131.283 0.318563 -5.04796 0
M  V30 1460 C 129.581 1.40307 -4.23356 0
M  V30 1461 C 130.282 0.0292224 -5.81693 0
M  V30 1462 N 129.258 0.623891 -5.40008 0
M  V30 1463 H 133.06 -0.111586 -2.93688 0
M  V30 1464 H 130.574 -0.162091 -1.61589 0
M  V30 1465 H 132.571 2.29176 -3.48258 0
M  V30 1466 H 131.231 2.28591 -2.306 0
M  V30 1467 H 132.242 -0.0413091 -5.17884 0
M  V30 1468 H 128.919 2.03458 -3.6457 0
M  V30 1469 H 130.309 -0.623808 -6.68998 0
M  V30 1470 N 133.029 1.57378 -0.0835403 0
M  V30 1471 C 134.254 1.98682 0.594987 0
M  V30 1472 C 134.679 0.961969 1.61641 0
M  V30 1473 O 134.037 -0.0709989 1.81161 0
M  V30 1474 C 134.085 3.38988 1.2296 0
M  V30 1475 O 133.189 3.39208 2.34546 0
M  V30 1476 H 132.53 0.646368 0.152002 0
M  V30 1477 H 135.06 2.03961 -0.161533 0
M  V30 1478 H 135.07 3.76431 1.57366 0
M  V30 1479 H 133.745 4.13107 0.481228 0
M  V30 1480 H 132.322 3.13548 2.01846 0
M  V30 1481 N 134.507 -0.190092 1.56449 0
M  V30 1482 C 135.732 -0.929864 1.85387 0
M  V30 1483 C 136.157 -1.7585 0.667704 0
M  V30 1484 O 135.515 -1.77198 -0.383459 0
M  V30 1485 C 135.563 -1.79773 3.12593 0
M  V30 1486 O 134.667 -2.89713 2.93496 0
M  V30 1487 H 134.008 -0.261574 0.610307 0
M  V30 1488 H 136.538 -0.193896 2.03679 0
M  V30 1489 H 136.548 -2.20139 3.43515 0
M  V30 1490 H 135.223 -1.18892 3.98544 0
M  V30 1491 H 133.8 -2.53065 2.73884 0
M  V30 1492 N 135.985 -1.50799 -0.457987 0
M  V30 1493 C 137.231 -1.62683 -1.21088 0
M  V30 1494 C 137.564 -0.332268 -1.91336 0
M  V30 1495 O 136.839 0.667043 -1.82704 0
M  V30 1496 C 137.122 -2.81615 -2.24422 0
M  V30 1497 C 136.975 -4.20989 -1.58392 0
M  V30 1498 C 138.294 -2.96085 -3.2561 0
M  V30 1499 H 135.413 -0.592087 -0.438864 0
M  V30 1500 H 138.055 -1.83225 -0.50286 0
M  V30 1501 H 136.205 -2.64231 -2.84806 0
M  V30 1502 H 137.877 -4.49994 -1.01504 0
M  V30 1503 H 136.12 -4.24641 -0.886704 0
M  V30 1504 H 136.791 -5.0016 -2.33547 0
M  V30 1505 H 139.267 -3.12042 -2.75262 0
M  V30 1506 H 138.143 -3.80902 -3.95228 0
M  V30 1507 H 138.404 -2.0726 -3.90507 0
M  V30 1508 N 137.463 0.71206 -1.40597 0
M  V30 1509 C 138.874 1.29135 -1.34837 0
M  V30 1510 C 139.225 1.96186 -0.0235395 0
M  V30 1511 O 138.35 1.97768 0.878444 0
M  V30 1512 C 138.945 2.34827 -2.44217 0
M  V30 1513 C 137.504 2.88371 -2.41907 0
M  V30 1514 C 136.651 1.62202 -2.24913 0
M  V30 1515 H 139.602 0.507944 -1.50352 0
M  V30 1516 H 139.623 3.15749 -2.12327 0
M  V30 1517 H 139.135 1.85996 -3.40627 0
M  V30 1518 H 137.236 3.41422 -1.49204 0
M  V30 1519 H 137.349 3.39925 -3.37621 0
M  V30 1520 H 135.713 1.874 -1.72492 0
M  V30 1521 H 136.496 1.15391 -3.23326 0
M  V30 1522 N 138.941 1.26152 0.944643 0
M  V30 1523 C 140.166 1.14363 1.7302 0
M  V30 1524 C 140.591 -0.29772 1.85729 0
M  V30 1525 O 139.949 -1.2157 1.34501 0
M  V30 1526 C 139.997 1.81378 3.11664 0
M  V30 1527 O 139.101 1.10022 3.97453 0
M  V30 1528 H 138.442 0.398694 0.53098 0
M  V30 1529 H 140.972 1.66906 1.18337 0
M  V30 1530 H 140.982 1.88064 3.62072 0
M  V30 1531 H 139.657 2.86237 3.0173 0
M  V30 1532 H 138.234 1.11287 3.55907 0
M  V30 1533 N 140.419 -1.14872 1.07899 0
M  V30 1534 C 141.644 -1.90202 0.826926 0
M  V30 1535 C 142.069 -1.77774 -0.614664 0
M  V30 1536 O 141.427 -1.11431 -1.43013 0
M  V30 1537 C 141.475 -3.38352 1.24702 0
M  V30 1538 O 140.579 -4.10497 0.39575 0
M  V30 1539 H 139.92 -0.591968 0.300782 0
M  V30 1540 H 142.45 -1.45437 1.43907 0
M  V30 1541 H 142.46 -3.89156 1.22563 0
M  V30 1542 H 141.135 -3.46715 2.29698 0
M  V30 1543 H 139.712 -3.69796 0.480117 0
M  V30 1544 N 141.898 -0.863906 -1.31812 0
M  V30 1545 C 142.845 -0.313303 -2.28664 0
M  V30 1546 C 143.815 0.584868 -1.55462 0
M  V30 1547 O 145 0.517805 -1.83639 0
M  V30 1548 C 142.14 0.48441 -3.41683 0
M  V30 1549 C 141.253 -0.440594 -4.29747 0
M  V30 1550 C 140.388 0.370652 -5.29905 0
M  V30 1551 C 139.427 -0.551164 -6.09613 0
M  V30 1552 N 138.564 0.223462 -7.01744 0
M  V30 1553 H 143.404 -1.14444 -2.75148 0
M  V30 1554 H 140.941 -0.575769 -1.35364 0
M  V30 1555 H 142.899 0.962627 -4.05943 0
M  V30 1556 H 141.529 1.28029 -2.96325 0
M  V30 1557 H 140.581 -1.03724 -3.65986 0
M  V30 1558 H 141.893 -1.14767 -4.85417 0
M  V30 1559 H 141.047 0.911638 -5.99812 0
M  V30 1560 H 139.786 1.11105 -4.74876 0
M  V30 1561 H 138.791 -1.10396 -5.38603 0
M  V30 1562 H 140.016 -1.29032 -6.66729 0
M  V30 1563 H 137.962 0.946787 -6.49132 0
M  V30 1564 H 137.879 -0.424399 -7.54808 0
M  V30 1565 H 139.147 0.745876 -7.75923 0
M  V30 1566 N 143.376 1.44774 -0.622745 0
M  V30 1567 C 144.286 2.34433 0.0886031 0
M  V30 1568 C 145.302 1.52131 0.844529 0
M  V30 1569 O 146.478 1.84886 0.798691 0
M  V30 1570 C 143.543 3.29986 1.0635 0
M  V30 1571 C 142.604 4.28195 0.307873 0
M  V30 1572 C 141.837 5.19183 1.23633 0
M  V30 1573 O 142.06 5.13918 2.47476 0
M  V30 1574 O 140.994 5.97515 0.725189 0
M  V30 1575 H 144.82 2.96693 -0.648599 0
M  V30 1576 H 142.405 1.44408 -0.382957 0
M  V30 1577 H 144.287 3.88825 1.6246 0
M  V30 1578 H 142.962 2.70269 1.78146 0
M  V30 1579 H 141.869 3.72927 -0.296064 0
M  V30 1580 H 143.202 4.90808 -0.3699 0
M  V30 1581 N 144.854 0.36279 1.53368 0
M  V30 1582 C 145.764 -0.492994 2.29362 0
M  V30 1583 C 146.78 -1.09507 1.35219 0
M  V30 1584 O 147.956 -1.10662 1.68273 0
M  V30 1585 C 145.021 -1.61855 3.066 0
M  V30 1586 C 144.082 -1.04429 4.16405 0
M  V30 1587 C 143.315 -2.11621 4.89951 0
M  V30 1588 O 143.538 -3.32684 4.63333 0
M  V30 1589 O 142.472 -1.74835 5.75948 0
M  V30 1590 H 146.298 0.125331 3.03441 0
M  V30 1591 H 143.883 0.127253 1.48857 0
M  V30 1592 H 145.765 -2.27302 3.54841 0
M  V30 1593 H 144.44 -2.22233 2.3536 0
M  V30 1594 H 143.347 -0.353819 3.72423 0
M  V30 1595 H 144.68 -0.485113 4.89804 0
M  V30 1596 N 146.332 -1.57332 0.0918853 0
M  V30 1597 C 147.262 -2.16872 -0.865371 0
M  V30 1598 C 148.243 -1.10118 -1.29646 0
M  V30 1599 O 149.428 -1.38242 -1.36392 0
M  V30 1600 C 146.558 -2.74649 -2.12569 0
M  V30 1601 C 145.512 -3.86747 -1.83333 0
M  V30 1602 C 144.838 -4.31212 -3.16166 0
M  V30 1603 C 146.138 -5.10089 -1.1228 0
M  V30 1604 H 147.832 -2.97114 -0.369307 0
M  V30 1605 H 145.378 -1.42918 -0.176194 0
M  V30 1606 H 147.331 -3.14952 -2.7997 0
M  V30 1607 H 146.055 -1.91657 -2.64452 0
M  V30 1608 H 144.714 -3.46978 -1.18331 0
M  V30 1609 H 144.362 -3.45115 -3.6593 0
M  V30 1610 H 144.062 -5.06788 -2.97388 0
M  V30 1611 H 145.586 -4.74146 -3.84731 0
M  V30 1612 H 147 -5.47582 -1.69785 0
M  V30 1613 H 145.397 -5.91073 -1.03693 0
M  V30 1614 H 146.467 -4.84786 -0.105041 0
M  V30 1615 N 147.81 0.181792 -1.56548 0
M  V30 1616 C 149.087 0.926765 -1.72251 0
M  V30 1617 C 149.467 2.00831 -0.650386 0
M  V30 1618 O 148.815 2.26008 0.336521 0
M  V30 1619 C 149.025 1.50106 -3.1507 0
M  V30 1620 C 150.373 1.97805 -3.75711 0
M  V30 1621 O 151.397 1.59922 -3.18282 0
M  V30 1622 O 150.256 2.67555 -4.76525 0
M  V30 1623 H 147.35 0.435506 -0.703039 0
M  V30 1624 H 149.896 0.170443 -1.68842 0
M  V30 1625 H 148.668 0.72212 -3.84579 0
M  V30 1626 H 148.291 2.32186 -3.22763 0
M  V30 1627 N 149.288 1.51039 0.449983 0
M  V30 1628 C 150.235 1.71439 1.54523 0
M  V30 1629 C 151.205 0.555871 1.56522 0
M  V30 1630 O 152.39 0.788871 1.73728 0
M  V30 1631 C 149.53 1.83384 2.92343 0
M  V30 1632 C 148.643 3.10873 2.9997 0
M  V30 1633 C 147.778 3.13488 4.28834 0
M  V30 1634 C 146.817 4.35343 4.30282 0
M  V30 1635 N 145.954 4.35579 5.5065 0
M  V30 1636 H 150.794 2.64934 1.36433 0
M  V30 1637 H 148.331 1.31312 0.662982 0
M  V30 1638 H 150.289 1.88291 3.72293 0
M  V30 1639 H 148.919 0.933086 3.0902 0
M  V30 1640 H 147.971 3.15336 2.12761 0
M  V30 1641 H 149.283 4.00814 2.96901 0
M  V30 1642 H 148.437 3.17241 5.17149 0
M  V30 1643 H 147.176 2.21414 4.34543 0
M  V30 1644 H 146.181 4.3178 3.40362 0
M  V30 1645 H 147.406 5.28668 4.26248 0
M  V30 1646 H 145.352 3.46369 5.57104 0
M  V30 1647 H 145.269 5.19313 5.49409 0
M  V30 1648 H 146.537 4.43507 6.41032 0
M  V30 1649 N 150.766 -0.704594 1.40972 0
M  V30 1650 C 151.676 -1.84856 1.44448 0
M  V30 1651 C 152.692 -1.70726 0.335961 0
M  V30 1652 O 153.868 -1.92799 0.582276 0
M  V30 1653 C 150.933 -3.20758 1.31587 0
M  V30 1654 C 149.994 -3.47063 2.52677 0
M  V30 1655 C 149.227 -4.76481 2.4042 0
M  V30 1656 O 149.45 -5.52341 1.42391 0
M  V30 1657 O 148.384 -5.03367 3.30007 0
M  V30 1658 H 152.21 -1.8488 2.40942 0
M  V30 1659 H 149.795 -0.85647 1.22413 0
M  V30 1660 H 151.677 -4.01913 1.26665 0
M  V30 1661 H 150.352 -3.21438 0.382049 0
M  V30 1662 H 149.259 -2.65873 2.63177 0
M  V30 1663 H 150.592 -3.5119 3.44858 0
M  V30 1664 N 152.244 -1.26651 -0.937939 0
M  V30 1665 C 153.174 -1.10993 -2.05433 0
M  V30 1666 C 154.155 -0.0142161 -1.70094 0
M  V30 1667 O 155.34 -0.186837 -1.93299 0
M  V30 1668 C 152.47 -0.745561 -3.39203 0
M  V30 1669 C 151.424 -1.79337 -3.88616 0
M  V30 1670 C 150.75 -1.28324 -5.19073 0
M  V30 1671 C 152.05 -3.19553 -4.13138 0
M  V30 1672 H 153.744 -2.0438 -2.1879 0
M  V30 1673 H 151.29 -0.984041 -1.05131 0
M  V30 1674 H 153.243 -0.622888 -4.16771 0
M  V30 1675 H 151.967 0.22401 -3.25831 0
M  V30 1676 H 150.626 -1.90477 -3.13231 0
M  V30 1677 H 150.274 -0.303414 -5.02084 0
M  V30 1678 H 149.974 -1.98369 -5.53103 0
M  V30 1679 H 151.498 -1.1733 -5.99221 0
M  V30 1680 H 152.912 -3.11471 -4.81309 0
M  V30 1681 H 151.309 -3.87218 -4.58457 0
M  V30 1682 H 152.379 -3.65368 -3.18801 0
M  V30 1683 N 153.722 1.14298 -1.08507 0
M  V30 1684 C 155.133 1.66926 -0.836227 0
M  V30 1685 C 155.484 1.85576 0.63686 0
M  V30 1686 O 154.609 1.56767 1.49175 0
M  V30 1687 C 155.204 3.03219 -1.51142 0
M  V30 1688 C 153.763 3.52876 -1.30979 0
M  V30 1689 C 152.91 2.2833 -1.57356 0
M  V30 1690 H 155.861 0.983491 -1.24552 0
M  V30 1691 H 155.882 3.68726 -0.939211 0
M  V30 1692 H 155.394 2.89612 -2.58353 0
M  V30 1693 H 153.495 3.71703 -0.258429 0
M  V30 1694 H 153.608 4.33586 -2.03814 0
M  V30 1695 H 151.972 2.34454 -0.995164 0
M  V30 1696 H 152.755 2.17298 -2.65775 0
M  V30 1697 N 155.201 0.870884 1.31352 0
M  V30 1698 C 156.447 0.482987 1.96965 0
M  V30 1699 C 156.78 -0.962462 1.68672 0
M  V30 1700 O 156.055 -1.6779 0.98371 0
M  V30 1701 C 156.338 0.741752 3.52378 0
M  V30 1702 C 156.191 2.2368 3.9024 0
M  V30 1703 C 157.51 0.208838 4.39604 0
M  V30 1704 H 154.629 0.176955 0.715441 0
M  V30 1705 H 157.271 1.09229 1.55464 0
M  V30 1706 H 155.421 0.223149 3.87859 0
M  V30 1707 H 157.093 2.82273 3.64856 0
M  V30 1708 H 155.336 2.70901 3.38814 0
M  V30 1709 H 156.007 2.3685 4.98604 0
M  V30 1710 H 158.483 0.652529 4.10952 0
M  V30 1711 H 157.359 0.419336 5.47296 0
M  V30 1712 H 157.62 -0.889275 4.33064 0
M  V30 1713 N 156.679 -1.44442 0.630414 0
M  V30 1714 C 157.609 -2.33418 -0.0618083 0
M  V30 1715 C 158.59 -1.48165 -0.835541 0
M  V30 1716 O 159.775 -1.76886 -0.801564 0
M  V30 1717 C 156.905 -3.31222 -1.04449 0
M  V30 1718 C 155.859 -4.26288 -0.382436 0
M  V30 1719 C 155.185 -5.13954 -1.47497 0
M  V30 1720 C 156.485 -5.1744 0.710865 0
M  V30 1721 H 158.179 -2.91548 0.681184 0
M  V30 1722 H 155.725 -1.40191 0.329026 0
M  V30 1723 H 157.678 -3.92351 -1.53748 0
M  V30 1724 H 156.402 -2.71299 -1.81836 0
M  V30 1725 H 155.061 -3.6649 0.0899054 0
M  V30 1726 H 154.709 -4.50385 -2.2397 0
M  V30 1727 H 154.409 -5.7837 -1.03737 0
M  V30 1728 H 155.933 -5.77955 -1.96979 0
M  V30 1729 H 157.347 -5.72509 0.300996 0
M  V30 1730 H 155.744 -5.90455 1.07156 0
M  V30 1731 H 156.814 -4.58496 1.57829 0
M  V30 1732 N 158.157 -0.370918 -1.53173 0
M  V30 1733 C 159.104 0.473035 -2.259 0
M  V30 1734 C 160.074 1.07311 -1.26781 0
M  V30 1735 O 161.259 1.1046 -1.55574 0
M  V30 1736 C 158.399 1.60405 -3.05556 0
M  V30 1737 C 157.512 1.02863 -4.19575 0
M  V30 1738 C 156.647 2.12918 -4.86661 0
M  V30 1739 C 155.686 1.52869 -5.92704 0
M  V30 1740 N 154.823 2.56779 -6.53459 0
M  V30 1741 H 159.663 -0.153649 -2.97604 0
M  V30 1742 H 157.2 -0.0875946 -1.46839 0
M  V30 1743 H 159.158 2.27034 -3.50016 0
M  V30 1744 H 157.788 2.20131 -2.36097 0
M  V30 1745 H 156.84 0.252465 -3.79561 0
M  V30 1746 H 158.152 0.549642 -4.95762 0
M  V30 1747 H 157.306 2.87356 -5.34333 0
M  V30 1748 H 156.045 2.6417 -4.09958 0
M  V30 1749 H 155.05 0.769479 -5.44389 0
M  V30 1750 H 156.275 1.02435 -6.7133 0
M  V30 1751 H 154.221 3.07235 -5.79606 0
M  V30 1752 H 154.138 2.13583 -7.25202 0
M  V30 1753 H 155.406 3.30903 -7.05779 0
M  V30 1754 N 159.635 1.57281 -0.100228 0
M  V30 1755 C 161.046 1.81725 0.428107 0
M  V30 1756 C 161.397 1.01619 1.67833 0
M  V30 1757 O 160.522 0.247098 2.14985 0
M  V30 1758 C 161.117 3.29617 0.78347 0
M  V30 1759 C 159.676 3.54808 1.25653 0
M  V30 1760 C 158.823 2.76118 0.255752 0
M  V30 1761 H 161.774 1.55324 -0.325608 0
M  V30 1762 H 161.795 3.4322 1.64256 0
M  V30 1763 H 161.307 3.87893 -0.12665 0
M  V30 1764 H 159.408 3.01868 2.18418 0
M  V30 1765 H 159.521 4.63443 1.21482 0
M  V30 1766 H 157.885 2.43745 0.738956 0
M  V30 1767 H 158.668 3.37145 -0.647136 0
M  V30 1768 N 161.113 -0.173488 1.56642 0
M  V30 1769 C 162.343 -0.904781 1.85734 0
M  V30 1770 C 162.751 -1.76431 0.68328 0
M  V30 1771 O 162.094 -1.802 -0.356865 0
M  V30 1772 C 162.156 -1.83382 3.09211 0
M  V30 1773 C 161.82 -1.15411 4.42187 0
M  V30 1774 C 162.817 -0.520609 5.17287 0
M  V30 1775 C 160.502 -1.15151 4.88923 0
M  V30 1776 C 162.496 0.106412 6.37311 0
M  V30 1777 C 160.183 -0.520664 6.08878 0
M  V30 1778 C 161.181 0.107196 6.82916 0
M  V30 1779 O 160.869 0.728102 8.00596 0
M  V30 1780 H 160.601 -0.268408 0.62043 0
M  V30 1781 H 163.155 -0.179096 2.04618 0
M  V30 1782 H 161.385 -2.59976 2.86268 0
M  V30 1783 H 163.074 -2.43476 3.24768 0
M  V30 1784 H 163.84 -0.514606 4.82262 0
M  V30 1785 H 159.719 -1.62961 4.31236 0
M  V30 1786 H 163.263 0.597081 6.9504 0
M  V30 1787 H 159.16 -0.524242 6.43368 0
M  V30 1788 H 159.928 0.627138 8.16094 0
M  V30 1789 N 162.591 -1.51276 -0.441967 0
M  V30 1790 C 163.838 -1.63715 -1.19179 0
M  V30 1791 C 164.166 -0.351175 -1.91303 0
M  V30 1792 O 163.421 0.664524 -1.84072 0
M  V30 1793 C 163.72 -2.78746 -2.23686 0
M  V30 1794 C 163.386 -4.18189 -1.68607 0
M  V30 1795 C 162.048 -4.56125 -1.53308 0
M  V30 1796 C 164.4 -5.05222 -1.28062 0
M  V30 1797 C 161.728 -5.78804 -0.959317 0
M  V30 1798 C 164.08 -6.28476 -0.721162 0
M  V30 1799 C 162.744 -6.65188 -0.55504 0
M  V30 1800 H 162.014 -0.599076 -0.436106 0
M  V30 1801 H 164.661 -1.85296 -0.48351 0
M  V30 1802 H 162.966 -2.51369 -3.00535 0
M  V30 1803 H 164.663 -2.8557 -2.81515 0
M  V30 1804 H 161.253 -3.88277 -1.8149 0
M  V30 1805 H 165.437 -4.76524 -1.38704 0
M  V30 1806 H 160.693 -6.05899 -0.81833 0
M  V30 1807 H 164.867 -6.95259 -0.398458 0
M  V30 1808 H 162.494 -7.60123 -0.108311 0
M  V30 1809 N 164.069 0.697108 -1.41344 0
M  V30 1810 C 165.318 1.45279 -1.39918 0
M  V30 1811 C 165.631 1.95597 -0.0109624 0
M  V30 1812 O 166.837 2.71208 0.125919 0
M  V30 1813 C 165.293 2.62695 -2.46007 0
M  V30 1814 C 164.901 2.19169 -3.90729 0
M  V30 1815 C 166.645 3.40336 -2.53715 0
M  V30 1816 C 164.552 3.33535 -4.88373 0
M  V30 1817 H 163.482 0.545692 -0.520323 0
M  V30 1818 H 166.133 0.756929 -1.67161 0
M  V30 1819 H 164.515 3.34541 -2.11892 0
M  V30 1820 H 165.689 1.54623 -4.34083 0
M  V30 1821 H 164.004 1.54525 -3.86666 0
M  V30 1822 H 166.601 4.2547 -3.2385 0
M  V30 1823 H 166.944 3.85418 -1.5735 0
M  V30 1824 H 167.477 2.75546 -2.86913 0
M  V30 1825 H 164.216 2.93468 -5.86137 0
M  V30 1826 H 163.736 3.96936 -4.49668 0
M  V30 1827 H 165.415 3.99335 -5.09059 0
M  V30 1828 N 165.547 1.27147 0.931209 0
M  V30 1829 C 166.775 1.16082 1.71267 0
M  V30 1830 C 167.19 -0.282772 1.8667 0
M  V30 1831 O 166.547 -1.19283 1.38122 0
M  V30 1832 C 166.598 1.8358 3.11417 0
M  V30 1833 O 166.319 3.22299 2.96741 0
M  V30 1834 C 167.82 1.78597 4.05732 0
M  V30 1835 H 165.04 0.403758 0.535929 0
M  V30 1836 H 167.584 1.67953 1.16671 0
M  V30 1837 H 165.739 1.35623 3.62885 0
M  V30 1838 H 166.153 3.55851 3.85319 0
M  V30 1839 H 167.627 2.30444 5.01597 0
M  V30 1840 H 168.104 0.754564 4.3267 0
M  V30 1841 H 168.71 2.26152 3.60188 0
M  V30 1842 N 167.025 -1.13721 1.09112 0
M  V30 1843 C 167.973 -2.21103 0.722219 0
M  V30 1844 C 168.967 -1.67147 -0.275374 0
M  V30 1845 O 170.173 -1.79477 -0.137176 0
M  V30 1846 H 166.548 -0.720445 0.215553 0
M  V30 1847 H 168.519 -2.49483 1.63709 0
M  V30 1848 C 167.268 -3.47352 0.15543 0
M  V30 1849 H 166.591 -3.89206 0.914246 0
M  V30 1850 H 168.031 -4.2395 -0.0647967 0
M  V30 1851 C 166.49 -3.1814 -1.10852 0
M  V30 1852 O 167.02 -3.36604 -2.19227 0
M  V30 1853 N 165.226 -2.72045 -1.02176 0
M  V30 1854 H 164.773 -2.57221 -0.139764 0
M  V30 1855 H 164.731 -2.52875 -1.8682 0
M  V30 1856 N 168.503 -0.877838 -1.30888 0
M  V30 1857 C 169.914 -0.544193 -1.78593 0
M  V30 1858 C 170.265 0.939301 -1.72254 0
M  V30 1859 O 169.39 1.7337 -1.29505 0
M  V30 1860 C 169.985 -0.98105 -3.24285 0
M  V30 1861 C 168.544 -0.698935 -3.69854 0
M  V30 1862 C 167.691 -1.168 -2.51502 0
M  V30 1863 H 170.642 -1.06278 -1.17859 0
M  V30 1864 H 170.663 -0.307009 -3.79259 0
M  V30 1865 H 170.175 -2.06079 -3.28866 0
M  V30 1866 H 168.276 0.369112 -3.70767 0
M  V30 1867 H 168.389 -1.28148 -4.61644 0
M  V30 1868 H 166.753 -0.587535 -2.47831 0
M  V30 1869 H 167.536 -2.25533 -2.58824 0
M  V30 1870 N 169.982 1.44106 -0.638065 0
M  V30 1871 C 170.892 2.34513 0.0637334 0
M  V30 1872 C 171.908 1.53018 0.828346 0
M  V30 1873 O 173.084 1.85723 0.779036 0
M  V30 1874 C 170.149 3.31095 1.02844 0
M  V30 1875 C 169.21 4.28497 0.26244 0
M  V30 1876 C 168.443 5.20465 1.1812 0
M  V30 1877 O 168.666 5.16514 2.42011 0
M  V30 1878 O 167.6 5.98251 0.661774 0
M  V30 1879 H 171.426 2.95989 -0.68003 0
M  V30 1880 H 169.011 1.43994 -0.398252 0
M  V30 1881 H 170.893 3.90526 1.58327 0
M  V30 1882 H 169.568 2.72144 1.7527 0
M  V30 1883 H 168.475 3.72592 -0.335602 0
M  V30 1884 H 169.808 4.90388 -0.421936 0
M  V30 1885 N 171.46 0.379036 1.52974 0
M  V30 1886 C 172.37 -0.468639 2.29872 0
M  V30 1887 C 173.386 -1.08067 1.36373 0
M  V30 1888 O 174.562 -1.08871 1.69438 0
M  V30 1889 C 171.627 -1.58594 3.083 0
M  V30 1890 C 170.688 -1.00007 4.17489 0
M  V30 1891 C 169.921 -2.06413 4.92168 0
M  V30 1892 O 170.144 -3.27751 4.66835 0
M  V30 1893 O 169.078 -1.68717 5.7777 0
M  V30 1894 H 172.904 0.157508 3.03291 0
M  V30 1895 H 170.489 0.143035 1.48714 0
M  V30 1896 H 172.371 -2.23525 3.57232 0
M  V30 1897 H 171.046 -2.19724 2.37703 0
M  V30 1898 H 169.953 -0.314299 3.72777 0
M  V30 1899 H 171.286 -0.433135 4.90291 0
M  V30 1900 N 172.938 -1.57226 0.108567 0
M  V30 1901 C 173.901 -2.13602 -0.831082 0
M  V30 1902 C 174.901 -1.06841 -1.20173 0
M  V30 1903 O 176.091 -1.32666 -1.12895 0
M  V30 1904 C 173.223 -2.66769 -2.12243 0
M  V30 1905 H 174.416 -2.97951 -0.341317 0
M  V30 1906 H 171.969 -1.55667 -0.14057 0
M  V30 1907 H 172.704 -1.85977 -2.65675 0
M  V30 1908 H 172.489 -3.44839 -1.86625 0
M  V30 1909 H 173.979 -3.10332 -2.79435 0
M  V30 1910 N 174.416 0.165178 -1.56732 0
M  V30 1911 C 175.664 0.879068 -1.8198 0
M  V30 1912 C 175.985 1.82514 -0.686561 0
M  V30 1913 O 175.255 1.93694 0.293146 0
M  V30 1914 H 173.835 0.327608 -0.671329 0
M  V30 1915 H 176.497 0.163526 -1.94213 0
M  V30 1916 H 175.593 1.45228 -2.76252 0
M  V30 1917 N 175.894 1.51508 0.433938 0
M  V30 1918 C 177.14 1.64588 1.18484 0
M  V30 1919 C 177.473 0.362666 1.90784 0
M  V30 1920 O 176.748 -0.637892 1.83742 0
M  V30 1921 C 177.031 2.85149 2.19913 0
M  V30 1922 C 176.884 4.23456 1.51674 0
M  V30 1923 C 178.203 3.01227 3.20858 0
M  V30 1924 H 175.322 0.598994 0.429389 0
M  V30 1925 H 177.964 1.84002 0.473647 0
M  V30 1926 H 176.114 2.68729 2.80566 0
M  V30 1927 H 177.786 4.51552 0.943322 0
M  V30 1928 H 176.029 4.25998 0.819035 0
M  V30 1929 H 176.7 5.03812 2.2556 0
M  V30 1930 H 179.176 3.16382 2.70263 0
M  V30 1931 H 178.052 3.87141 3.89118 0
M  V30 1932 H 178.313 2.13447 3.8716 0
M  V30 1933 N 177.372 -0.689602 1.41712 0
M  V30 1934 C 178.788 -1.00093 1.24312 0
M  V30 1935 C 178.988 -2.01036 0.136729 0
M  V30 1936 O 178.044 -2.47562 -0.496918 0
M  V30 1937 C 179.357 -1.51985 2.59463 0
M  V30 1938 C 180.905 -1.63838 2.66695 0
M  V30 1939 C 181.38 -2.1913 4.02177 0
M  V30 1940 N 182.871 -2.26483 4.04054 0
M  V30 1941 C 183.606 -2.70306 5.0569 0
M  V30 1942 N 183.102 -3.13691 6.17713 0
M  V30 1943 N 184.895 -2.69923 4.9305 0
M  V30 1944 H 177.046 -0.0210029 2.1239 0
M  V30 1945 H 179.309 -0.0718733 0.945272 0
M  V30 1946 H 179.015 -0.85269 3.41207 0
M  V30 1947 H 178.889 -2.50103 2.82362 0
M  V30 1948 H 181.276 -2.29664 1.85306 0
M  V30 1949 H 181.357 -0.642492 2.476 0
M  V30 1950 H 181.001 -1.53918 4.84016 0
M  V30 1951 H 180.931 -3.19482 4.18615 0
M  V30 1952 H 183.422 -1.95874 3.23174 0
M  V30 1953 H 183.735 -3.45773 6.9113 0
M  V30 1954 H 182.08 -3.11585 6.21241 0
M  V30 1955 H 185.271 -2.35382 4.04614 0
M  V30 1956 H 185.444 -3.03758 5.72394 0
M  V30 1957 N 178.85 -1.27639 -0.924453 0
M  V30 1958 C 179.76 -1.12466 -2.05885 0
M  V30 1959 C 180.776 -0.053869 -1.73917 0
M  V30 1960 O 181.952 -0.261012 -1.99702 0
M  V30 1961 C 179.017 -0.776768 -3.37886 0
M  V30 1962 C 178.078 -1.92878 -3.83532 0
M  V30 1963 C 177.311 -1.59739 -5.09234 0
M  V30 1964 O 177.534 -0.506782 -5.68144 0
M  V30 1965 O 176.468 -2.43761 -5.50331 0
M  V30 1966 H 180.294 -2.07671 -2.21599 0
M  V30 1967 H 177.879 -1.06857 -1.04413 0
M  V30 1968 H 179.761 -0.596229 -4.17161 0
M  V30 1969 H 178.436 0.145732 -3.23372 0
M  V30 1970 H 177.343 -2.1644 -3.0513 0
M  V30 1971 H 178.676 -2.8316 -4.02593 0
M  V30 1972 N 180.328 1.1314 -1.09713 0
M  V30 1973 C 181.291 2.16831 -0.742751 0
M  V30 1974 C 182.291 1.59159 0.229129 0
M  V30 1975 O 183.481 1.74199 0.00693237 0
M  V30 1976 C 180.613 3.40756 -0.0989168 0
M  V30 1977 H 181.806 2.49695 -1.66109 0
M  V30 1978 H 179.359 1.2802 -0.896699 0
M  V30 1979 H 180.094 3.13485 0.830514 0
M  V30 1980 H 179.879 3.83888 -0.798265 0
M  V30 1981 H 181.369 4.17386 0.133524 0
M  V30 1982 N 181.806 0.884767 1.30421 0
M  V30 1983 C 183.054 0.502112 1.95763 0
M  V30 1984 C 183.375 -0.951815 1.70192 0
M  V30 1985 O 182.645 -1.6692 1.0254 0
M  V30 1986 H 181.225 0.182694 0.724315 0
M  V30 1987 H 183.887 1.1278 1.58955 0
M  V30 1988 H 182.983 0.672188 3.04775 0
M  V30 1989 N 183.284 -1.43765 0.645699 0
M  V30 1990 C 184.214 -2.33471 -0.0370477 0
M  V30 1991 C 185.195 -1.49042 -0.819779 0
M  V30 1992 O 186.38 -1.77726 -0.782758 0
M  V30 1993 C 183.51 -3.32311 -1.0093 0
M  V30 1994 C 182.464 -4.2667 -0.337201 0
M  V30 1995 C 181.79 -5.1549 -1.42037 0
M  V30 1996 C 183.09 -5.16657 0.765706 0
M  V30 1997 H 184.784 -2.90809 0.712069 0
M  V30 1998 H 182.33 -1.39834 0.343876 0
M  V30 1999 H 184.283 -3.9396 -1.49578 0
M  V30 2000 H 183.007 -2.73213 -1.78948 0
M  V30 2001 H 181.666 -3.66374 0.128771 0
M  V30 2002 H 181.314 -4.52735 -2.1918 0
M  V30 2003 H 181.014 -5.79438 -0.975966 0
M  V30 2004 H 182.538 -5.80012 -1.90838 0
M  V30 2005 H 183.952 -5.72158 0.361702 0
M  V30 2006 H 182.349 -5.89286 1.13413 0
M  V30 2007 H 183.419 -4.56796 1.62683 0
M  V30 2008 N 184.763 -0.387143 -1.52771 0
M  V30 2009 C 186.179 -0.037007 -1.59557 0
M  V30 2010 C 186.379 1.44801 -1.40124 0
M  V30 2011 O 185.435 2.21227 -1.21716 0
M  V30 2012 C 186.748 -0.512256 -2.96305 0
M  V30 2013 C 188.296 -0.468328 -3.09476 0
M  V30 2014 C 188.771 -0.919731 -4.4867 0
M  V30 2015 N 190.262 -0.875656 -4.54848 0
M  V30 2016 C 190.997 -1.19637 -5.6078 0
M  V30 2017 N 190.493 -1.58745 -6.74368 0
M  V30 2018 N 192.286 -1.11776 -5.50874 0
M  V30 2019 H 184.437 -1.35395 -1.63652 0
M  V30 2020 H 186.7 -0.554818 -0.768688 0
M  V30 2021 H 186.406 -1.54935 -3.15734 0
M  V30 2022 H 186.28 0.089805 -3.77093 0
M  V30 2023 H 188.667 0.559671 -2.89744 0
M  V30 2024 H 188.748 -1.10616 -2.30646 0
M  V30 2025 H 188.392 -1.94595 -4.69143 0
M  V30 2026 H 188.322 -0.258927 -5.25963 0
M  V30 2027 H 190.813 -0.587843 -3.733 0
M  V30 2028 H 191.126 -1.81586 -7.51163 0
M  V30 2029 H 189.471 -1.6263 -6.75705 0
M  V30 2030 H 192.662 -0.811264 -4.61016 0
M  V30 2031 H 192.835 -1.37103 -6.3333 0
M  V30 2032 N 186.241 1.57166 -0.116904 0
M  V30 2033 C 187.487 1.95412 0.542405 0
M  V30 2034 C 187.82 1.00019 1.66463 0
M  V30 2035 O 187.095 0.0370346 1.94465 0
M  V30 2036 C 187.378 3.43615 1.07708 0
M  V30 2037 C 187.231 4.49781 -0.0415868 0
M  V30 2038 C 188.55 3.93616 1.96861 0
M  V30 2039 H 185.669 0.710543 0.195696 0
M  V30 2040 H 188.311 1.89027 -0.192038 0
M  V30 2041 H 186.461 3.49187 1.70296 0
M  V30 2042 H 188.133 4.56308 -0.676793 0
M  V30 2043 H 186.376 4.28033 -0.705019 0
M  V30 2044 H 187.047 5.50733 0.373717 0
M  V30 2045 H 189.523 3.90335 1.44146 0
M  V30 2046 H 188.399 4.97838 2.3119 0
M  V30 2047 H 188.66 3.34188 2.89432 0
M  V30 2048 N 187.719 -0.156864 1.56817 0
M  V30 2049 C 188.947 -0.886316 1.86955 0
M  V30 2050 C 189.362 -1.75185 0.703975 0
M  V30 2051 O 188.719 -1.79555 -0.326552 0
M  V30 2052 C 188.77 -1.75117 3.16253 0
M  V30 2053 O 188.491 -0.920537 4.2832 0
M  V30 2054 C 189.992 -2.58905 3.59837 0
M  V30 2055 H 187.212 -0.25678 0.619923 0
M  V30 2056 H 189.756 -0.152615 2.0393 0
M  V30 2057 H 187.911 -2.43805 3.01062 0
M  V30 2058 H 188.325 -1.51337 5.02192 0
M  V30 2059 H 189.799 -3.1518 4.53172 0
M  V30 2060 H 190.276 -3.34472 2.84649 0
M  V30 2061 H 190.882 -1.95526 3.7769 0
M  V30 2062 N 189.197 -1.51736 -0.425897 0
M  V30 2063 C 190.443 -1.66174 -1.17294 0
M  V30 2064 C 190.798 -0.37876 -1.88635 0
M  V30 2065 O 190.091 0.626021 -1.81084 0
M  V30 2066 C 190.285 -2.81103 -2.20717 0
M  V30 2067 C 190.114 -4.20453 -1.59529 0
M  V30 2068 C 188.884 -4.86225 -1.37525 0
M  V30 2069 C 191.082 -5.03146 -1.06528 0
M  V30 2070 N 189.064 -6.09657 -0.720537 0
M  V30 2071 C 190.435 -6.17674 -0.536506 0
M  V30 2072 C 192.49 -4.88594 -0.958127 0
M  V30 2073 C 191.193 -7.19245 0.0888917 0
M  V30 2074 C 193.219 -5.90383 -0.346608 0
M  V30 2075 C 192.581 -7.04191 0.171564 0
M  V30 2076 H 188.68 -0.661871 -0.416475 0
M  V30 2077 H 191.264 -1.88997 -0.467801 0
M  V30 2078 H 189.435 -2.59924 -2.88607 0
M  V30 2079 H 191.167 -2.84662 -2.87663 0
M  V30 2080 H 187.922 -4.44293 -1.64015 0
M  V30 2081 H 188.346 -6.75756 -0.410292 0
M  V30 2082 H 192.988 -4.0085 -1.34459 0
M  V30 2083 H 190.706 -8.06628 0.48746 0
M  V30 2084 H 194.292 -5.81194 -0.265451 0
M  V30 2085 H 193.172 -7.81606 0.637309 0
M  V30 2086 N 190.675 0.682077 -1.42076 0
M  V30 2087 C 191.605 1.80796 -1.47767 0
M  V30 2088 C 192.586 1.6677 -0.334954 0
M  V30 2089 O 193.771 1.863 -0.548264 0
M  V30 2090 C 190.901 3.19038 -1.37229 0
M  V30 2091 C 189.855 3.47789 -2.49453 0
M  V30 2092 C 189.181 4.8553 -2.23975 0
M  V30 2093 C 190.481 3.45411 -3.91776 0
M  V30 2094 H 192.175 1.7629 -2.41997 0
M  V30 2095 H 189.721 0.846721 -1.16476 0
M  V30 2096 H 191.674 3.97528 -1.39821 0
M  V30 2097 H 190.398 3.24204 -0.394907 0
M  V30 2098 H 189.057 2.71657 -2.46166 0
M  V30 2099 H 188.705 4.87337 -1.24547 0
M  V30 2100 H 188.405 5.0573 -2.99184 0
M  V30 2101 H 189.929 5.66312 -2.28304 0
M  V30 2102 H 191.343 4.13882 -3.96705 0
M  V30 2103 H 189.74 3.77145 -4.66778 0
M  V30 2104 H 190.81 2.44122 -4.18966 0
M  V30 2105 N 192.153 1.28127 0.917671 0
M  V30 2106 C 193.401 1.14825 1.66312 0
M  V30 2107 C 193.722 -0.304379 1.9261 0
M  V30 2108 O 192.992 -1.21149 1.53947 0
M  V30 2109 H 191.572 0.421953 0.616413 0
M  V30 2110 H 194.234 1.608 1.10134 0
M  V30 2111 H 193.33 1.68489 2.62712 0
M  V30 2112 N 193.631 -1.12557 1.10312 0
M  V30 2113 C 194.581 -2.16331 0.720076 0
M  V30 2114 C 195.565 -1.58616 -0.270115 0
M  V30 2115 O 196.757 -1.76823 -0.0790507 0
M  V30 2116 C 193.886 -3.42963 0.152113 0
M  V30 2117 C 192.972 -4.07663 1.16927 0
M  V30 2118 N 193.363 -4.47392 2.35953 0
M  V30 2119 C 191.661 -4.34425 1.0095 0
M  V30 2120 C 192.362 -4.97932 3.0073 0
M  V30 2121 N 191.338 -4.93358 2.28252 0
M  V30 2122 H 195.14 -2.44813 1.62616 0
M  V30 2123 H 192.654 -1.29449 0.980654 0
M  V30 2124 H 194.651 -4.16664 -0.14037 0
M  V30 2125 H 193.311 -3.1595 -0.748701 0
M  V30 2126 H 194.322 -4.39802 2.73486 0
M  V30 2127 H 190.999 -4.17177 0.164134 0
M  V30 2128 H 192.389 -5.38397 4.01969 0
M  V30 2129 N 195.109 -0.891671 -1.2995 0
M  V30 2130 C 196.072 -0.36828 -2.26222 0
M  V30 2131 C 197.072 0.493014 -1.53056 0
M  V30 2132 O 198.262 0.299213 -1.71611 0
M  V30 2133 C 195.394 0.47442 -3.37583 0
M  V30 2134 H 196.587 -1.21844 -2.74033 0
M  V30 2135 H 194.14 -0.669107 -1.41254 0
M  V30 2136 H 194.875 1.34489 -2.95099 0
M  V30 2137 H 194.66 -0.142615 -3.91841 0
M  V30 2138 H 196.15 0.83218 -4.09224 0
M  V30 2139 N 196.587 1.43421 -0.653314 0
M  V30 2140 C 197.815 2.06163 -0.174491 0
M  V30 2141 C 198.23 1.48969 1.1599 0
M  V30 2142 O 197.587 0.621042 1.71608 0
M  V30 2143 C 197.638 3.61417 -0.0774865 0
M  V30 2144 O 197.359 4.16485 -1.35912 0
M  V30 2145 C 198.86 4.41235 0.427402 0
M  V30 2146 H 196.08 0.664946 -0.0899353 0
M  V30 2147 H 198.624 1.83924 -0.893988 0
M  V30 2148 H 196.779 3.82841 0.59257 0
M  V30 2149 H 197.193 5.10153 -1.21839 0
M  V30 2150 H 198.667 5.5021 0.44423 0
M  V30 2151 H 199.144 4.14268 1.45873 0
M  V30 2152 H 199.75 4.2478 -0.210167 0
M  V30 2153 N 198.065 0.39524 1.52563 0
M  V30 2154 C 199.311 -0.185318 2.01952 0
M  V30 2155 C 199.644 -1.45964 1.28095 0
M  V30 2156 O 198.919 -1.90689 0.38315 0
M  V30 2157 C 199.202 -0.447193 3.57312 0
M  V30 2158 C 199.055 0.842828 4.41833 0
M  V30 2159 C 200.374 -1.23529 4.22408 0
M  V30 2160 H 197.493 -0.0658788 0.73405 0
M  V30 2161 H 200.135 0.525975 1.82575 0
M  V30 2162 H 198.285 -1.05312 3.73954 0
M  V30 2163 H 199.957 1.4795 4.36931 0
M  V30 2164 H 198.2 1.45686 4.08605 0
M  V30 2165 H 198.871 0.614165 5.48573 0
M  V30 2166 H 201.347 -0.722445 4.0978 0
M  V30 2167 H 200.223 -1.38727 5.3108 0
M  V30 2168 H 200.484 -2.25213 3.80436 0
M  V30 2169 N 199.544 -1.57102 0.125237 0
M  V30 2170 C 200.477 -2.11371 -0.860094 0
M  V30 2171 C 201.455 -1.03168 -1.25679 0
M  V30 2172 O 202.639 -1.30862 -1.35674 0
M  V30 2173 C 199.766 -2.61555 -2.1519 0
M  V30 2174 C 198.812 -3.81701 -1.9028 0
M  V30 2175 S 199.645 -5.23797 -1.11343 0
M  V30 2176 C 200.801 -5.77353 -2.41689 0
M  V30 2177 H 201.034 -2.94617 -0.39852 0
M  V30 2178 H 198.567 -1.54145 -0.0886555 0
M  V30 2179 H 200.525 -2.91122 -2.89411 0
M  V30 2180 H 199.186 -1.78479 -2.58465 0
M  V30 2181 H 198.379 -4.14985 -2.86014 0
M  V30 2182 H 197.981 -3.52783 -1.24178 0
M  V30 2183 H 200.273 -5.87458 -3.37489 0
M  V30 2184 H 201.216 -6.75323 -2.12942 0
M  V30 2185 H 201.624 -5.05457 -2.51342 0
M  V30 2186 N 201.022 0.148545 -1.56898 0
M  V30 2187 C 202.268 0.862694 -1.83536 0
M  V30 2188 C 202.601 1.80889 -0.706604 0
M  V30 2189 O 201.876 1.92328 0.289885 0
M  V30 2190 C 202.159 1.63853 -3.20662 0
M  V30 2191 C 202.012 0.713925 -4.44098 0
M  V30 2192 C 203.331 2.60133 -3.54991 0
M  V30 2193 H 200.45 0.312179 -0.667618 0
M  V30 2194 H 203.092 0.127953 -1.89569 0
M  V30 2195 H 201.242 2.26489 -3.1565 0
M  V30 2196 H 202.914 0.098686 -4.61194 0
M  V30 2197 H 201.157 0.0234019 -4.33794 0
M  V30 2198 H 201.828 1.29278 -5.36648 0
M  V30 2199 H 204.304 2.07616 -3.60603 0
M  V30 2200 H 203.18 3.11468 -4.51972 0
M  V30 2201 H 203.441 3.41417 -2.80868 0
M  V30 2202 N 202.5 1.5196 0.417844 0
M  V30 2203 C 203.41 1.77554 1.53336 0
M  V30 2204 C 204.426 0.660655 1.6097 0
M  V30 2205 O 205.602 0.945099 1.77848 0
M  V30 2206 C 202.667 1.91291 2.89152 0
M  V30 2207 C 201.728 3.15183 2.91475 0
M  V30 2208 C 200.961 3.28256 4.20813 0
M  V30 2209 O 201.184 2.46798 5.14244 0
M  V30 2210 O 200.118 4.21356 4.29817 0
M  V30 2211 H 203.944 2.7222 1.34647 0
M  V30 2212 H 201.529 1.36698 0.602828 0
M  V30 2213 H 203.411 2.02199 3.69721 0
M  V30 2214 H 202.086 0.998129 3.07927 0
M  V30 2215 H 200.993 3.09739 2.09791 0
M  V30 2216 H 202.326 4.06414 2.77648 0
M  V30 2217 N 203.978 -0.674533 1.42435 0
M  V30 2218 C 204.911 -1.79924 1.40366 0
M  V30 2219 C 205.889 -1.60378 0.267899 0
M  V30 2220 O 207.073 -1.82847 0.458159 0
M  V30 2221 C 204.2 -3.16927 1.19478 0
M  V30 2222 C 203.246 -3.55221 2.36051 0
M  V30 2223 S 204.079 -3.5762 3.98583 0
M  V30 2224 C 205.235 -4.97315 3.80038 0
M  V30 2225 H 205.468 -1.81405 2.35541 0
M  V30 2226 H 203.001 -0.845221 1.29211 0
M  V30 2227 H 204.959 -3.96007 1.08114 0
M  V30 2228 H 203.62 -3.13031 0.258883 0
M  V30 2229 H 202.813 -4.54804 2.17185 0
M  V30 2230 H 202.415 -2.83502 2.43932 0
M  V30 2231 H 204.707 -5.85401 3.41045 0
M  V30 2232 H 205.65 -5.21228 4.79298 0
M  V30 2233 H 206.058 -4.69845 3.12899 0
M  V30 2234 N 205.456 -1.28612 -0.910864 0
M  V30 2235 C 206.733 -1.06632 -1.63979 0
M  V30 2236 C 207.113 0.393351 -2.07403 0
M  V30 2237 O 206.461 1.37999 -1.82122 0
M  V30 2238 C 206.671 -2.0436 -2.8291 0
M  V30 2239 C 208.019 -2.34666 -3.5386 0
M  V30 2240 O 209.043 -2.02467 -2.93062 0
M  V30 2241 O 207.902 -2.89631 -4.63439 0
M  V30 2242 H 204.996 -0.407737 -0.7195 0
M  V30 2243 H 207.542 -1.39942 -0.959914 0
M  V30 2244 H 206.314 -3.02727 -2.47936 0
M  V30 2245 H 205.937 -1.71714 -3.58609 0
M  V30 2246 N 206.934 1.1197 -1.10907 0
M  V30 2247 C 207.844 2.21433 -0.774896 0
M  V30 2248 C 208.86 1.72478 0.229657 0
M  V30 2249 O 210.036 2.01288 0.0672008 0
M  V30 2250 C 207.101 3.4602 -0.216986 0
M  V30 2251 C 206.162 4.09791 -1.27944 0
M  V30 2252 C 205.395 5.28431 -0.748055 0
M  V30 2253 O 205.618 5.68823 0.423833 0
M  V30 2254 O 204.552 5.82644 -1.51027 0
M  V30 2255 H 208.378 2.5242 -1.68873 0
M  V30 2256 H 205.963 1.20399 -0.884555 0
M  V30 2257 H 207.845 4.21304 0.090059 0
M  V30 2258 H 206.52 3.16698 0.669633 0
M  V30 2259 H 205.427 3.36265 -1.63941 0
M  V30 2260 H 206.76 4.4328 -2.13925 0
M  V30 2261 N 208.412 0.89855 1.29475 0
M  V30 2262 C 209.342 0.39201 2.30186 0
M  V30 2263 C 210.323 -0.532359 1.61555 0
M  V30 2264 O 211.508 -0.443331 1.89072 0
M  V30 2265 C 208.638 -0.382353 3.45189 0
M  V30 2266 C 207.592 0.451483 4.25612 0
M  V30 2267 C 206.918 -0.450307 5.328 0
M  V30 2268 C 208.218 1.70079 4.93832 0
M  V30 2269 H 209.912 1.23362 2.72804 0
M  V30 2270 H 207.458 0.594638 1.31149 0
M  V30 2271 H 209.411 -0.747451 4.14718 0
M  V30 2272 H 208.135 -1.25774 3.01411 0
M  V30 2273 H 206.794 0.798897 3.57789 0
M  V30 2274 H 206.442 -1.32379 4.85268 0
M  V30 2275 H 206.142 0.103902 5.87508 0
M  V30 2276 H 207.666 -0.811623 6.05182 0
M  V30 2277 H 209.08 1.40549 5.55805 0
M  V30 2278 H 207.477 2.19623 5.58467 0
M  V30 2279 H 208.547 2.43744 4.19186 0
M  V30 2280 N 209.89 -1.43072 0.660911 0
M  V30 2281 C 211.139 -2.00942 0.174735 0
M  V30 2282 C 211.452 -1.52797 -1.22117 0
M  V30 2283 O 212.658 -2.02991 -1.80297 0
M  V30 2284 C 211.114 -3.58948 0.261559 0
M  V30 2285 C 210.722 -4.16085 1.66064 0
M  V30 2286 C 212.466 -4.24173 -0.166617 0
M  V30 2287 C 210.373 -5.6641 1.70098 0
M  V30 2288 H 209.303 -0.751483 0.0615631 0
M  V30 2289 H 211.954 -1.63955 0.824069 0
M  V30 2290 H 210.336 -3.93372 -0.455421 0
M  V30 2291 H 211.51 -3.93147 2.40359 0
M  V30 2292 H 209.825 -3.6326 2.03546 0
M  V30 2293 H 212.422 -5.34471 -0.156433 0
M  V30 2294 H 212.765 -3.98647 -1.19943 0
M  V30 2295 H 213.298 -3.94659 0.498875 0
M  V30 2296 H 210.037 -5.96715 2.71315 0
M  V30 2297 H 209.557 -5.91382 1.00139 0
M  V30 2298 H 211.236 -6.30585 1.44816 0
M  V30 2299 N 211.368 -0.403325 -1.52352 0
M  V30 2300 C 212.615 0.174347 -2.01748 0
M  V30 2301 C 212.943 1.45636 -1.2892 0
M  V30 2302 O 212.198 1.9193 -0.382258 0
M  V30 2303 C 212.497 0.474665 -3.54234 0
M  V30 2304 C 212.163 -0.717458 -4.45155 0
M  V30 2305 C 210.825 -1.04447 -4.69728 0
M  V30 2306 C 213.177 -1.51432 -4.98716 0
M  V30 2307 C 210.505 -2.16963 -5.45109 0
M  V30 2308 C 212.857 -2.6302 -5.75329 0
M  V30 2309 C 211.521 -2.96213 -5.98175 0
M  V30 2310 H 210.791 0.0637981 -0.738248 0
M  V30 2311 H 213.438 -0.543553 -1.83624 0
M  V30 2312 H 211.743 1.27406 -3.70506 0
M  V30 2313 H 213.44 0.934496 -3.89959 0
M  V30 2314 H 210.03 -0.452596 -4.26204 0
M  V30 2315 H 214.214 -1.27491 -4.79645 0
M  V30 2316 H 209.47 -2.43034 -5.61021 0
M  V30 2317 H 213.644 -3.25158 -6.15829 0
M  V30 2318 H 211.271 -3.83516 -6.56368 0
M  V30 2319 N 212.846 1.57033 -0.133567 0
M  V30 2320 C 213.776 2.1909 0.807567 0
M  V30 2321 C 214.757 1.13517 1.26681 0
M  V30 2322 O 215.942 1.41809 1.32679 0
M  V30 2323 C 213.072 2.80188 2.05212 0
M  V30 2324 C 212.026 3.91471 1.73015 0
M  V30 2325 C 211.352 4.39443 3.04622 0
M  V30 2326 C 212.652 5.12886 0.987168 0
M  V30 2327 H 214.346 2.97988 0.290403 0
M  V30 2328 H 211.892 1.43335 0.138239 0
M  V30 2329 H 213.845 3.22264 2.71521 0
M  V30 2330 H 212.569 1.98601 2.59278 0
M  V30 2331 H 211.228 3.49993 1.0909 0
M  V30 2332 H 210.876 3.54695 3.56651 0
M  V30 2333 H 210.576 5.14495 2.83847 0
M  V30 2334 H 212.1 4.8418 3.72024 0
M  V30 2335 H 213.514 5.51891 1.55208 0
M  V30 2336 H 211.911 5.93615 0.87985 0
M  V30 2337 H 212.981 4.84894 -0.0235286 0
M  V30 2338 N 214.325 -0.140222 1.56975 0
M  V30 2339 C 215.553 -0.866437 1.87884 0
M  V30 2340 C 215.968 -1.74428 0.722517 0
M  V30 2341 O 215.325 -1.79891 -0.30749 0
M  V30 2342 C 215.376 -1.71753 3.18093 0
M  V30 2343 O 215.097 -0.875056 4.29272 0
M  V30 2344 C 216.598 -2.55074 3.62563 0
M  V30 2345 H 213.818 -0.25019 0.622612 0
M  V30 2346 H 216.362 -0.130977 2.0408 0
M  V30 2347 H 214.517 -2.40598 3.03631 0
M  V30 2348 H 214.931 -1.46002 5.03769 0
M  V30 2349 H 216.405 -3.10356 4.5649 0
M  V30 2350 H 216.882 -3.31434 2.88181 0
M  V30 2351 H 217.488 -1.91509 3.79743 0
M  V30 2352 N 215.803 -1.52179 -0.40978 0
M  V30 2353 C 217.08 -1.56769 -1.16974 0
M  V30 2354 C 217.46 -0.348322 -2.08206 0
M  V30 2355 O 216.808 0.664862 -2.18613 0
M  V30 2356 C 217.018 -2.89603 -1.9476 0
M  V30 2357 C 218.366 -3.42579 -2.50849 0
M  V30 2358 O 219.39 -2.91338 -2.04941 0
M  V30 2359 O 218.249 -4.32054 -3.34652 0
M  V30 2360 H 215.343 -0.631439 -0.534054 0
M  V30 2361 H 217.889 -1.64507 -0.416613 0
M  V30 2362 H 216.661 -3.698 -1.27921 0
M  V30 2363 H 216.284 -2.85155 -2.77079 0
M  V30 2364 N 217.281 0.66697 -1.42791 0
M  V30 2365 C 218.692 1.2478 -1.38877 0
M  V30 2366 C 219.043 1.96012 -0.0859426 0
M  V30 2367 O 218.168 2.00463 0.815081 0
M  V30 2368 C 218.763 2.26938 -2.51564 0
M  V30 2369 C 217.322 2.80529 -2.50959 0
M  V30 2370 C 216.469 1.54965 -2.29959 0
M  V30 2371 H 219.42 0.459853 -1.51892 0
M  V30 2372 H 219.441 3.08834 -2.22265 0
M  V30 2373 H 218.953 1.75065 -3.46372 0
M  V30 2374 H 217.054 3.36502 -1.59991 0
M  V30 2375 H 217.167 3.29012 -3.48265 0
M  V30 2376 H 215.531 1.81817 -1.78366 0
M  V30 2377 H 216.314 1.05047 -3.26833 0
M  V30 2378 N 218.759 1.29093 0.90403 0
M  V30 2379 C 220.008 1.16187 1.64874 0
M  V30 2380 C 220.321 -0.286742 1.93487 0
M  V30 2381 O 221.527 -0.537062 2.66135 0
M  V30 2382 C 219.983 2.03177 2.97064 0
M  V30 2383 C 219.591 3.52836 2.76062 0
M  V30 2384 C 221.335 1.98984 3.74974 0
M  V30 2385 C 219.242 4.31945 4.03952 0
M  V30 2386 H 218.172 0.431246 0.618501 0
M  V30 2387 H 220.823 1.53699 1.00243 0
M  V30 2388 H 219.205 1.5853 3.62883 0
M  V30 2389 H 220.379 4.05507 2.18863 0
M  V30 2390 H 218.694 3.58656 2.11553 0
M  V30 2391 H 221.291 2.55351 4.69787 0
M  V30 2392 H 221.634 0.968815 4.0487 0
M  V30 2393 H 222.167 2.41652 3.15989 0
M  V30 2394 H 218.906 5.34667 3.79225 0
M  V30 2395 H 218.426 3.84045 4.60727 0
M  V30 2396 H 220.105 4.42379 4.72133 0
M  V30 2397 N 220.237 -1.11381 1.11499 0
M  V30 2398 C 221.484 -1.83132 0.864231 0
M  V30 2399 C 221.812 -1.84683 -0.610114 0
M  V30 2400 O 221.067 -1.29589 -1.46646 0
M  V30 2401 C 221.366 -3.30026 1.37177 0
M  V30 2402 C 221.032 -3.48634 2.85946 0
M  V30 2403 C 219.694 -3.53421 3.26569 0
M  V30 2404 C 222.046 -3.54837 3.81759 0
M  V30 2405 C 219.374 -3.61967 4.61733 0
M  V30 2406 C 221.726 -3.64915 5.1674 0
M  V30 2407 C 220.39 -3.67962 5.5692 0
M  V30 2408 H 219.66 -0.670127 0.316245 0
M  V30 2409 H 222.307 -1.31354 1.3935 0
M  V30 2410 H 220.612 -3.84304 0.762753 0
M  V30 2411 H 222.309 -3.84034 1.15408 0
M  V30 2412 H 218.899 -3.45579 2.53521 0
M  V30 2413 H 223.083 -3.50399 3.51474 0
M  V30 2414 H 218.339 -3.62603 4.92269 0
M  V30 2415 H 222.513 -3.68658 5.90816 0
M  V30 2416 H 220.14 -3.74336 6.61647 0
M  V30 2417 N 221.715 -0.905404 -1.28997 0
M  V30 2418 C 222.94 -0.549175 -1.99997 0
M  V30 2419 C 223.365 0.860276 -1.67275 0
M  V30 2420 O 222.723 1.57355 -0.900502 0
M  V30 2421 C 222.771 -0.755185 -3.52604 0
M  V30 2422 O 221.875 0.189692 -4.11964 0
M  V30 2423 H 221.216 -0.213899 -0.628604 0
M  V30 2424 H 223.746 -1.21856 -1.64354 0
M  V30 2425 H 223.756 -0.662045 -4.02593 0
M  V30 2426 H 222.431 -1.78271 -3.75755 0
M  V30 2427 H 221.008 0.0485257 -3.72868 0
M  V30 2428 N 223.193 1.4272 -0.668489 0
M  V30 2429 C 224.418 2.06484 -0.194758 0
M  V30 2430 C 224.843 1.49862 1.13679 0
M  V30 2431 O 224.201 0.614582 1.70565 0
M  V30 2432 C 224.249 3.60353 -0.133546 0
M  V30 2433 O 223.353 4.02464 0.899806 0
M  V30 2434 H 222.694 0.656137 -0.10188 0
M  V30 2435 H 225.224 1.82964 -0.915722 0
M  V30 2436 H 225.234 4.07976 0.0447041 0
M  V30 2437 H 223.909 4.00938 -1.1055 0
M  V30 2438 H 222.486 3.66402 0.693109 0
M  V30 2439 N 224.671 0.411399 1.52136 0
M  V30 2440 C 226.087 0.0623865 1.59478 0
M  V30 2441 C 226.287 -1.42554 1.4241 0
M  V30 2442 O 225.343 -2.19263 1.2522 0
M  V30 2443 C 226.656 0.559331 2.95452 0
M  V30 2444 C 228.204 0.517503 3.08692 0
M  V30 2445 C 228.679 0.990994 4.4715 0
M  V30 2446 N 230.17 0.947908 4.53397 0
M  V30 2447 C 230.905 1.28544 5.58806 0
M  V30 2448 N 230.401 1.69454 6.71757 0
M  V30 2449 N 232.194 1.20526 5.49026 0
M  V30 2450 H 224.345 1.37982 1.61477 0
M  V30 2451 H 226.608 0.566977 0.759764 0
M  V30 2452 H 226.314 1.59938 3.1323 0
M  V30 2453 H 226.188 -0.0298014 3.77188 0
M  V30 2454 H 228.575 -0.513505 2.90598 0
M  V30 2455 H 228.656 1.14272 2.28857 0
M  V30 2456 H 228.3 2.02034 4.65988 0
M  V30 2457 H 228.23 0.34257 5.25485 0
M  V30 2458 H 230.721 0.647157 3.72317 0
M  V30 2459 H 231.034 1.93513 7.48179 0
M  V30 2460 H 229.379 1.73359 6.73032 0
M  V30 2461 H 232.57 0.884505 4.59667 0
M  V30 2462 H 232.743 1.47161 6.31069 0
M  V30 2463 N 226.149 -1.5696 0.141893 0
M  V30 2464 C 227.112 -2.15316 -0.785587 0
M  V30 2465 C 228.112 -1.09366 -1.1788 0
M  V30 2466 O 229.302 -1.35031 -1.10056 0
M  V30 2467 C 226.434 -2.71211 -2.06537 0
M  V30 2468 H 227.627 -2.98608 -0.278041 0
M  V30 2469 H 225.18 -1.5593 -0.107519 0
M  V30 2470 H 225.915 -1.91571 -2.6167 0
M  V30 2471 H 225.7 -3.4872 -1.79268 0
M  V30 2472 H 227.19 -3.16189 -2.72789 0
M  V30 2473 N 227.627 0.131896 -1.57047 0
M  V30 2474 C 228.852 0.860418 -1.8871 0
M  V30 2475 C 229.277 1.73251 -0.73251 0
M  V30 2476 O 228.635 1.785 0.317429 0
M  V30 2477 C 228.683 1.68047 -3.19049 0
M  V30 2478 O 227.787 2.7862 -3.04047 0
M  V30 2479 H 227.128 0.238743 -0.619595 0
M  V30 2480 H 229.658 0.118169 -2.04258 0
M  V30 2481 H 229.668 2.07238 -3.51449 0
M  V30 2482 H 228.343 1.04018 -4.02682 0
M  V30 2483 H 226.92 2.42726 -2.83088 0
M  V30 2484 N 229.106 1.52395 0.401703 0
M  V30 2485 C 230.517 1.58899 0.980202 0
M  V30 2486 C 230.868 0.434032 1.91339 0
M  V30 2487 O 229.993 -0.444619 2.11783 0
M  V30 2488 C 230.588 2.87994 1.78451 0
M  V30 2489 C 229.147 2.96953 2.31292 0
M  V30 2490 C 228.294 2.53903 1.11483 0
M  V30 2491 H 231.245 1.57657 0.18168 0
M  V30 2492 H 231.266 2.73765 2.64259 0
M  V30 2493 H 230.778 3.72035 1.10506 0
M  V30 2494 H 228.879 2.17422 3.02586 0
M  V30 2495 H 228.992 4.01344 2.61649 0
M  V30 2496 H 227.356 2.07925 1.47104 0
M  V30 2497 H 228.139 3.40326 0.450928 0
M  V30 2498 N 230.584 -0.659388 1.43143 0
M  V30 2499 C 231.809 -1.45221 1.48073 0
M  V30 2500 C 232.234 -1.87845 0.097995 0
M  V30 2501 O 231.592 -1.56985 -0.90694 0
M  V30 2502 C 231.64 -2.66748 2.42647 0
M  V30 2503 O 230.744 -3.65583 1.90848 0
M  V30 2504 H 230.085 -0.435669 0.501088 0
M  V30 2505 H 232.615 -0.807432 1.87994 0
M  V30 2506 H 232.625 -3.14637 2.59745 0
M  V30 2507 H 231.3 -2.35067 3.43098 0
M  V30 2508 H 229.877 -3.24693 1.83381 0
M  V30 2509 N 232.062 -1.29571 -0.897171 0
M  V30 2510 C 232.994 -1.10724 -2.00681 0
M  V30 2511 C 234.007 -0.0540026 -1.6271 0
M  V30 2512 O 235.196 -0.298783 -1.75982 0
M  V30 2513 C 232.296 -0.663912 -3.32333 0
M  V30 2514 C 231.469 -1.79622 -3.98816 0
M  V30 2515 C 230.528 -1.34349 -5.0876 0
M  V30 2516 O 229.554 -2.04864 -5.31055 0
M  V30 2517 N 230.756 -0.215764 -5.80099 0
M  V30 2518 H 233.521 -2.06291 -2.17403 0
M  V30 2519 H 231.082 -1.21544 -1.06951 0
M  V30 2520 H 233.074 -0.344295 -4.03233 0
M  V30 2521 H 231.644 0.199375 -3.11964 0
M  V30 2522 H 230.864 -2.28459 -3.21248 0
M  V30 2523 H 232.152 -2.55535 -4.39976 0
M  V30 2524 H 231.55 0.372091 -5.64475 0
M  V30 2525 H 230.107 0.0444707 -6.51785 0
M  V30 2526 N 233.54 1.10788 -1.12088 0
M  V30 2527 C 234.77 1.86191 -0.895351 0
M  V30 2528 C 235.178 1.80763 0.558702 0
M  V30 2529 O 234.521 1.19188 1.39785 0
M  V30 2530 C 234.583 3.35659 -1.28737 0
M  V30 2531 C 234.247 3.64849 -2.75198 0
M  V30 2532 C 235.244 3.61757 -3.734 0
M  V30 2533 C 232.929 3.93641 -3.12013 0
M  V30 2534 C 234.923 3.87045 -5.06434 0
M  V30 2535 C 232.61 4.18585 -4.4523 0
M  V30 2536 C 233.608 4.15277 -5.42249 0
M  V30 2537 O 233.296 4.3959 -6.73065 0
M  V30 2538 H 233.028 0.595425 -0.32007 0
M  V30 2539 H 235.582 1.40992 -1.49367 0
M  V30 2540 H 233.812 3.81497 -0.63224 0
M  V30 2541 H 235.501 3.92441 -1.03656 0
M  V30 2542 H 236.267 3.39557 -3.46303 0
M  V30 2543 H 232.146 3.95348 -2.37109 0
M  V30 2544 H 235.69 3.84378 -5.82151 0
M  V30 2545 H 231.587 4.40264 -4.72057 0
M  V30 2546 H 232.355 4.57123 -6.78956 0
M  V30 2547 N 235.018 0.912232 1.28515 0
M  V30 2548 C 235.951 0.343928 2.25593 0
M  V30 2549 C 236.929 -0.550994 1.5298 0
M  V30 2550 O 238.113 -0.494991 1.81885 0
M  V30 2551 C 235.24 -0.508525 3.34861 0
M  V30 2552 C 234.286 0.320808 4.25292 0
M  V30 2553 S 235.119 1.72658 5.06902 0
M  V30 2554 C 236.275 0.881394 6.19663 0
M  V30 2555 H 236.508 1.16674 2.73449 0
M  V30 2556 H 234.041 0.713384 1.36931 0
M  V30 2557 H 235.999 -0.994539 3.9827 0
M  V30 2558 H 234.66 -1.30571 2.85675 0
M  V30 2559 H 233.853 -0.330941 5.02912 0
M  V30 2560 H 233.455 0.74042 3.66598 0
M  V30 2561 H 235.747 0.110359 6.7741 0
M  V30 2562 H 236.69 1.63009 6.89082 0
M  V30 2563 H 237.098 0.430239 5.62858 0
M  V30 2564 N 236.496 -1.42363 0.676048 0
M  V30 2565 C 237.744 -2.01123 0.198437 0
M  V30 2566 C 238.065 -1.53731 -1.19966 0
M  V30 2567 O 237.335 -0.759518 -1.80577 0
M  V30 2568 H 235.915 -0.743678 0.0703721 0
M  V30 2569 H 238.577 -1.74263 0.872837 0
M  V30 2570 H 237.673 -3.11454 0.200686 0
M  V30 2571 N 237.974 -0.419461 -1.51915 0
M  V30 2572 C 239.385 0.0477853 -1.86639 0
M  V30 2573 C 239.736 1.43531 -1.33766 0
M  V30 2574 O 238.861 2.05401 -0.68113 0
M  V30 2575 C 239.456 0.0934885 -3.38671 0
M  V30 2576 C 238.015 0.505097 -3.72996 0
M  V30 2577 C 237.162 -0.313792 -2.75519 0
M  V30 2578 H 240.113 -0.636088 -1.45395 0
M  V30 2579 H 240.134 0.906667 -3.6954 0
M  V30 2580 H 239.646 -0.916501 -3.77123 0
M  V30 2581 H 237.747 1.52135 -3.40126 0
M  V30 2582 H 237.86 0.242309 -4.78487 0
M  V30 2583 H 236.224 0.225363 -2.53701 0
M  V30 2584 H 237.007 -1.32232 -3.16812 0
M  V30 2585 N 239.452 1.56882 -0.150215 0
M  V30 2586 C 240.399 2.16922 0.788244 0
M  V30 2587 C 241.369 1.10303 1.24187 0
M  V30 2588 O 242.554 1.38359 1.31383 0
M  V30 2589 C 239.694 2.79754 2.02068 0
M  V30 2590 C 238.807 4.00775 1.61257 0
M  V30 2591 C 237.942 4.51595 2.79705 0
M  V30 2592 C 236.981 5.65074 2.35282 0
M  V30 2593 N 236.118 6.10499 3.4675 0
M  V30 2594 H 240.958 2.96779 0.269444 0
M  V30 2595 H 238.495 1.46599 0.12128 0
M  V30 2596 H 240.453 3.14329 2.74323 0
M  V30 2597 H 239.083 2.02536 2.51354 0
M  V30 2598 H 238.135 3.72158 0.787553 0
M  V30 2599 H 239.447 4.82978 1.24633 0
M  V30 2600 H 238.601 4.88242 3.60145 0
M  V30 2601 H 237.34 3.68406 3.19576 0
M  V30 2602 H 236.345 5.28 1.53283 0
M  V30 2603 H 237.57 6.50052 1.96493 0
M  V30 2604 H 235.516 5.30243 3.86236 0
M  V30 2605 H 235.433 6.87637 3.14152 0
M  V30 2606 H 236.701 6.51791 4.27537 0
M  V30 2607 N 240.93 -0.123565 1.57115 0
M  V30 2608 C 242.346 -0.476961 1.52306 0
M  V30 2609 C 242.546 -1.82109 0.86248 0
M  V30 2610 O 241.602 -2.48586 0.442884 0
M  V30 2611 C 242.915 -0.465661 2.97073 0
M  V30 2612 C 244.463 -0.549534 3.08138 0
M  V30 2613 C 244.938 -0.568669 4.54456 0
M  V30 2614 N 246.429 -0.630237 4.58892 0
M  V30 2615 C 247.164 -0.666415 5.69514 0
M  V30 2616 N 246.66 -0.660514 6.89644 0
M  V30 2617 N 248.453 -0.709077 5.5761 0
M  V30 2618 H 240.604 0.757198 1.98445 0
M  V30 2619 H 242.867 0.278808 0.906074 0
M  V30 2620 H 242.573 0.454232 3.48754 0
M  V30 2621 H 242.447 -1.29513 3.54269 0
M  V30 2622 H 244.834 -1.45985 2.56461 0
M  V30 2623 H 244.915 0.307532 2.53945 0
M  V30 2624 H 244.559 0.337581 5.06777 0
M  V30 2625 H 244.489 -1.44256 5.06456 0
M  V30 2626 H 246.98 -0.641146 3.72421 0
M  V30 2627 H 247.293 -0.690616 7.69708 0
M  V30 2628 H 245.638 -0.628012 6.92157 0
M  V30 2629 H 248.829 -0.711019 4.62668 0
M  V30 2630 H 249.002 -0.733804 6.43832 0
M  V30 2631 N 242.408 -1.52605 -0.393616 0
M  V30 2632 C 243.655 -1.67424 -1.1391 0
M  V30 2633 C 243.983 -0.411859 -1.90089 0
M  V30 2634 O 243.238 0.605626 -1.86093 0
M  V30 2635 C 243.537 -2.85721 -2.14705 0
M  V30 2636 C 243.203 -4.23342 -1.55218 0
M  V30 2637 C 241.865 -4.60771 -1.3872 0
M  V30 2638 C 244.217 -5.09041 -1.11924 0
M  V30 2639 C 241.545 -5.81563 -0.774689 0
M  V30 2640 C 243.897 -6.30452 -0.520853 0
M  V30 2641 C 242.561 -6.66617 -0.343134 0
M  V30 2642 H 241.831 -0.612648 -0.416826 0
M  V30 2643 H 244.478 -1.8674 -0.424315 0
M  V30 2644 H 242.783 -2.60803 -2.92385 0
M  V30 2645 H 244.48 -2.94382 -2.72288 0
M  V30 2646 H 241.07 -3.93855 -1.69045 0
M  V30 2647 H 245.254 -4.80695 -1.23473 0
M  V30 2648 H 240.51 -6.08196 -0.625154 0
M  V30 2649 H 244.684 -6.96175 -0.177065 0
M  V30 2650 H 242.311 -7.60083 0.133571 0
M  V30 2651 N 243.887 0.651787 -1.4349 0
M  V30 2652 C 245.303 0.96762 -1.26922 0
M  V30 2653 C 245.503 2.00602 -0.189982 0
M  V30 2654 O 244.559 2.48793 0.431107 0
M  V30 2655 C 245.872 1.45052 -2.63401 0
M  V30 2656 C 247.42 1.5671 -2.70945 0
M  V30 2657 C 247.895 2.0839 -4.07845 0
M  V30 2658 N 249.386 2.1569 -4.09917 0
M  V30 2659 C 250.121 2.56804 -5.12679 0
M  V30 2660 N 249.617 2.97203 -6.25813 0
M  V30 2661 N 251.41 2.56756 -5.00033 0
M  V30 2662 H 243.561 -0.0353158 -2.12371 0
M  V30 2663 H 245.824 0.0467858 -0.946845 0
M  V30 2664 H 245.53 0.761926 -3.43348 0
M  V30 2665 H 245.404 2.42529 -2.88894 0
M  V30 2666 H 247.791 2.2467 -1.9133 0
M  V30 2667 H 247.872 0.57662 -2.49216 0
M  V30 2668 H 247.516 1.41031 -4.87927 0
M  V30 2669 H 247.446 3.08271 -4.26938 0
M  V30 2670 H 249.937 1.87237 -3.28254 0
M  V30 2671 H 250.25 3.27328 -7.00055 0
M  V30 2672 H 248.595 2.95004 -6.29283 0
M  V30 2673 H 251.786 2.24572 -4.10713 0
M  V30 2674 H 251.959 2.88475 -5.80247 0
M  V30 2675 N 245.365 1.30045 0.890287 0
M  V30 2676 C 246.781 1.08261 1.17268 0
M  V30 2677 C 246.981 -0.160063 2.00863 0
M  V30 2678 O 246.037 -0.855181 2.37577 0
M  V30 2679 C 247.35 2.34323 1.8845 0
M  V30 2680 C 248.898 2.39735 2.01237 0
M  V30 2681 C 249.373 3.65625 2.7583 0
M  V30 2682 N 250.864 3.66402 2.83379 0
M  V30 2683 C 251.599 4.60498 3.41657 0
M  V30 2684 N 251.095 5.64933 4.01026 0
M  V30 2685 N 252.888 4.48051 3.39421 0
M  V30 2686 H 245.039 2.09777 0.332762 0
M  V30 2687 H 247.302 0.92446 0.209948 0
M  V30 2688 H 247.008 3.2498 1.34465 0
M  V30 2689 H 246.882 2.4256 2.88867 0
M  V30 2690 H 249.269 1.4956 2.54393 0
M  V30 2691 H 249.35 2.35476 0.999232 0
M  V30 2692 H 248.994 4.56156 2.23347 0
M  V30 2693 H 248.924 3.67144 3.77509 0
M  V30 2694 H 251.415 2.90896 2.41222 0
M  V30 2695 H 251.728 6.32841 4.43545 0
M  V30 2696 H 250.073 5.68732 3.99461 0
M  V30 2697 H 253.264 3.65649 2.92264 0
M  V30 2698 H 253.437 5.21565 3.84544 0
M  V30 2699 N 246.843 -1.10192 1.12674 0
M  V30 2700 C 248.068 -1.86523 0.906853 0
M  V30 2701 C 248.493 -1.80221 -0.538711 0
M  V30 2702 O 247.851 -1.17396 -1.38158 0
M  V30 2703 C 247.899 -3.32758 1.3894 0
M  V30 2704 O 247.003 -4.08449 0.5695 0
M  V30 2705 H 246.344 -0.578678 0.325619 0
M  V30 2706 H 248.874 -1.39203 1.49946 0
M  V30 2707 H 248.884 -3.83608 1.38958 0
M  V30 2708 H 247.559 -3.36661 2.44197 0
M  V30 2709 H 246.136 -3.67427 0.636528 0
M  V30 2710 N 248.321 -0.919034 -1.28029 0
M  V30 2711 C 249.732 -0.600735 -1.76771 0
M  V30 2712 C 250.083 0.884024 -1.75156 0
M  V30 2713 O 249.208 1.69163 -1.34956 0
M  V30 2714 C 249.803 -1.08372 -3.21 0
M  V30 2715 C 248.362 -0.816248 -3.67443 0
M  V30 2716 C 247.509 -1.24742 -2.47658 0
M  V30 2717 H 250.46 -1.09974 -1.14418 0
M  V30 2718 H 250.481 -0.427512 -3.78091 0
M  V30 2719 H 249.993 -2.16437 -3.22144 0
M  V30 2720 H 248.094 0.250968 -3.71754 0
M  V30 2721 H 248.207 -1.4277 -4.57333 0
M  V30 2722 H 246.571 -0.666083 -2.45836 0
M  V30 2723 H 247.354 -2.33653 -2.51518 0
M  V30 2724 N 249.799 1.42003 -0.683588 0
M  V30 2725 C 251.039 2.03282 -0.213513 0
M  V30 2726 C 251.403 1.52924 1.16097 0
M  V30 2727 O 252.604 2.06048 1.7262 0
M  V30 2728 C 250.875 3.56483 -0.255856 0
M  V30 2729 S 252.434 4.3857 0.14193 0
M  V30 2730 H 249.252 0.705659 -0.0869853 0
M  V30 2731 H 251.854 1.73619 -0.8987 0
M  V30 2732 H 250.558 3.90631 -1.25841 0
M  V30 2733 H 250.089 3.90831 0.448875 0
M  V30 2734 H 252.104 4.76828 1.37295 0
M  V30 2735 N 251.277 0.427512 1.51691 0
M  V30 2736 C 252.505 -0.141191 2.06418 0
M  V30 2737 C 252.92 -1.37303 1.29589 0
M  V30 2738 O 252.277 -1.79059 0.352732 0
M  V30 2739 C 252.328 -0.473266 3.58389 0
M  V30 2740 O 252.049 0.709673 4.32314 0
M  V30 2741 C 253.55 -1.09371 4.29596 0
M  V30 2742 H 250.77 -0.0122747 0.670888 0
M  V30 2743 H 253.314 0.603764 1.95384 0
M  V30 2744 H 251.469 -1.16812 3.69369 0
M  V30 2745 H 251.883 0.42807 5.2275 0
M  V30 2746 H 253.357 -1.27613 5.37046 0
M  V30 2747 H 253.834 -2.072 3.87253 0
M  V30 2748 H 254.44 -0.43853 4.23033 0
M  V30 2749 N 252.755 -1.56801 0.158532 0
M  V30 2750 C 254.004 -1.95665 -0.489702 0
M  V30 2751 C 254.317 -1.04654 -1.65248 0
M  V30 2752 O 255.523 -1.33146 -2.3661 0
M  V30 2753 C 253.979 -3.47874 -0.922582 0
M  V30 2754 C 253.587 -4.47489 0.213893 0
M  V30 2755 C 255.331 -3.95583 -1.53996 0
M  V30 2756 C 253.238 -5.90921 -0.237903 0
M  V30 2757 H 252.168 -0.730516 -0.186716 0
M  V30 2758 H 254.819 -1.81861 0.244722 0
M  V30 2759 H 253.201 -3.57051 -1.71261 0
M  V30 2760 H 254.375 -4.50017 0.991036 0
M  V30 2761 H 252.69 -4.09764 0.740407 0
M  V30 2762 H 255.287 -5.0019 -1.8898 0
M  V30 2763 H 255.63 -3.37789 -2.43319 0
M  V30 2764 H 256.163 -3.8937 -0.814611 0
M  V30 2765 H 252.902 -6.52559 0.620236 0
M  V30 2766 H 252.422 -5.91729 -0.980676 0
M  V30 2767 H 254.101 -6.43352 -0.686067 0
M  V30 2768 N 254.233 0.115231 -1.57178 0
M  V30 2769 C 255.458 0.840354 -1.89612 0
M  V30 2770 C 255.883 1.72464 -0.750845 0
M  V30 2771 O 255.241 1.78826 0.298478 0
M  V30 2772 C 255.289 1.64654 -3.20814 0
M  V30 2773 O 254.393 2.7538 -3.06985 0
M  V30 2774 H 253.734 0.232158 -0.622092 0
M  V30 2775 H 256.264 0.0964977 -2.04372 0
M  V30 2776 H 256.274 2.03499 -3.53627 0
M  V30 2777 H 254.949 0.997416 -4.03763 0
M  V30 2778 H 253.526 2.3971 -2.85646 0
M  V30 2779 N 255.711 1.52812 0.385517 0
M  V30 2780 C 256.621 1.80766 1.49535 0
M  V30 2781 C 257.637 0.694651 1.59532 0
M  V30 2782 O 258.813 0.982611 1.75803 0
M  V30 2783 C 255.878 1.97381 2.85029 0
M  V30 2784 C 254.939 3.21295 2.84724 0
M  V30 2785 C 254.172 3.37108 4.13756 0
M  V30 2786 O 254.395 2.5765 5.08893 0
M  V30 2787 O 253.329 4.30378 4.20783 0
M  V30 2788 H 257.155 2.75015 1.28842 0
M  V30 2789 H 254.74 1.37946 0.573697 0
M  V30 2790 H 256.622 2.09996 3.65349 0
M  V30 2791 H 255.297 1.06322 3.05741 0
M  V30 2792 H 254.204 3.1412 2.03174 0
M  V30 2793 H 255.537 4.12212 2.68965 0
M  V30 2794 N 257.189 -0.644168 1.43834 0
M  V30 2795 C 258.119 -1.76814 1.52509 0
M  V30 2796 C 259.1 -1.65823 0.379052 0
M  V30 2797 O 260.285 -1.84781 0.597466 0
M  V30 2798 C 257.415 -3.15288 1.4564 0
M  V30 2799 C 256.369 -3.41053 2.58586 0
M  V30 2800 C 255.695 -4.79421 2.36769 0
M  V30 2801 C 256.995 -3.34902 4.00797 0
M  V30 2802 H 258.689 -1.69812 2.46586 0
M  V30 2803 H 256.235 -0.815542 1.1868 0
M  V30 2804 H 258.188 -3.93681 1.50311 0
M  V30 2805 H 256.912 -3.23043 0.480725 0
M  V30 2806 H 255.571 -2.65035 2.53282 0
M  V30 2807 H 255.219 -4.83863 1.37424 0
M  V30 2808 H 254.919 -4.9762 3.12487 0
M  V30 2809 H 256.443 -5.6006 2.43238 0
M  V30 2810 H 257.857 -4.03218 4.07539 0
M  V30 2811 H 256.254 -3.64637 4.76613 0
M  V30 2812 H 257.324 -2.32928 4.25291 0
M  V30 2813 N 258.668 -1.30515 -0.883378 0
M  V30 2814 C 260.079 -1.17509 -1.45081 0
M  V30 2815 C 260.43 0.223605 -1.94922 0
M  V30 2816 O 259.555 1.12041 -1.85137 0
M  V30 2817 C 260.15 -2.12715 -2.63701 0
M  V30 2818 C 258.709 -2.03682 -3.16529 0
M  V30 2819 C 257.856 -2.02706 -1.89224 0
M  V30 2820 H 260.807 -1.42762 -0.693165 0
M  V30 2821 H 260.828 -1.70891 -3.39965 0
M  V30 2822 H 260.34 -3.14505 -2.27395 0
M  V30 2823 H 258.441 -1.05039 -3.57488 0
M  V30 2824 H 258.554 -2.92146 -3.7972 0
M  V30 2825 H 256.918 -1.4753 -2.07622 0
M  V30 2826 H 257.701 -3.06229 -1.55174 0
M  V30 2827 N 260.146 1.09593 -1.13257 0
M  V30 2828 C 261.557 1.63229 -0.906274 0
M  V30 2829 C 261.908 1.8811 0.557578 0
M  V30 2830 O 261.033 1.62953 1.42391 0
M  V30 2831 C 261.628 2.96535 -1.63867 0
M  V30 2832 C 260.187 3.47003 -1.45828 0
M  V30 2833 C 259.334 2.2145 -1.66898 0
M  V30 2834 H 262.285 0.92978 -1.28611 0
M  V30 2835 H 262.306 3.64411 -1.09476 0
M  V30 2836 H 261.818 2.78394 -2.70404 0
M  V30 2837 H 259.919 3.70272 -0.415848 0
M  V30 2838 H 260.032 4.24551 -2.2202 0
M  V30 2839 H 258.396 2.30022 -1.09371 0
M  V30 2840 H 259.179 2.0583 -2.74752 0
M  V30 2841 N 261.624 0.925811 1.2754 0
M  V30 2842 C 262.873 0.561084 1.93739 0
M  V30 2843 C 263.186 -0.901685 1.73577 0
M  V30 2844 O 264.392 -1.37511 2.34101 0
M  V30 2845 C 262.848 0.952668 3.47062 0
M  V30 2846 C 262.456 2.43599 3.75983 0
M  V30 2847 C 264.2 0.659103 4.19352 0
M  V30 2848 C 262.107 2.76707 5.22673 0
M  V30 2849 H 261.037 0.206122 0.725279 0
M  V30 2850 H 263.688 1.12637 1.44863 0
M  V30 2851 H 262.07 0.316053 3.94737 0
M  V30 2852 H 263.244 3.12035 3.39073 0
M  V30 2853 H 261.559 2.70125 3.16893 0
M  V30 2854 H 264.156 0.882985 5.27359 0
M  V30 2855 H 264.499 -0.403607 4.14339 0
M  V30 2856 H 265.032 1.25473 3.77494 0
M  V30 2857 H 261.771 3.8188 5.32774 0
M  V30 2858 H 261.291 2.12919 5.60737 0
M  V30 2859 H 262.97 2.6435 5.90532 0
M  V30 2860 N 263.102 -1.41638 0.69111 0
M  V30 2861 C 264.379 -1.95036 0.148421 0
M  V30 2862 C 264.759 -1.63072 -1.34055 0
M  V30 2863 O 264.107 -0.93538 -2.08478 0
M  V30 2864 C 264.317 -3.46279 0.434951 0
M  V30 2865 C 265.665 -4.23069 0.360275 0
M  V30 2866 O 266.689 -3.54277 0.369613 0
M  V30 2867 O 265.548 -5.45583 0.316534 0
M  V30 2868 H 262.642 -0.826908 0.0123654 0
M  V30 2869 H 265.188 -1.5138 0.766963 0
M  V30 2870 H 263.96 -3.6281 1.46576 0
M  V30 2871 H 263.583 -3.97019 -0.214787 0
M  V30 2872 N 264.58 -0.43555 -1.51462 0
M  V30 2873 C 265.543 0.365137 -2.26273 0
M  V30 2874 C 266.543 0.951227 -1.29647 0
M  V30 2875 O 267.733 0.825958 -1.53374 0
M  V30 2876 C 264.865 1.51645 -3.05314 0
M  V30 2877 H 266.058 -0.290474 -2.9849 0
M  V30 2878 H 263.611 -0.188676 -1.55157 0
M  V30 2879 H 264.346 2.20816 -2.3751 0
M  V30 2880 H 264.131 1.10238 -3.76284 0
M  V30 2881 H 265.621 2.08218 -3.61987 0
M  V30 2882 N 266.058 1.56714 -0.166846 0
M  V30 2883 C 267.304 1.97039 0.479962 0
M  V30 2884 C 267.637 1.05264 1.63197 0
M  V30 2885 O 266.912 0.0988833 1.94248 0
M  V30 2886 C 267.195 3.46867 0.967212 0
M  V30 2887 C 267.048 4.49421 -0.18466 0
M  V30 2888 C 268.367 3.9968 1.84238 0
M  V30 2889 H 265.486 0.71641 0.172992 0
M  V30 2890 H 268.128 1.8832 -0.252079 0
M  V30 2891 H 266.278 3.54428 1.59101 0
M  V30 2892 H 267.95 4.53924 -0.821621 0
M  V30 2893 H 266.193 4.25573 -0.840837 0
M  V30 2894 H 266.864 5.51644 0.198317 0
M  V30 2895 H 269.34 3.94723 1.31655 0
M  V30 2896 H 268.216 5.04941 2.15234 0
M  V30 2897 H 268.477 3.43226 2.78654 0
M  V30 2898 N 267.536 -0.106894 1.57237 0
M  V30 2899 C 268.466 -1.13148 2.04254 0
M  V30 2900 C 269.447 -1.42476 0.929224 0
M  V30 2901 O 270.632 -1.52709 1.19973 0
M  V30 2902 C 267.762 -2.4545 2.45706 0
M  V30 2903 C 266.716 -2.30558 3.60592 0
M  V30 2904 C 266.042 -3.67931 3.87983 0
M  V30 2905 C 267.342 -1.75597 4.91897 0
M  V30 2906 H 269.036 -0.740374 2.90101 0
M  V30 2907 H 266.582 -0.354696 1.39563 0
M  V30 2908 H 268.535 -3.17389 2.77205 0
M  V30 2909 H 267.259 -2.86475 1.56843 0
M  V30 2910 H 265.918 -1.61067 3.29322 0
M  V30 2911 H 265.566 -4.06462 2.96306 0
M  V30 2912 H 265.266 -3.58817 4.65322 0
M  V30 2913 H 266.79 -4.41356 4.21945 0
M  V30 2914 H 268.204 -2.37364 5.21854 0
M  V30 2915 H 266.601 -1.77272 5.73319 0
M  V30 2916 H 267.671 -0.714451 4.79608 0
M  V30 2917 N 269.014 -1.53014 -0.377408 0
M  V30 2918 C 270.263 -1.67845 -1.11853 0
M  V30 2919 C 270.576 -0.430625 -1.90801 0
M  V30 2920 O 271.782 -0.459261 -2.67587 0
M  V30 2921 C 270.238 -2.96668 -2.03756 0
M  V30 2922 C 269.846 -4.28671 -1.30175 0
M  V30 2923 C 271.59 -3.20865 -2.77932 0
M  V30 2924 C 269.497 -5.48591 -2.20911 0
M  V30 2925 H 268.427 -0.625343 -0.421263 0
M  V30 2926 H 271.078 -1.79514 -0.380409 0
M  V30 2927 H 269.46 -2.78773 -2.8125 0
M  V30 2928 H 270.634 -4.57157 -0.578259 0
M  V30 2929 H 268.949 -4.10825 -0.679108 0
M  V30 2930 H 271.546 -4.07642 -3.46024 0
M  V30 2931 H 271.889 -2.36424 -3.4265 0
M  V30 2932 H 272.422 -3.39379 -2.07525 0
M  V30 2933 H 269.161 -6.35474 -1.6079 0
M  V30 2934 H 268.681 -5.244 -2.91144 0
M  V30 2935 H 270.36 -5.8292 -2.80736 0
M  V30 2936 N 270.492 0.636531 -1.44174 0
M  V30 2937 C 271.717 1.42847 -1.50364 0
M  V30 2938 C 272.142 1.87665 -0.127867 0
M  V30 2939 O 271.5 1.58408 0.88185 0
M  V30 2940 C 271.548 2.62854 -2.4686 0
M  V30 2941 O 270.652 3.62501 -1.9664 0
M  V30 2942 H 269.993 0.427642 -0.507955 0
M  V30 2943 H 272.523 0.777422 -1.89255 0
M  V30 2944 H 272.533 3.10465 -2.64718 0
M  V30 2945 H 271.208 2.29578 -3.46795 0
M  V30 2946 H 269.785 3.21735 -1.88523 0
M  V30 2947 N 271.97 1.30982 0.876444 0
M  V30 2948 C 272.92 1.14688 1.97055 0
M  V30 2949 C 273.904 0.0596593 1.60789 0
M  V30 2950 O 275.096 0.283892 1.74708 0
M  V30 2951 C 272.225 0.849627 3.3262 0
M  V30 2952 C 271.311 1.97752 3.75173 0
M  V30 2953 N 271.702 3.22384 3.89746 0
M  V30 2954 C 270 1.8758 4.04635 0
M  V30 2955 C 270.701 3.96121 4.25985 0
M  V30 2956 N 269.677 3.24237 4.36315 0
M  V30 2957 H 273.479 2.09204 2.06424 0
M  V30 2958 H 270.993 1.22445 1.06682 0
M  V30 2959 H 272.99 0.713895 4.10742 0
M  V30 2960 H 271.65 -0.087376 3.24582 0
M  V30 2961 H 272.661 3.57575 3.74647 0
M  V30 2962 H 269.338 1.01303 4.05024 0
M  V30 2963 H 270.728 5.03491 4.44911 0
M  V30 2964 N 273.449 -1.08991 1.13837 0
M  V30 2965 C 274.397 -2.17841 0.815347 0
M  V30 2966 C 275.391 -1.68164 -0.204233 0
M  V30 2967 O 276.597 -1.79897 -0.0609304 0
M  V30 2968 H 272.972 -0.710654 0.245915 0
M  V30 2969 H 274.943 -2.42315 1.74143 0
M  V30 2970 C 273.692 -3.46381 0.302614 0
M  V30 2971 H 273.015 -3.84979 1.0785 0
M  V30 2972 H 274.455 -4.23844 0.115074 0
M  V30 2973 C 272.914 -3.22556 -0.972591 0
M  V30 2974 O 273.444 -3.45599 -2.04754 0
M  V30 2975 N 271.65 -2.76134 -0.905455 0
M  V30 2976 H 271.197 -2.57582 -0.0305421 0
M  V30 2977 H 271.155 -2.60571 -1.75926 0
M  V30 2978 N 274.927 -0.932562 -1.27047 0
M  V30 2979 C 275.877 -0.406392 -2.24349 0
M  V30 2980 C 276.861 0.492066 -1.53191 0
M  V30 2981 O 278.053 0.328717 -1.73921 0
M  V30 2982 C 275.182 0.335214 -3.41659 0
M  V30 2983 C 274.268 -0.58004 -4.20115 0
M  V30 2984 N 274.659 -1.70203 -4.76303 0
M  V30 2985 C 272.957 -0.383974 -4.44344 0
M  V30 2986 C 273.658 -2.27167 -5.35509 0
M  V30 2987 N 272.634 -1.56068 -5.20715 0
M  V30 2988 H 276.436 -1.26299 -2.65378 0
M  V30 2989 H 273.95 -0.787408 -1.42034 0
M  V30 2990 H 275.947 0.729142 -4.10474 0
M  V30 2991 H 274.607 1.18868 -3.0216 0
M  V30 2992 H 275.618 -2.08433 -4.74106 0
M  V30 2993 H 272.295 0.428436 -4.15296 0
M  V30 2994 H 273.685 -3.21654 -5.89905 0
M  V30 2995 N 276.405 1.4127 -0.698611 0
M  V30 2996 C 277.635 2.05205 -0.239644 0
M  V30 2997 C 278.043 1.52684 1.11733 0
M  V30 2998 O 277.386 0.671222 1.70998 0
M  V30 2999 C 277.448 3.59289 -0.123126 0
M  V30 3000 C 277.112 4.34619 -1.41263 0
M  V30 3001 C 278.109 4.63701 -2.35111 0
M  V30 3002 C 275.794 4.73837 -1.66684 0
M  V30 3003 C 277.788 5.30966 -3.52639 0
M  V30 3004 C 275.475 5.40837 -2.84498 0
M  V30 3005 C 276.473 5.69329 -3.77298 0
M  V30 3006 O 276.161 6.34949 -4.93047 0
M  V30 3007 H 275.893 0.66723 -0.108537 0
M  V30 3008 H 278.447 1.81974 -0.952602 0
M  V30 3009 H 276.677 3.81272 0.645628 0
M  V30 3010 H 278.366 4.04797 0.299056 0
M  V30 3011 H 279.132 4.33882 -2.16729 0
M  V30 3012 H 275.011 4.51039 -0.953135 0
M  V30 3013 H 278.555 5.53121 -4.25091 0
M  V30 3014 H 274.452 5.70075 -3.02795 0
M  V30 3015 H 275.22 6.53445 -4.92902 0
M  V30 3016 N 277.883 0.443576 1.51229 0
M  V30 3017 C 279.16 -0.181038 1.9476 0
M  V30 3018 C 279.54 -1.59523 1.38259 0
M  V30 3019 O 278.888 -2.2122 0.572198 0
M  V30 3020 C 279.098 -0.152422 3.48667 0
M  V30 3021 C 280.446 -0.354923 4.23114 0
M  V30 3022 O 281.47 -0.230257 3.55455 0
M  V30 3023 O 280.329 -0.603674 5.43156 0
M  V30 3024 H 277.423 -0.1266 0.817252 0
M  V30 3025 H 279.969 0.502004 1.62105 0
M  V30 3026 H 278.741 0.836022 3.82265 0
M  V30 3027 H 278.364 -0.878107 3.87782 0
M  V30 3028 N 279.361 -1.56624 0.175154 0
M  V30 3029 C 280.311 -2.14747 -0.766004 0
M  V30 3030 C 281.295 -1.08275 -1.19018 0
M  V30 3031 O 282.487 -1.34388 -1.15191 0
M  V30 3032 C 279.616 -2.79478 -1.99366 0
M  V30 3033 C 278.702 -3.93114 -1.5913 0
M  V30 3034 N 279.093 -4.97752 -0.89872 0
M  V30 3035 C 277.391 -4.04345 -1.88204 0
M  V30 3036 C 278.092 -5.77473 -0.700012 0
M  V30 3037 N 277.068 -5.29207 -1.24263 0
M  V30 3038 H 280.87 -2.93015 -0.22793 0
M  V30 3039 H 278.384 -1.6238 -0.0253843 0
M  V30 3040 H 280.381 -3.19498 -2.67818 0
M  V30 3041 H 279.041 -2.02692 -2.53665 0
M  V30 3042 H 280.052 -5.14903 -0.556347 0
M  V30 3043 H 276.729 -3.38667 -2.44153 0
M  V30 3044 H 278.119 -6.71728 -0.152047 0
M  V30 3045 N 280.839 0.0985539 -1.57292 0
M  V30 3046 C 281.769 1.12064 -2.04851 0
M  V30 3047 C 282.75 1.41981 -0.936767 0
M  V30 3048 O 283.935 1.52071 -1.20781 0
M  V30 3049 C 281.065 2.44144 -2.47004 0
M  V30 3050 C 280.019 2.28643 -3.6181 0
M  V30 3051 C 279.345 3.65869 -3.89929 0
M  V30 3052 C 280.645 1.72986 -4.92822 0
M  V30 3053 H 282.339 0.724979 -2.9049 0
M  V30 3054 H 279.885 0.34729 -1.39749 0
M  V30 3055 H 281.838 3.15914 -2.78884 0
M  V30 3056 H 280.562 2.85639 -1.5836 0
M  V30 3057 H 279.221 1.59318 -3.30172 0
M  V30 3058 H 278.869 4.04885 -2.98458 0
M  V30 3059 H 278.569 3.56344 -4.67218 0
M  V30 3060 H 280.093 4.39112 -4.2428 0
M  V30 3061 H 281.507 2.34593 -5.23105 0
M  V30 3062 H 279.904 1.74229 -5.74251 0
M  V30 3063 H 280.974 0.689007 -4.7998 0
M  V30 3064 N 282.317 1.53212 0.369288 0
M  V30 3065 C 283.594 1.59815 1.12776 0
M  V30 3066 C 283.974 0.403402 2.0721 0
M  V30 3067 O 283.322 -0.606667 2.20299 0
M  V30 3068 C 283.532 2.94664 1.87013 0
M  V30 3069 C 284.88 3.49109 2.41677 0
M  V30 3070 O 285.904 2.96669 1.97144 0
M  V30 3071 O 284.763 4.40775 3.23079 0
M  V30 3072 H 281.857 0.645376 0.517125 0
M  V30 3073 H 284.403 1.65553 0.37285 0
M  V30 3074 H 283.175 3.73061 1.18071 0
M  V30 3075 H 282.798 2.92401 2.69421 0
M  V30 3076 N 283.795 -0.628877 1.44509 0
M  V30 3077 C 285.025 -1.41349 1.50678 0
M  V30 3078 C 285.433 -1.88745 0.131075 0
M  V30 3079 O 284.776 -1.61592 -0.87371 0
M  V30 3080 C 284.838 -2.66608 2.41165 0
M  V30 3081 C 284.502 -2.40993 3.88293 0
M  V30 3082 C 285.499 -2.0268 4.78766 0
M  V30 3083 C 283.184 -2.54563 4.33016 0
M  V30 3084 C 285.178 -1.78269 6.11963 0
M  V30 3085 C 282.865 -2.29766 5.6626 0
M  V30 3086 C 283.863 -1.91678 6.55552 0
M  V30 3087 O 283.551 -1.67158 7.86329 0
M  V30 3088 H 283.283 -0.439851 0.51333 0
M  V30 3089 H 285.837 -0.776084 1.90174 0
M  V30 3090 H 284.067 -3.32994 1.96601 0
M  V30 3091 H 285.756 -3.28615 2.38259 0
M  V30 3092 H 286.522 -1.91751 4.45485 0
M  V30 3093 H 282.401 -2.83179 3.63773 0
M  V30 3094 H 285.945 -1.48465 6.81619 0
M  V30 3095 H 281.842 -2.40306 5.99102 0
M  V30 3096 H 282.61 -1.81386 7.98149 0
M  V30 3097 N 285.273 -1.31445 -0.869486 0
M  V30 3098 C 286.221 -1.19067 -1.99814 0
M  V30 3099 C 287.215 -0.0988569 -1.69111 0
M  V30 3100 O 288.421 -0.260781 -1.78101 0
M  V30 3101 H 284.796 -0.368677 -0.655425 0
M  V30 3102 H 286.767 -2.14555 -2.07385 0
M  V30 3103 C 285.516 -0.915323 -3.35436 0
M  V30 3104 H 284.839 -1.74759 -3.59582 0
M  V30 3105 H 286.279 -0.868895 -4.15001 0
M  V30 3106 C 284.738 0.381928 -3.34728 0
M  V30 3107 O 285.268 1.39857 -3.76567 0
M  V30 3108 N 283.474 0.398633 -2.87853 0
M  V30 3109 H 283.021 -0.429186 -2.54 0
M  V30 3110 H 282.979 1.26651 -2.87762 0
M  V30 3111 N 286.751 1.08385 -1.14413 0
M  V30 3112 C 287.976 1.85057 -0.936413 0
M  V30 3113 C 288.401 1.81055 0.509971 0
M  V30 3114 O 287.759 1.1958 1.36273 0
M  V30 3115 C 287.807 3.30505 -1.44217 0
M  V30 3116 O 286.911 4.07491 -0.634409 0
M  V30 3117 H 286.252 0.573425 -0.334784 0
M  V30 3118 H 288.782 1.36799 -1.52142 0
M  V30 3119 H 288.792 3.81348 -1.45043 0
M  V30 3120 H 287.467 3.32734 -2.49522 0
M  V30 3121 H 286.044 3.66368 -0.694902 0
M  V30 3122 N 288.23 0.939286 1.26551 0
M  V30 3123 C 289.476 0.586715 1.94128 0
M  V30 3124 C 289.809 -0.8717 1.73537 0
M  V30 3125 O 289.084 -1.62339 1.07127 0
M  V30 3126 C 289.367 0.927497 3.4795 0
M  V30 3127 C 289.22 2.44052 3.77834 0
M  V30 3128 C 290.539 0.441569 4.37879 0
M  V30 3129 H 287.658 0.21463 0.705055 0
M  V30 3130 H 290.3 1.17316 1.49455 0
M  V30 3131 H 288.45 0.428431 3.8613 0
M  V30 3132 H 290.122 3.01216 3.4938 0
M  V30 3133 H 288.365 2.8848 3.23978 0
M  V30 3134 H 289.036 2.62947 4.85348 0
M  V30 3135 H 291.512 0.869448 4.06915 0
M  V30 3136 H 290.388 0.708856 5.44304 0
M  V30 3137 H 290.649 -0.658467 4.37169 0
M  V30 3138 N 289.708 -1.40897 0.706093 0
M  V30 3139 C 290.957 -2.00284 0.238574 0
M  V30 3140 C 291.27 -1.56604 -1.17194 0
M  V30 3141 O 292.476 -2.08624 -1.73748 0
M  V30 3142 C 290.932 -3.57934 0.375623 0
M  V30 3143 C 290.54 -4.10591 1.79217 0
M  V30 3144 C 292.284 -4.24488 -0.0315857 0
M  V30 3145 C 290.191 -5.60712 1.88032 0
M  V30 3146 H 289.121 -0.749144 0.0854398 0
M  V30 3147 H 291.772 -1.61251 0.875813 0
M  V30 3148 H 290.154 -3.94622 -0.330042 0
M  V30 3149 H 291.328 -3.85301 2.52745 0
M  V30 3150 H 289.643 -3.56601 2.15 0
M  V30 3151 H 292.24 -5.34698 0.0136842 0
M  V30 3152 H 292.583 -4.02261 -1.072 0
M  V30 3153 H 293.116 -3.92873 0.624181 0
M  V30 3154 H 289.855 -5.87781 2.90161 0
M  V30 3155 H 289.375 -5.87896 1.18903 0
M  V30 3156 H 291.054 -6.25658 1.64805 0
M  V30 3157 N 291.186 -0.45159 -1.50991 0
M  V30 3158 C 292.149 0.341117 -2.26647 0
M  V30 3159 C 293.149 0.937422 -1.30649 0
M  V30 3160 O 294.339 0.809644 -1.54241 0
M  V30 3161 C 291.471 1.48398 -3.06905 0
M  V30 3162 H 292.664 -0.322117 -2.98165 0
M  V30 3163 H 290.217 -0.205122 -1.54948 0
M  V30 3164 H 290.952 2.18284 -2.39838 0
M  V30 3165 H 290.737 1.06241 -3.77432 0
M  V30 3166 H 292.227 2.04367 -3.64176 0
M  V30 3167 N 292.664 1.56529 -0.183458 0
M  V30 3168 C 293.594 2.21549 0.737456 0
M  V30 3169 C 294.575 1.17489 1.23005 0
M  V30 3170 O 295.76 1.45959 1.281 0
M  V30 3171 C 292.89 2.86575 1.96194 0
M  V30 3172 C 291.844 3.96778 1.60473 0
M  V30 3173 C 291.17 4.48911 2.90487 0
M  V30 3174 C 292.47 5.15767 0.823497 0
M  V30 3175 H 294.164 2.98761 0.195453 0
M  V30 3176 H 291.71 1.43702 0.0925686 0
M  V30 3177 H 293.663 3.30739 2.61131 0
M  V30 3178 H 292.387 2.06749 2.52828 0
M  V30 3179 H 291.046 3.53286 0.978997 0
M  V30 3180 H 290.694 3.65862 3.45186 0
M  V30 3181 H 290.394 5.23265 2.67335 0
M  V30 3182 H 291.918 4.95771 3.56432 0
M  V30 3183 H 293.332 5.56549 1.37571 0
M  V30 3184 H 291.729 5.96114 0.690551 0
M  V30 3185 H 292.799 4.84574 -0.177782 0
M  V30 3186 N 294.142 -0.090211 1.57342 0
M  V30 3187 C 295.09 -1.12792 2.03422 0
M  V30 3188 C 296.084 -1.41182 0.936166 0
M  V30 3189 O 297.29 -1.40805 1.12133 0
M  V30 3190 H 293.665 -0.380986 0.648347 0
M  V30 3191 H 295.636 -0.71299 2.89757 0
M  V30 3192 C 294.385 -2.43855 2.47851 0
M  V30 3193 H 293.708 -2.22855 3.31927 0
M  V30 3194 H 295.148 -3.14955 2.83865 0
M  V30 3195 C 293.607 -3.08503 1.3538 0
M  V30 3196 O 294.137 -3.95805 0.685641 0
M  V30 3197 N 292.343 -2.68831 1.10355 0
M  V30 3198 H 291.89 -1.97929 1.64869 0
M  V30 3199 H 291.848 -3.12412 0.353031 0
M  V30 3200 N 295.62 -1.53406 -0.361157 0
M  V30 3201 C 296.53 -1.83122 -1.4664 0
M  V30 3202 C 297.546 -0.719943 -1.58407 0
M  V30 3203 O 298.722 -1.01046 -1.74218 0
M  V30 3204 C 295.787 -2.01891 -2.81853 0
M  V30 3205 C 294.848 -3.25784 -2.79577 0
M  V30 3206 C 294.081 -3.43648 -4.0834 0
M  V30 3207 O 294.304 -2.65714 -5.0473 0
M  V30 3208 O 293.238 -4.37018 -4.13883 0
M  V30 3209 H 297.064 -2.7703 -1.24451 0
M  V30 3210 H 294.649 -1.38841 -0.551678 0
M  V30 3211 H 296.531 -2.15782 -3.61962 0
M  V30 3212 H 295.206 -1.11173 -3.0401 0
M  V30 3213 H 294.113 -3.17312 -1.98151 0
M  V30 3214 H 295.446 -4.16439 -2.62373 0
M  V30 3215 N 297.098 0.621204 -1.44841 0
M  V30 3216 C 298.514 0.94048 -1.28946 0
M  V30 3217 C 298.714 2.00154 -0.23249 0
M  V30 3218 O 297.77 2.49651 0.378237 0
M  V30 3219 C 299.083 1.39433 -2.66419 0
M  V30 3220 C 300.631 1.50927 -2.74208 0
M  V30 3221 C 301.106 1.99692 -4.12174 0
M  V30 3222 N 302.597 2.06947 -4.144 0
M  V30 3223 C 303.332 2.45871 -5.1801 0
M  V30 3224 N 302.828 2.83862 -6.31977 0
M  V30 3225 N 304.621 2.46092 -5.05366 0
M  V30 3226 H 296.772 -0.0803548 -2.12248 0
M  V30 3227 H 299.035 0.0266913 -0.947624 0
M  V30 3228 H 298.741 0.688925 -3.44887 0
M  V30 3229 H 298.615 2.36347 -2.93973 0
M  V30 3230 H 301.002 2.20561 -1.96053 0
M  V30 3231 H 301.083 0.523627 -2.50383 0
M  V30 3232 H 300.727 1.30649 -4.90809 0
M  V30 3233 H 300.657 2.99146 -4.33381 0
M  V30 3234 H 303.148 1.80232 -3.32152 0
M  V30 3235 H 303.461 3.12405 -7.0684 0
M  V30 3236 H 301.806 2.8159 -6.35399 0
M  V30 3237 H 304.997 2.1581 -4.15384 0
M  V30 3238 H 305.17 2.76102 -5.86235 0
M  V30 3239 N 298.576 1.31904 0.862503 0
M  V30 3240 C 299.823 1.22017 1.61611 0
M  V30 3241 C 300.151 -0.21991 1.93253 0
M  V30 3242 O 299.406 -1.17076 1.56817 0
M  V30 3243 C 299.705 2.01713 2.95037 0
M  V30 3244 C 299.371 3.51145 2.82857 0
M  V30 3245 C 298.033 3.91889 2.79243 0
M  V30 3246 C 300.385 4.46204 2.69353 0
M  V30 3247 C 297.713 5.25947 2.59993 0
M  V30 3248 C 300.065 5.80397 2.5164 0
M  V30 3249 C 298.729 6.20352 2.46413 0
M  V30 3250 H 297.999 0.44649 0.591378 0
M  V30 3251 H 300.646 1.63248 1.00111 0
M  V30 3252 H 298.951 1.53185 3.60613 0
M  V30 3253 H 300.648 1.91437 3.52353 0
M  V30 3254 H 297.238 3.1878 2.86491 0
M  V30 3255 H 301.422 4.15652 2.71196 0
M  V30 3256 H 296.678 5.5597 2.54376 0
M  V30 3257 H 300.852 6.53676 2.40169 0
M  V30 3258 H 298.479 7.24172 2.31256 0
M  V30 3259 N 300.054 -1.07777 1.14986 0
M  V30 3260 C 301.302 -1.79934 0.920235 0
M  V30 3261 C 301.623 -1.86955 -0.554336 0
M  V30 3262 O 300.893 -1.36731 -1.40291 0
M  V30 3263 H 299.473 -0.666424 0.337473 0
M  V30 3264 H 302.135 -1.3027 1.44968 0
M  V30 3265 H 301.231 -2.82539 1.32583 0
M  V30 3266 N 301.532 -0.945985 -1.26051 0
M  V30 3267 C 302.48 -0.450259 -2.282 0
M  V30 3268 C 303.474 0.47497 -1.62605 0
M  V30 3269 O 304.68 0.352653 -1.76512 0
M  V30 3270 H 301.055 -0.127081 -0.741184 0
M  V30 3271 H 303.026 -1.32422 -2.67408 0
M  V30 3272 C 301.775 0.26467 -3.46691 0
M  V30 3273 H 301.098 -0.438123 -3.97392 0
M  V30 3274 H 302.538 0.575678 -4.20074 0
M  V30 3275 C 300.997 1.48416 -3.02447 0
M  V30 3276 O 301.527 2.58227 -3.07704 0
M  V30 3277 N 299.733 1.34243 -2.57735 0
M  V30 3278 H 299.28 0.448994 -2.53657 0
M  V30 3279 H 299.238 2.15957 -2.28495 0
M  V30 3280 N 303.011 1.40521 -0.713556 0
M  V30 3281 C 303.921 2.34522 -0.0606667 0
M  V30 3282 C 304.937 1.57193 0.74607 0
M  V30 3283 O 306.113 1.89591 0.679493 0
M  V30 3284 C 303.178 3.36081 0.851491 0
M  V30 3285 C 302.239 4.29286 0.0349339 0
M  V30 3286 C 301.472 5.25994 0.903649 0
M  V30 3287 O 301.695 5.28616 2.14292 0
M  V30 3288 O 300.629 6.00918 0.343723 0
M  V30 3289 H 304.455 2.91968 -0.835972 0
M  V30 3290 H 302.04 1.41681 -0.47402 0
M  V30 3291 H 303.922 3.98369 1.37404 0
M  V30 3292 H 302.597 2.81052 1.60598 0
M  V30 3293 H 301.504 3.70289 -0.532633 0
M  V30 3294 H 302.837 4.87462 -0.681287 0
M  V30 3295 N 304.489 0.459591 1.5075 0
M  V30 3296 C 305.419 -0.330644 2.31147 0
M  V30 3297 C 306.4 -1.00087 1.37538 0
M  V30 3298 O 307.585 -1.00025 1.66459 0
M  V30 3299 C 304.715 -1.41958 3.16962 0
M  V30 3300 C 303.669 -0.871608 4.19031 0
M  V30 3301 C 302.995 -2.05797 4.9351 0
M  V30 3302 C 304.295 0.109251 5.22186 0
M  V30 3303 H 305.989 0.340336 2.97459 0
M  V30 3304 H 303.535 0.165119 1.4305 0
M  V30 3305 H 305.488 -1.9798 3.71997 0
M  V30 3306 H 304.212 -2.11917 2.48513 0
M  V30 3307 H 302.871 -0.333442 3.6508 0
M  V30 3308 H 302.519 -2.74427 4.21544 0
M  V30 3309 H 302.219 -1.6976 5.62544 0
M  V30 3310 H 303.743 -2.62331 5.51375 0
M  V30 3311 H 305.157 -0.361405 5.7216 0
M  V30 3312 H 303.554 0.383316 5.98875 0
M  V30 3313 H 304.624 1.03887 4.73641 0
M  V30 3314 N 305.967 -1.56429 0.191757 0
M  V30 3315 C 307.383 -1.58754 -0.164137 0
M  V30 3316 C 307.583 -1.20782 -1.61288 0
M  V30 3317 O 306.639 -0.928999 -2.34789 0
M  V30 3318 C 307.952 -3.00396 0.135195 0
M  V30 3319 C 309.5 -3.1291 0.0750351 0
M  V30 3320 C 309.975 -4.56679 0.347632 0
M  V30 3321 N 311.466 -4.62252 0.296131 0
M  V30 3322 C 312.201 -5.71379 0.480948 0
M  V30 3323 N 311.697 -6.88986 0.725933 0
M  V30 3324 N 313.49 -5.60563 0.415435 0
M  V30 3325 H 305.641 -1.79393 1.13718 0
M  V30 3326 H 307.904 -0.832414 0.453643 0
M  V30 3327 H 307.61 -3.32726 1.13958 0
M  V30 3328 H 307.484 -3.72963 -0.563773 0
M  V30 3329 H 309.871 -2.80394 -0.919948 0
M  V30 3330 H 309.952 -2.42736 0.807029 0
M  V30 3331 H 309.596 -4.89907 1.33992 0
M  V30 3332 H 309.526 -5.25039 -0.405212 0
M  V30 3333 H 312.017 -3.7773 0.113259 0
M  V30 3334 H 312.33 -7.68046 0.855857 0
M  V30 3335 H 310.675 -6.90801 0.762788 0
M  V30 3336 H 313.866 -4.67561 0.224486 0
M  V30 3337 H 314.039 -6.45551 0.562889 0
M  V30 3338 N 307.445 0.0818655 -1.57387 0
M  V30 3339 C 308.691 0.778884 -1.87896 0
M  V30 3340 C 309.046 1.75692 -0.784229 0
M  V30 3341 O 308.339 1.90417 0.212567 0
M  V30 3342 C 308.533 1.53513 -3.22752 0
M  V30 3343 C 308.362 0.631838 -4.45239 0
M  V30 3344 C 307.132 0.272571 -5.04564 0
M  V30 3345 C 309.33 -0.0670191 -5.14256 0
M  V30 3346 N 307.312 -0.637498 -6.10581 0
M  V30 3347 C 308.683 -0.834653 -6.14356 0
M  V30 3348 C 310.738 -0.139551 -4.97704 0
M  V30 3349 C 309.441 -1.66806 -6.99691 0
M  V30 3350 C 311.467 -0.959903 -5.83558 0
M  V30 3351 C 310.829 -1.71561 -6.83188 0
M  V30 3352 H 306.928 0.260764 -0.737242 0
M  V30 3353 H 309.512 0.0408227 -1.94657 0
M  V30 3354 H 307.683 2.24398 -3.17018 0
M  V30 3355 H 309.415 2.18038 -3.40942 0
M  V30 3356 H 306.17 0.62319 -4.69482 0
M  V30 3357 H 306.594 -1.08548 -6.68241 0
M  V30 3358 H 311.236 0.430376 -4.20604 0
M  V30 3359 H 308.954 -2.249 -7.76174 0
M  V30 3360 H 312.54 -1.01887 -5.72809 0
M  V30 3361 H 311.42 -2.34017 -7.48469 0
M  V30 3362 N 308.923 1.53595 0.353017 0
M  V30 3363 C 310.17 1.70385 1.09431 0
M  V30 3364 C 310.498 0.462113 1.88931 0
M  V30 3365 O 309.753 -0.556074 1.87633 0
M  V30 3366 C 310.052 2.91313 2.07054 0
M  V30 3367 C 309.718 4.27308 1.43939 0
M  V30 3368 C 308.38 4.64287 1.26454 0
M  V30 3369 C 310.732 5.11829 0.983883 0
M  V30 3370 C 308.06 5.83412 0.620226 0
M  V30 3371 C 310.412 6.31611 0.353516 0
M  V30 3372 C 309.076 6.67293 0.166272 0
M  V30 3373 H 308.346 0.623484 0.400436 0
M  V30 3374 H 310.993 1.87799 0.374655 0
M  V30 3375 H 309.298 2.68463 2.85368 0
M  V30 3376 H 310.995 3.01497 2.64387 0
M  V30 3377 H 307.585 3.98198 1.58543 0
M  V30 3378 H 311.769 4.838 1.10685 0
M  V30 3379 H 307.025 6.09639 0.463681 0
M  V30 3380 H 311.199 6.964 -0.00757555 0
M  V30 3381 H 308.826 7.59461 -0.335047 0
M  V30 3382 N 310.401 -0.613514 1.45168 0
M  V30 3383 C 311.647 -1.37471 1.49096 0
M  V30 3384 C 311.98 -1.93765 0.129901 0
M  V30 3385 O 311.255 -1.74707 -0.854858 0
M  V30 3386 C 311.538 -2.52701 2.56542 0
M  V30 3387 C 311.391 -2.01643 4.0207 0
M  V30 3388 C 312.71 -3.54849 2.60327 0
M  V30 3389 H 309.829 -0.498502 0.54283 0
M  V30 3390 H 312.471 -0.692125 1.76945 0
M  V30 3391 H 310.621 -3.10931 2.32926 0
M  V30 3392 H 312.293 -1.48108 4.36877 0
M  V30 3393 H 310.536 -1.32688 4.13009 0
M  V30 3394 H 311.207 -2.84681 4.72928 0
M  V30 3395 H 313.683 -3.0645 2.81474 0
M  V30 3396 H 312.559 -4.32973 3.37381 0
M  V30 3397 H 312.82 -4.10079 1.6519 0
M  V30 3398 N 311.879 -1.3236 -0.855495 0
M  V30 3399 C 313.29 -1.2056 -1.42556 0
M  V30 3400 C 313.641 0.182209 -1.95352 0
M  V30 3401 O 312.766 1.08088 -1.87472 0
M  V30 3402 C 313.361 -2.1826 -2.59129 0
M  V30 3403 C 311.92 -2.10351 -3.12137 0
M  V30 3404 C 311.067 -2.06674 -1.84882 0
M  V30 3405 H 314.018 -1.442 -0.662727 0
M  V30 3406 H 314.039 -1.78064 -3.36264 0
M  V30 3407 H 313.551 -3.19257 -2.20673 0
M  V30 3408 H 311.652 -1.12599 -3.55179 0
M  V30 3409 H 311.765 -3.00135 -3.73438 0
M  V30 3410 H 310.129 -1.51901 -2.04446 0
M  V30 3411 H 310.912 -3.09451 -1.48643 0
M  V30 3412 N 313.357 1.07166 -1.15556 0
M  V30 3413 C 314.287 2.16403 -0.877046 0
M  V30 3414 C 315.268 1.69217 0.173111 0
M  V30 3415 O 316.453 1.94181 0.027084 0
M  V30 3416 C 313.583 3.45349 -0.367632 0
M  V30 3417 C 312.537 4.05995 -1.35468 0
M  V30 3418 C 311.863 5.30045 -0.704038 0
M  V30 3419 C 313.163 4.45804 -2.72132 0
M  V30 3420 H 314.857 2.39959 -1.79053 0
M  V30 3421 H 312.403 1.15325 -0.862331 0
M  V30 3422 H 314.356 4.21095 -0.160317 0
M  V30 3423 H 313.08 3.21385 0.581326 0
M  V30 3424 H 311.739 3.32296 -1.54839 0
M  V30 3425 H 311.387 5.02373 0.251128 0
M  V30 3426 H 311.087 5.71579 -1.36277 0
M  V30 3427 H 312.611 6.08495 -0.50654 0
M  V30 3428 H 314.025 5.12671 -2.56595 0
M  V30 3429 H 312.422 4.98296 -3.34397 0
M  V30 3430 H 313.492 3.57083 -3.28054 0
M  V30 3431 N 314.835 0.952656 1.25548 0
M  V30 3432 C 316.083 0.605176 1.92826 0
M  V30 3433 C 316.404 -0.860261 1.74999 0
M  V30 3434 O 315.674 -1.6125 1.11244 0
M  V30 3435 H 314.254 0.220832 0.713612 0
M  V30 3436 H 316.916 1.21047 1.52754 0
M  V30 3437 H 316.012 0.832798 3.00784 0
M  V30 3438 N 316.313 -1.40141 0.720998 0
M  V30 3439 C 317.243 -2.33339 0.0867621 0
M  V30 3440 C 318.224 -1.53178 -0.739622 0
M  V30 3441 O 319.409 -1.81625 -0.687449 0
M  V30 3442 C 316.539 -3.37194 -0.831728 0
M  V30 3443 C 315.493 -4.27857 -0.110558 0
M  V30 3444 C 314.819 -5.22294 -1.14513 0
M  V30 3445 C 316.119 -5.11872 1.0385 0
M  V30 3446 H 317.813 -2.86626 0.865219 0
M  V30 3447 H 315.359 -1.37814 0.417516 0
M  V30 3448 H 317.312 -4.01335 -1.28485 0
M  V30 3449 H 316.036 -2.82314 -1.64214 0
M  V30 3450 H 314.695 -3.65176 0.322797 0
M  V30 3451 H 314.343 -4.63717 -1.94874 0
M  V30 3452 H 314.043 -5.83797 -0.667446 0
M  V30 3453 H 315.567 -5.89312 -1.59824 0
M  V30 3454 H 316.981 -5.69436 0.664482 0
M  V30 3455 H 315.378 -5.82445 1.4449 0
M  V30 3456 H 316.448 -4.4753 1.86668 0
M  V30 3457 N 317.792 -0.46758 -1.50504 0
M  V30 3458 C 318.722 0.318381 -2.31319 0
M  V30 3459 C 319.703 0.993564 -1.38066 0
M  V30 3460 O 320.888 0.991411 -1.66987 0
M  V30 3461 C 318.018 1.40275 -3.17711 0
M  V30 3462 C 316.972 0.849373 -4.19487 0
M  V30 3463 C 316.298 2.03177 -4.94594 0
M  V30 3464 C 317.598 -0.136942 -5.2212 0
M  V30 3465 H 319.292 -0.356106 -2.97275 0
M  V30 3466 H 316.838 -0.172703 -1.42961 0
M  V30 3467 H 318.791 1.96004 -3.73042 0
M  V30 3468 H 317.515 2.10596 -2.49634 0
M  V30 3469 H 316.174 0.314076 -3.65252 0
M  V30 3470 H 315.822 2.72187 -4.22993 0
M  V30 3471 H 315.522 1.66774 -5.63436 0
M  V30 3472 H 317.046 2.59403 -5.52759 0
M  V30 3473 H 318.46 0.331056 -5.72343 0
M  V30 3474 H 316.857 -0.41507 -5.98663 0
M  V30 3475 H 317.927 -1.06398 -4.73083 0
M  V30 3476 N 319.27 1.56325 -0.20005 0
M  V30 3477 C 320.547 1.89484 0.48529 0
M  V30 3478 C 320.927 1.1143 1.79294 0
M  V30 3479 O 320.275 0.216919 2.27468 0
M  V30 3480 C 320.485 3.41923 0.699243 0
M  V30 3481 C 321.833 4.12256 1.01638 0
M  V30 3482 O 322.857 3.47402 0.786792 0
M  V30 3483 O 321.716 5.26887 1.45095 0
M  V30 3484 H 318.81 0.787144 0.253639 0
M  V30 3485 H 321.356 1.67985 -0.240633 0
M  V30 3486 H 320.128 3.90658 -0.224008 0
M  V30 3487 H 319.751 3.69131 1.47744 0
M  V30 3488 N 320.748 -0.0735177 1.57428 0
M  V30 3489 C 321.994 -0.768909 1.88307 0
M  V30 3490 C 322.349 -1.75273 0.793535 0
M  V30 3491 O 321.642 -1.90527 -0.202466 0
M  V30 3492 C 321.836 -1.51799 3.23561 0
M  V30 3493 C 321.665 -0.608217 4.45568 0
M  V30 3494 C 320.435 -0.245808 5.04702 0
M  V30 3495 C 322.633 0.0942904 5.14214 0
M  V30 3496 N 320.615 0.66987 6.10234 0
M  V30 3497 C 321.986 0.867222 6.13905 0
M  V30 3498 C 324.041 0.165943 4.97623 0
M  V30 3499 C 322.744 1.70515 6.98797 0
M  V30 3500 C 324.77 0.990837 5.83041 0
M  V30 3501 C 324.132 1.75182 6.82269 0
M  V30 3502 H 320.231 -0.25685 0.738615 0
M  V30 3503 H 322.815 -0.030499 1.94676 0
M  V30 3504 H 320.986 -2.22713 3.18203 0
M  V30 3505 H 322.718 -2.16226 3.42094 0
M  V30 3506 H 319.473 -0.598284 4.69806 0
M  V30 3507 H 319.897 1.1209 6.67656 0
M  V30 3508 H 324.539 -0.408064 4.20826 0
M  V30 3509 H 322.257 2.29013 7.7497 0
M  V30 3510 H 325.843 1.04923 5.72261 0
M  V30 3511 H 324.723 2.37983 7.47217 0
M  V30 3512 N 322.226 -1.5378 -0.344866 0
M  V30 3513 C 323.159 -1.7649 -1.4466 0
M  V30 3514 C 324.137 -0.613954 -1.50563 0
M  V30 3515 O 325.321 -0.84896 -1.683 0
M  V30 3516 C 322.448 -1.86235 -2.82903 0
M  V30 3517 C 321.494 -3.08375 -2.94631 0
M  V30 3518 S 322.327 -4.67457 -2.61236 0
M  V30 3519 C 323.483 -4.80079 -4.0159 0
M  V30 3520 H 323.716 -2.69661 -1.2518 0
M  V30 3521 H 321.249 -1.44632 -0.540455 0
M  V30 3522 H 323.207 -1.92535 -3.62547 0
M  V30 3523 H 321.868 -0.940786 -2.9968 0
M  V30 3524 H 321.061 -3.11865 -3.95925 0
M  V30 3525 H 320.663 -3.00294 -2.22934 0
M  V30 3526 H 322.955 -4.61407 -4.96094 0
M  V30 3527 H 323.898 -5.82168 -4.03095 0
M  V30 3528 H 324.306 -4.08544 -3.89554 0
M  V30 3529 N 323.704 0.605807 -1.45491 0
M  V30 3530 C 324.636 1.73031 -1.5031 0
M  V30 3531 C 325.649 1.57968 -0.393687 0
M  V30 3532 O 326.838 1.65817 -0.660839 0
M  V30 3533 C 323.938 3.11049 -1.34543 0
M  V30 3534 C 323.111 3.52334 -2.59189 0
M  V30 3535 C 322.17 4.69323 -2.37954 0
M  V30 3536 O 321.196 4.7635 -3.11575 0
M  V30 3537 N 322.398 5.62705 -1.4263 0
M  V30 3538 H 325.163 1.6936 -2.4726 0
M  V30 3539 H 322.724 0.79114 -1.41254 0
M  V30 3540 H 324.716 3.87071 -1.18144 0
M  V30 3541 H 323.286 3.09217 -0.458623 0
M  V30 3542 H 322.506 2.66256 -2.90691 0
M  V30 3543 H 323.794 3.76677 -3.42041 0
M  V30 3544 H 323.192 5.59744 -0.818758 0
M  V30 3545 H 321.749 6.38252 -1.32202 0
M  V30 3546 N 325.182 1.32811 0.848464 0
M  V30 3547 C 326.129 1.22265 1.95755 0
M  V30 3548 C 327.099 0.103413 1.65778 0
M  V30 3549 O 328.284 0.280033 1.88734 0
M  V30 3550 C 325.424 0.958014 3.31536 0
M  V30 3551 C 324.537 2.16262 3.73971 0
M  V30 3552 C 323.672 1.83295 4.98575 0
M  V30 3553 C 322.711 3.00041 5.33518 0
M  V30 3554 N 321.848 2.67125 6.49299 0
M  V30 3555 H 326.688 2.17128 2.04107 0
M  V30 3556 H 324.225 1.07982 0.998913 0
M  V30 3557 H 326.183 0.785052 4.09747 0
M  V30 3558 H 324.813 0.046159 3.22767 0
M  V30 3559 H 323.865 2.44565 2.91362 0
M  V30 3560 H 325.177 3.03572 3.95785 0
M  V30 3561 H 324.331 1.62586 5.84509 0
M  V30 3562 H 323.07 0.932078 4.7871 0
M  V30 3563 H 322.075 3.21374 4.46093 0
M  V30 3564 H 323.3 3.90869 5.55336 0
M  V30 3565 H 321.246 1.79586 6.3094 0
M  V30 3566 H 321.163 3.47965 6.71161 0
M  V30 3567 H 322.431 2.49861 7.3837 0
M  V30 3568 N 326.66 -1.06551 1.16123 0
M  V30 3569 C 327.9 -1.80889 0.951766 0
M  V30 3570 C 328.264 -1.85062 -0.511465 0
M  V30 3571 O 329.465 -2.55353 -0.83954 0
M  V30 3572 C 327.736 -3.21609 1.55893 0
M  V30 3573 S 329.295 -4.12593 1.49373 0
M  V30 3574 H 326.113 -0.623156 0.342341 0
M  V30 3575 H 328.715 -1.27943 1.47821 0
M  V30 3576 H 327.419 -3.16165 2.61664 0
M  V30 3577 H 326.95 -3.79631 1.0317 0
M  V30 3578 H 328.965 -4.93753 0.492196 0
M  V30 3579 N 328.138 -0.959301 -1.25041 0
M  V30 3580 C 329.386 -0.615393 -1.92503 0
M  V30 3581 C 329.707 0.850969 -1.75452 0
M  V30 3582 O 328.977 1.60658 -1.12098 0
M  V30 3583 H 327.557 -0.224613 -0.712431 0
M  V30 3584 H 330.219 -1.21855 -1.5211 0
M  V30 3585 H 329.315 -0.848738 -3.00338 0
M  V30 3586 N 329.616 1.39756 -0.72842 0
M  V30 3587 C 330.856 2.025 -0.278078 0
M  V30 3588 C 331.22 1.5654 1.11173 0
M  V30 3589 O 332.421 2.11435 1.65978 0
M  V30 3590 C 330.692 3.55489 -0.369139 0
M  V30 3591 S 332.251 4.388 0.00232983 0
M  V30 3592 H 329.069 0.702534 -0.109391 0
M  V30 3593 H 331.671 1.70672 -0.95348 0
M  V30 3594 H 330.375 3.86429 -1.38204 0
M  V30 3595 H 329.906 3.92061 0.324308 0
M  V30 3596 H 331.921 4.80954 1.22055 0
M  V30 3597 N 331.094 0.475555 1.50254 0
M  V30 3598 C 332.004 -0.321501 2.32387 0
M  V30 3599 C 333.02 -0.991755 1.42969 0
M  V30 3600 O 334.196 -0.978747 1.76018 0
M  V30 3601 C 331.261 -1.38667 3.17762 0
M  V30 3602 C 330.322 -0.732538 4.23004 0
M  V30 3603 C 329.555 -1.74695 5.04299 0
M  V30 3604 O 329.778 -2.97399 4.86734 0
M  V30 3605 O 328.712 -1.31631 5.8733 0
M  V30 3606 H 332.538 0.350071 3.01676 0
M  V30 3607 H 330.123 0.237321 1.47503 0
M  V30 3608 H 332.005 -2.00354 3.70724 0
M  V30 3609 H 330.68 -2.04163 2.51196 0
M  V30 3610 H 329.587 -0.0765902 3.74022 0
M  V30 3611 H 330.92 -0.120452 4.92053 0
M  V30 3612 N 332.573 -1.56217 0.208337 0
M  V30 3613 C 333.521 -2.21053 -0.723769 0
M  V30 3614 C 334.515 -1.18578 -1.20978 0
M  V30 3615 O 335.721 -1.36691 -1.17114 0
M  V30 3616 H 332.096 -0.708595 -0.251788 0
M  V30 3617 H 334.067 -2.98006 -0.153365 0
M  V30 3618 C 332.816 -2.89417 -1.927 0
M  V30 3619 H 332.139 -3.68019 -1.56212 0
M  V30 3620 H 333.579 -3.38201 -2.55727 0
M  V30 3621 C 332.038 -1.91166 -2.77411 0
M  V30 3622 O 332.568 -1.42026 -3.75754 0
M  V30 3623 N 330.774 -1.59105 -2.43175 0
M  V30 3624 H 330.321 -1.99259 -1.63259 0
M  V30 3625 H 330.279 -0.936255 -3.00136 0
M  V30 3626 N 334.051 0.0651679 -1.57465 0
M  V30 3627 C 335.297 0.764193 -1.87851 0
M  V30 3628 C 335.63 1.76889 -0.801495 0
M  V30 3629 O 334.905 1.93594 0.187528 0
M  V30 3630 C 335.188 1.46625 -3.28897 0
M  V30 3631 C 335.041 0.477515 -4.47258 0
M  V30 3632 C 336.36 2.4095 -3.68281 0
M  V30 3633 H 333.479 0.276351 -0.683227 0
M  V30 3634 H 336.121 0.0272868 -1.8998 0
M  V30 3635 H 334.271 2.09438 -3.27212 0
M  V30 3636 H 335.943 -0.145922 -4.61069 0
M  V30 3637 H 334.186 -0.206576 -4.33308 0
M  V30 3638 H 334.857 1.0065 -5.42746 0
M  V30 3639 H 337.333 1.88209 -3.71102 0
M  V30 3640 H 336.209 2.87072 -4.67847 0
M  V30 3641 H 336.47 3.26049 -2.98571 0
M  V30 3642 N 335.529 1.53961 0.336706 0
M  V30 3643 C 336.778 1.70751 1.07363 0
M  V30 3644 C 337.091 0.481061 1.89592 0
M  V30 3645 O 338.297 0.530046 2.66276 0
M  V30 3646 C 336.753 3.01965 1.95818 0
M  V30 3647 C 336.361 4.31971 1.18764 0
M  V30 3648 C 338.105 3.28121 2.69327 0
M  V30 3649 C 336.012 5.54255 2.06289 0
M  V30 3650 H 334.942 0.636292 0.404535 0
M  V30 3651 H 337.593 1.80459 0.332681 0
M  V30 3652 H 335.975 2.86132 2.7376 0
M  V30 3653 H 337.149 4.5853 0.456849 0
M  V30 3654 H 335.464 4.12481 0.569946 0
M  V30 3655 H 338.061 4.16673 3.35094 0
M  V30 3656 H 338.404 2.45426 3.36261 0
M  V30 3657 H 338.937 3.44762 1.98454 0
M  V30 3658 H 335.676 6.39513 1.43885 0
M  V30 3659 H 335.196 5.31935 2.77138 0
M  V30 3660 H 336.875 5.90159 2.65182 0
M  V30 3661 N 337.007 -0.598083 1.45811 0
M  V30 3662 C 337.917 -1.73632 1.57763 0
M  V30 3663 C 338.933 -1.67763 0.461676 0
M  V30 3664 O 340.109 -1.87949 0.723685 0
M  V30 3665 C 337.174 -3.10114 1.55018 0
M  V30 3666 C 336.235 -3.27364 2.77726 0
M  V30 3667 C 335.468 -4.57334 2.75102 0
M  V30 3668 O 335.691 -5.40258 1.8297 0
M  V30 3669 O 334.625 -4.77502 3.66437 0
M  V30 3670 H 338.451 -1.66498 2.53992 0
M  V30 3671 H 336.036 -0.763308 1.28429 0
M  V30 3672 H 337.918 -3.9141 1.56129 0
M  V30 3673 H 336.593 -3.17718 0.619431 0
M  V30 3674 H 335.5 -2.45619 2.82174 0
M  V30 3675 H 336.833 -3.24641 3.69958 0
M  V30 3676 N 338.485 -1.33259 -0.841409 0
M  V30 3677 C 339.415 -1.25926 -1.96634 0
M  V30 3678 C 340.396 -0.140349 -1.6952 0
M  V30 3679 O 341.581 -0.329707 -1.91381 0
M  V30 3680 C 338.711 -0.99512 -3.32738 0
M  V30 3681 C 337.665 -2.0767 -3.74242 0
M  V30 3682 C 336.991 -1.66474 -5.08125 0
M  V30 3683 C 338.291 -3.49318 -3.88297 0
M  V30 3684 H 339.985 -2.20046 -2.03027 0
M  V30 3685 H 337.531 -1.05931 -0.975425 0
M  V30 3686 H 339.484 -0.930323 -4.11002 0
M  V30 3687 H 338.208 -0.0183004 -3.26595 0
M  V30 3688 H 336.867 -2.13187 -2.98239 0
M  V30 3689 H 336.515 -0.675012 -4.9845 0
M  V30 3690 H 336.215 -2.3885 -5.36865 0
M  V30 3691 H 337.739 -1.61455 -5.88867 0
M  V30 3692 H 339.153 -3.46316 -4.56879 0
M  V30 3693 H 337.55 -4.20158 -4.28471 0
M  V30 3694 H 338.62 -3.8801 -2.9082 0
M  V30 3695 N 339.963 1.05934 -1.16686 0
M  V30 3696 C 341.24 1.75643 -0.860747 0
M  V30 3697 C 341.62 2.01144 0.640641 0
M  V30 3698 O 340.968 1.64147 1.58959 0
M  V30 3699 C 341.178 3.05493 -1.68745 0
M  V30 3700 C 342.526 3.79581 -1.90271 0
M  V30 3701 O 343.55 3.15344 -1.65641 0
M  V30 3702 O 342.409 4.9499 -2.31618 0
M  V30 3703 H 339.503 0.763426 -0.317977 0
M  V30 3704 H 342.049 1.1217 -1.27342 0
M  V30 3705 H 340.821 2.8264 -2.70611 0
M  V30 3706 H 340.444 3.76702 -1.27206 0
M  V30 3707 N 341.441 0.965919 1.2453 0
M  V30 3708 C 342.687 0.637349 1.93156 0
M  V30 3709 C 343.042 -0.818261 1.74133 0
M  V30 3710 O 342.335 -1.58079 1.08266 0
M  V30 3711 C 342.529 0.945428 3.44669 0
M  V30 3712 C 342.358 2.42944 3.78429 0
M  V30 3713 C 341.128 3.08895 3.9989 0
M  V30 3714 C 343.326 3.40941 3.8505 0
M  V30 3715 N 341.308 4.47052 4.20735 0
M  V30 3716 C 342.679 4.64448 4.10717 0
M  V30 3717 C 344.734 3.35624 3.67779 0
M  V30 3718 C 343.437 5.83292 4.20907 0
M  V30 3719 C 345.463 4.53818 3.79214 0
M  V30 3720 C 344.825 5.76114 4.05304 0
M  V30 3721 H 340.924 0.284034 0.728594 0
M  V30 3722 H 343.508 1.24041 1.50073 0
M  V30 3723 H 341.679 0.371193 3.86622 0
M  V30 3724 H 343.411 0.575613 4.00586 0
M  V30 3725 H 340.166 2.59432 3.96222 0
M  V30 3726 H 340.59 5.18634 4.35141 0
M  V30 3727 H 345.232 2.4211 3.46616 0
M  V30 3728 H 342.95 6.77236 4.40883 0
M  V30 3729 H 346.536 4.51263 3.67224 0
M  V30 3730 H 345.416 6.66045 4.13949 0
M  V30 3731 N 342.919 -1.39368 0.735821 0
M  V30 3732 C 344.165 -2.01272 0.293439 0
M  V30 3733 C 344.52 -1.57344 -1.10728 0
M  V30 3734 O 343.813 -0.792744 -1.74431 0
M  V30 3735 C 344.007 -3.5583 0.334651 0
M  V30 3736 C 343.836 -4.14764 1.73784 0
M  V30 3737 C 342.606 -4.47315 2.35026 0
M  V30 3738 C 344.804 -4.38246 2.69157 0
M  V30 3739 N 342.786 -4.91756 3.6749 0
M  V30 3740 C 344.157 -4.849 3.86357 0
M  V30 3741 C 346.212 -4.20315 2.66908 0
M  V30 3742 C 344.915 -5.15505 5.01645 0
M  V30 3743 C 346.941 -4.52033 3.8134 0
M  V30 3744 C 346.303 -4.98895 4.97276 0
M  V30 3745 H 342.402 -0.766756 0.153652 0
M  V30 3746 H 344.986 -1.69276 0.961967 0
M  V30 3747 H 343.157 -3.87212 -0.303527 0
M  V30 3748 H 344.889 -4.04503 -0.126358 0
M  V30 3749 H 341.644 -4.35143 1.86943 0
M  V30 3750 H 342.068 -5.18333 4.35499 0
M  V30 3751 H 346.71 -3.83287 1.78468 0
M  V30 3752 H 344.428 -5.51437 5.90713 0
M  V30 3753 H 348.014 -4.39781 3.80899 0
M  V30 3754 H 346.894 -5.22973 5.84353 0
M  V30 3755 N 344.397 -0.483516 -1.5 0
M  V30 3756 C 345.307 0.309172 -2.32554 0
M  V30 3757 C 346.323 0.984159 -1.43493 0
M  V30 3758 O 347.499 0.969399 -1.76535 0
M  V30 3759 C 344.564 1.36979 -3.18493 0
M  V30 3760 C 343.625 0.710095 -4.23387 0
M  V30 3761 C 342.858 1.72018 -5.05218 0
M  V30 3762 O 343.081 2.94813 -4.88305 0
M  V30 3763 O 342.015 1.28515 -5.8802 0
M  V30 3764 H 345.841 -0.366064 -3.01486 0
M  V30 3765 H 343.426 -0.24514 -1.47375 0
M  V30 3766 H 345.308 1.98385 -3.71781 0
M  V30 3767 H 343.983 2.02828 -2.52275 0
M  V30 3768 H 342.89 0.0567539 -3.74057 0
M  V30 3769 H 344.223 0.0943557 -4.9211 0
M  V30 3770 N 345.875 1.56104 -0.216619 0
M  V30 3771 C 346.785 2.23694 0.706982 0
M  V30 3772 C 347.801 1.24295 1.21765 0
M  V30 3773 O 348.977 1.57094 1.2603 0
M  V30 3774 C 346.042 2.8998 1.90033 0
M  V30 3775 C 345.103 4.04708 1.43213 0
M  V30 3776 C 344.336 4.67824 2.56859 0
M  V30 3777 O 344.559 4.29913 3.74874 0
M  V30 3778 O 343.493 5.56905 2.28343 0
M  V30 3779 H 347.319 3.03272 0.161235 0
M  V30 3780 H 344.904 1.49394 0.0136177 0
M  V30 3781 H 346.786 3.31837 2.59735 0
M  V30 3782 H 345.461 2.13365 2.43428 0
M  V30 3783 H 344.368 3.6743 0.70327 0
M  V30 3784 H 345.701 4.83051 0.944615 0
M  V30 3785 N 347.353 -0.0568162 1.57498 0
M  V30 3786 C 348.301 -1.08452 2.05769 0
M  V30 3787 C 349.295 -1.39164 0.965903 0
M  V30 3788 O 350.501 -1.38395 1.15095 0
M  V30 3789 H 346.876 -0.367148 0.656282 0
M  V30 3790 H 348.847 -0.651368 2.91204 0
M  V30 3791 C 347.596 -2.38543 2.52968 0
M  V30 3792 H 346.919 -2.15765 3.36579 0
M  V30 3793 H 348.359 -3.08863 2.90481 0
M  V30 3794 C 346.818 -3.05562 1.41893 0
M  V30 3795 O 347.348 -3.94262 0.769442 0
M  V30 3796 N 345.554 -2.6643 1.16032 0
M  V30 3797 H 345.101 -1.94387 1.6903 0
M  V30 3798 H 345.059 -3.11593 0.419219 0
M  V30 3799 N 348.832 -1.54138 -0.328536 0
M  V30 3800 C 350.072 -1.73827 -1.07534 0
M  V30 3801 C 350.436 -0.498777 -1.85408 0
M  V30 3802 O 351.637 -0.572937 -2.62623 0
M  V30 3803 C 349.908 -2.97573 -1.97952 0
M  V30 3804 S 351.467 -3.38143 -2.79652 0
M  V30 3805 H 348.285 -0.611287 -0.36311 0
M  V30 3806 H 350.887 -1.92306 -0.351931 0
M  V30 3807 H 349.591 -3.85939 -1.39569 0
M  V30 3808 H 349.122 -2.81603 -2.74706 0
M  V30 3809 H 351.137 -2.93052 -4.00418 0
M  V30 3810 N 350.31 0.590341 -1.46126 0
M  V30 3811 C 351.556 1.35082 -1.51264 0
M  V30 3812 C 351.889 1.93534 -0.160711 0
M  V30 3813 O 351.164 1.76045 0.826956 0
M  V30 3814 C 351.447 2.48588 -2.6053 0
M  V30 3815 C 351.3 1.95221 -4.05227 0
M  V30 3816 C 352.619 3.50662 -2.6594 0
M  V30 3817 H 349.738 0.489803 -0.550692 0
M  V30 3818 H 352.38 0.663887 -1.78024 0
M  V30 3819 H 350.53 3.07186 -2.37843 0
M  V30 3820 H 352.202 1.41139 -4.39178 0
M  V30 3821 H 350.445 1.26101 -4.15068 0
M  V30 3822 H 351.116 2.77121 -4.77397 0
M  V30 3823 H 353.592 3.01934 -2.86313 0
M  V30 3824 H 352.468 4.27551 -3.44226 0
M  V30 3825 H 352.729 4.07399 -1.71694 0
M  V30 3826 N 351.788 1.33704 0.83433 0
M  V30 3827 C 353.199 1.22813 1.4062 0
M  V30 3828 C 353.55 -0.151107 1.95617 0
M  V30 3829 O 352.675 -1.05092 1.89168 0
M  V30 3830 C 353.27 2.22355 2.55624 0
M  V30 3831 C 351.829 2.1529 3.08751 0
M  V30 3832 C 350.976 2.09589 1.8157 0
M  V30 3833 H 353.927 1.45236 0.639702 0
M  V30 3834 H 353.948 1.83391 3.33389 0
M  V30 3835 H 353.46 3.22728 2.15566 0
M  V30 3836 H 351.561 1.18235 3.53343 0
M  V30 3837 H 351.674 3.06038 3.68616 0
M  V30 3838 H 350.038 1.55134 2.02004 0
M  V30 3839 H 350.821 3.11777 1.43701 0
M  V30 3840 N 353.266 -1.05314 1.17247 0
M  V30 3841 C 354.514 -1.77941 0.958194 0
M  V30 3842 C 354.835 -1.88089 -0.514556 0
M  V30 3843 O 354.105 -1.39676 -1.37359 0
M  V30 3844 H 352.685 -0.659116 0.351533 0
M  V30 3845 H 355.347 -1.27166 1.47699 0
M  V30 3846 H 354.443 -2.79663 1.38546 0
M  V30 3847 N 354.744 -0.972509 -1.24016 0
M  V30 3848 C 355.694 -0.477561 -2.22942 0
M  V30 3849 C 356.678 0.44308 -1.54679 0
M  V30 3850 O 357.87 0.273219 -1.74879 0
M  V30 3851 C 354.999 0.226348 -3.42553 0
M  V30 3852 C 354.085 -0.713403 -4.18057 0
M  V30 3853 N 354.476 -1.8527 -4.70647 0
M  V30 3854 C 352.774 -0.525145 -4.42898 0
M  V30 3855 C 353.475 -2.44089 -5.28011 0
M  V30 3856 N 352.451 -1.72556 -5.15486 0
M  V30 3857 H 356.253 -1.34678 -2.61226 0
M  V30 3858 H 353.767 -0.832196 -1.39457 0
M  V30 3859 H 355.764 0.598184 -4.12586 0
M  V30 3860 H 354.424 1.09195 -3.05788 0
M  V30 3861 H 355.435 -2.2341 -4.67235 0
M  V30 3862 H 352.112 0.296096 -4.16449 0
M  V30 3863 H 353.502 -3.40259 -5.79374 0
M  V30 3864 N 356.222 1.38976 -0.743202 0
M  V30 3865 C 357.499 1.94351 -0.220705 0
M  V30 3866 C 357.879 1.67935 1.2791 0
M  V30 3867 O 357.227 1.01211 2.04862 0
M  V30 3868 C 357.437 3.44426 -0.563171 0
M  V30 3869 C 358.785 4.2144 -0.517046 0
M  V30 3870 O 359.809 3.52661 -0.500846 0
M  V30 3871 O 358.668 5.44032 -0.518806 0
M  V30 3872 H 355.762 0.825879 -0.043047 0
M  V30 3873 H 358.308 1.48429 -0.822618 0
M  V30 3874 H 357.08 3.5712 -1.59941 0
M  V30 3875 H 356.703 3.97543 0.0672883 0
M  V30 3876 N 357.7 0.491464 1.49741 0
M  V30 3877 C 358.647 -0.292027 2.28945 0
M  V30 3878 C 359.617 -0.968973 1.34908 0
M  V30 3879 O 360.802 -0.97748 1.6386 0
M  V30 3880 C 357.942 -1.35617 3.17336 0
M  V30 3881 C 357.055 -0.691957 4.26422 0
M  V30 3882 C 356.19 -1.73572 5.02042 0
M  V30 3883 C 355.229 -1.05286 6.02977 0
M  V30 3884 N 354.366 -2.0404 6.71798 0
M  V30 3885 H 359.206 0.389654 2.95442 0
M  V30 3886 H 356.743 0.204003 1.45679 0
M  V30 3887 H 358.701 -1.98502 3.66951 0
M  V30 3888 H 357.331 -2.00674 2.52844 0
M  V30 3889 H 356.383 0.0499523 3.80367 0
M  V30 3890 H 357.695 -0.153946 4.98562 0
M  V30 3891 H 356.849 -2.43987 5.55478 0
M  V30 3892 H 355.588 -2.30757 4.29654 0
M  V30 3893 H 354.593 -0.334446 5.48782 0
M  V30 3894 H 355.818 -0.487636 6.77347 0
M  V30 3895 H 353.764 -2.60205 6.02187 0
M  V30 3896 H 353.681 -1.55279 7.39881 0
M  V30 3897 H 354.949 -2.73772 7.29842 0
M  V30 3898 N 359.178 -1.55987 0.224894 0
M  V30 3899 C 360.424 -1.98684 -0.406502 0
M  V30 3900 C 360.757 -1.11248 -1.59177 0
M  V30 3901 O 360.032 -0.170909 -1.93748 0
M  V30 3902 C 360.315 -3.50218 -0.837808 0
M  V30 3903 C 360.168 -4.48426 0.351332 0
M  V30 3904 C 361.487 -4.06243 -1.69278 0
M  V30 3905 H 358.606 -0.722337 -0.146283 0
M  V30 3906 H 361.248 -1.87255 0.321799 0
M  V30 3907 H 359.398 -3.60089 -1.45837 0
M  V30 3908 H 361.07 -4.50562 0.989526 0
M  V30 3909 H 359.313 -4.22159 0.998207 0
M  V30 3910 H 359.984 -5.52 0.00655905 0
M  V30 3911 H 362.46 -3.99337 -1.16914 0
M  V30 3912 H 361.336 -5.12581 -1.96346 0
M  V30 3913 H 361.597 -3.53332 -2.65723 0
M  V30 3914 N 360.656 0.0484629 -1.57525 0
M  V30 3915 C 361.884 0.755421 -1.92616 0
M  V30 3916 C 362.299 1.69919 -0.822984 0
M  V30 3917 O 361.656 1.81378 0.202085 0
M  V30 3918 C 361.707 1.52915 -3.27566 0
M  V30 3919 O 361.428 0.62329 -4.33644 0
M  V30 3920 C 362.929 2.33502 -3.76818 0
M  V30 3921 H 360.149 0.213465 -0.63614 0
M  V30 3922 H 362.693 0.0117698 -2.04497 0
M  V30 3923 H 360.848 2.22486 -3.17142 0
M  V30 3924 H 361.262 1.16383 -5.11425 0
M  V30 3925 H 362.736 2.83214 -4.73808 0
M  V30 3926 H 363.213 3.14068 -3.07014 0
M  V30 3927 H 363.819 1.69043 -3.90262 0
M  V30 3928 N 362.134 1.5431 0.320358 0
M  V30 3929 C 363.381 1.72668 1.05792 0
M  V30 3930 C 363.709 0.502084 1.87908 0
M  V30 3931 O 362.964 -0.516149 1.88771 0
M  V30 3932 C 363.263 2.95639 2.00828 0
M  V30 3933 C 362.929 4.30265 1.34843 0
M  V30 3934 C 361.591 4.66865 1.16578 0
M  V30 3935 C 363.943 5.13801 0.875095 0
M  V30 3936 C 361.271 5.84597 0.496336 0
M  V30 3937 C 363.623 6.32219 0.219463 0
M  V30 3938 C 362.287 6.67495 0.0246915 0
M  V30 3939 H 361.557 0.631837 0.387121 0
M  V30 3940 H 364.204 1.88552 0.334735 0
M  V30 3941 H 362.509 2.74456 2.79609 0
M  V30 3942 H 364.206 3.07038 2.57932 0
M  V30 3943 H 360.796 4.01472 1.50061 0
M  V30 3944 H 364.98 4.86039 1.00398 0
M  V30 3945 H 360.236 6.10486 0.334264 0
M  V30 3946 H 364.41 6.96227 -0.155291 0
M  V30 3947 H 362.037 7.5858 -0.496065 0
M  V30 3948 N 363.613 -0.582584 1.46437 0
M  V30 3949 C 364.859 -1.34278 1.51978 0
M  V30 3950 C 365.192 -1.93446 0.170973 0
M  V30 3951 O 364.467 -1.76481 -0.817608 0
M  V30 3952 C 364.75 -2.47203 2.61845 0
M  V30 3953 C 364.603 -1.93069 4.06257 0
M  V30 3954 C 365.922 -3.49247 2.67795 0
M  V30 3955 H 363.041 -0.486876 0.553282 0
M  V30 3956 H 365.683 -0.654437 1.78374 0
M  V30 3957 H 363.833 -3.0592 2.39469 0
M  V30 3958 H 365.505 -1.38808 4.3992 0
M  V30 3959 H 363.748 -1.23898 4.1573 0
M  V30 3960 H 364.419 -2.74586 4.7886 0
M  V30 3961 H 366.895 -3.00411 2.8791 0
M  V30 3962 H 365.771 -4.25719 3.46489 0
M  V30 3963 H 366.032 -4.06482 1.73852 0
M  V30 3964 N 365.091 -1.34144 -0.827227 0
M  V30 3965 C 366.338 -1.26258 -1.58319 0
M  V30 3966 C 366.666 0.168595 -1.93768 0
M  V30 3967 O 365.921 1.12877 -1.59866 0
M  V30 3968 C 366.22 -2.09464 -2.89585 0
M  V30 3969 C 365.886 -3.58521 -2.73448 0
M  V30 3970 C 364.548 -3.99155 -2.68754 0
M  V30 3971 C 366.9 -4.53189 -2.57428 0
M  V30 3972 C 364.228 -5.32656 -2.45957 0
M  V30 3973 C 366.58 -5.86864 -2.36163 0
M  V30 3974 C 365.244 -6.26667 -2.29879 0
M  V30 3975 H 364.514 -0.462013 -0.579332 0
M  V30 3976 H 367.161 -1.65845 -0.95748 0
M  V30 3977 H 365.466 -1.62692 -3.56425 0
M  V30 3978 H 367.163 -2.00712 -3.47154 0
M  V30 3979 H 363.753 -3.26264 -2.77939 0
M  V30 3980 H 367.937 -4.22696 -2.60081 0
M  V30 3981 H 363.193 -5.62519 -2.39546 0
M  V30 3982 H 367.367 -6.59813 -2.22754 0
M  V30 3983 H 364.994 -7.30049 -2.11975 0
M  V30 3984 N 366.569 1.04691 -1.17803 0
M  V30 3985 C 367.797 1.81446 -0.99423 0
M  V30 3986 C 368.212 1.83174 0.457459 0
M  V30 3987 O 367.569 1.26265 1.31771 0
M  V30 3988 C 367.62 3.27334 -1.5341 0
M  V30 3989 O 367.341 3.25798 -2.92895 0
M  V30 3990 C 368.842 4.20759 -1.39559 0
M  V30 3991 H 366.062 0.571599 -0.351447 0
M  V30 3992 H 368.606 1.31982 -1.56208 0
M  V30 3993 H 366.761 3.74052 -1.00815 0
M  V30 3994 H 367.175 4.17144 -3.17949 0
M  V30 3995 H 368.649 5.21084 -1.82141 0
M  V30 3996 H 369.126 4.37856 -0.343394 0
M  V30 3997 H 369.732 3.79901 -1.91195 0
M  V30 3998 N 368.047 0.979072 1.23499 0
M  V30 3999 C 369.458 0.684391 1.73704 0
M  V30 4000 C 369.809 -0.799448 1.79174 0
M  V30 4001 O 368.934 -1.62531 1.42873 0
M  V30 4002 C 369.529 1.23564 3.15464 0
M  V30 4003 C 368.088 0.99063 3.6313 0
M  V30 4004 C 367.235 1.36416 2.41425 0
M  V30 4005 H 370.186 1.15307 1.09041 0
M  V30 4006 H 370.207 0.607417 3.7562 0
M  V30 4007 H 369.719 2.31561 3.1145 0
M  V30 4008 H 367.82 -0.0733136 3.72528 0
M  V30 4009 H 367.933 1.64427 4.5 0
M  V30 4010 H 366.297 0.782616 2.42378 0
M  V30 4011 H 367.08 2.45387 2.40083 0
M  V30 4012 N 369.525 -1.3858 0.750561 0
M  V30 4013 C 370.75 -2.04997 0.314812 0
M  V30 4014 C 371.175 -1.56235 -1.04749 0
M  V30 4015 O 370.533 -0.712981 -1.66692 0
M  V30 4016 C 370.581 -3.58961 0.343415 0
M  V30 4017 O 369.685 -4.07025 -0.663628 0
M  V30 4018 H 369.026 -0.649081 0.139962 0
M  V30 4019 H 371.556 -1.77313 1.02084 0
M  V30 4020 H 371.566 -4.07542 0.193233 0
M  V30 4021 H 370.241 -3.93811 1.33738 0
M  V30 4022 H 368.818 -3.6982 -0.478307 0
M  V30 4023 N 371.003 -0.499398 -1.49478 0
M  V30 4024 C 371.935 0.316575 -2.27003 0
M  V30 4025 C 372.948 0.932047 -1.33479 0
M  V30 4026 O 374.137 0.815658 -1.58774 0
M  V30 4027 C 371.237 1.46055 -3.05812 0
M  V30 4028 C 370.41 0.952679 -4.26899 0
M  V30 4029 C 369.469 1.97407 -4.87767 0
M  V30 4030 O 368.495 1.54326 -5.4788 0
M  V30 4031 N 369.697 3.30436 -4.77276 0
M  V30 4032 H 372.462 -0.348168 -2.97671 0
M  V30 4033 H 370.023 -0.33185 -1.58463 0
M  V30 4034 H 372.015 2.14135 -3.43407 0
M  V30 4035 H 370.585 2.02948 -2.37762 0
M  V30 4036 H 369.805 0.0968248 -3.94081 0
M  V30 4037 H 371.093 0.59174 -5.05347 0
M  V30 4038 H 370.491 3.68126 -4.29534 0
M  V30 4039 H 369.048 3.94235 -5.19059 0
M  V30 4040 N 372.481 1.55866 -0.233164 0
M  V30 4041 C 373.431 2.17442 0.685774 0
M  V30 4042 C 374.415 1.12617 1.14918 0
M  V30 4043 O 375.607 1.3857 1.10124 0
M  V30 4044 C 372.736 2.86685 1.88856 0
M  V30 4045 C 371.822 3.98749 1.4443 0
M  V30 4046 N 372.213 5.00744 0.713364 0
M  V30 4047 C 370.511 4.11052 1.73068 0
M  V30 4048 C 371.212 5.79673 0.485205 0
M  V30 4049 N 370.188 5.33454 1.04536 0
M  V30 4050 H 373.99 2.93659 0.119022 0
M  V30 4051 H 371.504 1.62362 -0.0348995 0
M  V30 4052 H 373.501 3.29218 2.55776 0
M  V30 4053 H 372.161 2.11967 2.45967 0
M  V30 4054 H 373.172 5.16613 0.364861 0
M  V30 4055 H 369.849 3.47495 2.31416 0
M  V30 4056 H 371.239 6.71829 -0.097365 0
M  V30 4057 N 373.959 -0.0401083 1.57549 0
M  V30 4058 C 375.205 -0.728793 1.89895 0
M  V30 4059 C 375.56 -1.73551 0.830535 0
M  V30 4060 O 374.853 -1.90914 -0.162007 0
M  V30 4061 C 375.047 -1.44902 3.26708 0
M  V30 4062 C 374.876 -0.513568 4.46758 0
M  V30 4063 C 373.646 -0.138698 5.0511 0
M  V30 4064 C 375.844 0.203341 5.13898 0
M  V30 4065 N 373.826 0.799159 6.08676 0
M  V30 4066 C 375.197 0.997246 6.11927 0
M  V30 4067 C 377.252 0.271459 4.97159 0
M  V30 4068 C 375.955 1.85299 6.95023 0
M  V30 4069 C 377.981 1.11429 5.80808 0
M  V30 4070 C 377.343 1.89615 6.78399 0
M  V30 4071 H 373.442 -0.241125 0.743897 0
M  V30 4072 H 376.026 0.0108016 1.94697 0
M  V30 4073 H 374.197 -2.15914 3.22856 0
M  V30 4074 H 375.929 -2.08921 3.46603 0
M  V30 4075 H 372.684 -0.498496 4.70969 0
M  V30 4076 H 373.108 1.26227 6.65128 0
M  V30 4077 H 377.75 -0.318709 4.21597 0
M  V30 4078 H 375.468 2.454 7.69938 0
M  V30 4079 H 379.054 1.17038 5.69906 0
M  V30 4080 H 377.934 2.53779 7.42001 0
M  V30 4081 N 375.437 -1.54477 -0.31217 0
M  V30 4082 C 376.677 -1.74958 -1.05684 0
M  V30 4083 C 377.041 -0.518414 -1.84869 0
M  V30 4084 O 378.242 -0.600759 -2.62001 0
M  V30 4085 C 376.513 -2.99656 -1.94785 0
M  V30 4086 S 378.072 -3.4109 -2.76049 0
M  V30 4087 H 374.89 -0.615104 -0.356606 0
M  V30 4088 H 377.492 -1.92669 -0.331514 0
M  V30 4089 H 376.196 -3.87397 -1.35468 0
M  V30 4090 H 375.727 -2.845 -2.71704 0
M  V30 4091 H 377.742 -2.97283 -3.97287 0
M  V30 4092 N 376.915 0.57481 -1.46744 0
M  V30 4093 C 377.862 1.68329 -1.57905 0
M  V30 4094 C 378.832 1.60625 -0.422927 0
M  V30 4095 O 380.017 1.79721 -0.640711 0
M  V30 4096 C 377.157 3.06665 -1.58274 0
M  V30 4097 C 376.27 3.24935 -2.84678 0
M  V30 4098 C 375.405 4.53566 -2.76499 0
M  V30 4099 C 374.444 4.65207 -3.97806 0
M  V30 4100 N 373.581 5.85172 -3.87967 0
M  V30 4101 H 378.421 1.58127 -2.52587 0
M  V30 4102 H 375.958 0.770552 -1.25303 0
M  V30 4103 H 377.916 3.86745 -1.56473 0
M  V30 4104 H 376.546 3.15745 -0.671194 0
M  V30 4105 H 375.598 2.38405 -2.96424 0
M  V30 4106 H 376.91 3.29403 -3.7456 0
M  V30 4107 H 376.064 5.41885 -2.72848 0
M  V30 4108 H 374.803 4.51548 -1.8427 0
M  V30 4109 H 373.808 3.75304 -4.0178 0
M  V30 4110 H 375.033 4.68997 -4.9114 0
M  V30 4111 H 372.979 5.84137 -2.98529 0
M  V30 4112 H 372.896 5.90943 -4.71511 0
M  V30 4113 H 374.164 6.759 -3.88303 0
M  V30 4114 N 378.394 1.34581 0.820102 0
M  V30 4115 C 379.81 1.14325 1.11364 0
M  V30 4116 C 380.01 -0.0533648 2.01429 0
M  V30 4117 O 379.066 -0.728044 2.41776 0
M  V30 4118 C 380.379 2.43983 1.75764 0
M  V30 4119 C 381.927 2.50065 1.88246 0
M  V30 4120 C 382.402 3.79732 2.56061 0
M  V30 4121 N 383.893 3.80908 2.63558 0
M  V30 4122 C 384.628 4.77961 3.16766 0
M  V30 4123 N 384.124 5.85397 3.70517 0
M  V30 4124 N 385.917 4.65413 3.15194 0
M  V30 4125 H 378.068 2.11246 0.221096 0
M  V30 4126 H 380.331 0.934289 0.160649 0
M  V30 4127 H 380.037 3.31651 1.1705 0
M  V30 4128 H 379.911 2.57531 2.75604 0
M  V30 4129 H 382.298 1.62834 2.46108 0
M  V30 4130 H 382.379 2.40442 0.873006 0
M  V30 4131 H 382.023 4.67354 1.98853 0
M  V30 4132 H 381.953 3.86639 3.57516 0
M  V30 4133 H 384.444 3.03274 2.25463 0
M  V30 4134 H 384.757 6.55463 4.09376 0
M  V30 4135 H 383.102 5.89107 3.68752 0
M  V30 4136 H 386.293 3.80627 2.72471 0
M  V30 4137 H 386.466 5.41216 3.56356 0
M  V30 4138 N 379.872 -1.04064 1.18357 0
M  V30 4139 C 381.1 -1.80916 1.00384 0
M  V30 4140 C 381.515 -1.83414 -0.447738 0
M  V30 4141 O 380.872 -1.26962 -1.31099 0
M  V30 4142 C 380.923 -3.26516 1.55144 0
M  V30 4143 O 380.644 -3.2424 2.94618 0
M  V30 4144 C 382.145 -4.20013 1.41789 0
M  V30 4145 H 379.365 -0.569728 0.354474 0
M  V30 4146 H 381.909 -1.31151 1.56906 0
M  V30 4147 H 380.064 -3.73512 1.02798 0
M  V30 4148 H 380.478 -4.15452 3.20156 0
M  V30 4149 H 381.952 -5.20111 1.84901 0
M  V30 4150 H 382.429 -4.37667 0.36661 0
M  V30 4151 H 383.035 -3.78881 1.93207 0
M  V30 4152 N 381.35 -0.985608 -1.22978 0
M  V30 4153 C 382.28 -0.549649 -2.26939 0
M  V30 4154 C 383.261 0.419803 -1.64838 0
M  V30 4155 O 384.446 0.31203 -1.91677 0
M  V30 4156 C 381.576 0.143652 -3.47003 0
M  V30 4157 C 380.53 -0.743606 -4.21491 0
M  V30 4158 C 379.856 0.0822027 -5.34637 0
M  V30 4159 C 381.156 -2.03694 -4.80943 0
M  V30 4160 H 382.85 -1.41862 -2.63658 0
M  V30 4161 H 380.396 -0.683571 -1.26741 0
M  V30 4162 H 382.349 0.459985 -4.18882 0
M  V30 4163 H 381.073 1.04711 -3.09359 0
M  V30 4164 H 379.732 -1.04347 -3.51436 0
M  V30 4165 H 379.38 0.986359 -4.93234 0
M  V30 4166 H 379.08 -0.508377 -5.85397 0
M  V30 4167 H 380.604 0.392797 -6.09335 0
M  V30 4168 H 382.018 -1.78504 -5.44802 0
M  V30 4169 H 380.415 -2.57573 -5.42011 0
M  V30 4170 H 381.485 -2.72042 -4.01399 0
M  V30 4171 N 382.828 1.3818 -0.7579 0
M  V30 4172 C 383.761 2.28055 -0.0814093 0
M  V30 4173 C 384.739 1.45603 0.723779 0
M  V30 4174 O 385.923 1.74961 0.701491 0
M  V30 4175 C 383.05 3.2676 0.891394 0
M  V30 4176 C 382.096 4.26153 0.171909 0
M  V30 4177 S 382.929 5.23434 -1.13035 0
M  V30 4178 C 384.085 6.25694 -0.160727 0
M  V30 4179 H 384.318 2.85082 -0.84353 0
M  V30 4180 H 381.851 1.44246 -0.550671 0
M  V30 4181 H 383.809 3.8414 1.44731 0
M  V30 4182 H 382.47 2.68706 1.62652 0
M  V30 4183 H 381.663 4.95738 0.908843 0
M  V30 4184 H 381.265 3.72691 -0.312606 0
M  V30 4185 H 383.557 6.74161 0.671773 0
M  V30 4186 H 384.5 7.03285 -0.824353 0
M  V30 4187 H 384.908 5.64064 0.221892 0
M  V30 4188 N 384.306 0.507319 1.49211 0
M  V30 4189 C 385.583 -0.0982702 1.95353 0
M  V30 4190 C 385.963 -1.53516 1.449 0
M  V30 4191 O 385.311 -2.18594 0.66551 0
M  V30 4192 C 385.521 -0.00440283 3.49 0
M  V30 4193 C 386.869 -0.175147 4.24239 0
M  V30 4194 O 387.893 -0.0792891 3.56112 0
M  V30 4195 O 386.752 -0.37276 5.45227 0
M  V30 4196 H 383.846 -0.0918236 0.821887 0
M  V30 4197 H 386.392 0.570307 1.5983 0
M  V30 4198 H 385.164 0.997402 3.78375 0
M  V30 4199 H 384.787 -0.712845 3.91158 0
M  V30 4200 N 385.784 -1.5574 0.241426 0
M  V30 4201 C 387.061 -1.90704 -0.434881 0
M  V30 4202 C 387.441 -1.16145 -1.76277 0
M  V30 4203 O 386.789 -0.277152 -2.26813 0
M  V30 4204 C 386.999 -3.43657 -0.608343 0
M  V30 4205 C 388.347 -4.14806 -0.906725 0
M  V30 4206 O 389.371 -3.49366 -0.694408 0
M  V30 4207 O 388.23 -5.30548 -1.31075 0
M  V30 4208 H 385.324 -0.793592 -0.23268 0
M  V30 4209 H 387.87 -1.67288 0.285086 0
M  V30 4210 H 386.642 -3.89927 0.327505 0
M  V30 4211 H 386.265 -3.72918 -1.37906 0
M  V30 4212 N 387.262 0.0317525 -1.57568 0
M  V30 4213 C 388.21 1.05165 -2.07468 0
M  V30 4214 C 389.204 1.3761 -0.98792 0
M  V30 4215 O 390.41 1.36546 -1.17282 0
M  V30 4216 H 386.785 0.35666 -0.66204 0
M  V30 4217 H 388.756 0.604958 -2.92203 0
M  V30 4218 C 387.505 2.34488 -2.56731 0
M  V30 4219 H 386.828 2.10383 -3.39969 0
M  V30 4220 H 388.268 3.04203 -2.95358 0
M  V30 4221 C 386.727 3.03266 -1.46736 0
M  V30 4222 O 387.257 3.92988 -0.832069 0
M  V30 4223 N 385.463 2.6455 -1.20256 0
M  V30 4224 H 385.01 1.91674 -1.72102 0
M  V30 4225 H 384.968 3.10886 -0.468737 0
M  V30 4226 N 388.74 1.54641 0.303973 0
M  V30 4227 C 389.687 1.85386 1.37479 0
M  V30 4228 C 390.657 0.702528 1.50512 0
M  V30 4229 O 391.842 0.950867 1.65418 0
M  V30 4230 C 388.982 2.10413 2.73533 0
M  V30 4231 C 388.095 3.38049 2.68974 0
M  V30 4232 C 387.23 3.52934 3.97002 0
M  V30 4233 C 386.269 4.74373 3.86829 0
M  V30 4234 N 385.406 4.8608 5.06627 0
M  V30 4235 H 390.246 2.76732 1.1056 0
M  V30 4236 H 387.783 1.37034 0.534805 0
M  V30 4237 H 389.741 2.22919 3.52652 0
M  V30 4238 H 388.371 1.22338 2.98719 0
M  V30 4239 H 387.423 3.3418 1.81736 0
M  V30 4240 H 388.735 4.27288 2.57346 0
M  V30 4241 H 387.889 3.65088 4.84557 0
M  V30 4242 H 386.628 2.61824 4.1146 0
M  V30 4243 H 385.633 4.62255 2.97658 0
M  V30 4244 H 386.858 5.66888 3.73918 0
M  V30 4245 H 384.804 3.97891 5.21554 0
M  V30 4246 H 384.721 5.69315 4.9741 0
M  V30 4247 H 385.989 5.02587 5.95841 0
M  V30 4248 N 390.218 -0.567019 1.47046 0
M  V30 4249 C 391.464 -1.32658 1.53394 0
M  V30 4250 C 391.797 -1.93254 0.19148 0
M  V30 4251 O 391.072 -1.77338 -0.798844 0
M  V30 4252 C 391.355 -2.44412 2.64452 0
M  V30 4253 C 391.208 -1.88749 4.08282 0
M  V30 4254 C 392.527 -3.46387 2.71485 0
M  V30 4255 H 389.646 -0.48098 0.558415 0
M  V30 4256 H 392.288 -0.635481 1.79058 0
M  V30 4257 H 390.438 -3.03363 2.427 0
M  V30 4258 H 392.11 -1.34134 4.41368 0
M  V30 4259 H 390.353 -1.19481 4.17021 0
M  V30 4260 H 391.024 -2.69491 4.81745 0
M  V30 4261 H 393.5 -2.9734 2.91081 0
M  V30 4262 H 392.376 -4.2202 3.50985 0
M  V30 4263 H 392.637 -4.04616 1.78153 0
M  V30 4264 N 391.696 -1.35014 -0.812953 0
M  V30 4265 C 392.626 -1.30069 -1.93919 0
M  V30 4266 C 393.607 -0.176275 -1.69184 0
M  V30 4267 O 394.792 -0.370227 -1.90638 0
M  V30 4268 C 391.922 -1.06547 -3.30552 0
M  V30 4269 C 390.876 -2.15561 -3.69753 0
M  V30 4270 C 390.202 -1.77214 -5.04479 0
M  V30 4271 C 391.502 -3.57476 -3.808 0
M  V30 4272 H 393.196 -2.24303 -1.98314 0
M  V30 4273 H 390.742 -1.07977 -0.952736 0
M  V30 4274 H 392.695 -1.01729 -4.08937 0
M  V30 4275 H 391.419 -0.0875719 -3.26483 0
M  V30 4276 H 390.078 -2.19466 -2.9365 0
M  V30 4277 H 389.726 -0.780589 -4.96906 0
M  V30 4278 H 389.426 -2.50184 -5.31678 0
M  V30 4279 H 390.95 -1.7391 -5.8531 0
M  V30 4280 H 392.364 -3.55929 -4.4943 0
M  V30 4281 H 390.761 -4.29152 -4.19462 0
M  V30 4282 H 391.831 -3.94091 -2.82525 0
M  V30 4283 N 393.175 1.03435 -1.18907 0
M  V30 4284 C 394.421 1.7713 -0.99982 0
M  V30 4285 C 394.776 1.86695 0.465049 0
M  V30 4286 O 394.069 1.36866 1.34083 0
M  V30 4287 C 394.263 3.19792 -1.59586 0
M  V30 4288 C 394.092 3.24134 -3.11717 0
M  V30 4289 C 392.862 3.32398 -3.80578 0
M  V30 4290 C 395.06 3.11625 -4.09138 0
M  V30 4291 N 393.042 3.26055 -5.20155 0
M  V30 4292 C 394.413 3.12855 -5.35277 0
M  V30 4293 C 396.468 2.95713 -4.00572 0
M  V30 4294 C 395.171 2.99805 -6.53842 0
M  V30 4295 C 397.197 2.84011 -5.1874 0
M  V30 4296 C 396.559 2.8589 -6.43775 0
M  V30 4297 H 392.658 0.659683 -0.419931 0
M  V30 4298 H 395.242 1.2317 -1.50789 0
M  V30 4299 H 393.413 3.72085 -1.11389 0
M  V30 4300 H 395.145 3.81819 -1.3415 0
M  V30 4301 H 391.9 3.38392 -3.31342 0
M  V30 4302 H 392.324 3.26307 -5.93172 0
M  V30 4303 H 396.966 2.93086 -3.0473 0
M  V30 4304 H 394.684 3.01184 -7.49876 0
M  V30 4305 H 398.27 2.72744 -5.13909 0
M  V30 4306 H 397.15 2.76931 -7.33675 0
M  V30 4307 N 394.653 0.992116 1.22453 0
M  V30 4308 C 395.901 0.666215 1.90804 0
M  V30 4309 C 396.222 -0.804152 1.77647 0
M  V30 4310 O 395.492 -1.57629 1.16318 0
M  V30 4311 H 394.072 0.243423 0.706225 0
M  V30 4312 H 396.734 1.25845 1.48825 0
M  V30 4313 H 395.83 0.928069 2.97982 0
M  V30 4314 N 396.131 -1.37776 0.765217 0
M  V30 4315 C 397.356 -2.04651 0.336537 0
M  V30 4316 C 397.781 -1.57337 -1.03086 0
M  V30 4317 O 397.139 -0.730621 -1.65927 0
M  V30 4318 C 397.187 -3.58577 0.381468 0
M  V30 4319 O 396.291 -4.07706 -0.62042 0
M  V30 4320 H 395.632 -0.64756 0.146838 0
M  V30 4321 H 398.162 -1.76221 1.03959 0
M  V30 4322 H 398.172 -4.07314 0.236448 0
M  V30 4323 H 396.847 -3.9237 1.37907 0
M  V30 4324 H 395.424 -3.70306 -0.439056 0
M  V30 4325 N 397.609 -0.515225 -1.4894 0
M  V30 4326 C 398.855 0.016187 -2.03394 0
M  V30 4327 C 399.21 1.33377 -1.38666 0
M  V30 4328 O 398.503 1.84461 -0.518141 0
M  V30 4329 C 398.697 0.210595 -3.56779 0
M  V30 4330 C 398.526 -1.08659 -4.36375 0
M  V30 4331 C 397.296 -1.64237 -4.77864 0
M  V30 4332 C 399.494 -1.9935 -4.74093 0
M  V30 4333 N 397.476 -2.88398 -5.41941 0
M  V30 4334 C 398.847 -3.08088 -5.38035 0
M  V30 4335 C 400.902 -1.99856 -4.56029 0
M  V30 4336 C 399.605 -4.17377 -5.85823 0
M  V30 4337 C 401.631 -3.08129 -5.04787 0
M  V30 4338 C 400.993 -4.15586 -5.68742 0
M  V30 4339 H 397.092 -0.0352107 -0.781207 0
M  V30 4340 H 399.676 -0.693237 -1.8194 0
M  V30 4341 H 397.847 0.889088 -3.78087 0
M  V30 4342 H 399.579 0.740287 -3.97872 0
M  V30 4343 H 396.334 -1.18566 -4.58518 0
M  V30 4344 H 396.758 -3.51572 -5.78555 0
M  V30 4345 H 401.4 -1.18079 -4.05977 0
M  V30 4346 H 399.118 -4.99943 -6.34888 0
M  V30 4347 H 402.704 -3.09557 -4.92611 0
M  V30 4348 H 401.584 -4.97987 -6.05787 0
M  V30 4349 N 399.087 1.5561 -0.249682 0
M  V30 4350 C 400.312 2.03865 0.381305 0
M  V30 4351 C 400.737 1.12769 1.50548 0
M  V30 4352 O 400.095 0.121189 1.80895 0
M  V30 4353 C 400.143 3.50101 0.863816 0
M  V30 4354 O 399.247 3.62132 1.97318 0
M  V30 4355 H 398.588 0.658827 0.0827194 0
M  V30 4356 H 401.118 2.01105 -0.376552 0
M  V30 4357 H 401.128 3.90975 1.1663 0
M  V30 4358 H 399.803 4.1588 0.0411816 0
M  V30 4359 H 398.38 3.33155 1.67517 0
M  V30 4360 N 400.565 -0.0233959 1.57583 0
M  V30 4361 C 401.811 -0.714119 1.89811 0
M  V30 4362 C 402.144 -1.74702 0.848113 0
M  V30 4363 O 401.419 -1.94023 -0.136135 0
M  V30 4364 C 401.702 -1.37853 3.32669 0
M  V30 4365 C 401.555 -0.358764 4.48367 0
M  V30 4366 C 402.874 -2.31101 3.7454 0
M  V30 4367 H 399.993 -0.25814 0.690314 0
M  V30 4368 H 402.635 0.0230927 1.89986 0
M  V30 4369 H 400.785 -2.00689 3.3265 0
M  V30 4370 H 402.457 0.268115 4.6052 0
M  V30 4371 H 400.7 0.321387 4.32608 0
M  V30 4372 H 401.371 -0.862242 5.45224 0
M  V30 4373 H 403.847 -1.78304 3.75961 0
M  V30 4374 H 402.723 -2.74567 4.75294 0
M  V30 4375 H 402.984 -3.18018 3.0711 0
M  V30 4376 N 402.043 -1.548 -0.295768 0
M  V30 4377 C 402.973 -1.89115 -1.36959 0
M  V30 4378 C 403.954 -0.75059 -1.52644 0
M  V30 4379 O 405.139 -1.00678 -1.66065 0
M  V30 4380 C 402.269 -2.14307 -2.73295 0
M  V30 4381 C 401.223 -3.30151 -2.72368 0
M  V30 4382 C 400.549 -3.40772 -4.12042 0
M  V30 4383 C 401.849 -4.67126 -2.33646 0
M  V30 4384 H 403.543 -2.79053 -1.08488 0
M  V30 4385 H 401.089 -1.34266 -0.520443 0
M  V30 4386 H 403.042 -2.36898 -3.48507 0
M  V30 4387 H 401.766 -1.21145 -3.03301 0
M  V30 4388 H 400.425 -3.0749 -1.99613 0
M  V30 4389 H 400.073 -2.45117 -4.39234 0
M  V30 4390 H 399.773 -4.18645 -4.12322 0
M  V30 4391 H 401.297 -3.6563 -4.89027 0
M  V30 4392 H 402.711 -4.89414 -2.98575 0
M  V30 4393 H 401.108 -5.47751 -2.45129 0
M  V30 4394 H 402.178 -4.67489 -1.28772 0
M  V30 4395 N 403.521 0.559213 -1.47345 0
M  V30 4396 C 404.769 1.31388 -1.53563 0
M  V30 4397 C 405.09 1.93985 -0.198678 0
M  V30 4398 O 404.36 1.79825 0.777167 0
M  V30 4399 H 402.94 0.487901 -0.565652 0
M  V30 4400 H 405.602 0.65315 -1.8363 0
M  V30 4401 H 404.698 2.10844 -2.30111 0
M  V30 4402 N 404.999 1.35443 0.805782 0
M  V30 4403 C 406.41 1.25768 1.37983 0
M  V30 4404 C 406.761 -0.10958 1.95894 0
M  V30 4405 O 405.886 -1.01056 1.91355 0
M  V30 4406 C 406.481 2.27727 2.5085 0
M  V30 4407 C 405.04 2.2179 3.04115 0
M  V30 4408 C 404.187 2.13393 1.77084 0
M  V30 4409 H 407.138 1.4656 0.608752 0
M  V30 4410 H 407.159 1.90422 3.29424 0
M  V30 4411 H 406.671 3.27227 2.08671 0
M  V30 4412 H 404.772 1.25703 3.50756 0
M  V30 4413 H 404.885 3.13788 3.62042 0
M  V30 4414 H 403.249 1.59384 1.98668 0
M  V30 4415 H 404.032 3.14755 1.37056 0
M  V30 4416 N 406.477 -1.02803 1.19454 0
M  V30 4417 C 407.723 -1.76598 1.0092 0
M  V30 4418 C 408.078 -1.86939 -0.455142 0
M  V30 4419 O 407.371 -1.37575 -1.33355 0
M  V30 4420 C 407.565 -3.18941 1.6128 0
M  V30 4421 C 407.394 -3.22476 3.13431 0
M  V30 4422 C 406.164 -3.30375 3.82336 0
M  V30 4423 C 408.362 -3.09451 4.10785 0
M  V30 4424 N 406.344 -3.23292 5.21877 0
M  V30 4425 C 407.715 -3.10012 5.36929 0
M  V30 4426 C 409.77 -2.93585 4.02135 0
M  V30 4427 C 408.473 -2.96334 6.55423 0
M  V30 4428 C 410.499 -2.81256 5.20239 0
M  V30 4429 C 409.861 -2.82472 6.45282 0
M  V30 4430 H 405.96 -0.657447 0.423424 0
M  V30 4431 H 408.544 -1.22369 1.5144 0
M  V30 4432 H 406.715 -3.71489 1.1336 0
M  V30 4433 H 408.447 -3.81102 1.36173 0
M  V30 4434 H 405.202 -3.3663 3.33132 0
M  V30 4435 H 405.626 -3.23156 5.94894 0
M  V30 4436 H 410.268 -2.91466 3.0628 0
M  V30 4437 H 407.986 -2.97203 7.51463 0
M  V30 4438 H 411.572 -2.70014 5.15348 0
M  V30 4439 H 410.452 -2.73036 7.35133 0
M  V30 4440 N 407.956 -0.998596 -1.21925 0
M  V30 4441 C 408.904 -0.546641 -2.26085 0
M  V30 4442 C 409.898 0.405576 -1.64473 0
M  V30 4443 O 411.104 0.277471 -1.77849 0
M  V30 4444 H 407.479 -0.158403 -0.735127 0
M  V30 4445 H 409.45 -1.43645 -2.61551 0
M  V30 4446 C 408.199 0.117388 -3.47502 0
M  V30 4447 H 407.522 -0.606277 -3.95176 0
M  V30 4448 H 408.962 0.396993 -4.22137 0
M  V30 4449 C 407.421 1.35455 -3.0847 0
M  V30 4450 O 407.951 2.44944 -3.18379 0
M  V30 4451 N 406.157 1.23191 -2.63196 0
M  V30 4452 H 405.704 0.341006 -2.55333 0
M  V30 4453 H 405.662 2.06071 -2.37449 0
M  V30 4454 N 409.434 1.37368 -0.772513 0
M  V30 4455 C 410.85 1.53059 -0.452231 0
M  V30 4456 C 411.05 1.73065 1.03203 0
M  V30 4457 O 410.106 1.75245 1.81784 0
M  V30 4458 C 411.419 2.72659 -1.26797 0
M  V30 4459 C 412.967 2.86521 -1.25995 0
M  V30 4460 C 413.442 4.09105 -2.05905 0
M  V30 4461 N 414.933 4.16219 -2.03263 0
M  V30 4462 C 415.668 5.10107 -2.61875 0
M  V30 4463 N 415.164 6.09547 -3.29278 0
M  V30 4464 N 416.957 5.02596 -2.51701 0
M  V30 4465 H 409.108 1.22634 -1.7342 0
M  V30 4466 H 411.371 0.597206 -0.736239 0
M  V30 4467 H 411.077 2.64343 -2.31982 0
M  V30 4468 H 410.951 3.66363 -0.897672 0
M  V30 4469 H 413.338 2.94308 -0.216081 0
M  V30 4470 H 413.419 1.93774 -1.66989 0
M  V30 4471 H 413.063 4.0208 -3.10313 0
M  V30 4472 H 412.993 5.00968 -1.62292 0
M  V30 4473 H 415.484 3.45012 -1.54192 0
M  V30 4474 H 415.797 6.77718 -3.71374 0
M  V30 4475 H 414.142 6.09824 -3.33377 0
M  V30 4476 H 417.333 4.23855 -1.98657 0
M  V30 4477 H 417.506 5.75582 -2.97673 0
M  V30 4478 N 410.912 0.523116 1.48665 0
M  V30 4479 C 412.159 -0.0134763 2.02496 0
M  V30 4480 C 412.487 -1.3493 1.40086 0
M  V30 4481 O 411.742 -1.88286 0.533567 0
M  V30 4482 C 412.041 -0.191671 3.56886 0
M  V30 4483 C 411.707 1.06893 4.38046 0
M  V30 4484 C 410.369 1.41443 4.59943 0
M  V30 4485 C 412.721 1.90584 4.85106 0
M  V30 4486 C 410.049 2.59594 5.26144 0
M  V30 4487 C 412.401 3.07907 5.52609 0
M  V30 4488 C 411.065 3.42811 5.72745 0
M  V30 4489 H 410.335 -0.00493133 0.740984 0
M  V30 4490 H 412.982 0.687751 1.78724 0
M  V30 4491 H 411.287 -0.97561 3.79459 0
M  V30 4492 H 412.984 -0.621659 3.96152 0
M  V30 4493 H 409.574 0.789848 4.21259 0
M  V30 4494 H 413.758 1.65203 4.67997 0
M  V30 4495 H 409.014 2.86847 5.39934 0
M  V30 4496 H 413.188 3.73066 5.88043 0
M  V30 4497 H 410.815 4.34462 6.23816 0
M  V30 4498 N 412.39 -1.55475 0.257931 0
M  V30 4499 C 413.637 -1.99207 -0.363728 0
M  V30 4500 C 413.965 -1.1462 -1.57139 0
M  V30 4501 O 413.22 -0.199653 -1.94679 0
M  V30 4502 C 413.519 -3.48183 -0.806433 0
M  V30 4503 C 413.185 -4.49936 0.294684 0
M  V30 4504 C 411.847 -4.77481 0.597076 0
M  V30 4505 C 414.199 -5.10769 1.03751 0
M  V30 4506 C 411.527 -5.63132 1.64618 0
M  V30 4507 C 413.879 -5.97558 2.07622 0
M  V30 4508 C 412.543 -6.23432 2.38514 0
M  V30 4509 H 411.813 -0.728949 -0.133097 0
M  V30 4510 H 414.46 -1.8793 0.368059 0
M  V30 4511 H 412.765 -3.56848 -1.61761 0
M  V30 4512 H 414.462 -3.79415 -1.29789 0
M  V30 4513 H 411.052 -4.28572 0.0488649 0
M  V30 4514 H 415.236 -4.89527 0.817149 0
M  V30 4515 H 410.492 -5.8143 1.89074 0
M  V30 4516 H 414.666 -6.43735 2.65666 0
M  V30 4517 H 412.293 -6.89594 3.19943 0
M  V30 4518 N 413.868 0.0150385 -1.57593 0
M  V30 4519 C 415.115 0.703001 -1.89906 0
M  V30 4520 C 415.443 1.74604 -0.856944 0
M  V30 4521 O 414.698 1.95197 0.140287 0
M  V30 4522 C 414.997 1.39686 -3.28972 0
M  V30 4523 C 414.663 0.488457 -4.48246 0
M  V30 4524 C 413.325 0.2383 -4.8061 0
M  V30 4525 C 415.677 -0.137881 -5.21018 0
M  V30 4526 C 413.005 -0.646738 -5.83125 0
M  V30 4527 C 415.357 -1.0107 -6.24474 0
M  V30 4528 C 414.021 -1.27019 -6.55303 0
M  V30 4529 H 413.291 0.257246 -0.694914 0
M  V30 4530 H 415.938 -0.037259 -1.91464 0
M  V30 4531 H 414.243 2.21079 -3.23468 0
M  V30 4532 H 415.94 1.93495 -3.51227 0
M  V30 4533 H 412.53 0.693593 -4.22951 0
M  V30 4534 H 416.714 0.0423953 -4.96282 0
M  V30 4535 H 411.97 -0.855937 -6.05379 0
M  V30 4536 H 416.144 -1.50247 -6.79999 0
M  V30 4537 H 413.771 -1.95769 -7.3456 0
M  V30 4538 N 415.346 1.54954 0.287554 0
M  V30 4539 C 416.309 1.86076 1.33823 0
M  V30 4540 C 417.309 0.734414 1.43049 0
M  V30 4541 O 418.499 1.00266 1.42452 0
M  V30 4542 C 415.631 2.05305 2.72144 0
M  V30 4543 H 416.824 2.79984 1.07465 0
M  V30 4544 H 414.377 1.47223 0.524902 0
M  V30 4545 H 415.112 1.1373 3.03704 0
M  V30 4546 H 414.897 2.873 2.66836 0
M  V30 4547 H 416.387 2.30706 3.48087 0
M  V30 4548 N 416.824 -0.551391 1.4764 0
M  V30 4549 C 418.072 -1.30572 1.54258 0
M  V30 4550 C 418.393 -1.93877 0.208963 0
M  V30 4551 O 417.663 -1.80234 -0.767619 0
M  V30 4552 H 416.243 -0.484894 0.568231 0
M  V30 4553 H 418.905 -0.643402 1.83974 0
M  V30 4554 H 418.001 -2.09621 2.31226 0
M  V30 4555 N 418.302 -1.35869 -0.798587 0
M  V30 4556 C 419.579 -1.20145 -1.54352 0
M  V30 4557 C 419.959 0.216161 -2.0999 0
M  V30 4558 O 419.307 1.22068 -1.93162 0
M  V30 4559 C 419.517 -2.27602 -2.64572 0
M  V30 4560 C 420.865 -2.63811 -3.32699 0
M  V30 4561 O 421.889 -2.26576 -2.74849 0
M  V30 4562 O 420.748 -3.27866 -4.37226 0
M  V30 4563 H 417.842 -0.467248 -0.682355 0
M  V30 4564 H 420.388 -1.47574 -0.837859 0
M  V30 4565 H 419.16 -3.2265 -2.21388 0
M  V30 4566 H 418.783 -2.01488 -3.42766 0
M  V30 4567 N 419.78 1.02168 -1.19998 0
M  V30 4568 C 421.008 1.79296 -1.03249 0
M  V30 4569 C 421.423 1.84103 0.418502 0
M  V30 4570 O 420.78 1.29031 1.29063 0
M  V30 4571 C 420.831 3.24007 -1.60319 0
M  V30 4572 O 420.552 3.19512 -2.99739 0
M  V30 4573 C 422.053 4.17704 -1.48453 0
M  V30 4574 H 419.273 0.564016 -0.363493 0
M  V30 4575 H 421.817 1.28639 -1.58973 0
M  V30 4576 H 419.972 3.7183 -1.08727 0
M  V30 4577 H 420.386 4.10306 -3.26725 0
M  V30 4578 H 421.86 5.17104 -1.93153 0
M  V30 4579 H 422.337 4.37029 -0.436193 0
M  V30 4580 H 422.943 3.7576 -1.99211 0
M  V30 4581 N 421.258 1.00505 1.21394 0
M  V30 4582 C 422.506 0.686415 1.90086 0
M  V30 4583 C 422.827 -0.785264 1.7849 0
M  V30 4584 O 422.097 -1.56387 1.17983 0
M  V30 4585 H 420.677 0.2509 0.703604 0
M  V30 4586 H 423.339 1.27417 1.47482 0
M  V30 4587 H 422.435 0.959621 2.96981 0
M  V30 4588 N 422.737 -1.36956 0.779787 0
M  V30 4589 C 423.967 -2.03459 0.358877 0
M  V30 4590 C 424.375 -1.58939 -1.02641 0
M  V30 4591 O 423.718 -0.769777 -1.66794 0
M  V30 4592 C 423.78 -3.5796 0.332393 0
M  V30 4593 C 423.444 -4.25644 1.66362 0
M  V30 4594 C 424.441 -4.49205 2.61746 0
M  V30 4595 C 422.126 -4.63313 1.94027 0
M  V30 4596 C 424.12 -5.09503 3.82996 0
M  V30 4597 C 421.807 -5.2333 3.15546 0
M  V30 4598 C 422.805 -5.46363 4.0985 0
M  V30 4599 O 422.493 -6.05122 5.29228 0
M  V30 4600 H 422.225 -0.659767 0.147254 0
M  V30 4601 H 424.779 -1.76111 1.05708 0
M  V30 4602 H 423.009 -3.84388 -0.422237 0
M  V30 4603 H 424.698 -4.05852 -0.0625389 0
M  V30 4604 H 425.464 -4.20508 2.41657 0
M  V30 4605 H 421.343 -4.44715 1.21448 0
M  V30 4606 H 424.887 -5.27397 4.56617 0
M  V30 4607 H 420.784 -5.51451 3.35517 0
M  V30 4608 H 421.552 -6.23595 5.30161 0
M  V30 4609 N 424.215 -0.530993 -1.48385 0
M  V30 4610 C 425.455 0.000718982 -2.044 0
M  V30 4611 C 425.819 1.31485 -1.39913 0
M  V30 4612 O 427.02 1.93265 -1.86821 0
M  V30 4613 C 425.291 0.119177 -3.57201 0
M  V30 4614 S 426.85 0.600806 -4.34667 0
M  V30 4615 H 423.668 -0.0125473 -0.710889 0
M  V30 4616 H 426.27 -0.711783 -1.82082 0
M  V30 4617 H 424.974 -0.842061 -4.01668 0
M  V30 4618 H 424.505 0.856026 -3.83974 0
M  V30 4619 H 426.52 1.86514 -4.59812 0
M  V30 4620 N 425.693 1.55336 -0.266172 0
M  V30 4621 C 427.104 1.85236 0.233315 0
M  V30 4622 C 427.455 1.18816 1.56132 0
M  V30 4623 O 426.58 0.473307 2.11161 0
M  V30 4624 C 427.175 3.36059 0.430113 0
M  V30 4625 C 425.734 3.66116 0.873842 0
M  V30 4626 C 424.881 2.77274 -0.0380016 0
M  V30 4627 H 427.832 1.51004 -0.488214 0
M  V30 4628 H 427.853 3.58681 1.26998 0
M  V30 4629 H 427.365 3.84373 -0.536588 0
M  V30 4630 H 425.466 3.23295 1.85233 0
M  V30 4631 H 425.579 4.73699 0.717358 0
M  V30 4632 H 423.943 2.50198 0.476759 0
M  V30 4633 H 424.726 3.284 -1.00042 0
M  V30 4634 N 427.171 -0.0066808 1.57599 0
M  V30 4635 C 428.134 -0.985035 2.06953 0
M  V30 4636 C 429.134 -1.27663 0.977687 0
M  V30 4637 O 430.324 -1.22293 1.24057 0
M  V30 4638 C 427.456 -2.3118 2.50536 0
M  V30 4639 H 428.649 -0.558255 2.94658 0
M  V30 4640 H 426.202 -0.254011 1.54222 0
M  V30 4641 H 426.937 -2.78561 1.66054 0
M  V30 4642 H 426.722 -2.11338 3.3027 0
M  V30 4643 H 428.212 -3.01377 2.8907 0
M  V30 4644 N 428.649 -1.55105 -0.279332 0
M  V30 4645 C 429.896 -1.75412 -1.01177 0
M  V30 4646 C 430.224 -0.551728 -1.86511 0
M  V30 4647 O 429.479 0.465919 -1.90073 0
M  V30 4648 C 429.778 -3.0086 -1.92919 0
M  V30 4649 C 429.444 -4.33689 -1.23387 0
M  V30 4650 C 428.106 -4.69792 -1.04159 0
M  V30 4651 C 430.458 -5.15941 -0.738562 0
M  V30 4652 C 427.786 -5.85707 -0.341166 0
M  V30 4653 C 430.138 -6.32579 -0.0517636 0
M  V30 4654 C 428.802 -6.67326 0.152292 0
M  V30 4655 H 428.072 -0.641879 -0.370233 0
M  V30 4656 H 430.719 -1.89373 -0.284627 0
M  V30 4657 H 429.024 -2.81773 -2.72234 0
M  V30 4658 H 430.721 -3.13768 -2.49701 0
M  V30 4659 H 427.311 -4.05309 -1.39364 0
M  V30 4660 H 431.495 -4.8853 -0.874764 0
M  V30 4661 H 426.751 -6.11157 -0.172287 0
M  V30 4662 H 430.925 -6.9557 0.339828 0
M  V30 4663 H 428.552 -7.56998 0.697014 0
M  V30 4664 N 430.127 0.543554 -1.4793 0
M  V30 4665 C 431.037 1.67657 -1.64098 0
M  V30 4666 C 432.053 1.65934 -0.523622 0
M  V30 4667 O 433.229 1.85133 -0.792943 0
M  V30 4668 C 430.294 3.04146 -1.66421 0
M  V30 4669 C 429.355 3.16831 -2.89684 0
M  V30 4670 C 428.588 4.46809 -2.91886 0
M  V30 4671 O 428.811 5.33095 -2.02895 0
M  V30 4672 O 427.745 4.63573 -3.83906 0
M  V30 4673 H 431.571 1.56957 -2.59997 0
M  V30 4674 H 429.156 0.715116 -1.31173 0
M  V30 4675 H 431.038 3.85346 -1.70548 0
M  V30 4676 H 429.713 3.152 -0.736923 0
M  V30 4677 H 428.62 2.34977 -2.91095 0
M  V30 4678 H 429.953 3.10687 -3.81752 0
M  V30 4679 N 431.605 1.3629 0.791371 0
M  V30 4680 C 432.515 1.32606 1.93527 0
M  V30 4681 C 433.531 0.228541 1.72493 0
M  V30 4682 O 434.707 0.460571 1.96063 0
M  V30 4683 C 431.772 1.11271 3.28359 0
M  V30 4684 C 430.833 2.3048 3.62185 0
M  V30 4685 C 430.066 2.10154 4.90583 0
M  V30 4686 O 430.289 1.07572 5.60165 0
M  V30 4687 O 429.223 2.97884 5.23019 0
M  V30 4688 H 433.049 2.28909 1.99585 0
M  V30 4689 H 430.634 1.16818 0.931344 0
M  V30 4690 H 432.516 1.01283 4.09047 0
M  V30 4691 H 431.191 0.180292 3.23198 0
M  V30 4692 H 430.098 2.46036 2.81811 0
M  V30 4693 H 431.431 3.22221 3.72068 0
M  V30 4694 N 433.083 -1.0153 1.20538 0
M  V30 4695 C 434.332 -1.74558 1.01057 0
M  V30 4696 C 434.645 -1.90168 -0.457756 0
M  V30 4697 O 435.851 -2.60301 -0.771722 0
M  V30 4698 C 434.307 -3.13963 1.75941 0
M  V30 4699 C 433.915 -3.06361 3.26875 0
M  V30 4700 C 435.659 -3.91191 1.64832 0
M  V30 4701 C 433.566 -4.40782 3.94291 0
M  V30 4702 H 432.496 -0.654417 0.374505 0
M  V30 4703 H 435.147 -1.13521 1.44171 0
M  V30 4704 H 433.529 -3.75549 1.25614 0
M  V30 4705 H 434.703 -2.54074 3.84425 0
M  V30 4706 H 433.018 -2.42625 3.38411 0
M  V30 4707 H 435.615 -4.90644 2.12539 0
M  V30 4708 H 435.958 -4.11884 0.604745 0
M  V30 4709 H 436.491 -3.36236 2.12579 0
M  V30 4710 H 433.23 -4.25292 4.98805 0
M  V30 4711 H 432.75 -4.9307 3.41529 0
M  V30 4712 H 434.429 -5.09621 3.98617 0
M  V30 4713 N 434.561 -1.01147 -1.20859 0
M  V30 4714 C 435.809 -0.696486 -1.89719 0
M  V30 4715 C 436.13 0.775788 -1.78904 0
M  V30 4716 O 435.4 1.55759 -1.18811 0
M  V30 4717 H 433.98 -0.254628 -0.702263 0
M  V30 4718 H 436.642 -1.28197 -1.46804 0
M  V30 4719 H 435.738 -0.975357 -2.96468 0
M  V30 4720 N 436.039 1.36541 -0.78704 0
M  V30 4721 C 436.986 2.30082 -0.181901 0
M  V30 4722 C 437.956 1.5186 0.672896 0
M  V30 4723 O 439.141 1.80374 0.622072 0
M  V30 4724 C 436.281 3.3835 0.679197 0
M  V30 4725 C 435.394 4.31565 -0.193882 0
M  V30 4726 C 434.529 5.26915 0.673364 0
M  V30 4727 C 433.568 6.11769 -0.201315 0
M  V30 4728 N 432.705 6.99315 0.624777 0
M  V30 4729 H 437.545 2.81248 -0.985064 0
M  V30 4730 H 435.082 1.38437 -0.497342 0
M  V30 4731 H 437.04 3.99767 1.19341 0
M  V30 4732 H 435.67 2.8851 1.44781 0
M  V30 4733 H 434.722 3.71323 -0.826044 0
M  V30 4734 H 436.034 4.91191 -0.867937 0
M  V30 4735 H 435.188 5.9361 1.25348 0
M  V30 4736 H 433.927 4.67737 1.38105 0
M  V30 4737 H 432.932 5.44039 -0.793849 0
M  V30 4738 H 434.157 6.73022 -0.906568 0
M  V30 4739 H 432.103 6.42648 1.3168 0
M  V30 4740 H 432.02 7.56 0.00835237 0
M  V30 4741 H 433.288 7.70382 1.18879 0
M  V30 4742 N 437.518 0.538854 1.48102 0
M  V30 4743 C 438.934 0.19732 1.58376 0
M  V30 4744 C 439.134 -1.29971 1.5398 0
M  V30 4745 O 438.19 -2.07861 1.43352 0
M  V30 4746 C 439.503 0.807716 2.89649 0
M  V30 4747 C 441.051 0.77726 3.03196 0
M  V30 4748 C 441.526 1.36639 4.37143 0
M  V30 4749 N 443.017 1.32875 4.43732 0
M  V30 4750 C 443.752 1.7544 5.45901 0
M  V30 4751 N 443.248 2.25776 6.54979 0
M  V30 4752 N 445.041 1.66623 5.36836 0
M  V30 4753 H 437.192 1.5117 1.49202 0
M  V30 4754 H 439.455 0.629327 0.708979 0
M  V30 4755 H 439.161 1.85909 2.98548 0
M  V30 4756 H 439.035 0.289975 3.76084 0
M  V30 4757 H 441.422 -0.265374 2.93904 0
M  V30 4758 H 441.503 1.33256 2.18349 0
M  V30 4759 H 441.147 2.408 4.47189 0
M  V30 4760 H 441.077 0.786689 5.20691 0
M  V30 4761 H 443.568 0.96037 3.65493 0
M  V30 4762 H 443.881 2.56226 7.29087 0
M  V30 4763 H 442.226 2.29775 6.55918 0
M  V30 4764 H 445.417 1.27089 4.50517 0
M  V30 4765 H 445.59 2.00115 6.16326 0
M  V30 4766 N 438.996 -1.55193 0.274407 0
M  V30 4767 C 440.243 -1.99581 -0.342579 0
M  V30 4768 C 440.571 -1.1628 -1.55914 0
M  V30 4769 O 439.826 -0.22029 -1.94456 0
M  V30 4770 C 440.125 -3.49019 -0.769458 0
M  V30 4771 C 439.791 -4.49598 0.342389 0
M  V30 4772 C 438.453 -4.76821 0.647686 0
M  V30 4773 C 440.805 -5.0964 1.09163 0
M  V30 4774 C 438.133 -5.61354 1.70581 0
M  V30 4775 C 440.485 -5.95323 2.13948 0
M  V30 4776 C 439.149 -6.20867 2.45113 0
M  V30 4777 H 438.419 -0.730319 -0.125358 0
M  V30 4778 H 441.066 -1.87529 0.387971 0
M  V30 4779 H 439.371 -3.58544 -1.57967 0
M  V30 4780 H 441.068 -3.8077 -1.25757 0
M  V30 4781 H 437.658 -4.28496 0.094318 0
M  V30 4782 H 441.842 -4.88632 0.869024 0
M  V30 4783 H 437.098 -5.79392 1.9523 0
M  V30 4784 H 441.272 -6.40881 2.72478 0
M  V30 4785 H 438.899 -6.86162 3.27239 0
M  V30 4786 N 440.474 -0.00167713 -1.576 0
M  V30 4787 C 441.722 0.681471 -1.90264 0
M  V30 4788 C 442.043 1.7422 -0.875924 0
M  V30 4789 O 441.313 1.95709 0.0864412 0
M  V30 4790 H 439.893 0.254696 -0.702239 0
M  V30 4791 H 442.555 -0.0429996 -1.94853 0
M  V30 4792 H 441.651 1.15166 -2.90075 0
M  V30 4793 N 441.952 1.55251 0.271103 0
M  V30 4794 C 443.363 1.66635 0.842007 0
M  V30 4795 C 443.714 0.594631 1.86972 0
M  V30 4796 O 442.839 -0.263532 2.14789 0
M  V30 4797 C 443.434 3.02082 1.53401 0
M  V30 4798 C 441.993 3.15487 2.05293 0
M  V30 4799 C 441.14 2.62438 0.895631 0
M  V30 4800 H 444.091 1.58629 0.0474117 0
M  V30 4801 H 444.112 2.95176 2.40107 0
M  V30 4802 H 443.624 3.80062 0.785786 0
M  V30 4803 H 441.725 2.42284 2.83071 0
M  V30 4804 H 441.838 4.22075 2.26693 0
M  V30 4805 H 440.202 2.19644 1.28953 0
M  V30 4806 H 440.985 3.42923 0.160878 0
M  V30 4807 N 443.43 -0.535701 1.48216 0
M  V30 4808 C 444.677 -1.29183 1.55942 0
M  V30 4809 C 445.005 -1.93125 0.230857 0
M  V30 4810 O 444.26 -1.79556 -0.778331 0
M  V30 4811 C 444.559 -2.4068 2.64212 0
M  V30 4812 C 444.225 -1.94428 4.06827 0
M  V30 4813 C 442.887 -1.81532 4.45645 0
M  V30 4814 C 445.239 -1.59405 4.96225 0
M  V30 4815 C 442.567 -1.31939 5.71672 0
M  V30 4816 C 444.919 -1.11276 6.22736 0
M  V30 4817 C 443.583 -0.969924 6.60416 0
M  V30 4818 H 442.853 -0.472715 0.570632 0
M  V30 4819 H 445.5 -0.598437 1.81909 0
M  V30 4820 H 443.805 -3.15666 2.32083 0
M  V30 4821 H 445.502 -2.98822 2.67407 0
M  V30 4822 H 442.092 -2.05415 3.76168 0
M  V30 4823 H 446.276 -1.68231 4.66917 0
M  V30 4824 H 441.532 -1.19562 5.99596 0
M  V30 4825 H 445.706 -0.832453 6.91407 0
M  V30 4826 H 443.333 -0.583436 7.57958 0
M  V30 4827 N 444.908 -1.36708 -0.784132 0
M  V30 4828 C 446.185 -1.21776 -1.53069 0
M  V30 4829 C 446.565 0.193876 -2.10208 0
M  V30 4830 O 445.913 1.20012 -1.94446 0
M  V30 4831 C 446.123 -2.30395 -2.62143 0
M  V30 4832 C 447.471 -2.67325 -3.29882 0
M  V30 4833 O 448.495 -2.29478 -2.7243 0
M  V30 4834 O 447.354 -3.32485 -4.33724 0
M  V30 4835 H 444.448 -0.474459 -0.677361 0
M  V30 4836 H 446.994 -1.48454 -0.82216 0
M  V30 4837 H 445.766 -3.2498 -2.17953 0
M  V30 4838 H 445.389 -2.05112 -3.40609 0
M  V30 4839 N 446.386 1.0089 -1.21074 0
M  V30 4840 C 447.316 2.1145 -0.990523 0
M  V30 4841 C 448.297 1.69897 0.0831699 0
M  V30 4842 O 449.482 1.94052 -0.0758853 0
M  V30 4843 C 446.612 3.42914 -0.550177 0
M  V30 4844 C 445.566 3.98244 -1.56799 0
M  V30 4845 C 444.892 5.25568 -0.984013 0
M  V30 4846 C 446.192 4.30752 -2.95381 0
M  V30 4847 H 447.886 2.3013 -1.91521 0
M  V30 4848 H 445.432 1.10592 -0.92225 0
M  V30 4849 H 447.385 4.19653 -0.383305 0
M  V30 4850 H 446.109 3.24014 0.41015 0
M  V30 4851 H 444.768 3.23621 -1.72236 0
M  V30 4852 H 444.416 5.02998 -0.0155216 0
M  V30 4853 H 444.116 5.63551 -1.66384 0
M  V30 4854 H 445.64 6.04955 -0.828378 0
M  V30 4855 H 447.054 4.98349 -2.8341 0
M  V30 4856 H 445.451 4.79869 -3.60341 0
M  V30 4857 H 446.521 3.39192 -3.46521 0
M  V30 4858 N 447.864 1.01787 1.20321 0
M  V30 4859 C 448.827 0.593972 2.2137 0
M  V30 4860 C 449.827 -0.336553 1.57239 0
M  V30 4861 O 451.017 -0.125069 1.7375 0
M  V30 4862 C 448.149 -0.132433 3.40643 0
M  V30 4863 H 449.342 1.48791 2.60387 0
M  V30 4864 H 446.895 0.807803 1.33807 0
M  V30 4865 H 447.63 -1.04123 3.0713 0
M  V30 4866 H 447.415 0.53605 3.88418 0
M  V30 4867 H 448.905 -0.416314 4.1552 0
M  V30 4868 N 449.342 -1.36122 0.79427 0
M  V30 4869 C 450.305 -2.28309 0.201889 0
M  V30 4870 C 451.305 -1.49041 -0.603603 0
M  V30 4871 O 452.495 -1.68964 -0.423888 0
M  V30 4872 C 449.627 -3.3321 -0.719978 0
M  V30 4873 H 450.82 -2.82208 1.01481 0
M  V30 4874 H 448.373 -1.45768 0.564037 0
M  V30 4875 H 449.108 -2.84475 -1.55706 0
M  V30 4876 H 448.893 -3.91835 -0.144266 0
M  V30 4877 H 450.383 -4.02044 -1.12916 0
M  V30 4878 N 450.82 -0.546701 -1.47814 0
M  V30 4879 C 452.069 -0.0166497 -2.01693 0
M  V30 4880 C 452.382 1.33721 -1.42752 0
M  V30 4881 O 453.588 1.95658 -1.8823 0
M  V30 4882 C 452.044 0.0206769 -3.59894 0
M  V30 4883 C 451.652 -1.3293 -4.27824 0
M  V30 4884 C 453.396 0.498674 -4.21561 0
M  V30 4885 C 451.303 -1.25165 -5.78003 0
M  V30 4886 H 450.233 -0.0024541 -0.753996 0
M  V30 4887 H 452.884 -0.692984 -1.69912 0
M  V30 4888 H 451.266 0.76244 -3.88591 0
M  V30 4889 H 452.44 -2.08795 -4.10781 0
M  V30 4890 H 450.755 -1.74438 -3.78101 0
M  V30 4891 H 453.352 0.575 -5.31599 0
M  V30 4892 H 453.695 1.5083 -3.88016 0
M  V30 4893 H 454.228 -0.18791 -3.97356 0
M  V30 4894 H 450.967 -2.23695 -6.1615 0
M  V30 4895 H 450.487 -0.53464 -5.97412 0
M  V30 4896 H 452.166 -0.949299 -6.39998 0
M  V30 4897 N 452.299 1.55045 -0.282633 0
M  V30 4898 C 453.71 1.85473 0.213655 0
M  V30 4899 C 454.061 1.20465 1.54863 0
M  V30 4900 O 453.186 0.495676 2.10647 0
M  V30 4901 C 453.781 3.36496 0.394445 0
M  V30 4902 C 452.34 3.67022 0.834961 0
M  V30 4903 C 451.487 2.77218 -0.0674081 0
M  V30 4904 H 454.438 1.50478 -0.504202 0
M  V30 4905 H 454.459 3.60007 1.23186 0
M  V30 4906 H 453.971 3.83782 -0.577326 0
M  V30 4907 H 452.072 3.25241 1.81794 0
M  V30 4908 H 452.185 4.74433 0.667075 0
M  V30 4909 H 450.549 2.5069 0.450196 0
M  V30 4910 H 451.332 3.2732 -1.0352 0
M  V30 4911 N 453.777 0.010035 1.57597 0
M  V30 4912 C 455.026 -0.671945 1.90178 0
M  V30 4913 C 455.339 -1.74376 0.886131 0
M  V30 4914 O 456.545 -2.48107 1.10252 0
M  V30 4915 C 455.001 -1.24636 3.3763 0
M  V30 4916 C 454.609 -0.208838 4.47513 0
M  V30 4917 C 456.353 -1.90595 3.79307 0
M  V30 4918 C 454.26 -0.793814 5.86048 0
M  V30 4919 H 453.19 -0.25474 0.709665 0
M  V30 4920 H 455.841 0.0722206 1.83358 0
M  V30 4921 H 454.223 -2.04152 3.3932 0
M  V30 4922 H 455.397 0.562463 4.57354 0
M  V30 4923 H 453.712 0.350889 4.14919 0
M  V30 4924 H 456.309 -2.35284 4.80151 0
M  V30 4925 H 456.652 -2.74074 3.13352 0
M  V30 4926 H 457.185 -1.17798 3.79958 0
M  V30 4927 H 453.924 0.00240855 6.555 0
M  V30 4928 H 453.444 -1.53404 5.79851 0
M  V30 4929 H 455.123 -1.2894 6.34022 0
M  V30 4930 N 455.255 -1.55392 -0.262866 0
M  V30 4931 C 456.503 -1.76127 -0.991147 0
M  V30 4932 C 456.824 -0.571083 -1.8645 0
M  V30 4933 O 456.094 0.413698 -1.91482 0
M  V30 4934 H 454.674 -0.649528 -0.368948 0
M  V30 4935 H 457.336 -1.9281 -0.284655 0
M  V30 4936 H 456.432 -2.6663 -1.62219 0
M  V30 4937 N 456.733 0.527833 -1.48498 0
M  V30 4938 C 457.696 1.61439 -1.62696 0
M  V30 4939 C 458.696 1.52824 -0.500136 0
M  V30 4940 O 459.886 1.56456 -0.765976 0
M  V30 4941 C 457.018 3.01063 -1.59918 0
M  V30 4942 H 458.211 1.50189 -2.59583 0
M  V30 4943 H 455.764 0.750055 -1.37127 0
M  V30 4944 H 456.499 3.17818 -0.645163 0
M  V30 4945 H 456.284 3.08725 -2.41726 0
M  V30 4946 H 457.774 3.80057 -1.73051 0
M  V30 4947 N 458.211 1.37122 0.776871 0
M  V30 4948 C 459.441 1.35034 1.56363 0
M  V30 4949 C 459.849 -0.0674681 1.8908 0
M  V30 4950 O 459.192 -1.03826 1.51545 0
M  V30 4951 C 459.254 2.11894 2.90415 0
M  V30 4952 C 458.918 3.60897 2.80362 0
M  V30 4953 C 459.915 4.54887 2.51742 0
M  V30 4954 C 457.6 4.03951 2.98545 0
M  V30 4955 C 459.594 5.89909 2.41426 0
M  V30 4956 C 457.281 5.3906 2.87849 0
M  V30 4957 C 458.279 6.31852 2.5933 0
M  V30 4958 O 457.967 7.64479 2.48651 0
M  V30 4959 H 457.699 0.464402 0.49123 0
M  V30 4960 H 460.253 1.80992 0.971127 0
M  V30 4961 H 458.483 1.60618 3.51765 0
M  V30 4962 H 460.172 2.02505 3.51776 0
M  V30 4963 H 460.938 4.22934 2.37385 0
M  V30 4964 H 456.817 3.3209 3.19746 0
M  V30 4965 H 460.361 6.62304 2.19086 0
M  V30 4966 H 456.258 5.70617 3.01773 0
M  V30 4967 H 457.026 7.74742 2.64039 0
M  V30 4968 N 459.689 -1.00246 1.21608 0
M  V30 4969 C 460.599 -2.12515 0.993709 0
M  V30 4970 C 461.615 -1.73913 -0.0549939 0
M  V30 4971 O 462.791 -2.00943 0.135619 0
M  V30 4972 C 459.856 -3.42083 0.563953 0
M  V30 4973 C 458.917 -3.94843 1.68516 0
M  V30 4974 C 458.15 -5.18226 1.27582 0
M  V30 4975 O 458.373 -5.70201 0.150506 0
M  V30 4976 O 457.307 -5.64497 2.0887 0
M  V30 4977 H 461.133 -2.34152 1.93407 0
M  V30 4978 H 458.718 -1.10891 1.00118 0
M  V30 4979 H 460.6 -4.20073 0.334194 0
M  V30 4980 H 459.275 -3.21828 -0.347665 0
M  V30 4981 H 458.182 -3.18068 1.96935 0
M  V30 4982 H 459.515 -4.19512 2.5743 0
M  V30 4983 N 461.167 -1.02423 -1.1978 0
M  V30 4984 C 462.578 -0.748389 -1.71044 0
M  V30 4985 C 462.929 0.732398 -1.82017 0
M  V30 4986 O 462.054 1.57116 -1.48807 0
M  V30 4987 C 462.649 -1.35187 -3.1066 0
M  V30 4988 C 461.208 -1.12472 -3.59203 0
M  V30 4989 C 460.355 -1.45283 -2.36195 0
M  V30 4990 H 463.306 -1.19275 -1.04686 0
M  V30 4991 H 463.327 -0.746408 -3.73107 0
M  V30 4992 H 462.839 -2.4296 -3.02642 0
M  V30 4993 H 460.94 -0.0649983 -3.72543 0
M  V30 4994 H 461.053 -1.81016 -4.43588 0
M  V30 4995 H 459.417 -0.872034 -2.39307 0
M  V30 4996 H 460.2 -2.54129 -2.30811 0
M  V30 4997 N 462.645 1.35699 -0.801477 0
M  V30 4998 C 464.061 1.52065 -0.484596 0
M  V30 4999 C 464.261 1.75215 0.995084 0
M  V30 5000 O 463.317 1.79061 1.78026 0
M  V30 5001 C 464.63 2.69908 -1.32552 0
M  V30 5002 C 466.178 2.83784 -1.32044 0
M  V30 5003 C 466.653 4.04646 -2.14536 0
M  V30 5004 N 468.144 4.11814 -2.12046 0
M  V30 5005 C 468.879 5.04437 -2.72636 0
M  V30 5006 N 468.375 6.02426 -3.42133 0
M  V30 5007 N 470.168 4.97144 -2.62305 0
M  V30 5008 H 462.319 1.18928 -1.75983 0
M  V30 5009 H 464.582 0.581455 -0.748741 0
M  V30 5010 H 464.288 2.59363 -2.37537 0
M  V30 5011 H 464.162 3.64376 -0.975181 0
M  V30 5012 H 466.549 2.93783 -0.27846 0
M  V30 5013 H 466.63 1.90188 -1.71062 0
M  V30 5014 H 466.274 3.95407 -3.18772 0
M  V30 5015 H 466.204 4.97413 -1.72882 0
M  V30 5016 H 468.695 3.41664 -1.61476 0
M  V30 5017 H 469.008 6.69688 -3.85666 0
M  V30 5018 H 467.353 6.02615 -3.46237 0
M  V30 5019 H 470.544 4.19546 -2.07603 0
M  V30 5020 H 470.717 5.69138 -3.09815 0
M  V30 5021 N 464.123 0.554532 1.47522 0
M  V30 5022 C 465.369 0.0377449 2.03365 0
M  V30 5023 C 465.724 -1.29654 1.42154 0
M  V30 5024 O 465.017 -1.83022 0.566865 0
M  V30 5025 C 465.211 -0.115927 3.57212 0
M  V30 5026 C 465.04 1.20191 4.33341 0
M  V30 5027 C 463.81 1.76849 4.73342 0
M  V30 5028 C 466.008 2.11849 4.68641 0
M  V30 5029 N 463.99 3.02665 5.34104 0
M  V30 5030 C 465.361 3.22245 5.29677 0
M  V30 5031 C 467.416 2.11876 4.5057 0
M  V30 5032 C 466.119 4.32763 5.74551 0
M  V30 5033 C 468.145 3.21405 4.9644 0
M  V30 5034 C 467.507 4.30519 5.57523 0
M  V30 5035 H 463.606 0.0559107 0.779999 0
M  V30 5036 H 466.19 0.741232 1.80038 0
M  V30 5037 H 464.361 -0.788533 3.80311 0
M  V30 5038 H 466.093 -0.634538 3.99695 0
M  V30 5039 H 462.848 1.30681 4.55214 0
M  V30 5040 H 463.272 3.66788 5.69031 0
M  V30 5041 H 467.914 1.28801 4.02704 0
M  V30 5042 H 465.632 5.166 6.2141 0
M  V30 5043 H 469.218 3.22509 4.8423 0
M  V30 5044 H 468.098 5.13873 5.92371 0
M  V30 5045 N 465.601 -1.54893 0.290851 0
M  V30 5046 C 466.848 -1.99933 -0.321391 0
M  V30 5047 C 467.176 -1.17927 -1.54672 0
M  V30 5048 O 466.431 -0.240902 -1.94212 0
M  V30 5049 C 466.73 -3.49815 -0.732397 0
M  V30 5050 C 466.396 -4.4921 0.390056 0
M  V30 5051 C 465.058 -4.76107 0.698223 0
M  V30 5052 C 467.41 -5.08453 1.14562 0
M  V30 5053 C 464.738 -5.59514 1.76526 0
M  V30 5054 C 467.09 -5.9302 2.2025 0
M  V30 5055 C 465.754 -6.18232 2.51684 0
M  V30 5056 H 465.024 -0.731608 -0.117605 0
M  V30 5057 H 467.671 -1.87107 0.407839 0
M  V30 5058 H 465.976 -3.60199 -1.54155 0
M  V30 5059 H 467.673 -3.82083 -1.21712 0
M  V30 5060 H 464.263 -4.28372 0.13976 0
M  V30 5061 H 468.447 -4.87683 0.920801 0
M  V30 5062 H 463.703 -5.77289 2.01364 0
M  V30 5063 H 467.877 -6.37955 2.7926 0
M  V30 5064 H 465.504 -6.82653 3.34499 0
M  V30 5065 N 467.08 -0.0183926 -1.57589 0
M  V30 5066 C 468.013 1.00148 -2.0505 0
M  V30 5067 C 468.991 1.32387 -0.944058 0
M  V30 5068 O 470.175 1.44237 -1.21358 0
M  V30 5069 C 467.302 2.32435 -2.46357 0
M  V30 5070 C 466.348 2.15731 -3.67916 0
M  V30 5071 S 467.181 1.46613 -5.15039 0
M  V30 5072 C 468.337 2.80293 -5.59631 0
M  V30 5073 H 468.57 0.597429 -2.91235 0
M  V30 5074 H 466.103 0.193002 -1.53189 0
M  V30 5075 H 468.061 3.0849 -2.70822 0
M  V30 5076 H 466.722 2.69975 -1.60537 0
M  V30 5077 H 465.915 3.13502 -3.9463 0
M  V30 5078 H 465.517 1.4782 -3.43548 0
M  V30 5079 H 467.809 3.76557 -5.63215 0
M  V30 5080 H 468.752 2.58256 -6.59325 0
M  V30 5081 H 469.16 2.85047 -4.87246 0
M  V30 5082 N 468.558 1.5553 0.254621 0
M  V30 5083 C 469.505 1.89666 1.31512 0
M  V30 5084 C 470.475 0.750057 1.482 0
M  V30 5085 O 471.66 1.00301 1.62309 0
M  V30 5086 C 468.8 2.19009 2.667 0
M  V30 5087 C 467.913 3.46435 2.58083 0
M  V30 5088 C 467.048 3.65386 3.85573 0
M  V30 5089 C 466.087 4.8644 3.71541 0
M  V30 5090 N 465.224 5.01952 4.90906 0
M  V30 5091 H 470.064 2.80109 1.017 0
M  V30 5092 H 467.601 1.38666 0.490938 0
M  V30 5093 H 469.559 2.34025 3.45381 0
M  V30 5094 H 468.189 1.31779 2.94676 0
M  V30 5095 H 467.241 3.39792 1.71013 0
M  V30 5096 H 468.553 4.35258 2.43622 0
M  V30 5097 H 467.707 3.80319 4.72697 0
M  V30 5098 H 466.446 2.74781 4.02922 0
M  V30 5099 H 465.451 4.71491 2.82801 0
M  V30 5100 H 466.676 5.78497 3.55694 0
M  V30 5101 H 464.622 4.14283 5.08631 0
M  V30 5102 H 464.539 5.84851 4.79046 0
M  V30 5103 H 465.807 5.21289 5.7955 0
M  V30 5104 N 470.036 -0.519951 1.48776 0
M  V30 5105 C 471.266 -1.29783 1.60748 0
M  V30 5106 C 471.674 -1.87253 0.27072 0
M  V30 5107 O 471.017 -1.67628 -0.751438 0
M  V30 5108 C 471.079 -2.47984 2.60277 0
M  V30 5109 C 470.743 -2.11526 4.051 0
M  V30 5110 C 471.74 -1.66608 4.92481 0
M  V30 5111 C 469.425 -2.21742 4.50706 0
M  V30 5112 C 471.419 -1.32384 6.23501 0
M  V30 5113 C 469.106 -1.87129 5.81744 0
M  V30 5114 C 470.104 -1.42523 6.67964 0
M  V30 5115 O 469.792 -1.0837 7.96562 0
M  V30 5116 H 469.524 -0.400562 0.544542 0
M  V30 5117 H 472.078 -0.632879 1.95407 0
M  V30 5118 H 470.308 -3.17493 2.2076 0
M  V30 5119 H 471.997 -3.10036 2.61978 0
M  V30 5120 H 472.763 -1.58178 4.58481 0
M  V30 5121 H 468.642 -2.55415 3.83776 0
M  V30 5122 H 472.186 -0.974949 6.90754 0
M  V30 5123 H 468.083 -1.95204 6.15277 0
M  V30 5124 H 468.851 -1.21681 8.09405 0
M  V30 5125 N 471.514 -1.37532 -0.769588 0
M  V30 5126 C 472.446 -1.29347 -1.89214 0
M  V30 5127 C 473.459 -0.208842 -1.61455 0
M  V30 5128 O 474.648 -0.465158 -1.72333 0
M  V30 5129 C 471.748 -0.977649 -3.24492 0
M  V30 5130 C 470.921 -2.16817 -3.7988 0
M  V30 5131 C 469.98 -1.82229 -4.93639 0
M  V30 5132 O 469.006 -2.54548 -5.09111 0
M  V30 5133 N 470.208 -0.767696 -5.75401 0
M  V30 5134 H 472.973 -2.26073 -1.96751 0
M  V30 5135 H 470.534 -1.31185 -0.948795 0
M  V30 5136 H 472.526 -0.727065 -3.98115 0
M  V30 5137 H 471.096 -0.0988777 -3.12444 0
M  V30 5138 H 470.316 -2.58038 -2.9801 0
M  V30 5139 H 471.604 -2.96308 -4.13617 0
M  V30 5140 H 471.002 -0.167626 -5.65452 0
M  V30 5141 H 469.559 -0.576973 -6.49241 0
M  V30 5142 N 472.992 0.995999 -1.22138 0
M  V30 5143 C 473.942 2.06988 -0.956042 0
M  V30 5144 C 474.926 1.60636 0.0921576 0
M  V30 5145 O 476.118 1.76607 -0.117958 0
M  V30 5146 C 473.247 3.39148 -0.532335 0
M  V30 5147 C 472.333 3.92142 -1.61509 0
M  V30 5148 N 472.724 4.18397 -2.84214 0
M  V30 5149 C 471.022 4.20514 -1.48606 0
M  V30 5150 C 471.723 4.61425 -3.54206 0
M  V30 5151 N 470.699 4.64934 -2.81669 0
M  V30 5152 H 474.501 2.25223 -1.88816 0
M  V30 5153 H 472.015 1.17748 -1.11845 0
M  V30 5154 H 474.012 4.15642 -0.323574 0
M  V30 5155 H 472.672 3.22314 0.392921 0
M  V30 5156 H 473.683 4.06682 -3.20671 0
M  V30 5157 H 470.36 4.12769 -0.626762 0
M  V30 5158 H 471.75 4.90387 -4.59315 0
M  V30 5159 N 474.47 1.03057 1.19235 0
M  V30 5160 C 475.716 0.729098 1.89241 0
M  V30 5161 C 476.049 -0.740573 1.79525 0
M  V30 5162 O 475.324 -1.53946 1.18874 0
M  V30 5163 C 475.607 1.18304 3.40112 0
M  V30 5164 C 475.46 2.71406 3.5869 0
M  V30 5165 C 476.779 0.765161 4.33397 0
M  V30 5166 H 473.898 0.266338 0.687192 0
M  V30 5167 H 476.54 1.28079 1.40341 0
M  V30 5168 H 474.69 0.713672 3.81889 0
M  V30 5169 H 476.362 3.26303 3.26074 0
M  V30 5170 H 474.605 3.11717 3.01687 0
M  V30 5171 H 475.276 2.98225 4.64506 0
M  V30 5172 H 477.752 1.16889 3.99345 0
M  V30 5173 H 476.628 1.11065 5.37546 0
M  V30 5174 H 476.889 -0.332372 4.40849 0
M  V30 5175 N 475.948 -1.35272 0.808662 0
M  V30 5176 C 477.225 -1.93077 0.313181 0
M  V30 5177 C 477.605 -1.73847 -1.19752 0
M  V30 5178 O 476.953 -1.1087 -1.998 0
M  V30 5179 C 477.163 -3.41347 0.726859 0
M  V30 5180 C 478.511 -4.18493 0.717532 0
M  V30 5181 O 479.535 -3.4987 0.668535 0
M  V30 5182 O 478.394 -5.40937 0.777779 0
M  V30 5183 H 475.488 -0.822885 0.0824018 0
M  V30 5184 H 478.034 -1.44335 0.892499 0
M  V30 5185 H 476.806 -3.49082 1.76797 0
M  V30 5186 H 476.429 -3.97411 0.122461 0
M  V30 5187 N 477.426 -0.562348 -1.47226 0
M  V30 5188 C 478.837 -0.130325 -1.86245 0
M  V30 5189 C 479.188 1.30128 -1.46838 0
M  V30 5190 O 478.313 1.97974 -0.873805 0
M  V30 5191 C 478.908 -0.229738 -3.3802 0
M  V30 5192 C 477.467 0.14728 -3.76112 0
M  V30 5193 C 476.614 -0.574971 -2.71274 0
M  V30 5194 H 479.565 -0.771773 -1.3867 0
M  V30 5195 H 479.586 0.550316 -3.76499 0
M  V30 5196 H 479.098 -1.27178 -3.66671 0
M  V30 5197 H 477.199 1.19023 -3.53078 0
M  V30 5198 H 477.312 -0.214858 -4.78618 0
M  V30 5199 H 475.676 -0.0174756 -2.54694 0
M  V30 5200 H 476.459 -1.61827 -3.02766 0
M  V30 5201 N 478.904 1.54736 -0.299062 0
M  V30 5202 C 479.814 2.27127 0.587413 0
M  V30 5203 C 480.83 1.30575 1.15005 0
M  V30 5204 O 482.006 1.63554 1.17525 0
M  V30 5205 C 479.071 2.99645 1.74395 0
M  V30 5206 C 478.132 4.11731 1.21559 0
M  V30 5207 C 477.365 4.80781 2.317 0
M  V30 5208 O 477.588 4.4918 3.51558 0
M  V30 5209 O 476.522 5.68226 1.98501 0
M  V30 5210 H 480.348 3.037 0.000250109 0
M  V30 5211 H 477.933 1.49256 -0.0655919 0
M  V30 5212 H 479.815 3.45138 2.4178 0
M  V30 5213 H 478.49 2.25969 2.31775 0
M  V30 5214 H 477.397 3.70641 0.507514 0
M  V30 5215 H 478.73 4.87379 0.687233 0
M  V30 5216 N 480.382 0.0267497 1.57577 0
M  V30 5217 C 481.292 -0.971633 2.13533 0
M  V30 5218 C 482.308 -1.35868 1.08701 0
M  V30 5219 O 483.484 -1.44058 1.40746 0
M  V30 5220 C 480.549 -2.23622 2.64941 0
M  V30 5221 C 479.61 -1.90982 3.8448 0
M  V30 5222 C 478.843 -3.11411 4.33427 0
M  V30 5223 O 479.066 -4.23992 3.81558 0
M  V30 5224 O 478 -2.93848 5.25297 0
M  V30 5225 H 481.826 -0.525853 2.99113 0
M  V30 5226 H 479.411 -0.193712 1.48139 0
M  V30 5227 H 481.293 -2.97864 2.98086 0
M  V30 5228 H 479.968 -2.67386 1.82446 0
M  V30 5229 H 478.875 -1.14132 3.56265 0
M  V30 5230 H 480.208 -1.52036 4.6813 0
M  V30 5231 N 481.861 -1.55662 -0.24637 0
M  V30 5232 C 482.824 -1.89558 -1.28842 0
M  V30 5233 C 483.824 -0.772082 -1.41052 0
M  V30 5234 O 485.014 -1.04007 -1.39743 0
M  V30 5235 C 482.146 -2.12449 -2.66605 0
M  V30 5236 H 483.339 -2.82735 -1.00004 0
M  V30 5237 H 480.892 -1.48562 -0.485684 0
M  V30 5238 H 481.627 -1.21742 -3.00582 0
M  V30 5239 H 481.412 -2.94273 -2.59125 0
M  V30 5240 H 482.902 -2.39854 -3.41847 0
M  V30 5241 N 483.339 0.512053 -1.4905 0
M  V30 5242 C 484.585 1.26874 -1.58212 0
M  V30 5243 C 484.918 1.9241 -0.263073 0
M  V30 5244 O 484.193 1.80181 0.732476 0
M  V30 5245 C 484.476 2.34428 -2.73341 0
M  V30 5246 C 484.329 1.73466 -4.15006 0
M  V30 5247 C 485.648 3.36073 -2.84154 0
M  V30 5248 H 482.767 0.459924 -0.575881 0
M  V30 5249 H 485.409 0.568587 -1.81293 0
M  V30 5250 H 483.559 2.94146 -2.53792 0
M  V30 5251 H 485.231 1.17661 -4.46042 0
M  V30 5252 H 483.474 1.03921 -4.21168 0
M  V30 5253 H 484.145 2.51426 -4.91415 0
M  V30 5254 H 486.621 2.86332 -3.01916 0
M  V30 5255 H 485.497 4.08703 -3.66406 0
M  V30 5256 H 485.758 3.97725 -1.93048 0
M  V30 5257 N 484.817 1.37938 0.762283 0
M  V30 5258 C 486.233 1.18945 1.06415 0
M  V30 5259 C 486.433 0.0321163 2.01474 0
M  V30 5260 O 485.489 -0.624844 2.44647 0
M  V30 5261 C 486.802 2.51218 1.65258 0
M  V30 5262 C 488.35 2.57824 1.7747 0
M  V30 5263 C 488.825 3.90251 2.39725 0
M  V30 5264 N 490.316 3.91744 2.47166 0
M  V30 5265 C 491.051 4.90966 2.96209 0
M  V30 5266 N 490.547 6.00585 3.45354 0
M  V30 5267 N 492.34 4.78363 2.9517 0
M  V30 5268 H 484.491 2.11994 0.131301 0
M  V30 5269 H 486.754 0.940262 0.120879 0
M  V30 5270 H 486.46 3.36317 1.02878 0
M  V30 5271 H 486.334 2.68989 2.64433 0
M  V30 5272 H 488.721 1.73126 2.3898 0
M  V30 5273 H 488.802 2.43928 0.770241 0
M  V30 5274 H 488.446 4.75368 1.78852 0
M  V30 5275 H 488.376 4.01454 3.40796 0
M  V30 5276 H 490.867 3.12563 2.12397 0
M  V30 5277 H 491.18 6.72236 3.81207 0
M  V30 5278 H 489.525 6.04217 3.43434 0
M  V30 5279 H 492.716 3.91841 2.56082 0
M  V30 5280 H 492.889 5.55843 3.33081 0
M  V30 5281 N 486.295 -0.989507 1.22664 0
M  V30 5282 C 487.544 -1.72375 1.04737 0
M  V30 5283 C 487.857 -1.91096 -0.417316 0
M  V30 5284 O 489.063 -2.6188 -0.716334 0
M  V30 5285 C 487.519 -3.10161 1.82561 0
M  V30 5286 C 487.127 -2.99358 3.333 0
M  V30 5287 C 488.871 -3.87607 1.73093 0
M  V30 5288 C 486.778 -4.32319 4.03552 0
M  V30 5289 H 485.708 -0.646326 0.388302 0
M  V30 5290 H 488.359 -1.10437 1.46546 0
M  V30 5291 H 486.741 -3.728 1.33552 0
M  V30 5292 H 487.915 -2.45863 3.89728 0
M  V30 5293 H 486.23 -2.35392 3.43481 0
M  V30 5294 H 488.827 -4.86025 2.22899 0
M  V30 5295 H 489.17 -4.10509 0.691976 0
M  V30 5296 H 489.703 -3.31652 2.19663 0
M  V30 5297 H 486.442 -4.14616 5.07714 0
M  V30 5298 H 485.962 -4.85714 3.51911 0
M  V30 5299 H 487.641 -5.01051 4.09337 0
M  V30 5300 N 487.773 -1.03688 -1.18687 0
M  V30 5301 C 488.723 -0.595067 -2.20098 0
M  V30 5302 C 489.707 0.360465 -1.5681 0
M  V30 5303 O 490.899 0.180136 -1.76081 0
M  V30 5304 C 488.028 0.0444495 -3.43271 0
M  V30 5305 C 487.114 -0.934002 -4.13687 0
M  V30 5306 N 487.505 -2.09957 -4.60165 0
M  V30 5307 C 485.803 -0.759177 -4.39491 0
M  V30 5308 C 486.504 -2.71735 -5.1433 0
M  V30 5309 N 485.48 -1.99638 -5.05614 0
M  V30 5310 H 489.282 -1.48336 -2.5372 0
M  V30 5311 H 486.796 -0.904949 -1.3485 0
M  V30 5312 H 488.793 0.37864 -4.15177 0
M  V30 5313 H 487.453 0.928325 -3.11147 0
M  V30 5314 H 488.464 -2.47863 -4.54735 0
M  V30 5315 H 485.141 0.0749292 -4.17433 0
M  V30 5316 H 486.531 -3.70492 -5.60523 0
M  V30 5317 N 489.251 1.34841 -0.815825 0
M  V30 5318 C 490.479 2.0273 -0.413294 0
M  V30 5319 C 490.894 1.61459 0.978599 0
M  V30 5320 O 490.251 0.816584 1.63212 0
M  V30 5321 C 490.302 3.58058 -0.497676 0
M  V30 5322 O 490.023 3.97832 -1.8347 0
M  V30 5323 C 491.524 4.4321 -0.0891339 0
M  V30 5324 H 488.744 0.649956 -0.166728 0
M  V30 5325 H 491.288 1.72267 -1.10201 0
M  V30 5326 H 489.443 3.87136 0.142886 0
M  V30 5327 H 489.857 4.92501 -1.80396 0
M  V30 5328 H 491.331 5.5164 -0.199274 0
M  V30 5329 H 491.808 4.28432 0.966571 0
M  V30 5330 H 492.414 4.19446 -0.703214 0
M  V30 5331 N 490.729 0.570148 1.46925 0
M  V30 5332 C 492.006 -0.0153259 1.95594 0
M  V30 5333 C 492.386 -1.47232 1.51281 0
M  V30 5334 O 491.734 -2.15574 0.757624 0
M  V30 5335 C 491.944 0.143624 3.48704 0
M  V30 5336 C 493.292 0.00494484 4.246 0
M  V30 5337 O 494.316 0.0718214 3.56128 0
M  V30 5338 O 493.175 -0.141175 5.46318 0
M  V30 5339 H 490.269 -0.0568819 0.825041 0
M  V30 5340 H 492.815 0.637583 1.57267 0
M  V30 5341 H 491.587 1.15699 3.73804 0
M  V30 5342 H 491.21 -0.5463 3.93829 0
M  V30 5343 N 492.207 -1.54576 0.307264 0
M  V30 5344 C 493.453 -2.0056 -0.300612 0
M  V30 5345 C 493.786 -1.1953 -1.53057 0
M  V30 5346 O 493.061 -0.27337 -1.92569 0
M  V30 5347 C 493.344 -3.54167 -0.650987 0
M  V30 5348 C 493.197 -4.45933 0.588539 0
M  V30 5349 C 494.516 -4.14645 -1.47506 0
M  V30 5350 H 491.635 -0.729075 -0.107788 0
M  V30 5351 H 494.277 -1.85286 0.420606 0
M  V30 5352 H 492.427 -3.67313 -1.26544 0
M  V30 5353 H 494.099 -4.44683 1.22697 0
M  V30 5354 H 492.342 -4.16274 1.22058 0
M  V30 5355 H 493.013 -5.51189 0.299153 0
M  V30 5356 H 495.489 -4.04973 -0.955821 0
M  V30 5357 H 494.365 -5.22269 -1.68899 0
M  V30 5358 H 494.626 -3.66921 -2.4662 0
M  V30 5359 N 493.685 -0.035106 -1.57561 0
M  V30 5360 C 494.617 0.973604 -2.07494 0
M  V30 5361 C 495.63 1.28504 -0.999534 0
M  V30 5362 O 496.819 1.24864 -1.27559 0
M  V30 5363 C 493.919 2.29945 -2.48955 0
M  V30 5364 C 493.092 2.1723 -3.79644 0
M  V30 5365 C 492.151 3.328 -4.07592 0
M  V30 5366 O 491.177 3.09418 -4.77754 0
M  V30 5367 N 492.379 4.56779 -3.58236 0
M  V30 5368 H 495.144 0.547525 -2.94656 0
M  V30 5369 H 492.705 0.151515 -1.61189 0
M  V30 5370 H 494.697 3.06097 -2.64739 0
M  V30 5371 H 493.267 2.64173 -1.67126 0
M  V30 5372 H 492.487 1.25768 -3.73599 0
M  V30 5373 H 493.775 2.05945 -4.65257 0
M  V30 5374 H 493.173 4.78668 -3.01485 0
M  V30 5375 H 491.73 5.30079 -3.79288 0
M  V30 5376 N 495.163 1.55791 0.238111 0
M  V30 5377 C 496.391 1.82098 0.982233 0
M  V30 5378 C 496.806 0.612025 1.78605 0
M  V30 5379 O 496.163 -0.419381 1.77616 0
M  V30 5380 C 496.214 3.0673 1.91309 0
M  V30 5381 O 495.935 4.2296 1.14179 0
M  V30 5382 C 497.436 3.45903 2.77248 0
M  V30 5383 H 494.656 0.605748 0.288635 0
M  V30 5384 H 497.2 2.02862 0.258341 0
M  V30 5385 H 495.355 2.87991 2.59114 0
M  V30 5386 H 495.769 4.93653 1.7722 0
M  V30 5387 H 497.243 4.36189 3.38295 0
M  V30 5388 H 497.72 2.66891 3.48806 0
M  V30 5389 H 498.326 3.67024 2.14881 0
M  V30 5390 N 496.642 -0.504142 1.49319 0
M  V30 5391 C 497.589 -1.60603 1.65756 0
M  V30 5392 C 498.559 -1.58425 0.499082 0
M  V30 5393 O 499.744 -1.76459 0.725728 0
M  V30 5394 C 496.884 -2.98764 1.72726 0
M  V30 5395 C 495.997 -3.10982 2.99857 0
M  V30 5396 C 495.132 -4.39857 2.97824 0
M  V30 5397 C 494.171 -4.45697 4.19548 0
M  V30 5398 N 493.308 -5.65995 4.15444 0
M  V30 5399 H 498.148 -1.45895 2.59843 0
M  V30 5400 H 495.685 -0.709891 1.28837 0
M  V30 5401 H 497.643 -3.78839 1.74747 0
M  V30 5402 H 496.273 -3.12183 0.821075 0
M  V30 5403 H 495.325 -2.23991 3.07461 0
M  V30 5404 H 496.637 -3.11157 3.89849 0
M  V30 5405 H 495.791 -5.2825 2.98391 0
M  V30 5406 H 494.53 -4.42242 2.05604 0
M  V30 5407 H 493.535 -3.55707 4.19229 0
M  V30 5408 H 494.76 -4.4503 5.12957 0
M  V30 5409 H 492.706 -5.69229 3.26059 0
M  V30 5410 H 492.623 -5.67773 4.99169 0
M  V30 5411 H 493.891 -6.56604 4.20109 0
M  V30 5412 N 498.12 -1.38341 -0.754957 0
M  V30 5413 C 499.067 -1.3546 -1.86867 0
M  V30 5414 C 500.037 -0.217369 -1.64672 0
M  V30 5415 O 501.222 -0.409383 -1.86356 0
M  V30 5416 C 498.362 -1.18413 -3.24149 0
M  V30 5417 C 497.475 -2.41511 -3.58185 0
M  V30 5418 C 496.61 -2.17205 -4.84763 0
M  V30 5419 C 495.649 -3.36081 -5.11582 0
M  V30 5420 N 494.786 -3.11219 -6.29354 0
M  V30 5421 H 499.626 -2.30672 -1.88664 0
M  V30 5422 H 497.163 -1.14607 -0.922154 0
M  V30 5423 H 499.121 -1.06545 -4.03366 0
M  V30 5424 H 497.751 -0.268397 -3.21682 0
M  V30 5425 H 496.803 -2.64056 -2.73822 0
M  V30 5426 H 498.115 -3.30115 -3.73932 0
M  V30 5427 H 497.269 -2.02465 -5.7192 0
M  V30 5428 H 496.008 -1.25964 -4.71152 0
M  V30 5429 H 495.013 -3.51341 -4.22894 0
M  V30 5430 H 496.238 -4.28196 -5.27091 0
M  V30 5431 H 494.184 -2.22624 -6.17069 0
M  V30 5432 H 494.101 -3.93373 -6.45596 0
M  V30 5433 H 495.369 -3.00132 -7.19403 0
M  V30 5434 N 499.598 0.982988 -1.23187 0
M  V30 5435 C 500.823 1.76455 -1.08988 0
M  V30 5436 C 501.248 1.84726 0.354691 0
M  V30 5437 O 500.606 1.30699 1.25649 0
M  V30 5438 C 500.654 3.17094 -1.71708 0
M  V30 5439 O 499.758 4.00648 -0.977477 0
M  V30 5440 H 499.099 0.542988 -0.382177 0
M  V30 5441 H 501.629 1.23413 -1.63188 0
M  V30 5442 H 501.639 3.67684 -1.76841 0
M  V30 5443 H 500.314 3.10389 -2.76823 0
M  V30 5444 H 498.891 3.59161 -1.0029 0
M  V30 5445 N 501.076 1.04316 1.18135 0
M  V30 5446 C 502.009 0.580823 2.20685 0
M  V30 5447 C 502.987 -0.385943 1.57953 0
M  V30 5448 O 504.171 -0.299654 1.86103 0
M  V30 5449 C 501.298 -0.151162 3.38363 0
M  V30 5450 C 500.344 0.769247 4.19505 0
M  V30 5451 S 501.177 2.25352 4.85774 0
M  V30 5452 C 502.333 1.53246 6.0685 0
M  V30 5453 H 502.566 1.44968 2.5956 0
M  V30 5454 H 500.099 0.85434 1.28609 0
M  V30 5455 H 502.057 -0.567315 4.06561 0
M  V30 5456 H 500.718 -0.995936 2.97892 0
M  V30 5457 H 499.911 0.203335 5.0359 0
M  V30 5458 H 499.513 1.12436 3.56699 0
M  V30 5459 H 501.805 0.82689 6.72435 0
M  V30 5460 H 502.748 2.35044 6.67952 0
M  V30 5461 H 503.156 1.0237 5.5514 0
M  V30 5462 N 502.554 -1.34406 0.822964 0
M  V30 5463 C 503.517 -2.2783 0.250271 0
M  V30 5464 C 504.517 -1.50288 -0.571854 0
M  V30 5465 O 505.707 -1.69825 -0.387952 0
M  V30 5466 C 502.839 -3.34663 -0.649137 0
M  V30 5467 H 504.032 -2.79992 1.07444 0
M  V30 5468 H 501.585 -1.44539 0.594829 0
M  V30 5469 H 502.32 -2.87714 -1.49637 0
M  V30 5470 H 502.105 -3.92052 -0.0611199 0
M  V30 5471 H 503.595 -4.04349 -1.04363 0
M  V30 5472 N 504.032 -0.577932 -1.46621 0
M  V30 5473 C 505.281 -0.0594281 -2.01612 0
M  V30 5474 C 505.594 1.30663 -1.45556 0
M  V30 5475 O 506.8 1.91621 -1.92337 0
M  V30 5476 C 505.256 -0.0556666 -3.59857 0
M  V30 5477 C 504.864 -1.41975 -4.24908 0
M  V30 5478 C 506.608 0.409143 -4.22524 0
M  V30 5479 C 504.515 -1.37397 -5.75218 0
M  V30 5480 H 503.445 -0.0184469 -0.753774 0
M  V30 5481 H 506.096 -0.728869 -1.68404 0
M  V30 5482 H 504.478 0.679843 -3.90121 0
M  V30 5483 H 505.652 -2.17461 -4.0626 0
M  V30 5484 H 503.967 -1.82419 -3.74316 0
M  V30 5485 H 506.564 0.46211 -5.32699 0
M  V30 5486 H 506.907 1.42565 -3.91128 0
M  V30 5487 H 507.44 -0.272152 -3.96868 0
M  V30 5488 H 504.179 -2.36714 -6.11267 0
M  V30 5489 H 503.699 -0.661239 -5.96144 0
M  V30 5490 H 505.378 -1.08484 -6.3784 0
M  V30 5491 N 505.51 1.54411 -0.315457 0
M  V30 5492 C 506.46 2.20772 0.569549 0
M  V30 5493 C 507.444 1.18551 1.08787 0
M  V30 5494 O 508.636 1.44213 1.02624 0
M  V30 5495 C 505.765 2.96293 1.73394 0
M  V30 5496 C 504.851 4.05844 1.2309 0
M  V30 5497 N 505.242 5.03822 0.446927 0
M  V30 5498 C 503.54 4.19648 1.51035 0
M  V30 5499 C 504.241 5.8143 0.17725 0
M  V30 5500 N 503.217 5.38245 0.761118 0
M  V30 5501 H 507.019 2.93877 -0.0368076 0
M  V30 5502 H 504.533 1.61949 -0.120915 0
M  V30 5503 H 506.53 3.42313 2.37965 0
M  V30 5504 H 505.19 2.24708 2.34386 0
M  V30 5505 H 506.201 5.17821 0.0905027 0
M  V30 5506 H 502.878 3.59274 2.1267 0
M  V30 5507 H 504.268 6.70369 -0.45335 0
M  V30 5508 N 506.988 0.0434614 1.5754 0
M  V30 5509 C 508.234 -0.627109 1.93491 0
M  V30 5510 C 508.589 -1.68904 0.921362 0
M  V30 5511 O 507.882 -1.91504 -0.0605799 0
M  V30 5512 C 508.076 -1.2738 3.3393 0
M  V30 5513 C 507.905 -0.27603 4.48852 0
M  V30 5514 C 506.675 0.129244 5.05135 0
M  V30 5515 C 508.873 0.475462 5.12098 0
M  V30 5516 N 506.855 1.12068 6.03584 0
M  V30 5517 C 508.226 1.32021 6.05781 0
M  V30 5518 C 510.281 0.534611 4.95022 0
M  V30 5519 C 508.984 2.2188 6.84223 0
M  V30 5520 C 511.01 1.42059 5.74085 0
M  V30 5521 C 510.372 2.25309 6.67394 0
M  V30 5522 H 506.471 -0.201354 0.755633 0
M  V30 5523 H 509.055 0.113991 1.94366 0
M  V30 5524 H 507.226 -1.98496 3.33847 0
M  V30 5525 H 508.958 -1.90255 3.57191 0
M  V30 5526 H 505.713 -0.248145 4.72949 0
M  V30 5527 H 506.137 1.61306 6.57502 0
M  V30 5528 H 510.779 -0.0947817 4.22694 0
M  V30 5529 H 508.497 2.85868 7.55847 0
M  V30 5530 H 512.083 1.47083 5.62901 0
M  V30 5531 H 510.963 2.92754 7.27506 0
M  V30 5532 N 508.466 -1.55915 -0.229846 0
M  V30 5533 C 509.714 -1.7819 -0.953565 0
M  V30 5534 C 510.035 -0.610504 -1.85197 0
M  V30 5535 O 509.305 0.372988 -1.92316 0
M  V30 5536 H 507.885 -0.657208 -0.355087 0
M  V30 5537 H 510.547 -1.9337 -0.243693 0
M  V30 5538 H 509.643 -2.70011 -1.56527 0
M  V30 5539 N 509.944 0.496216 -1.49584 0
M  V30 5540 C 511.172 1.27394 -1.63029 0
M  V30 5541 C 511.587 1.86344 -0.303569 0
M  V30 5542 O 510.944 1.68057 0.711547 0
M  V30 5543 C 510.995 2.40077 -2.70269 0
M  V30 5544 O 510.716 1.83549 -3.97796 0
M  V30 5545 C 512.217 3.31372 -2.94462 0
M  V30 5546 H 509.437 0.386211 -0.54871 0
M  V30 5547 H 511.981 0.595163 -1.95648 0
M  V30 5548 H 510.136 3.03775 -2.40415 0
M  V30 5549 H 510.55 2.57561 -4.56905 0
M  V30 5550 H 512.024 4.06707 -3.73221 0
M  V30 5551 H 512.501 3.88654 -2.0456 0
M  V30 5552 H 513.107 2.73435 -3.25751 0
M  V30 5553 N 511.423 1.38739 0.74761 0
M  V30 5554 C 512.67 1.35274 1.50689 0
M  V30 5555 C 512.998 -0.0553359 1.94421 0
M  V30 5556 O 512.253 -1.03365 1.66175 0
M  V30 5557 C 512.552 2.25992 2.7688 0
M  V30 5558 C 512.218 3.73854 2.5208 0
M  V30 5559 C 510.88 4.14145 2.45025 0
M  V30 5560 C 513.232 4.67427 2.30568 0
M  V30 5561 C 510.56 5.4609 2.14483 0
M  V30 5562 C 512.912 5.99635 2.01545 0
M  V30 5563 C 511.576 6.39004 1.92951 0
M  V30 5564 H 510.846 0.495003 0.55141 0
M  V30 5565 H 513.493 1.71145 0.859158 0
M  V30 5566 H 511.798 1.83196 3.46333 0
M  V30 5567 H 513.495 2.20611 3.34861 0
M  V30 5568 H 510.085 3.41913 2.58444 0
M  V30 5569 H 514.269 4.3714 2.34994 0
M  V30 5570 H 509.525 5.75528 2.06342 0
M  V30 5571 H 513.699 6.71678 1.83906 0
M  V30 5572 H 511.326 7.41165 1.6905 0
M  V30 5573 N 512.901 -0.976442 1.23707 0
M  V30 5574 C 513.864 -2.0511 1.02287 0
M  V30 5575 C 514.864 -1.60791 -0.0167195 0
M  V30 5576 O 516.054 -1.72761 0.223408 0
M  V30 5577 C 513.186 -3.36458 0.548507 0
M  V30 5578 H 514.379 -2.25545 1.9766 0
M  V30 5579 H 511.932 -1.15042 1.05806 0
M  V30 5580 H 512.667 -3.21713 -0.408818 0
M  V30 5581 H 512.452 -3.69967 1.29874 0
M  V30 5582 H 513.942 -4.15489 0.419406 0
M  V30 5583 N 514.379 -1.04941 -1.1758 0
M  V30 5584 C 515.309 -0.669172 -2.23706 0
M  V30 5585 C 516.29 0.331835 -1.66832 0
M  V30 5586 O 517.475 0.209988 -1.93061 0
M  V30 5587 C 514.605 -0.0404889 -3.47276 0
M  V30 5588 C 513.559 -0.965983 -4.16957 0
M  V30 5589 C 512.885 -0.201312 -5.34321 0
M  V30 5590 C 514.185 -2.28902 -4.69469 0
M  V30 5591 H 515.879 -1.55639 -2.55767 0
M  V30 5592 H 513.425 -0.749793 -1.22939 0
M  V30 5593 H 515.378 0.237298 -4.20731 0
M  V30 5594 H 514.102 0.881658 -3.14475 0
M  V30 5595 H 512.761 -1.22829 -3.45411 0
M  V30 5596 H 512.409 0.723519 -4.97769 0
M  V30 5597 H 512.109 -0.817968 -5.81879 0
M  V30 5598 H 513.633 0.0692499 -6.10561 0
M  V30 5599 H 515.047 -2.07132 -5.34574 0
M  V30 5600 H 513.444 -2.85942 -5.27596 0
M  V30 5601 H 514.514 -2.92937 -3.86414 0
M  V30 5602 N 515.857 1.33968 -0.830081 0
M  V30 5603 C 516.82 2.27694 -0.26235 0
M  V30 5604 C 517.82 1.50589 0.563876 0
M  V30 5605 O 519.01 1.70028 0.378941 0
M  V30 5606 C 516.142 3.35002 0.63138 0
M  V30 5607 H 517.335 2.79419 -1.08928 0
M  V30 5608 H 514.888 1.44221 -0.602486 0
M  V30 5609 H 515.623 2.88504 1.48109 0
M  V30 5610 H 515.408 3.92079 0.0403276 0
M  V30 5611 H 516.898 4.04897 1.02217 0
M  V30 5612 N 517.335 0.585699 1.46312 0
M  V30 5613 C 518.283 -0.158577 2.32059 0
M  V30 5614 C 519.277 -0.881427 1.44662 0
M  V30 5615 O 520.483 -0.799476 1.61271 0
M  V30 5616 H 516.858 -0.0700066 0.748734 0
M  V30 5617 H 518.829 0.583383 2.92642 0
M  V30 5618 C 517.578 -1.15701 3.27885 0
M  V30 5619 H 516.901 -0.610215 3.95116 0
M  V30 5620 H 518.341 -1.64812 3.90657 0
M  V30 5621 C 516.8 -2.21951 2.53455 0
M  V30 5622 O 517.33 -3.29352 2.29978 0
M  V30 5623 N 515.536 -1.9664 2.13965 0
M  V30 5624 H 515.083 -1.09309 2.33258 0
M  V30 5625 H 515.041 -2.6794 1.64485 0
M  V30 5626 N 518.813 -1.54241 0.323641 0
M  V30 5627 C 519.723 -2.28033 -0.551205 0
M  V30 5628 C 520.739 -1.32388 -1.12913 0
M  V30 5629 O 521.915 -1.65403 -1.14908 0
M  V30 5630 C 518.98 -3.02382 -1.69606 0
M  V30 5631 C 518.041 -4.13612 -1.14993 0
M  V30 5632 C 517.274 -4.84407 -2.24022 0
M  V30 5633 O 517.497 -4.54716 -3.44368 0
M  V30 5634 O 516.431 -5.71312 -1.89436 0
M  V30 5635 H 520.257 -3.03662 0.048066 0
M  V30 5636 H 517.842 -1.49133 0.0893289 0
M  V30 5637 H 519.724 -3.48941 -2.36259 0
M  V30 5638 H 518.399 -2.29628 -2.28151 0
M  V30 5639 H 517.306 -3.71402 -0.448484 0
M  V30 5640 H 518.639 -4.8841 -0.609608 0
M  V30 5641 N 520.291 -0.0518155 -1.57515 0
M  V30 5642 C 521.241 0.932017 -2.0808 0
M  V30 5643 C 522.225 1.27141 -0.986098 0
M  V30 5644 O 523.417 1.25373 -1.24943 0
M  V30 5645 C 520.546 2.20665 -2.62986 0
M  V30 5646 C 519.632 1.89462 -3.79427 0
M  V30 5647 N 520.023 1.28621 -4.89173 0
M  V30 5648 C 518.321 2.19327 -3.88345 0
M  V30 5649 C 519.022 1.15062 -5.70207 0
M  V30 5650 N 517.998 1.65372 -5.17835 0
M  V30 5651 H 521.8 0.456964 -2.90326 0
M  V30 5652 H 519.314 0.152619 -1.61681 0
M  V30 5653 H 521.311 2.92044 -2.97516 0
M  V30 5654 H 519.971 2.68776 -1.8218 0
M  V30 5655 H 520.982 0.958341 -5.08956 0
M  V30 5656 H 517.659 2.69955 -3.18482 0
M  V30 5657 H 519.049 0.678243 -6.68468 0
M  V30 5658 N 521.769 1.56035 0.221574 0
M  V30 5659 C 522.999 1.82864 0.961468 0
M  V30 5660 C 523.407 0.628703 1.78449 0
M  V30 5661 O 522.75 -0.412109 1.79018 0
M  V30 5662 C 522.812 3.03425 1.92804 0
M  V30 5663 C 522.476 4.38429 1.28954 0
M  V30 5664 C 523.473 5.15441 0.679431 0
M  V30 5665 C 521.158 4.85151 1.30131 0
M  V30 5666 C 523.152 6.37337 0.0896148 0
M  V30 5667 C 520.839 6.06989 0.707651 0
M  V30 5668 C 521.837 6.82923 0.102855 0
M  V30 5669 O 521.525 8.02456 -0.48157 0
M  V30 5670 H 521.257 0.611883 0.28736 0
M  V30 5671 H 523.811 2.0397 0.241932 0
M  V30 5672 H 522.041 2.78138 2.68656 0
M  V30 5673 H 523.73 3.17127 2.53348 0
M  V30 5674 H 524.496 4.80452 0.662661 0
M  V30 5675 H 520.375 4.26021 1.76145 0
M  V30 5676 H 523.919 6.96547 -0.383069 0
M  V30 5677 H 519.816 6.41451 0.721834 0
M  V30 5678 H 520.584 8.17636 -0.375887 0
M  V30 5679 N 523.247 -0.488276 1.49845 0
M  V30 5680 C 524.177 -1.59675 1.70371 0
M  V30 5681 C 525.158 -1.60878 0.552473 0
M  V30 5682 O 526.343 -1.77417 0.78973 0
M  V30 5683 C 523.473 -2.98098 1.782 0
M  V30 5684 C 522.427 -3.11761 2.93239 0
M  V30 5685 C 521.753 -4.51661 2.86193 0
M  V30 5686 C 523.053 -2.90589 4.33999 0
M  V30 5687 H 524.747 -1.42752 2.63177 0
M  V30 5688 H 522.293 -0.685317 1.26647 0
M  V30 5689 H 524.246 -3.75555 1.91144 0
M  V30 5690 H 522.97 -3.16138 0.820018 0
M  V30 5691 H 521.629 -2.36732 2.79917 0
M  V30 5692 H 521.277 -4.66595 1.87877 0
M  V30 5693 H 520.977 -4.61742 3.63412 0
M  V30 5694 H 522.501 -5.31162 3.01163 0
M  V30 5695 H 523.915 -3.57807 4.47936 0
M  V30 5696 H 522.312 -3.1213 5.12538 0
M  V30 5697 H 523.382 -1.86595 4.4756 0
M  V30 5698 N 524.725 -1.39134 -0.740242 0
M  V30 5699 C 525.635 -1.39697 -1.88473 0
M  V30 5700 C 526.651 -0.292403 -1.71526 0
M  V30 5701 O 527.827 -0.533021 -1.94219 0
M  V30 5702 C 524.892 -1.23382 -3.24003 0
M  V30 5703 C 523.953 -2.43763 -3.53381 0
M  V30 5704 C 523.186 -2.28216 -4.82445 0
M  V30 5705 O 523.409 -1.28288 -5.55786 0
M  V30 5706 O 522.343 -3.1709 -5.11603 0
M  V30 5707 H 526.169 -2.36159 -1.90952 0
M  V30 5708 H 523.754 -1.20194 -0.887346 0
M  V30 5709 H 525.636 -1.16395 -4.05006 0
M  V30 5710 H 524.311 -0.300121 -3.22306 0
M  V30 5711 H 523.218 -2.56325 -2.72485 0
M  V30 5712 H 524.551 -3.35808 -3.59852 0
M  V30 5713 N 526.204 0.969867 -1.24223 0
M  V30 5714 C 527.615 1.52717 -1.07399 0
M  V30 5715 C 527.966 1.92956 0.355298 0
M  V30 5716 O 527.091 1.77112 1.2434 0
M  V30 5717 C 527.686 2.77521 -1.94339 0
M  V30 5718 C 526.245 3.29615 -1.81744 0
M  V30 5719 C 525.392 2.02537 -1.89405 0
M  V30 5720 H 528.343 0.788399 -1.37732 0
M  V30 5721 H 528.364 3.50773 -1.47439 0
M  V30 5722 H 527.876 2.48203 -2.98357 0
M  V30 5723 H 525.977 3.63789 -0.805505 0
M  V30 5724 H 526.09 3.98661 -2.65718 0
M  V30 5725 H 524.454 2.17151 -1.33108 0
M  V30 5726 H 525.237 1.75587 -2.94999 0
M  V30 5727 N 527.682 1.05563 1.17022 0
M  V30 5728 C 529.093 0.793475 1.69 0
M  V30 5729 C 529.444 -0.683882 1.83895 0
M  V30 5730 O 528.569 -1.53116 1.5292 0
M  V30 5731 C 529.164 1.43376 3.06967 0
M  V30 5732 C 527.723 1.21956 3.56095 0
M  V30 5733 C 526.87 1.51494 2.3226 0
M  V30 5734 H 529.821 1.22008 1.01487 0
M  V30 5735 H 529.842 0.845068 3.70997 0
M  V30 5736 H 529.354 2.50899 2.96093 0
M  V30 5737 H 527.455 0.163749 3.7224 0
M  V30 5738 H 527.568 1.92713 4.38633 0
M  V30 5739 H 525.932 0.935175 2.3691 0
M  V30 5740 H 526.715 2.60159 2.23992 0
M  V30 5741 N 529.16 -1.33526 0.837174 0
M  V30 5742 C 530.406 -1.9813 0.432704 0
M  V30 5743 C 530.739 -1.66168 -1.00508 0
M  V30 5744 O 530.014 -0.94069 -1.70239 0
M  V30 5745 C 530.297 -3.54151 0.651834 0
M  V30 5746 C 530.15 -3.95806 2.13676 0
M  V30 5747 C 531.469 -4.39993 0.0968937 0
M  V30 5748 H 528.588 -0.719713 0.15869 0
M  V30 5749 H 531.23 -1.58193 1.05237 0
M  V30 5750 H 529.38 -3.88301 0.124369 0
M  V30 5751 H 531.052 -3.71921 2.72896 0
M  V30 5752 H 529.295 -3.45599 2.62191 0
M  V30 5753 H 529.966 -5.0447 2.24084 0
M  V30 5754 H 532.442 -4.12479 0.547733 0
M  V30 5755 H 531.318 -5.48186 0.279917 0
M  V30 5756 H 531.579 -4.3066 -0.9992 0
M  V30 5757 N 530.638 -0.59345 -1.46 0
M  V30 5758 C 531.585 0.133618 -2.30413 0
M  V30 5759 C 532.555 0.873736 -1.41262 0
M  V30 5760 O 533.74 0.862279 -1.70204 0
M  V30 5761 C 530.88 1.13434 -3.25924 0
M  V30 5762 C 529.993 0.39656 -4.30176 0
M  V30 5763 C 529.128 1.38575 -5.12806 0
M  V30 5764 C 528.167 0.634984 -6.08797 0
M  V30 5765 N 527.304 1.57276 -6.84258 0
M  V30 5766 H 532.144 -0.592252 -2.92055 0
M  V30 5767 H 529.681 -0.303874 -1.43927 0
M  V30 5768 H 531.639 1.72752 -3.79753 0
M  V30 5769 H 530.269 1.82779 -2.66067 0
M  V30 5770 H 529.321 -0.311861 -3.79119 0
M  V30 5771 H 530.633 -0.189869 -4.98438 0
M  V30 5772 H 529.787 2.05141 -5.70966 0
M  V30 5773 H 528.526 2.00611 -4.44529 0
M  V30 5774 H 527.531 -0.0443925 -5.49782 0
M  V30 5775 H 528.756 0.0198678 -6.79097 0
M  V30 5776 H 526.702 2.18103 -6.18682 0
M  V30 5777 H 526.619 1.03941 -7.48821 0
M  V30 5778 H 527.887 2.22844 -7.46968 0
M  V30 5779 N 532.116 1.54067 -0.331816 0
M  V30 5780 C 533.046 2.27569 0.522932 0
M  V30 5781 C 534.027 1.28679 1.11247 0
M  V30 5782 O 535.212 1.57504 1.13605 0
M  V30 5783 C 532.342 3.0397 1.67987 0
M  V30 5784 C 531.296 4.10267 1.21924 0
M  V30 5785 C 530.622 4.74555 2.46377 0
M  V30 5786 C 531.922 5.21268 0.32815 0
M  V30 5787 H 533.616 2.99264 -0.0901977 0
M  V30 5788 H 531.162 1.4393 -0.044821 0
M  V30 5789 H 533.115 3.54123 2.28418 0
M  V30 5790 H 531.839 2.29906 2.31971 0
M  V30 5791 H 530.498 3.61009 0.637809 0
M  V30 5792 H 530.146 3.97098 3.08743 0
M  V30 5793 H 529.846 5.46363 2.16243 0
M  V30 5794 H 531.37 5.27487 3.07555 0
M  V30 5795 H 532.784 5.67128 0.838978 0
M  V30 5796 H 531.181 5.99982 0.119228 0
M  V30 5797 H 532.251 4.80673 -0.638839 0
M  V30 5798 N 533.594 0.0601682 1.57485 0
M  V30 5799 C 534.542 -0.928899 2.13247 0
M  V30 5800 C 535.536 -1.31616 1.06647 0
M  V30 5801 O 536.742 -1.29476 1.25043 0
M  V30 5802 H 533.117 -0.317455 0.681708 0
M  V30 5803 H 535.088 -0.433566 2.95233 0
M  V30 5804 C 533.837 -2.19121 2.69965 0
M  V30 5805 H 533.16 -1.90204 3.51657 0
M  V30 5806 H 534.6 -2.86465 3.12592 0
M  V30 5807 C 533.059 -2.94195 1.64168 0
M  V30 5808 O 533.589 -3.87468 1.05978 0
M  V30 5809 N 531.795 -2.57089 1.35476 0
M  V30 5810 H 531.342 -1.81314 1.82984 0
M  V30 5811 H 531.3 -3.07624 0.649196 0
M  V30 5812 N 535.072 -1.5615 -0.213296 0
M  V30 5813 C 535.982 -1.96265 -1.28519 0
M  V30 5814 C 536.998 -0.86765 -1.50824 0
M  V30 5815 O 538.174 -1.17191 -1.63793 0
M  V30 5816 C 535.239 -2.27836 -2.61327 0
M  V30 5817 C 534.3 -3.50949 -2.47252 0
M  V30 5818 C 533.533 -3.81004 -3.73727 0
M  V30 5819 O 533.756 -3.12612 -4.77106 0
M  V30 5820 O 532.69 -4.74477 -3.70344 0
M  V30 5821 H 536.516 -2.87631 -0.974795 0
M  V30 5822 H 534.101 -1.43467 -0.416832 0
M  V30 5823 H 535.983 -2.49299 -3.39747 0
M  V30 5824 H 534.658 -1.39643 -2.9203 0
M  V30 5825 H 533.565 -3.34754 -1.67004 0
M  V30 5826 H 534.898 -4.39551 -2.21486 0
M  V30 5827 N 536.55 0.480323 -1.50102 0
M  V30 5828 C 537.513 1.56181 -1.6775 0
M  V30 5829 C 538.513 1.51156 -0.548503 0
M  V30 5830 O 539.703 1.5394 -0.815363 0
M  V30 5831 C 536.835 2.95823 -1.69415 0
M  V30 5832 H 538.028 1.41855 -2.6423 0
M  V30 5833 H 535.581 0.70605 -1.39444 0
M  V30 5834 H 536.316 3.15604 -0.745948 0
M  V30 5835 H 536.101 3.00878 -2.51425 0
M  V30 5836 H 537.591 3.74359 -1.85054 0
M  V30 5837 N 538.028 1.39524 0.732853 0
M  V30 5838 C 538.958 1.41153 1.86005 0
M  V30 5839 C 539.939 0.274614 1.67869 0
M  V30 5840 O 541.124 0.480745 1.88155 0
M  V30 5841 C 538.254 1.25638 3.23778 0
M  V30 5842 C 537.208 2.36752 3.56556 0
M  V30 5843 C 536.534 2.06326 4.93289 0
M  V30 5844 C 537.834 3.79069 3.5931 0
M  V30 5845 H 539.528 2.35484 1.84899 0
M  V30 5846 H 537.074 1.13348 0.888162 0
M  V30 5847 H 539.027 1.25398 4.0231 0
M  V30 5848 H 537.751 0.277772 3.25417 0
M  V30 5849 H 536.41 2.36213 2.80355 0
M  V30 5850 H 536.058 1.06897 4.9151 0
M  V30 5851 H 535.758 2.80757 5.16187 0
M  V30 5852 H 537.282 2.07739 5.74175 0
M  V30 5853 H 538.696 3.81526 4.27914 0
M  V30 5854 H 537.093 4.52878 3.93728 0
M  V30 5855 H 538.163 4.09893 2.59068 0
M  V30 5856 N 539.506 -0.963266 1.24736 0
M  V30 5857 C 540.416 -2.09246 1.06082 0
M  V30 5858 C 541.432 -1.74 0.000363101 0
M  V30 5859 O 542.608 -2.0041 0.199479 0
M  V30 5860 C 539.673 -3.40115 0.672498 0
M  V30 5861 C 538.734 -3.89282 1.80993 0
M  V30 5862 C 537.967 -5.13905 1.44004 0
M  V30 5863 O 538.19 -5.69434 0.331835 0
M  V30 5864 O 537.124 -5.57566 2.26723 0
M  V30 5865 H 540.95 -2.27881 2.00759 0
M  V30 5866 H 538.535 -1.07649 1.03595 0
M  V30 5867 H 540.417 -4.18797 0.467668 0
M  V30 5868 H 539.092 -3.22771 -0.245102 0
M  V30 5869 H 537.999 -3.11642 2.06955 0
M  V30 5870 H 539.332 -4.1111 2.70646 0
M  V30 5871 N 540.985 -1.06182 -1.16461 0
M  V30 5872 C 542.401 -0.785065 -1.38956 0
M  V30 5873 C 542.601 0.616103 -1.9185 0
M  V30 5874 O 541.657 1.37686 -2.11657 0
M  V30 5875 C 542.97 -1.84902 -2.37132 0
M  V30 5876 C 544.518 -1.8724 -2.50819 0
M  V30 5877 C 544.993 -2.92686 -3.52277 0
M  V30 5878 N 546.484 -2.91712 -3.59803 0
M  V30 5879 C 547.219 -3.69949 -4.38093 0
M  V30 5880 N 546.715 -4.58 -5.19815 0
M  V30 5881 N 548.508 -3.58346 -4.33064 0
M  V30 5882 H 540.659 -1.96569 -0.804634 0
M  V30 5883 H 542.922 -0.851747 -0.416211 0
M  V30 5884 H 542.628 -2.85518 -2.0536 0
M  V30 5885 H 542.502 -1.69908 -3.36766 0
M  V30 5886 H 544.889 -0.872827 -2.81897 0
M  V30 5887 H 544.97 -2.06311 -1.51226 0
M  V30 5888 H 544.614 -3.92835 -3.21937 0
M  V30 5889 H 544.544 -2.70864 -4.51598 0
M  V30 5890 H 547.035 -2.27876 -3.01464 0
M  V30 5891 H 547.348 -5.14357 -5.76764 0
M  V30 5892 H 545.693 -4.62056 -5.19162 0
M  V30 5893 H 548.884 -2.88943 -3.68279 0
M  V30 5894 H 549.057 -4.19563 -4.93833 0
M  V30 5895 N 542.463 1.3308 -0.844243 0
M  V30 5896 C 543.693 2.01515 -0.455541 0
M  V30 5897 C 544.101 1.63655 0.949406 0
M  V30 5898 O 543.444 0.84848 1.62931 0
M  V30 5899 C 543.506 3.55967 -0.502801 0
M  V30 5900 C 543.17 4.17222 -1.86481 0
M  V30 5901 C 544.167 4.36205 -2.8288 0
M  V30 5902 C 541.852 4.53528 -2.15911 0
M  V30 5903 C 543.846 4.90649 -4.06869 0
M  V30 5904 C 541.533 5.07679 -3.40155 0
M  V30 5905 C 542.531 5.26186 -4.35451 0
M  V30 5906 O 542.219 5.79183 -5.57496 0
M  V30 5907 H 541.951 0.65199 -0.178565 0
M  V30 5908 H 544.505 1.70867 -1.1399 0
M  V30 5909 H 542.735 3.85965 0.23836 0
M  V30 5910 H 544.424 4.05688 -0.131169 0
M  V30 5911 H 545.19 4.085 -2.61444 0
M  V30 5912 H 541.069 4.38414 -1.42528 0
M  V30 5913 H 544.613 5.0501 -4.81259 0
M  V30 5914 H 540.51 5.34815 -3.61446 0
M  V30 5915 H 541.278 5.97591 -5.5931 0
M  V30 5916 N 543.941 0.601185 1.45683 0
M  V30 5917 C 545.189 0.0936957 2.01883 0
M  V30 5918 C 545.51 -1.2779 1.47291 0
M  V30 5919 O 544.78 -1.84279 0.664691 0
M  V30 5920 H 543.36 0.0316466 0.746329 0
M  V30 5921 H 546.022 0.781137 1.78562 0
M  V30 5922 H 545.118 0.0386297 3.12076 0
M  V30 5923 N 545.419 -1.53889 0.339982 0
M  V30 5924 C 546.349 -2.27843 -0.510856 0
M  V30 5925 C 547.33 -1.29267 -1.10563 0
M  V30 5926 O 548.515 -1.58104 -1.12768 0
M  V30 5927 C 545.645 -3.04857 -1.66372 0
M  V30 5928 C 544.599 -4.10907 -1.19746 0
M  V30 5929 C 543.925 -4.75855 -2.43857 0
M  V30 5930 C 545.225 -5.21435 -0.300501 0
M  V30 5931 H 546.919 -2.99212 0.106067 0
M  V30 5932 H 544.465 -1.43904 0.0524533 0
M  V30 5933 H 546.418 -3.5533 -2.26537 0
M  V30 5934 H 545.142 -2.31133 -2.30749 0
M  V30 5935 H 543.801 -3.61342 -0.618654 0
M  V30 5936 H 543.449 -3.9873 -3.06633 0
M  V30 5937 H 543.149 -5.47502 -2.13343 0
M  V30 5938 H 544.673 -5.2911 -3.04754 0
M  V30 5939 H 546.087 -5.67565 -0.80889 0
M  V30 5940 H 544.484 -6.00036 -0.0874076 0
M  V30 5941 H 545.554 -4.80328 0.664321 0
M  V30 5942 N 546.897 -0.0685191 -1.57451 0
M  V30 5943 C 547.845 0.917577 -2.13736 0
M  V30 5944 C 548.839 1.31049 -1.07344 0
M  V30 5945 O 550.045 1.28811 -1.25728 0
M  V30 5946 H 546.42 0.313835 -0.683382 0
M  V30 5947 H 548.391 0.417903 -2.95459 0
M  V30 5948 C 547.14 2.17686 -2.71123 0
M  V30 5949 H 546.463 1.88336 -3.52661 0
M  V30 5950 H 547.903 2.84803 -3.14107 0
M  V30 5951 C 546.362 2.9332 -1.65726 0
M  V30 5952 O 546.892 3.86901 -1.08031 0
M  V30 5953 N 545.098 2.56367 -1.36837 0
M  V30 5954 H 544.645 1.80341 -1.83943 0
M  V30 5955 H 544.603 3.07276 -0.665501 0
M  V30 5956 N 548.375 1.56261 0.205012 0
M  V30 5957 C 549.338 1.92908 1.23771 0
M  V30 5958 C 550.338 0.809208 1.38955 0
M  V30 5959 O 551.528 1.07676 1.36936 0
M  V30 5960 C 548.66 2.19442 2.60879 0
M  V30 5961 H 549.853 2.85287 0.924728 0
M  V30 5962 H 547.406 1.49798 0.446125 0
M  V30 5963 H 548.141 1.29668 2.97248 0
M  V30 5964 H 547.926 3.0104 2.51232 0
M  V30 5965 H 549.416 2.48833 3.35368 0
M  V30 5966 N 549.853 -0.472356 1.50355 0
M  V30 5967 C 550.763 -1.59637 1.7191 0
M  V30 5968 C 551.779 -1.63247 0.602195 0
M  V30 5969 O 552.955 -1.81139 0.880369 0
M  V30 5970 C 550.02 -2.9586 1.80742 0
M  V30 5971 C 549.081 -3.02649 3.04471 0
M  V30 5972 C 548.314 -4.32374 3.12872 0
M  V30 5973 O 548.537 -5.22807 2.28099 0
M  V30 5974 O 547.471 -4.44728 4.05587 0
M  V30 5975 H 551.297 -1.44373 2.67189 0
M  V30 5976 H 548.882 -0.651717 1.34436 0
M  V30 5977 H 550.764 -3.7677 1.88739 0
M  V30 5978 H 549.439 -3.11325 0.88647 0
M  V30 5979 H 548.346 -2.20821 3.01975 0
M  V30 5980 H 549.679 -2.92119 3.9614 0
M  V30 5981 N 551.331 -1.39911 -0.725443 0
M  V30 5982 C 552.608 -1.28158 -1.47766 0
M  V30 5983 C 552.988 0.104545 -2.10841 0
M  V30 5984 O 552.336 1.11657 -1.99361 0
M  V30 5985 C 552.546 -2.41306 -2.52135 0
M  V30 5986 C 553.894 -2.81076 -3.18247 0
M  V30 5987 O 554.918 -2.40827 -2.62452 0
M  V30 5988 O 553.777 -3.50581 -4.19231 0
M  V30 5989 H 550.871 -0.502761 -0.656628 0
M  V30 5990 H 553.417 -1.51808 -0.758456 0
M  V30 5991 H 552.189 -3.33932 -2.03974 0
M  V30 5992 H 551.812 -2.19374 -3.31603 0
M  V30 5993 N 552.809 0.956637 -1.25245 0
M  V30 5994 C 554.056 1.701 -1.09874 0
M  V30 5995 C 554.384 1.91128 0.36062 0
M  V30 5996 O 553.639 1.47837 1.28229 0
M  V30 5997 C 553.938 3.08996 -1.79601 0
M  V30 5998 C 553.604 3.07774 -3.29523 0
M  V30 5999 C 552.266 3.07149 -3.70423 0
M  V30 6000 C 554.618 3.01257 -4.25316 0
M  V30 6001 C 551.946 2.97752 -5.0553 0
M  V30 6002 C 554.298 2.93403 -5.60444 0
M  V30 6003 C 552.962 2.91111 -6.00675 0
M  V30 6004 H 552.232 0.62244 -0.402056 0
M  V30 6005 H 554.879 1.1178 -1.55491 0
M  V30 6006 H 553.184 3.70848 -1.26408 0
M  V30 6007 H 554.881 3.65407 -1.65162 0
M  V30 6008 H 551.471 3.09032 -2.9698 0
M  V30 6009 H 555.655 3.00861 -3.9471 0
M  V30 6010 H 550.911 2.94346 -5.35883 0
M  V30 6011 H 555.085 2.87321 -6.34366 0
M  V30 6012 H 552.712 2.83586 -7.05325 0
M  V30 6013 N 554.287 1.06798 1.15896 0
M  V30 6014 C 555.534 0.787767 1.86549 0
M  V30 6015 C 555.862 -0.685959 1.82002 0
M  V30 6016 O 555.117 -1.5188 1.23414 0
M  V30 6017 C 555.416 1.23414 3.35416 0
M  V30 6018 C 555.082 2.71285 3.6016 0
M  V30 6019 C 553.744 3.11676 3.66622 0
M  V30 6020 C 556.096 3.6676 3.7032 0
M  V30 6021 C 553.424 4.4637 3.8075 0
M  V30 6022 C 555.776 5.01209 3.8597 0
M  V30 6023 C 554.44 5.41229 3.90676 0
M  V30 6024 H 553.71 0.288264 0.682631 0
M  V30 6025 H 556.357 1.338 1.37003 0
M  V30 6026 H 554.662 0.60319 3.87129 0
M  V30 6027 H 556.359 0.994298 3.88477 0
M  V30 6028 H 552.949 2.39015 3.55767 0
M  V30 6029 H 557.133 3.36685 3.64633 0
M  V30 6030 H 552.389 4.76855 3.82648 0
M  V30 6031 H 556.563 5.75067 3.92773 0
M  V30 6032 H 554.19 6.45602 4.01375 0
M  V30 6033 N 555.766 -1.3263 0.851289 0
M  V30 6034 C 557.012 -1.9766 0.453694 0
M  V30 6035 C 557.345 -1.67225 -0.987396 0
M  V30 6036 O 556.62 -0.958693 -1.69232 0
M  V30 6037 C 556.903 -3.5344 0.68936 0
M  V30 6038 C 556.756 -3.93517 2.17862 0
M  V30 6039 C 558.075 -4.39866 0.143555 0
M  V30 6040 H 555.194 -0.717989 0.166314 0
M  V30 6041 H 557.836 -1.57068 1.06909 0
M  V30 6042 H 555.986 -3.88147 0.165546 0
M  V30 6043 H 557.658 -3.69006 2.76826 0
M  V30 6044 H 555.901 -3.42798 2.65841 0
M  V30 6045 H 556.572 -5.02065 2.29422 0
M  V30 6046 H 559.048 -4.11875 0.591451 0
M  V30 6047 H 557.924 -5.47858 0.338043 0
M  V30 6048 H 558.185 -4.31696 -0.953466 0
M  V30 6049 N 557.244 -0.608902 -1.45362 0
M  V30 6050 C 558.174 0.0964526 -2.33301 0
M  V30 6051 C 559.155 0.857444 -1.46908 0
M  V30 6052 O 560.34 0.827735 -1.75676 0
M  V30 6053 C 557.47 1.09354 -3.29635 0
M  V30 6054 C 556.424 0.445676 -4.25673 0
M  V30 6055 C 555.75 1.5511 -5.11708 0
M  V30 6056 C 557.05 -0.633972 -5.18438 0
M  V30 6057 H 558.744 -0.637829 -2.92527 0
M  V30 6058 H 556.29 -0.308178 -1.40664 0
M  V30 6059 H 558.243 1.59556 -3.90025 0
M  V30 6060 H 556.967 1.85843 -2.6857 0
M  V30 6061 H 555.626 -0.0354897 -3.66583 0
M  V30 6062 H 555.274 2.30631 -4.4701 0
M  V30 6063 H 554.974 1.12311 -5.76767 0
M  V30 6064 H 556.498 2.05537 -5.74967 0
M  V30 6065 H 557.912 -0.215974 -5.72893 0
M  V30 6066 H 556.309 -0.983789 -5.91981 0
M  V30 6067 H 557.379 -1.51005 -4.60788 0
M  V30 6068 N 558.722 1.53707 -0.348139 0
M  V30 6069 C 559.669 2.25173 0.506518 0
M  V30 6070 C 560.639 1.25174 1.09182 0
M  V30 6071 O 561.824 1.53917 1.12757 0
M  V30 6072 C 558.964 3.03141 1.64923 0
M  V30 6073 C 558.077 4.18002 1.0908 0
M  V30 6074 C 557.212 4.83447 2.20119 0
M  V30 6075 C 556.251 5.90369 1.61651 0
M  V30 6076 N 555.388 6.49575 2.66451 0
M  V30 6077 H 560.228 2.97799 -0.109452 0
M  V30 6078 H 557.765 1.46953 -0.0657866 0
M  V30 6079 H 559.723 3.46607 2.32205 0
M  V30 6080 H 558.353 2.32803 2.23612 0
M  V30 6081 H 557.405 3.79145 0.308783 0
M  V30 6082 H 558.717 4.94892 0.623178 0
M  V30 6083 H 557.871 5.30008 2.95257 0
M  V30 6084 H 556.61 4.05991 2.70227 0
M  V30 6085 H 555.615 5.43186 0.850209 0
M  V30 6086 H 556.84 6.69735 1.1239 0
M  V30 6087 H 554.786 5.74981 3.15805 0
M  V30 6088 H 554.703 7.21952 2.24325 0
M  V30 6089 H 555.971 7.00789 3.41344 0
M  V30 6090 N 560.2 0.0768682 1.57412 0
M  V30 6091 C 561.15 -0.898795 2.09537 0
M  V30 6092 C 562.134 -1.25556 1.0062 0
M  V30 6093 O 563.326 -1.23369 1.26921 0
M  V30 6094 C 560.455 -2.16453 2.66464 0
M  V30 6095 C 559.541 -1.83401 3.82393 0
M  V30 6096 N 559.932 -1.20823 4.91157 0
M  V30 6097 C 558.23 -2.13121 3.91785 0
M  V30 6098 C 558.931 -1.05976 5.71965 0
M  V30 6099 N 557.907 -1.57113 5.204 0
M  V30 6100 H 561.709 -0.410718 2.91016 0
M  V30 6101 H 559.223 -0.126878 1.61904 0
M  V30 6102 H 561.22 -2.87274 3.02125 0
M  V30 6103 H 559.88 -2.65844 1.86433 0
M  V30 6104 H 560.891 -0.877249 5.10416 0
M  V30 6105 H 557.568 -2.64854 3.22736 0
M  V30 6106 H 558.958 -0.571809 6.69462 0
M  V30 6107 N 561.678 -1.56367 -0.196722 0
M  V30 6108 C 562.926 -1.80172 -0.915554 0
M  V30 6109 C 563.247 -0.649649 -1.8386 0
M  V30 6110 O 562.517 0.332111 -1.93064 0
M  V30 6111 H 561.097 -0.664592 -0.341067 0
M  V30 6112 H 563.759 -1.93844 -0.202622 0
M  V30 6113 H 562.855 -2.7327 -1.50764 0
M  V30 6114 N 563.156 0.464375 -1.50603 0
M  V30 6115 C 564.066 1.58723 -1.72754 0
M  V30 6116 C 565.082 1.62925 -0.610844 0
M  V30 6117 O 566.258 1.8067 -0.889963 0
M  V30 6118 C 563.323 2.94897 -1.82309 0
M  V30 6119 C 562.384 3.0103 -3.06071 0
M  V30 6120 C 561.617 4.30708 -3.1516 0
M  V30 6121 O 561.84 5.2159 -2.30868 0
M  V30 6122 O 560.774 4.42571 -4.0794 0
M  V30 6123 H 564.6 1.42954 -2.67951 0
M  V30 6124 H 562.185 0.644579 -1.3478 0
M  V30 6125 H 564.067 3.75764 -1.90735 0
M  V30 6126 H 562.742 3.10851 -0.902967 0
M  V30 6127 H 561.649 2.19217 -3.03142 0
M  V30 6128 H 562.982 2.90014 -3.97684 0
M  V30 6129 N 564.634 1.40294 0.718013 0
M  V30 6130 C 565.859 1.41941 1.5122 0
M  V30 6131 C 566.284 0.0202371 1.88089 0
M  V30 6132 O 565.642 -0.971078 1.53101 0
M  V30 6133 C 565.69 2.3141 2.76554 0
M  V30 6134 O 564.794 1.75567 3.73162 0
M  V30 6135 H 564.135 0.482644 0.456016 0
M  V30 6136 H 566.665 1.84494 0.884478 0
M  V30 6137 H 566.675 2.46513 3.25108 0
M  V30 6138 H 565.35 3.33085 2.49053 0
M  V30 6139 H 563.927 1.69798 3.31999 0
M  V30 6140 N 566.112 -0.949982 1.2575 0
M  V30 6141 C 567.528 -1.22191 1.02672 0
M  V30 6142 C 567.728 -1.99898 -0.253588 0
M  V30 6143 O 566.784 -2.33329 -0.965076 0
M  V30 6144 C 568.097 -1.99175 2.25277 0
M  V30 6145 C 569.645 -2.12201 2.30087 0
M  V30 6146 C 570.12 -2.92586 3.5236 0
M  V30 6147 N 571.611 -3.00163 3.52784 0
M  V30 6148 C 572.346 -3.62766 4.44059 0
M  V30 6149 N 571.842 -4.26943 5.45611 0
M  V30 6150 N 573.635 -3.59953 4.3173 0
M  V30 6151 H 565.786 -0.430258 2.07996 0
M  V30 6152 H 568.049 -0.252844 0.91366 0
M  V30 6153 H 567.755 -1.49479 3.18354 0
M  V30 6154 H 567.629 -2.99868 2.28821 0
M  V30 6155 H 570.016 -2.61093 1.3753 0
M  V30 6156 H 570.097 -1.10799 2.30559 0
M  V30 6157 H 569.741 -2.44383 4.45241 0
M  V30 6158 H 569.671 -3.94224 3.49134 0
M  V30 6159 H 572.162 -2.54529 2.79327 0
M  V30 6160 H 572.475 -4.72583 6.11461 0
M  V30 6161 H 570.82 -4.25557 5.49478 0
M  V30 6162 H 574.011 -3.09003 3.51617 0
M  V30 6163 H 574.184 -4.08455 5.03059 0
M  V30 6164 N 567.59 -1.07411 -1.15328 0
M  V30 6165 C 568.82 -0.817595 -1.89734 0
M  V30 6166 C 569.228 0.63297 -1.78298 0
M  V30 6167 O 568.571 1.44594 -1.13306 0
M  V30 6168 C 568.633 -1.14748 -3.40695 0
M  V30 6169 C 568.297 -2.59876 -3.75917 0
M  V30 6170 C 569.294 -3.58122 -3.76888 0
M  V30 6171 C 566.979 -2.95469 -4.06206 0
M  V30 6172 C 568.973 -4.89996 -4.07655 0
M  V30 6173 C 566.66 -4.2754 -4.36638 0
M  V30 6174 C 567.658 -5.24614 -4.37344 0
M  V30 6175 O 567.346 -6.54312 -4.67045 0
M  V30 6176 H 567.078 -0.295175 -0.608151 0
M  V30 6177 H 569.632 -1.43409 -1.47048 0
M  V30 6178 H 567.862 -0.47395 -3.83785 0
M  V30 6179 H 569.551 -0.873397 -3.96392 0
M  V30 6180 H 570.317 -3.31966 -3.53587 0
M  V30 6181 H 566.196 -2.20558 -4.04815 0
M  V30 6182 H 569.74 -5.65759 -4.08121 0
M  V30 6183 H 565.637 -4.53449 -4.59407 0
M  V30 6184 H 566.405 -6.59473 -4.84807 0
M  V30 6185 N 569.068 1.32177 -0.85831 0
M  V30 6186 C 569.998 2.31282 -0.321041 0
M  V30 6187 C 570.979 1.59841 0.581786 0
M  V30 6188 O 572.164 1.87619 0.501262 0
M  V30 6189 C 569.294 3.4385 0.48832 0
M  V30 6190 C 568.248 4.26799 -0.320391 0
M  V30 6191 C 567.574 5.31164 0.613934 0
M  V30 6192 C 568.874 4.98829 -1.54813 0
M  V30 6193 H 570.568 2.76469 -1.14915 0
M  V30 6194 H 568.114 1.32916 -0.554028 0
M  V30 6195 H 570.067 4.12224 0.874626 0
M  V30 6196 H 568.791 2.97401 1.34983 0
M  V30 6197 H 567.45 3.60077 -0.688497 0
M  V30 6198 H 567.098 4.80967 1.47239 0
M  V30 6199 H 566.798 5.8755 0.0768097 0
M  V30 6200 H 568.322 6.024 0.997336 0
M  V30 6201 H 569.736 5.59864 -1.23392 0
M  V30 6202 H 568.133 5.64957 -2.02346 0
M  V30 6203 H 569.203 4.26483 -2.30739 0
M  V30 6204 N 570.547 0.616602 1.45037 0
M  V30 6205 C 571.495 -0.109318 2.32343 0
M  V30 6206 C 572.489 -0.850543 1.465 0
M  V30 6207 O 573.695 -0.765088 1.62931 0
M  V30 6208 H 570.07 -0.0541091 0.750051 0
M  V30 6209 H 572.041 0.645326 2.91338 0
M  V30 6210 C 570.79 -1.0872 3.30266 0
M  V30 6211 H 570.113 -0.526267 3.96321 0
M  V30 6212 H 571.553 -1.56489 3.94065 0
M  V30 6213 C 570.012 -2.16525 2.58105 0
M  V30 6214 O 570.542 -3.244 2.36913 0
M  V30 6215 N 568.748 -1.92057 2.18088 0
M  V30 6216 H 568.295 -1.04337 2.35524 0
M  V30 6217 H 568.253 -2.64391 1.70131 0
M  V30 6218 N 572.025 -1.5352 0.356285 0
M  V30 6219 C 572.973 -2.26945 -0.50978 0
M  V30 6220 C 573.967 -1.29569 -1.09125 0
M  V30 6221 O 575.173 -1.47231 -1.03552 0
M  V30 6222 H 571.548 -0.729368 -0.183102 0
M  V30 6223 H 573.519 -2.98111 0.131374 0
M  V30 6224 C 572.268 -3.06466 -1.64237 0
M  V30 6225 H 571.591 -3.81233 -1.20423 0
M  V30 6226 H 573.031 -3.61035 -2.22327 0
M  V30 6227 C 571.49 -2.16737 -2.57928 0
M  V30 6228 O 572.02 -1.77195 -3.60507 0
M  V30 6229 N 570.226 -1.81558 -2.26903 0
M  V30 6230 H 569.773 -2.13913 -1.43524 0
M  V30 6231 H 569.731 -1.21806 -2.89846 0
M  V30 6232 N 573.503 -0.0852151 -1.57369 0
M  V30 6233 C 574.78 0.622534 -1.85429 0
M  V30 6234 C 575.16 1.86962 -0.980229 0
M  V30 6235 O 574.508 2.28445 -0.0500219 0
M  V30 6236 C 574.718 0.947374 -3.35896 0
M  V30 6237 C 576.066 1.31509 -4.03721 0
M  V30 6238 O 577.09 1.03869 -3.40719 0
M  V30 6239 O 575.949 1.83231 -5.14868 0
M  V30 6240 H 573.043 0.310513 -0.766492 0
M  V30 6241 H 575.589 -0.117164 -1.69295 0
M  V30 6242 H 574.361 0.0622264 -3.91251 0
M  V30 6243 H 573.984 1.74338 -3.5734 0
M  V30 6244 N 574.981 1.5647 0.188427 0
M  V30 6245 C 576.258 1.71857 0.934058 0
M  V30 6246 C 576.638 0.641867 2.01105 0
M  V30 6247 O 575.986 -0.346098 2.25864 0
M  V30 6248 C 576.196 3.14431 1.5144 0
M  V30 6249 C 577.544 3.74869 1.99396 0
M  V30 6250 O 578.568 3.17601 1.61269 0
M  V30 6251 O 577.427 4.75387 2.69573 0
M  V30 6252 H 574.521 0.701186 0.438483 0
M  V30 6253 H 577.067 1.68768 0.177599 0
M  V30 6254 H 575.839 3.8427 0.738416 0
M  V30 6255 H 575.462 3.21775 2.33552 0
M  V30 6256 N 576.459 -0.456382 1.50847 0
M  V30 6257 C 577.369 -1.57805 1.73594 0
M  V30 6258 C 578.385 -1.62599 0.619476 0
M  V30 6259 O 579.561 -1.80195 0.899532 0
M  V30 6260 C 576.626 -2.93926 1.8387 0
M  V30 6261 C 575.687 -2.99402 3.07663 0
M  V30 6262 C 574.92 -4.29031 3.1744 0
M  V30 6263 O 575.143 -5.20358 2.33631 0
M  V30 6264 O 574.077 -4.40401 4.10281 0
M  V30 6265 H 577.903 -1.41531 2.68705 0
M  V30 6266 H 575.488 -0.637422 1.3512 0
M  V30 6267 H 577.37 -3.74747 1.92725 0
M  V30 6268 H 576.045 -3.10368 0.91944 0
M  V30 6269 H 574.952 -2.17606 3.043 0
M  V30 6270 H 576.285 -2.87901 3.99216 0
M  V30 6271 N 577.937 -1.40673 -0.710563 0
M  V30 6272 C 578.885 -1.41517 -1.84596 0
M  V30 6273 C 579.879 -0.295043 -1.66811 0
M  V30 6274 O 581.085 -0.466331 -1.73854 0
M  V30 6275 H 577.46 -0.442467 -0.608052 0
M  V30 6276 H 579.431 -2.37238 -1.80999 0
M  V30 6277 C 578.18 -1.29957 -3.225 0
M  V30 6278 H 577.503 -2.15429 -3.36794 0
M  V30 6279 H 578.943 -1.34608 -4.02066 0
M  V30 6280 C 577.402 -0.0103164 -3.36898 0
M  V30 6281 O 577.932 0.950707 -3.90288 0
M  V30 6282 N 576.138 0.0608409 -2.90536 0
M  V30 6283 H 575.685 -0.721943 -2.47277 0
M  V30 6284 H 575.643 0.92292 -3.00549 0
M  V30 6285 N 579.415 0.9433 -1.26252 0
M  V30 6286 C 580.662 1.68925 -1.11672 0
M  V30 6287 C 580.99 1.91499 0.340329 0
M  V30 6288 O 580.245 1.49189 1.26653 0
M  V30 6289 C 580.544 3.07073 -1.82868 0
M  V30 6290 C 580.21 3.04262 -3.32769 0
M  V30 6291 C 578.872 3.03203 -3.7366 0
M  V30 6292 C 581.224 2.96729 -4.28487 0
M  V30 6293 C 578.552 2.92373 -5.0866 0
M  V30 6294 C 580.904 2.87442 -5.63525 0
M  V30 6295 C 579.568 2.84724 -6.03729 0
M  V30 6296 H 578.838 0.618141 -0.408635 0
M  V30 6297 H 581.485 1.10124 -1.56668 0
M  V30 6298 H 579.79 3.69486 -1.30335 0
M  V30 6299 H 581.487 3.63635 -1.69029 0
M  V30 6300 H 578.077 3.05865 -3.00241 0
M  V30 6301 H 582.261 2.96658 -3.97879 0
M  V30 6302 H 577.517 2.88645 -5.38975 0
M  V30 6303 H 581.691 2.80576 -6.37377 0
M  V30 6304 H 579.318 2.76089 -7.08293 0
M  V30 6305 O 580.932 1.20358 1.07685 0
M  V30 6306 H 581.623 0.957266 1.68393 0
M  V30 END ATOM
M  V30 BEGIN BOND
M  V30 END BOND
M  V30 END CTAB
M  END
$$$$
