drugbank_target|Q6L8H2 Keratin-associated protein 5-3 (DB02379)
 OpenBabel12092120533D

  0  0  0     0  0            999 V3000
M  V30 BEGIN CTAB
M  V30 COUNTS 2781 2795 0 0 0
M  V30 BEGIN ATOM
M  V30 1 H -0.908 1.98254 -0.117106 0
M  V30 2 N 0 1.576 0 0
M  V30 3 C 0.933 2.03868 1.02534 0
M  V30 4 C 1.911 0.928543 1.3348 0
M  V30 5 O 3.095 1.19667 1.45644 0
M  V30 6 C 0.222 2.43627 2.35294 0
M  V30 7 C -0.732 3.65373 2.2001 0
M  V30 8 S 0.101 5.13292 1.52614 0
M  V30 9 C 1.257 5.56322 2.86805 0
M  V30 10 H 1.49 2.90518 0.631377 0
M  V30 11 H -0.977 1.52953 0.210867 0
M  V30 12 H 0.981 2.67203 3.11629 0
M  V30 13 H -0.358 1.57376 2.7183 0
M  V30 14 H -1.165 3.90944 3.18086 0
M  V30 15 H -1.563 3.418 1.51819 0
M  V30 16 H 0.729 5.58782 3.83104 0
M  V30 17 H 1.672 6.56266 2.65933 0
M  V30 18 H 2.08 4.83886 2.90714 0
M  V30 19 N 1.4781 -0.272755 1.55222 0
M  V30 20 C 2.7261 -1.00234 1.75492 0
M  V30 21 C 3.0471 -1.8681 0.5592 0
M  V30 22 O 2.3171 -1.91215 -0.425882 0
M  V30 23 H 0.8971 -0.373076 0.647166 0
M  V30 24 H 3.5591 -0.296926 1.92625 0
M  V30 25 H 2.6551 -1.63913 2.65592 0
M  V30 26 N 2.9562 -1.48159 -0.537278 0
M  V30 27 C 4.1962 -1.57397 -1.30405 0
M  V30 28 C 4.5602 -0.239202 -1.90504 0
M  V30 29 O 5.7612 -0.206528 -2.68005 0
M  V30 30 C 4.0322 -2.6754 -2.36974 0
M  V30 31 S 5.5912 -2.96496 -3.23475 0
M  V30 32 H 2.4092 -0.555577 -0.443684 0
M  V30 33 H 5.0112 -1.85644 -0.612912 0
M  V30 34 H 3.7152 -3.63092 -1.91291 0
M  V30 35 H 3.2462 -2.41172 -3.10805 0
M  V30 36 H 5.2612 -2.35234 -4.36897 0
M  V30 37 N 4.4343 0.785586 -1.36625 0
M  V30 38 C 5.6593 1.57963 -1.34397 0
M  V30 39 C 6.0843 1.87964 0.071526 0
M  V30 40 O 5.4423 1.48182 1.0446 0
M  V30 41 C 5.4903 2.87511 -2.17646 0
M  V30 42 O 4.5943 3.81281 -1.57158 0
M  V30 43 H 3.9353 0.479014 -0.459828 0
M  V30 44 H 6.4653 0.973411 -1.79961 0
M  V30 45 H 6.4753 3.36745 -2.30362 0
M  V30 46 H 5.1503 2.65002 -3.20541 0
M  V30 47 H 3.7273 3.39885 -1.53403 0
M  V30 48 N 5.9124 1.20967 1.01018 0
M  V30 49 C 7.1604 1.02172 1.74371 0
M  V30 50 C 7.4814 -0.446414 1.89821 0
M  V30 51 O 6.7514 -1.32234 1.44537 0
M  V30 52 H 5.3314 0.375066 0.646014 0
M  V30 53 H 7.9934 1.52187 1.21758 0
M  V30 54 H 7.0894 1.48538 2.74487 0
M  V30 55 N 7.3905 -1.2043 1.01659 0
M  V30 56 C 8.6305 -1.91507 0.714456 0
M  V30 57 C 8.9945 -1.77073 -0.742237 0
M  V30 58 O 10.1955 -2.42631 -1.15688 0
M  V30 59 C 8.4665 -3.38795 1.13809 0
M  V30 60 S 10.0255 -4.28216 0.957925 0
M  V30 61 H 6.8435 -0.661571 0.260471 0
M  V30 62 H 9.4455 -1.45671 1.30384 0
M  V30 63 H 8.1495 -3.46822 2.19415 0
M  V30 64 H 7.6805 -3.89656 0.541474 0
M  V30 65 H 9.6955 -4.96007 -0.138531 0
M  V30 66 N 8.8686 -0.792821 -1.36206 0
M  V30 67 C 10.0936 -0.377701 -2.03932 0
M  V30 68 C 10.5186 0.998947 -1.59382 0
M  V30 69 O 9.8766 1.64421 -0.763903 0
M  V30 70 C 9.9246 -0.453635 -3.57735 0
M  V30 71 O 9.0286 0.538151 -4.08874 0
M  V30 72 H 8.3696 -0.159855 -0.644471 0
M  V30 73 H 10.8996 -1.07488 -1.7409 0
M  V30 74 H 10.9096 -0.318464 -4.06755 0
M  V30 75 H 9.5846 -1.45784 -3.89512 0
M  V30 76 H 8.1616 0.364359 -3.71116 0
M  V30 77 N 10.3467 1.47872 -0.545128 0
M  V30 78 C 11.5947 2.02093 -0.016553 0
M  V30 79 C 11.9157 1.42305 1.3332 0
M  V30 80 O 11.1857 0.593853 1.86682 0
M  V30 81 H 9.7657 0.746993 -0.00313038 0
M  V30 82 H 12.4277 1.81414 -0.712397 0
M  V30 83 H 11.5237 3.11996 0.0805422 0
M  V30 84 N 11.8248 0.280983 1.55075 0
M  V30 85 C 13.0728 -0.333455 1.9933 0
M  V30 86 C 13.3938 -1.55937 1.17085 0
M  V30 87 O 12.6638 -1.94143 0.261805 0
M  V30 88 H 11.2438 -0.126197 0.736263 0
M  V30 89 H 13.9058 0.387678 1.91005 0
M  V30 90 H 13.0018 -0.619292 3.05894 0
M  V30 91 N 13.3029 -1.57598 0.00835791 0
M  V30 92 C 14.5429 -1.92788 -0.679136 0
M  V30 93 C 14.9069 -0.883378 -1.70471 0
M  V30 94 O 16.1079 -1.12079 -2.44319 0
M  V30 95 C 14.3789 -3.32994 -1.29807 0
M  V30 96 S 15.9379 -3.90082 -2.00952 0
M  V30 97 H 12.7559 -0.67475 -0.224127 0
M  V30 98 H 15.3579 -1.95385 0.0670497 0
M  V30 99 H 14.0619 -4.06846 -0.538922 0
M  V30 100 H 13.5929 -3.33791 -2.082 0
M  V30 101 H 15.6079 -3.71834 -3.28563 0
M  V30 102 N 14.781 0.264519 -1.55364 0
M  V30 103 C 16.029 0.993021 -1.76021 0
M  V30 104 C 16.35 1.86511 -0.569099 0
M  V30 105 O 15.62 1.91438 0.415735 0
M  V30 106 H 14.2 0.369639 -0.649135 0
M  V30 107 H 16.862 0.286707 -1.9278 0
M  V30 108 H 15.958 1.62502 -2.66457 0
M  V30 109 N 16.2591 1.48442 0.529413 0
M  V30 110 C 17.4841 1.60406 1.31471 0
M  V30 111 C 17.9091 0.264738 1.86228 0
M  V30 112 O 17.2671 -0.763668 1.64432 0
M  V30 113 C 17.3151 2.65419 2.44101 0
M  V30 114 O 16.4191 2.22618 3.47153 0
M  V30 115 H 15.7601 0.537863 0.389357 0
M  V30 116 H 18.2901 1.94432 0.636965 0
M  V30 117 H 18.3001 2.86709 2.90279 0
M  V30 118 H 16.9751 3.62652 2.03608 0
M  V30 119 H 15.5521 2.11543 3.0709 0
M  V30 120 N 17.7372 -0.778329 1.37039 0
M  V30 121 C 18.9622 -1.57248 1.35233 0
M  V30 122 C 19.3872 -1.87999 -0.0615568 0
M  V30 123 O 18.7452 -1.48734 -1.03672 0
M  V30 124 C 18.7932 -2.86353 2.19167 0
M  V30 125 O 17.8972 -3.80442 1.59178 0
M  V30 126 H 17.2382 -0.476569 0.462362 0
M  V30 127 H 19.7682 -0.963853 1.80474 0
M  V30 128 H 19.7782 -3.35519 2.32145 0
M  V30 129 H 18.4532 -2.63299 3.21942 0
M  V30 130 H 17.0302 -3.39067 1.55203 0
M  V30 131 N 19.2153 -1.21501 -1.00376 0
M  V30 132 C 20.4553 -1.04444 -1.75701 0
M  V30 133 C 20.8193 0.414644 -1.87469 0
M  V30 134 O 22.0203 0.705763 -2.59369 0
M  V30 135 C 20.2913 -1.72389 -3.13077 0
M  V30 136 S 21.8503 -1.70604 -4.04277 0
M  V30 137 H 18.6683 -0.374249 -0.604532 0
M  V30 138 H 21.2703 -1.54267 -1.20091 0
M  V30 139 H 19.9743 -2.77734 -3.02146 0
M  V30 140 H 19.5053 -1.22751 -3.73759 0
M  V30 141 H 21.5203 -0.748012 -4.9053 0
M  V30 142 N 20.6934 1.19889 -1.02296 0
M  V30 143 C 21.9414 1.89046 -0.714558 0
M  V30 144 C 22.2624 1.79636 0.758681 0
M  V30 145 O 21.5324 1.20292 1.54618 0
M  V30 146 H 20.1124 0.699802 -0.261317 0
M  V30 147 H 22.7744 1.45574 -1.29592 0
M  V30 148 H 21.8704 2.95524 -1.0036 0
M  V30 149 N 22.1715 0.800033 1.35784 0
M  V30 150 C 23.4195 0.376597 1.9856 0
M  V30 151 C 23.7405 -1.05812 1.63795 0
M  V30 152 O 23.0105 -1.73103 0.917171 0
M  V30 153 H 21.5905 0.136261 0.734467 0
M  V30 154 H 24.2525 1.02442 1.65806 0
M  V30 155 H 23.3485 0.477002 3.08433 0
M  V30 156 N 23.6496 -1.47581 0.552962 0
M  V30 157 C 24.8896 -2.04379 0.0296245 0
M  V30 158 C 25.2536 -1.4185 -1.29393 0
M  V30 159 O 26.4546 -1.89669 -1.90471 0
M  V30 160 C 24.7256 -3.57339 -0.0661371 0
M  V30 161 S 26.2846 -4.35511 -0.536213 0
M  V30 162 H 23.1026 -0.710625 0.0230991 0
M  V30 163 H 25.7046 -1.81005 0.738734 0
M  V30 164 H 24.4086 -4.00374 0.901596 0
M  V30 165 H 23.9396 -3.85202 -0.798931 0
M  V30 166 H 25.9546 -4.6253 -1.79668 0
M  V30 167 N 25.1277 -0.289203 -1.54924 0
M  V30 168 C 26.3757 0.322879 -1.99504 0
M  V30 169 C 26.6967 1.55313 -1.1791 0
M  V30 170 O 25.9667 1.94001 -0.272097 0
M  V30 171 H 24.5467 0.122291 -0.736922 0
M  V30 172 H 27.2087 -0.397802 -1.90797 0
M  V30 173 H 26.3047 0.603061 -3.06218 0
M  V30 174 N 26.6058 1.57591 -0.0167156 0
M  V30 175 C 27.8308 1.9598 0.67872 0
M  V30 176 C 28.2558 0.892546 1.65575 0
M  V30 177 O 27.6138 -0.147772 1.80697 0
M  V30 178 C 27.6618 3.33468 1.37227 0
M  V30 179 O 26.7658 3.28954 2.48722 0
M  V30 180 H 26.1068 0.639339 0.17928 0
M  V30 181 H 28.6368 2.04463 -0.0748802 0
M  V30 182 H 28.6468 3.69417 1.7319 0
M  V30 183 H 27.3218 4.10694 0.656007 0
M  V30 184 H 25.8988 3.04705 2.14963 0
M  V30 185 N 28.0839 -0.256276 1.55502 0
M  V30 186 C 29.3089 -1.00766 1.81276 0
M  V30 187 C 29.7339 -1.78524 0.59252 0
M  V30 188 O 29.0919 -1.75413 -0.45827 0
M  V30 189 C 29.1399 -1.92869 3.04687 0
M  V30 190 O 28.2439 -3.019 2.80945 0
M  V30 191 H 27.5849 -0.287224 0.598664 0
M  V30 192 H 30.1149 -0.280109 2.02674 0
M  V30 193 H 30.1249 -2.34511 3.33869 0
M  V30 194 H 28.7999 -1.35689 3.93143 0
M  V30 195 H 27.3769 -2.64454 2.62904 0
M  V30 196 N 29.562 -1.4872 -0.521534 0
M  V30 197 C 30.802 -1.58771 -1.28729 0
M  V30 198 C 31.166 -0.259394 -1.9024 0
M  V30 199 O 32.367 -0.234942 -2.67771 0
M  V30 200 C 30.638 -2.70039 -2.34124 0
M  V30 201 S 32.197 -2.9991 -3.20312 0
M  V30 202 H 29.015 -0.560251 -0.437767 0
M  V30 203 H 31.617 -1.86283 -0.593188 0
M  V30 204 H 30.321 -3.65101 -1.87429 0
M  V30 205 H 29.852 -2.44455 -3.08229 0
M  V30 206 H 31.867 -2.39855 -4.34378 0
M  V30 207 N 31.0401 0.771051 -1.3745 0
M  V30 208 C 32.2881 1.52661 -1.32435 0
M  V30 209 C 32.6091 1.9479 0.0905024 0
M  V30 210 O 31.8791 1.66348 1.03466 0
M  V30 211 H 30.4591 0.566218 -0.487244 0
M  V30 212 H 33.1211 0.917636 -1.71946 0
M  V30 213 H 32.2171 2.42568 -1.96385 0
M  V30 214 N 32.5182 1.22032 0.997298 0
M  V30 215 C 33.7662 1.04016 1.73278 0
M  V30 216 C 34.0872 -0.426255 1.90284 0
M  V30 217 O 33.3572 -1.30694 1.45931 0
M  V30 218 H 31.9372 0.381897 0.642 0
M  V30 219 H 34.5992 1.5347 1.20137 0
M  V30 220 H 33.6952 1.51441 2.72896 0
M  V30 221 N 33.9963 -1.19345 1.0293 0
M  V30 222 C 35.2363 -1.90738 0.734727 0
M  V30 223 C 35.6003 -1.7785 -0.723414 0
M  V30 224 O 36.8013 -2.43844 -1.13108 0
M  V30 225 C 35.0723 -3.37569 1.17396 0
M  V30 226 S 36.6313 -4.27176 1.00329 0
M  V30 227 H 33.4493 -0.658771 0.267474 0
M  V30 228 H 36.0513 -1.4428 1.31922 0
M  V30 229 H 34.7553 -3.44475 2.23081 0
M  V30 230 H 34.2863 -3.8906 0.582772 0
M  V30 231 H 36.3013 -4.96126 -0.0859152 0
M  V30 232 N 35.4744 -0.807222 -1.35358 0
M  V30 233 C 36.7224 -0.387122 -1.98358 0
M  V30 234 C 37.0434 1.04942 -1.64354 0
M  V30 235 O 36.3134 1.72615 -0.926339 0
M  V30 236 H 34.8934 -0.140154 -0.733734 0
M  V30 237 H 37.5554 -1.0332 -1.6526 0
M  V30 238 H 36.6514 -0.493352 -3.08176 0
M  V30 239 N 36.9525 1.47285 -0.560781 0
M  V30 240 C 38.1775 2.07359 -0.0410566 0
M  V30 241 C 38.6025 1.41017 1.24483 0
M  V30 242 O 37.9605 0.486368 1.74654 0
M  V30 243 C 38.0085 3.6035 0.134123 0
M  V30 244 O 37.1125 3.94681 1.19587 0
M  V30 245 H 36.4535 0.661887 -0.0529291 0
M  V30 246 H 38.9835 1.89252 -0.777482 0
M  V30 247 H 38.9935 4.0652 0.347207 0
M  V30 248 H 37.6685 4.08034 -0.805047 0
M  V30 249 H 36.2455 3.60251 0.962987 0
M  V30 250 N 38.4306 0.297415 1.54768 0
M  V30 251 C 39.6786 -0.312295 1.99673 0
M  V30 252 C 39.9996 -1.54686 1.18732 0
M  V30 253 O 39.2696 -1.93854 0.282382 0
M  V30 254 H 37.8496 -0.118381 0.73756 0
M  V30 255 H 40.5116 0.407915 1.90583 0
M  V30 256 H 39.6076 -0.586813 3.06534 0
M  V30 257 N 39.9087 -1.5758 0.0250728 0
M  V30 258 C 41.1387 -1.95646 -0.663783 0
M  V30 259 C 41.5467 -0.899935 -1.66427 0
M  V30 260 O 40.8897 0.127191 -1.83259 0
M  V30 261 C 40.9517 -3.29835 -1.43 0
M  V30 262 C 40.6157 -4.53197 -0.588305 0
M  V30 263 C 41.6127 -5.19726 0.13469 0
M  V30 264 C 39.2977 -4.99529 -0.526897 0
M  V30 265 C 41.2917 -6.30902 0.90781 0
M  V30 266 C 38.9787 -6.10589 0.24993 0
M  V30 267 C 39.9767 -6.76134 0.965994 0
M  V30 268 O 39.6647 -7.85062 1.7301 0
M  V30 269 H 39.3967 -0.649282 -0.188174 0
M  V30 270 H 41.9507 -2.05245 0.0799006 0
M  V30 271 H 40.1807 -3.16716 -2.21873 0
M  V30 272 H 41.8697 -3.52833 -2.00658 0
M  V30 273 H 42.6357 -4.84904 0.0965562 0
M  V30 274 H 38.5147 -4.48319 -1.07381 0
M  V30 275 H 42.0587 -6.81995 1.46724 0
M  V30 276 H 37.9557 -6.44849 0.289795 0
M  V30 277 H 38.7237 -8.01708 1.64944 0
M  V30 278 N 41.3868 0.248026 -1.55636 0
M  V30 279 C 42.6348 0.974295 -1.77065 0
M  V30 280 C 42.9558 1.85897 -0.588849 0
M  V30 281 O 42.2258 1.91868 0.395407 0
M  V30 282 H 40.8058 0.362733 -0.653019 0
M  V30 283 H 43.4678 0.266244 -1.93073 0
M  V30 284 H 42.5638 1.59667 -2.68166 0
M  V30 285 N 42.8649 1.48995 0.513639 0
M  V30 286 C 44.1129 1.57531 1.26604 0
M  V30 287 C 44.4339 0.258236 1.93283 0
M  V30 288 O 43.7039 -0.721502 1.8213 0
M  V30 289 H 42.2839 0.580387 0.470276 0
M  V30 290 H 44.9459 1.85552 0.596373 0
M  V30 291 H 44.0419 2.36486 2.03669 0
M  V30 292 N 44.343 -0.763751 1.37857 0
M  V30 293 C 45.583 -1.53551 1.34913 0
M  V30 294 C 45.947 -1.91895 -0.0635882 0
M  V30 295 O 47.148 -2.67916 -0.217825 0
M  V30 296 C 45.419 -2.76126 2.26912 0
M  V30 297 S 46.978 -3.66105 2.41893 0
M  V30 298 H 43.796 -0.52559 0.478828 0
M  V30 299 H 46.398 -0.897435 1.73685 0
M  V30 300 H 45.102 -2.4605 3.28463 0
M  V30 301 H 44.633 -3.44887 1.89253 0
M  V30 302 H 46.648 -4.68473 1.63545 0
M  V30 303 N 45.8211 -1.22559 -0.990812 0
M  V30 304 C 47.0691 -1.04933 -1.72724 0
M  V30 305 C 47.3901 0.416158 -1.90508 0
M  V30 306 O 46.6601 1.29918 -1.46622 0
M  V30 307 H 45.2401 -0.385296 -0.639965 0
M  V30 308 H 47.9021 -1.54105 -1.19322 0
M  V30 309 H 46.9981 -1.52886 -2.72089 0
M  V30 310 N 47.2992 1.18797 -1.03562 0
M  V30 311 C 48.5242 1.9314 -0.755764 0
M  V30 312 C 48.9492 1.7537 0.68022 0
M  V30 313 O 48.3072 1.06046 1.47051 0
M  V30 314 C 48.3552 3.42747 -1.12058 0
M  V30 315 O 47.4592 4.11683 -0.243124 0
M  V30 316 H 46.8002 0.602724 -0.278604 0
M  V30 317 H 49.3302 1.50678 -1.3841 0
M  V30 318 H 49.3402 3.93437 -1.08035 0
M  V30 319 H 48.0152 3.55002 -2.16672 0
M  V30 320 H 46.5922 3.71323 -0.342539 0
M  V30 321 N 48.7773 0.814389 1.34928 0
M  V30 322 C 50.0253 0.397636 1.9815 0
M  V30 323 C 50.3463 -1.04069 1.64908 0
M  V30 324 O 49.6163 -1.72121 0.93548 0
M  V30 325 H 48.1963 0.144043 0.732981 0
M  V30 326 H 50.8583 1.04195 1.6471 0
M  V30 327 H 49.9543 0.509688 3.0791 0
M  V30 328 N 50.2554 -1.46986 0.568584 0
M  V30 329 C 51.4954 -2.04336 0.0512999 0
M  V30 330 C 51.8594 -1.43214 -1.27881 0
M  V30 331 O 53.0604 -1.91679 -1.88448 0
M  V30 332 C 51.3314 -3.57389 -0.0282328 0
M  V30 333 S 52.8904 -4.36056 -0.489991 0
M  V30 334 H 49.7084 -0.71034 0.0306349 0
M  V30 335 H 52.3104 -1.80212 0.757891 0
M  V30 336 H 51.0144 -3.99395 0.944011 0
M  V30 337 H 50.5454 -3.86028 -0.75803 0
M  V30 338 H 52.5604 -4.6441 -1.74752 0
M  V30 339 N 51.7335 -0.305618 -1.54608 0
M  V30 340 C 52.9735 0.303114 -2.0214 0
M  V30 341 C 53.3375 1.50737 -1.18921 0
M  V30 342 O 54.5385 2.18778 -1.56172 0
M  V30 343 C 52.8095 0.646332 -3.51507 0
M  V30 344 S 54.3685 1.23727 -4.20995 0
M  V30 345 H 51.1865 0.0927643 -0.704923 0
M  V30 346 H 53.7885 -0.434566 -1.90609 0
M  V30 347 H 52.4925 -0.238541 -4.09706 0
M  V30 348 H 52.0235 1.41468 -3.67084 0
M  V30 349 H 54.0385 2.52489 -4.27158 0
M  V30 350 N 53.2116 1.57565 -0.0334293 0
M  V30 351 C 54.4576 1.92262 0.645226 0
M  V30 352 C 54.7906 0.910543 1.71531 0
M  V30 353 O 54.0656 -0.066099 1.94388 0
M  V30 354 C 54.3486 3.37422 1.2577 0
M  V30 355 C 54.2016 4.49369 0.196891 0
M  V30 356 C 55.5206 3.82628 2.17449 0
M  V30 357 H 52.6396 0.699171 0.233085 0
M  V30 358 H 55.2816 1.89779 -0.0915694 0
M  V30 359 H 53.4316 3.39669 1.88566 0
M  V30 360 H 55.1036 4.59254 -0.433962 0
M  V30 361 H 53.3466 4.31168 -0.477137 0
M  V30 362 H 54.0176 5.47978 0.665124 0
M  V30 363 H 56.4936 3.82145 1.64634 0
M  V30 364 H 55.3696 4.84883 2.57254 0
M  V30 365 H 55.6306 3.18376 3.0674 0
M  V30 366 N 54.6897 -0.239769 1.55765 0
M  V30 367 C 56.1007 -0.808263 1.68297 0
M  V30 368 C 56.4517 -1.85736 0.632181 0
M  V30 369 O 55.5767 -2.15277 -0.220204 0
M  V30 370 C 56.1717 -1.47284 3.05111 0
M  V30 371 C 54.7307 -1.98895 3.19559 0
M  V30 372 C 53.8777 -0.842575 2.64189 0
M  V30 373 H 56.8287 -0.0154422 1.58692 0
M  V30 374 H 56.8497 -2.34111 2.99954 0
M  V30 375 H 56.3617 -0.709053 3.81568 0
M  V30 376 H 54.4627 -2.78132 2.47938 0
M  V30 377 H 54.5757 -2.18143 4.26556 0
M  V30 378 H 52.9397 -1.24501 2.22197 0
M  V30 379 H 53.7227 -0.0917552 3.43177 0
M  V30 380 N 56.1678 -1.49265 -0.50573 0
M  V30 381 C 57.4138 -1.58748 -1.26202 0
M  V30 382 C 57.7468 -0.271227 -1.92297 0
M  V30 383 O 57.0218 0.724831 -1.80489 0
M  V30 384 C 57.3048 -2.74332 -2.33268 0
M  V30 385 C 57.1578 -4.15737 -1.71705 0
M  V30 386 C 58.4768 -2.85576 -3.34865 0
M  V30 387 H 55.5958 -0.577826 -0.457478 0
M  V30 388 H 58.2378 -1.81532 -0.560897 0
M  V30 389 H 56.3878 -2.55036 -2.93068 0
M  V30 390 H 58.0598 -4.46537 -1.15769 0
M  V30 391 H 56.3028 -4.21605 -1.02135 0
M  V30 392 H 56.9738 -4.92477 -2.49341 0
M  V30 393 H 59.4498 -3.03127 -2.8505 0
M  V30 394 H 58.3258 -3.68135 -4.07146 0
M  V30 395 H 58.5868 -1.94732 -3.96903 0
M  V30 396 N 57.6459 0.756429 -1.3826 0
M  V30 397 C 58.8859 1.52833 -1.35725 0
M  V30 398 C 59.2499 1.91926 0.0534106 0
M  V30 399 O 60.4509 2.68028 0.203613 0
M  V30 400 C 58.7219 2.74919 -2.28373 0
M  V30 401 S 60.2809 3.64817 -2.43832 0
M  V30 402 H 57.0989 0.523043 -0.481608 0
M  V30 403 H 59.7009 0.888212 -1.74158 0
M  V30 404 H 58.4049 2.44304 -3.29763 0
M  V30 405 H 57.9359 3.43878 -1.91079 0
M  V30 406 H 59.9509 4.676 -1.66027 0
M  V30 407 N 59.124 1.23083 0.984299 0
M  V30 408 C 60.364 1.07226 1.74017 0
M  V30 409 C 60.728 -0.384766 1.88105 0
M  V30 410 O 61.929 -0.664411 2.60459 0
M  V30 411 C 60.2 1.77348 3.10294 0
M  V30 412 S 61.759 1.77014 4.01512 0
M  V30 413 H 58.577 0.383819 0.598502 0
M  V30 414 H 61.179 1.56158 1.17622 0
M  V30 415 H 59.883 2.82506 2.97689 0
M  V30 416 H 59.414 1.28682 3.71759 0
M  V30 417 H 61.429 0.825956 4.89277 0
M  V30 418 N 60.6021 -1.18246 1.0419 0
M  V30 419 C 61.8421 -1.89948 0.754916 0
M  V30 420 C 62.2061 -1.78608 -0.70451 0
M  V30 421 O 63.4071 -2.4503 -1.10516 0
M  V30 422 C 61.6781 -3.36305 1.20969 0
M  V30 423 S 63.2371 -4.26088 1.04854 0
M  V30 424 H 60.0551 -0.655897 0.274446 0
M  V30 425 H 62.6571 -1.42873 1.33445 0
M  V30 426 H 61.3611 -3.42089 2.26722 0
M  V30 427 H 60.8921 -3.8842 0.624004 0
M  V30 428 H 62.9071 -4.96189 -0.0332896 0
M  V30 429 N 62.0802 -0.821533 -1.34494 0
M  V30 430 C 63.0272 -0.240397 -2.29545 0
M  V30 431 C 63.9972 0.634031 -1.53523 0
M  V30 432 O 65.1822 0.575966 -1.81899 0
M  V30 433 C 62.3222 0.592869 -3.39969 0
M  V30 434 C 61.4352 -0.30365 -4.30932 0
M  V30 435 C 60.5702 0.539049 -5.28458 0
M  V30 436 C 59.6092 -0.356942 -6.11058 0
M  V30 437 N 58.7462 0.446603 -7.00678 0
M  V30 438 H 63.5862 -1.05632 -2.7865 0
M  V30 439 H 61.1232 -0.532413 -1.37127 0
M  V30 440 H 63.0812 1.09129 -4.02675 0
M  V30 441 H 61.7112 1.37392 -2.92102 0
M  V30 442 H 60.7632 -0.920276 -3.691 0
M  V30 443 H 62.0752 -0.992661 -4.88823 0
M  V30 444 H 61.2292 1.102 -5.96608 0
M  V30 445 H 59.9682 1.26157 -4.71101 0
M  V30 446 H 58.9732 -0.932047 -5.41842 0
M  V30 447 H 60.1982 -1.07755 -6.70497 0
M  V30 448 H 58.1442 1.15282 -6.45791 0
M  V30 449 H 58.0612 -0.184048 -7.55776 0
M  V30 450 H 59.3292 0.992352 -7.73158 0
M  V30 451 N 63.5583 1.46682 -0.576371 0
M  V30 452 C 64.9693 1.86112 -0.148091 0
M  V30 453 C 65.3203 1.48073 1.2872 0
M  V30 454 O 64.4453 0.892656 1.97131 0
M  V30 455 C 65.0403 3.37786 -0.261982 0
M  V30 456 C 63.5993 3.76235 0.111384 0
M  V30 457 C 62.7463 2.70713 -0.60083 0
M  V30 458 H 65.6973 1.37927 -0.78497 0
M  V30 459 H 65.7183 3.77007 0.514364 0
M  V30 460 H 65.2303 3.6544 -1.30671 0
M  V30 461 H 63.3313 3.54198 1.15649 0
M  V30 462 H 63.4443 4.78391 -0.26052 0
M  V30 463 H 61.8083 2.54666 -0.0417783 0
M  V30 464 H 62.5913 3.01208 -1.64708 0
M  V30 465 N 65.0364 0.313813 1.54444 0
M  V30 466 C 66.2824 -0.292108 2.00685 0
M  V30 467 C 66.6154 -1.52548 1.20177 0
M  V30 468 O 65.8904 -1.92452 0.281531 0
M  V30 469 C 66.1734 -0.635968 3.5444 0
M  V30 470 C 66.0264 0.607437 4.4568 0
M  V30 471 C 67.3454 -1.45747 4.15266 0
M  V30 472 H 64.4644 -0.104697 0.729526 0
M  V30 473 H 67.1064 0.428457 1.85106 0
M  V30 474 H 65.2564 -1.24986 3.67846 0
M  V30 475 H 66.9284 1.24581 4.44159 0
M  V30 476 H 65.1714 1.23822 4.15753 0
M  V30 477 H 65.8424 0.322515 5.51057 0
M  V30 478 H 68.3184 -0.938645 4.05375 0
M  V30 479 H 67.1944 -1.66683 5.2298 0
M  V30 480 H 67.4554 -2.45063 3.67963 0
M  V30 481 N 66.5145 -1.57545 0.0417849 0
M  V30 482 C 67.7545 -1.94185 -0.63809 0
M  V30 483 C 68.1185 -0.919339 -1.68559 0
M  V30 484 O 69.3195 -1.17236 -2.41886 0
M  V30 485 C 67.5905 -3.35672 -1.22714 0
M  V30 486 S 69.1495 -3.94256 -1.92633 0
M  V30 487 H 65.9675 -0.679353 -0.209764 0
M  V30 488 H 68.5695 -1.95199 0.108479 0
M  V30 489 H 67.2735 -4.07898 -0.452503 0
M  V30 490 H 66.8045 -3.38132 -2.01073 0
M  V30 491 H 68.8195 -3.7872 -3.20602 0
M  V30 492 N 67.9926 0.231505 -1.5589 0
M  V30 493 C 69.2326 0.964533 -1.80211 0
M  V30 494 C 69.5966 1.81926 -0.613744 0
M  V30 495 O 70.7976 2.58526 -0.736045 0
M  V30 496 C 69.0686 1.78956 -3.09369 0
M  V30 497 S 70.6276 2.57959 -3.54969 0
M  V30 498 H 67.4456 0.324173 -0.632798 0
M  V30 499 H 70.0476 0.230985 -1.94131 0
M  V30 500 H 68.7516 1.15161 -3.93911 0
M  V30 501 H 68.2826 2.56559 -2.9823 0
M  V30 502 H 70.2976 3.81309 -3.17519 0
M  V30 503 N 69.4707 1.49531 0.497807 0
M  V30 504 C 70.7107 1.60799 1.26187 0
M  V30 505 C 71.0747 0.289627 1.89803 0
M  V30 506 O 72.2757 0.277512 2.67364 0
M  V30 507 C 70.5467 2.73729 2.29798 0
M  V30 508 S 72.1057 3.04968 3.155 0
M  V30 509 H 68.9237 0.567145 0.428798 0
M  V30 510 H 71.5257 1.87204 0.563477 0
M  V30 511 H 70.2297 3.68036 1.81597 0
M  V30 512 H 69.7607 2.49328 3.04301 0
M  V30 513 H 71.7757 2.46735 4.30507 0
M  V30 514 N 70.9488 -0.749086 1.3866 0
M  V30 515 C 72.1948 -1.51056 1.35314 0
M  V30 516 C 72.5278 -1.94121 -0.0553751 0
M  V30 517 O 71.8028 -1.65763 -1.01749 0
M  V30 518 C 72.0858 -2.76003 2.31288 0
M  V30 519 C 71.9388 -2.39047 3.8102 0
M  V30 520 C 73.2578 -3.78046 2.2532 0
M  V30 521 H 70.3768 -0.547972 0.492844 0
M  V30 522 H 73.0188 -0.857628 1.69543 0
M  V30 523 H 71.1688 -3.31716 2.02229 0
M  V30 524 H 72.8408 -1.89074 4.20771 0
M  V30 525 H 71.0838 -1.71449 3.98482 0
M  V30 526 H 71.7548 -3.28462 4.4364 0
M  V30 527 H 74.2308 -3.31884 2.50983 0
M  V30 528 H 73.1068 -4.63159 2.94576 0
M  V30 529 H 73.3678 -4.23957 1.25352 0
M  V30 530 N 72.4269 -1.23603 -0.977757 0
M  V30 531 C 73.8379 -1.06424 -1.53398 0
M  V30 532 C 74.1889 0.367578 -1.92726 0
M  V30 533 O 73.3139 1.25465 -1.76316 0
M  V30 534 C 73.9089 -1.92568 -2.78753 0
M  V30 535 C 72.4679 -1.79642 -3.30765 0
M  V30 536 C 71.6149 -1.88111 -2.03739 0
M  V30 537 H 74.5659 -1.37227 -0.797152 0
M  V30 538 H 74.5869 -1.45203 -3.51705 0
M  V30 539 H 74.0989 -2.96771 -2.50098 0
M  V30 540 H 72.1999 -0.782325 -3.64294 0
M  V30 541 H 72.3129 -2.63174 -4.00345 0
M  V30 542 H 70.6769 -1.31723 -2.17994 0
M  V30 543 H 71.4599 -2.93875 -1.77461 0
M  V30 544 N 73.905 1.17692 -1.04816 0
M  V30 545 C 74.868 2.19787 -0.650117 0
M  V30 546 C 75.868 1.58044 0.296427 0
M  V30 547 O 77.058 1.74012 0.0808097 0
M  V30 548 C 74.19 3.40869 0.0456987 0
M  V30 549 H 75.383 2.56516 -1.5537 0
M  V30 550 H 72.936 1.31708 -0.841594 0
M  V30 551 H 73.671 3.09681 0.962726 0
M  V30 552 H 73.456 3.86928 -0.634727 0
M  V30 553 H 74.946 4.16445 0.310432 0
M  V30 554 N 75.3831 0.828654 1.34056 0
M  V30 555 C 76.6231 0.425394 1.99924 0
M  V30 556 C 76.9871 -0.994294 1.64249 0
M  V30 557 O 78.1881 -1.50074 2.23005 0
M  V30 558 C 76.4591 0.628071 3.51838 0
M  V30 559 S 78.0181 0.318511 4.37642 0
M  V30 560 H 74.8361 0.160465 0.692656 0
M  V30 561 H 77.4381 1.07572 1.63244 0
M  V30 562 H 76.1421 1.66089 3.7529 0
M  V30 563 H 75.6731 -0.0367799 3.93383 0
M  V30 564 H 77.6881 -0.865632 4.88591 0
M  V30 565 N 76.8612 -1.46375 0.584142 0
M  V30 566 C 78.0862 -2.07268 0.0740405 0
M  V30 567 C 78.5112 -1.42979 -1.22223 0
M  V30 568 O 77.8692 -0.514092 -1.73859 0
M  V30 569 C 77.9172 -3.60518 -0.0767769 0
M  V30 570 O 77.0212 -3.96533 -1.13292 0
M  V30 571 H 76.3622 -0.660961 0.0634524 0
M  V30 572 H 78.8922 -1.87991 0.807492 0
M  V30 573 H 78.9022 -4.07021 -0.282489 0
M  V30 574 H 77.5772 -4.06702 0.86986 0
M  V30 575 H 76.1542 -3.61738 -0.905553 0
M  V30 576 N 78.3393 -0.321999 -1.54275 0
M  V30 577 C 79.5793 0.281657 -2.0245 0
M  V30 578 C 79.9433 1.49468 -1.20513 0
M  V30 579 O 81.1443 2.17109 -1.58484 0
M  V30 580 C 79.4153 0.609014 -3.52173 0
M  V30 581 S 80.9743 1.19255 -4.22284 0
M  V30 582 H 77.7923 0.0852825 -0.705867 0
M  V30 583 H 80.3943 -0.454758 -1.90137 0
M  V30 584 H 79.0983 -0.281982 -4.0943 0
M  V30 585 H 78.6293 1.37567 -3.68563 0
M  V30 586 H 80.6443 2.47944 -4.29812 0
M  V30 587 N 79.8174 1.5752 -0.0501392 0
M  V30 588 C 81.0424 1.97376 0.636997 0
M  V30 589 C 81.4674 0.927466 1.63645 0
M  V30 590 O 80.8254 -0.10941 1.8097 0
M  V30 591 C 80.8734 3.36304 1.30123 0
M  V30 592 O 79.9774 3.34156 2.41689 0
M  V30 593 H 79.3184 0.642998 0.165679 0
M  V30 594 H 81.8484 2.04258 -0.118233 0
M  V30 595 H 81.8584 3.73008 1.65315 0
M  V30 596 H 80.5334 4.11993 0.568746 0
M  V30 597 H 79.1104 3.09196 2.08451 0
M  V30 598 N 81.2955 -0.223234 1.56011 0
M  V30 599 C 82.5205 -0.968978 1.83373 0
M  V30 600 C 82.9455 -1.77227 0.630254 0
M  V30 601 O 82.3035 -1.76345 -0.420959 0
M  V30 602 C 82.3515 -1.86363 3.08709 0
M  V30 603 O 81.4555 -2.95873 2.87285 0
M  V30 604 H 80.7965 -0.274461 0.604622 0
M  V30 605 H 83.3265 -0.237056 2.03222 0
M  V30 606 H 83.3365 -2.27376 3.38768 0
M  V30 607 H 82.0115 -1.27319 3.95933 0
M  V30 608 H 80.5885 -2.58818 2.68454 0
M  V30 609 N 82.7736 -1.49793 -0.48987 0
M  V30 610 C 84.0136 -1.61466 -1.25332 0
M  V30 611 C 84.3776 -0.299688 -1.89647 0
M  V30 612 O 85.5786 -0.291687 -2.67213 0
M  V30 613 C 83.8496 -2.74944 -2.28343 0
M  V30 614 S 85.4086 -3.06637 -3.13878 0
M  V30 615 H 82.2266 -0.569411 -0.425784 0
M  V30 616 H 84.8286 -1.875 -0.553541 0
M  V30 617 H 83.5326 -3.68994 -1.79643 0
M  V30 618 H 83.0636 -2.50938 -3.02975 0
M  V30 619 H 85.0786 -2.49015 -4.29192 0
M  V30 620 N 84.2517 0.741722 -1.39055 0
M  V30 621 C 85.4997 1.49818 -1.35643 0
M  V30 622 C 85.8207 1.94938 0.0491642 0
M  V30 623 O 85.0907 1.68505 0.999141 0
M  V30 624 H 83.6707 0.555755 -0.499144 0
M  V30 625 H 86.3327 0.880957 -1.73854 0
M  V30 626 H 85.4287 2.38348 -2.01486 0
M  V30 627 N 85.7298 1.2412 0.971189 0
M  V30 628 C 86.9548 1.10667 1.75407 0
M  V30 629 C 87.3798 -0.337048 1.85056 0
M  V30 630 O 86.7378 -1.24396 1.31892 0
M  V30 631 C 86.7858 1.74726 3.15441 0
M  V30 632 O 85.8898 1.01566 3.99697 0
M  V30 633 H 85.2308 0.387341 0.539317 0
M  V30 634 H 87.7608 1.64358 1.2185 0
M  V30 635 H 87.7708 1.80341 3.6598 0
M  V30 636 H 86.4458 2.79773 3.07734 0
M  V30 637 H 85.0228 1.03713 3.58187 0
M  V30 638 N 87.2079 -1.17134 1.05439 0
M  V30 639 C 88.4479 -1.89137 0.77502 0
M  V30 640 C 88.8119 -1.79345 -0.685526 0
M  V30 641 O 90.0129 -2.46188 -1.0791 0
M  V30 642 C 88.2839 -3.35003 1.2453 0
M  V30 643 S 89.8429 -4.24952 1.09367 0
M  V30 644 H 86.6609 -0.652949 0.281387 0
M  V30 645 H 89.2629 -1.4145 1.34953 0
M  V30 646 H 87.9669 -3.39666 2.30338 0
M  V30 647 H 87.4979 -3.87736 0.665166 0
M  V30 648 H 89.5129 -4.96196 0.0193397 0
M  V30 649 N 88.686 -0.835752 -1.33615 0
M  V30 650 C 89.934 -0.429109 -1.97492 0
M  V30 651 C 90.255 1.01433 -1.66543 0
M  V30 652 O 89.525 1.70611 -0.962744 0
M  V30 653 H 88.105 -0.155686 -0.730596 0
M  V30 654 H 90.767 -1.06802 -1.63031 0
M  V30 655 H 89.863 -0.55861 -3.0706 0
M  V30 656 N 90.1641 1.46063 -0.591896 0
M  V30 657 C 91.4121 2.01938 -0.0808391 0
M  V30 658 C 91.7331 1.46475 1.28725 0
M  V30 659 O 91.0031 0.652944 1.84698 0
M  V30 660 H 89.5831 0.746516 -0.0268938 0
M  V30 661 H 92.2451 1.79055 -0.769752 0
M  V30 662 H 91.3411 3.12094 -0.0187578 0
M  V30 663 N 91.6422 0.330177 1.54103 0
M  V30 664 C 92.8672 -0.274893 2.0557 0
M  V30 665 C 93.2922 -1.44487 1.20437 0
M  V30 666 O 92.6502 -1.80021 0.214991 0
M  V30 667 C 92.6982 -0.68079 3.54115 0
M  V30 668 O 91.8022 -1.7824 3.71893 0
M  V30 669 H 91.1432 -0.0483849 0.662235 0
M  V30 670 H 93.6732 0.480508 1.98878 0
M  V30 671 H 93.6832 -0.961635 3.96505 0
M  V30 672 H 92.3582 0.174903 4.15532 0
M  V30 673 H 90.9352 -1.49985 3.41407 0
M  V30 674 N 93.1203 -1.57491 0.0584922 0
M  V30 675 C 94.0673 -2.11958 -0.913376 0
M  V30 676 C 95.0373 -1.02875 -1.30407 0
M  V30 677 O 96.2223 -1.30464 -1.39226 0
M  V30 678 C 93.3623 -2.67497 -2.18035 0
M  V30 679 C 92.4753 -3.90691 -1.84349 0
M  V30 680 C 91.6103 -4.3452 -3.05559 0
M  V30 681 C 90.6493 -5.50395 -2.67827 0
M  V30 682 N 89.7863 -5.89244 -3.81754 0
M  V30 683 H 94.6263 -2.94704 -0.442017 0
M  V30 684 H 92.1633 -1.45643 -0.206545 0
M  V30 685 H 94.1213 -2.978 -2.92183 0
M  V30 686 H 92.7513 -1.87537 -2.62735 0
M  V30 687 H 91.8033 -3.66934 -1.00319 0
M  V30 688 H 93.1153 -4.7489 -1.5258 0
M  V30 689 H 92.2693 -4.66414 -3.87998 0
M  V30 690 H 91.0083 -3.49147 -3.40511 0
M  V30 691 H 90.0133 -5.18165 -1.83806 0
M  V30 692 H 91.2383 -6.3749 -2.34059 0
M  V30 693 H 89.1843 -5.06823 -4.16493 0
M  V30 694 H 89.1013 -6.68151 -3.53708 0
M  V30 695 H 90.3693 -6.25756 -4.64811 0
M  V30 696 N 94.5984 0.214957 -1.56127 0
M  V30 697 C 95.8464 0.936518 -1.79091 0
M  V30 698 C 96.1674 1.84606 -0.628148 0
M  V30 699 O 95.4374 1.92664 0.35462 0
M  V30 700 H 94.0174 0.3488 -0.660566 0
M  V30 701 H 96.6794 0.22523 -1.93594 0
M  V30 702 H 95.7754 1.53943 -2.71492 0
M  V30 703 N 96.0765 1.50051 0.48192 0
M  V30 704 C 97.3225 1.60736 1.2366 0
M  V30 705 C 97.6555 0.301786 1.91841 0
M  V30 706 O 96.9305 -0.696025 1.8162 0
M  V30 707 C 97.2135 2.78009 2.28874 0
M  V30 708 C 97.0665 4.18416 1.65069 0
M  V30 709 C 98.3855 2.90867 3.30279 0
M  V30 710 H 95.5045 0.585031 0.448228 0
M  V30 711 H 98.1465 1.82402 0.531946 0
M  V30 712 H 96.2965 2.59667 2.88973 0
M  V30 713 H 97.9685 4.48322 1.0865 0
M  V30 714 H 96.2115 4.23177 0.954148 0
M  V30 715 H 96.8825 4.96381 2.41474 0
M  V30 716 H 99.3585 3.07623 2.80191 0
M  V30 717 H 98.2345 3.74566 4.01238 0
M  V30 718 H 98.4955 2.01021 3.93755 0
M  V30 719 N 97.5546 -0.734337 1.39446 0
M  V30 720 C 98.7946 -1.50655 1.38139 0
M  V30 721 C 99.1586 -1.91986 -0.0228701 0
M  V30 722 O 100.36 -2.68318 -0.160947 0
M  V30 723 C 98.6306 -2.71251 2.32718 0
M  V30 724 S 100.19 -3.60892 2.49605 0
M  V30 725 H 97.0076 -0.515315 0.489869 0
M  V30 726 H 99.6096 -0.860392 1.75549 0
M  V30 727 H 98.3136 -2.39027 3.33608 0
M  V30 728 H 97.8446 -3.40795 1.96526 0
M  V30 729 H 99.8596 -4.64899 1.73446 0
M  V30 730 N 99.0327 -1.24633 -0.964593 0
M  V30 731 C 100.281 -1.08573 -1.70459 0
M  V30 732 C 100.602 0.375655 -1.91347 0
M  V30 733 O 99.8717 1.26779 -1.49345 0
M  V30 734 H 98.4517 -0.398784 -0.631649 0
M  V30 735 H 101.114 -1.56601 -1.16026 0
M  V30 736 H 100.21 -1.58623 -2.68785 0
M  V30 737 N 100.511 1.16574 -1.06058 0
M  V30 738 C 101.736 1.91493 -0.796562 0
M  V30 739 C 102.161 1.76773 0.642868 0
M  V30 740 O 101.519 1.09142 1.44768 0
M  V30 741 C 101.567 3.40293 -1.19303 0
M  V30 742 O 100.671 4.11074 -0.330394 0
M  V30 743 H 100.012 0.596678 -0.291326 0
M  V30 744 H 102.542 1.47708 -1.41575 0
M  V30 745 H 102.552 3.91057 -1.16356 0
M  V30 746 H 101.227 3.50326 -2.24153 0
M  V30 747 H 99.8038 3.70513 -0.421225 0
M  V30 748 N 101.989 0.842826 1.3317 0
M  V30 749 C 103.229 0.446574 1.99462 0
M  V30 750 C 103.593 -0.976818 1.65295 0
M  V30 751 O 104.794 -1.477 2.24584 0
M  V30 752 C 103.065 0.665353 3.51152 0
M  V30 753 S 104.624 0.364911 4.3728 0
M  V30 754 H 101.442 0.167803 0.690915 0
M  V30 755 H 104.044 1.09297 1.62094 0
M  V30 756 H 102.748 1.7006 3.73507 0
M  V30 757 H 102.279 0.00494568 3.934 0
M  V30 758 H 104.294 -0.813761 4.89482 0
M  V30 759 N 103.467 -1.45747 0.599634 0
M  V30 760 C 104.715 -2.01893 0.0915472 0
M  V30 761 C 105.036 -1.47155 -1.27946 0
M  V30 762 O 104.306 -0.66273 -1.84349 0
M  V30 763 H 102.886 -0.746363 0.0308524 0
M  V30 764 H 105.548 -1.78645 0.779237 0
M  V30 765 H 104.644 -3.1208 0.0353086 0
M  V30 766 N 104.945 -0.338344 -1.53925 0
M  V30 767 C 106.193 0.259245 -2.0043 0
M  V30 768 C 106.514 1.51484 -1.22791 0
M  V30 769 O 105.784 1.93037 -0.33368 0
M  V30 770 H 104.364 0.0987845 -0.740439 0
M  V30 771 H 107.026 -0.458302 -1.89435 0
M  V30 772 H 106.122 0.505334 -3.07982 0
M  V30 773 N 106.423 1.57458 -0.0668435 0
M  V30 774 C 107.663 1.95175 0.607116 0
M  V30 775 C 108.027 0.946039 1.67075 0
M  V30 776 O 109.228 1.2107 2.39991 0
M  V30 777 C 107.499 3.37582 1.17358 0
M  V30 778 S 109.058 3.97271 1.86336 0
M  V30 779 H 105.876 0.682604 0.19893 0
M  V30 780 H 108.478 1.95002 -0.139519 0
M  V30 781 H 107.182 4.08566 0.387553 0
M  V30 782 H 106.713 3.41288 1.95669 0
M  V30 783 H 108.728 3.83772 3.14537 0
M  V30 784 N 107.901 -0.206675 1.56239 0
M  V30 785 C 108.848 -1.25617 1.93621 0
M  V30 786 C 109.818 -1.45824 0.795274 0
M  V30 787 O 111.003 -1.59148 1.05245 0
M  V30 788 C 108.143 -2.59839 2.27107 0
M  V30 789 C 107.256 -2.47308 3.54207 0
M  V30 790 C 106.391 -3.74155 3.7707 0
M  V30 791 C 105.43 -3.56407 4.97635 0
M  V30 792 N 104.567 -4.75238 5.1681 0
M  V30 793 H 109.407 -0.930383 2.83104 0
M  V30 794 H 106.944 -0.448065 1.4011 0
M  V30 795 H 108.902 -3.38021 2.44535 0
M  V30 796 H 107.532 -2.90485 1.40778 0
M  V30 797 H 106.584 -1.60483 3.4489 0
M  V30 798 H 107.896 -2.30122 4.42544 0
M  V30 799 H 107.05 -4.60778 3.94675 0
M  V30 800 H 105.789 -3.94282 2.87042 0
M  V30 801 H 104.794 -2.68168 4.79964 0
M  V30 802 H 106.019 -3.37736 5.89161 0
M  V30 803 H 103.965 -4.95651 4.29728 0
M  V30 804 H 103.882 -4.60835 5.99306 0
M  V30 805 H 105.15 -5.63246 5.38864 0
M  V30 806 N 109.379 -1.50304 -0.473955 0
M  V30 807 C 110.627 -1.60832 -1.22382 0
M  V30 808 C 110.948 -0.30939 -1.9253 0
M  V30 809 O 110.218 0.67296 -1.83978 0
M  V30 810 H 108.798 -0.592652 -0.454723 0
M  V30 811 H 111.46 -1.87068 -0.546968 0
M  V30 812 H 110.556 -2.41803 -1.97327 0
M  V30 813 N 110.857 0.726932 -1.39834 0
M  V30 814 C 112.105 1.4837 -1.37225 0
M  V30 815 C 112.426 1.94979 0.0284857 0
M  V30 816 O 111.696 1.69555 0.981213 0
M  V30 817 H 110.276 0.55043 -0.505011 0
M  V30 818 H 112.938 0.862468 -1.74778 0
M  V30 819 H 112.034 2.36198 -2.04003 0
M  V30 820 N 112.336 1.25143 0.95797 0
M  V30 821 C 113.576 1.10893 1.71703 0
M  V30 822 C 113.94 -0.34478 1.88879 0
M  V30 823 O 115.141 -0.609014 2.6181 0
M  V30 824 C 113.412 1.83889 3.06463 0
M  V30 825 S 114.971 1.85491 3.97666 0
M  V30 826 H 111.789 0.396428 0.590226 0
M  V30 827 H 114.391 1.58618 1.14283 0
M  V30 828 H 113.095 2.88756 2.9163 0
M  V30 829 H 112.626 1.36538 3.68946 0
M  V30 830 H 114.641 0.929553 4.87415 0
M  V30 831 N 113.814 -1.1601 1.06675 0
M  V30 832 C 115.062 -1.86264 0.784229 0
M  V30 833 C 115.383 -1.82328 -0.691488 0
M  V30 834 O 114.653 -1.25947 -1.50047 0
M  V30 835 H 113.233 -0.689621 0.28711 0
M  V30 836 H 115.895 -1.40664 1.34906 0
M  V30 837 H 114.991 -2.91595 1.11259 0
M  V30 838 N 115.292 -0.849877 -1.32721 0
M  V30 839 C 116.517 -0.463856 -2.02146 0
M  V30 840 C 116.942 0.930449 -1.63476 0
M  V30 841 O 116.3 1.61033 -0.832952 0
M  V30 842 C 116.348 -0.604955 -3.55489 0
M  V30 843 O 115.452 0.36425 -4.10788 0
M  V30 844 H 114.793 -0.187046 -0.637111 0
M  V30 845 H 117.323 -1.14775 -1.69375 0
M  V30 846 H 117.333 -0.490696 -4.05038 0
M  V30 847 H 116.008 -1.62174 -3.82978 0
M  V30 848 H 114.585 0.206628 -3.72327 0
M  V30 849 N 116.77 1.45427 -0.607355 0
M  V30 850 C 118.01 2.04128 -0.105458 0
M  V30 851 C 118.374 1.46555 1.24039 0
M  V30 852 O 119.575 1.96608 1.833 0
M  V30 853 C 117.846 3.57338 -0.0665324 0
M  V30 854 S 119.405 4.37201 0.374207 0
M  V30 855 H 116.223 0.709278 -0.0494575 0
M  V30 856 H 118.825 1.78139 -0.805404 0
M  V30 857 H 117.529 3.96752 -1.04957 0
M  V30 858 H 117.06 3.87902 0.655415 0
M  V30 859 H 119.075 4.6888 1.62377 0
M  V30 860 N 118.248 0.346503 1.53744 0
M  V30 861 C 119.496 -0.248612 2.00565 0
M  V30 862 C 119.817 -1.5083 1.23593 0
M  V30 863 O 119.087 -1.92858 0.343912 0
M  V30 864 H 117.667 -0.0948564 0.740953 0
M  V30 865 H 120.329 0.468341 1.89189 0
M  V30 866 H 119.425 -0.488994 3.08245 0
M  V30 867 N 119.726 -1.57421 0.075193 0
M  V30 868 C 120.974 -1.93236 -0.591974 0
M  V30 869 C 121.295 -0.956241 -1.69944 0
M  V30 870 O 120.565 -0.00494792 -1.95899 0
M  V30 871 H 119.145 -0.713355 -0.22166 0
M  V30 872 H 121.807 -1.9444 0.133848 0
M  V30 873 H 120.903 -2.95131 -1.01509 0
M  V30 874 N 121.204 0.198386 -1.56346 0
M  V30 875 C 122.429 0.939682 -1.84891 0
M  V30 876 C 122.854 1.76202 -0.658369 0
M  V30 877 O 122.212 1.76993 0.392851 0
M  V30 878 C 122.26 1.81428 -3.11635 0
M  V30 879 O 121.364 2.91265 -2.91956 0
M  V30 880 H 120.705 0.264807 -0.608912 0
M  V30 881 H 123.235 0.204695 -2.03573 0
M  V30 882 H 123.245 2.21958 -3.42343 0
M  V30 883 H 121.92 1.21004 -3.97908 0
M  V30 884 H 120.497 2.54514 -2.72538 0
M  V30 885 N 122.682 1.50554 0.465978 0
M  V30 886 C 123.629 1.6979 1.56333 0
M  V30 887 C 124.599 0.539239 1.57103 0
M  V30 888 O 125.784 0.770401 1.74555 0
M  V30 889 C 122.924 1.80273 2.94271 0
M  V30 890 C 122.037 3.07674 3.0325 0
M  V30 891 C 121.172 3.08922 4.32135 0
M  V30 892 C 120.211 4.30755 4.34875 0
M  V30 893 N 119.348 4.29714 5.55239 0
M  V30 894 H 124.188 2.63472 1.39235 0
M  V30 895 H 121.725 1.30602 0.676873 0
M  V30 896 H 123.683 1.84332 3.74269 0
M  V30 897 H 122.313 0.900258 3.09992 0
M  V30 898 H 121.365 3.13062 2.16094 0
M  V30 899 H 122.677 3.97642 3.01135 0
M  V30 900 H 121.831 3.11738 5.20485 0
M  V30 901 H 120.57 2.16792 4.36866 0
M  V30 902 H 119.575 4.28146 3.44922 0
M  V30 903 H 120.8 5.24117 4.31831 0
M  V30 904 H 118.746 3.4044 5.60746 0
M  V30 905 H 118.663 5.13456 5.54886 0
M  V30 906 H 119.931 4.36683 6.457 0
M  V30 907 N 124.16 -0.719506 1.40217 0
M  V30 908 C 125.408 -1.47641 1.3801 0
M  V30 909 C 125.729 -1.94992 -0.018145 0
M  V30 910 O 124.999 -1.70073 -0.972207 0
M  V30 911 H 123.579 -0.547744 0.507923 0
M  V30 912 H 126.241 -0.853187 1.75233 0
M  V30 913 H 125.337 -2.35112 2.05253 0
M  V30 914 N 125.638 -1.25649 -0.95132 0
M  V30 915 C 126.886 -1.10375 -1.69298 0
M  V30 916 C 127.207 0.355339 -1.91735 0
M  V30 917 O 126.477 1.25188 -1.50681 0
M  V30 918 H 125.057 -0.405461 -0.627384 0
M  V30 919 H 127.719 -1.57823 -1.14358 0
M  V30 920 H 126.815 -1.61465 -2.67087 0
M  V30 921 N 127.117 1.15442 -1.07289 0
M  V30 922 C 128.357 1.8788 -0.805012 0
M  V30 923 C 128.721 1.80413 0.656907 0
M  V30 924 O 129.922 2.47874 1.0398 0
M  V30 925 C 128.193 3.3298 -1.29843 0
M  V30 926 S 129.752 4.23158 -1.16114 0
M  V30 927 H 126.57 0.64839 -0.291739 0
M  V30 928 H 129.172 1.39285 -1.37186 0
M  V30 929 H 127.876 3.35958 -2.35712 0
M  V30 930 H 127.407 3.86629 -0.726767 0
M  V30 931 H 129.422 4.96103 -0.0982778 0
M  V30 932 N 128.595 0.856903 1.32268 0
M  V30 933 C 129.843 0.460474 1.96784 0
M  V30 934 C 130.164 -0.987701 1.68135 0
M  V30 935 O 129.434 -1.69058 0.989765 0
M  V30 936 H 128.014 0.167289 0.728027 0
M  V30 937 H 130.676 1.09383 1.61312 0
M  V30 938 H 129.772 0.60739 3.06133 0
M  V30 939 N 130.073 -1.45103 0.615059 0
M  V30 940 C 131.298 -2.07064 0.117988 0
M  V30 941 C 131.723 -1.4554 -1.19163 0
M  V30 942 O 131.081 -0.550855 -1.72729 0
M  V30 943 C 131.129 -3.606 -0.000288387 0
M  V30 944 O 130.233 -3.98847 -1.04856 0
M  V30 945 H 129.574 -0.659467 0.0774581 0
M  V30 946 H 132.104 -1.86236 0.847186 0
M  V30 947 H 132.114 -4.07529 -0.196091 0
M  V30 948 H 130.789 -4.04765 0.955932 0
M  V30 949 H 129.366 -3.63577 -0.828619 0
M  V30 950 N 131.551 -0.354651 -1.53558 0
M  V30 951 C 132.776 0.242153 -2.05981 0
M  V30 952 C 133.201 1.42553 -1.2272 0
M  V30 953 O 132.559 1.79656 -0.243604 0
M  V30 954 C 132.607 0.624367 -3.55154 0
M  V30 955 O 131.711 1.72301 -3.74681 0
M  V30 956 H 131.052 0.0378432 -0.662921 0
M  V30 957 H 133.582 -0.512087 -1.98088 0
M  V30 958 H 133.592 0.898433 -3.97985 0
M  V30 959 H 132.267 -0.240989 -4.15201 0
M  V30 960 H 130.844 1.44535 -3.4375 0
M  V30 961 N 133.029 1.57378 -0.0835403 0
M  V30 962 C 134.269 1.95808 0.586381 0
M  V30 963 C 134.633 0.963706 1.66062 0
M  V30 964 O 135.834 1.23608 2.38693 0
M  V30 965 C 134.105 3.38808 1.13771 0
M  V30 966 S 135.664 3.99225 1.82112 0
M  V30 967 H 132.482 0.684675 0.191679 0
M  V30 968 H 135.084 1.94843 -0.160194 0
M  V30 969 H 133.788 4.08954 0.344197 0
M  V30 970 H 133.319 3.43344 1.92038 0
M  V30 971 H 135.334 3.87087 3.10449 0
M  V30 972 N 134.507 -0.190092 1.56449 0
M  V30 973 C 135.747 -0.916414 1.82705 0
M  V30 974 C 136.111 -1.80235 0.661763 0
M  V30 975 O 137.312 -2.56484 0.80433 0
M  V30 976 C 135.583 -1.70691 3.14005 0
M  V30 977 S 137.142 -2.48457 3.61683 0
M  V30 978 H 133.96 -0.307281 0.64117 0
M  V30 979 H 136.562 -0.179433 1.94675 0
M  V30 980 H 135.266 -1.04677 3.96826 0
M  V30 981 H 134.797 -2.48562 3.04927 0
M  V30 982 H 136.812 -3.72756 3.27517 0
M  V30 983 N 135.985 -1.50799 -0.457987 0
M  V30 984 C 137.231 -1.62683 -1.21088 0
M  V30 985 C 137.564 -0.332268 -1.91336 0
M  V30 986 O 136.839 0.667043 -1.82704 0
M  V30 987 C 137.122 -2.81615 -2.24422 0
M  V30 988 C 136.975 -4.20989 -1.58392 0
M  V30 989 C 138.294 -2.96085 -3.2561 0
M  V30 990 H 135.413 -0.592087 -0.438864 0
M  V30 991 H 138.055 -1.83225 -0.50286 0
M  V30 992 H 136.205 -2.64231 -2.84806 0
M  V30 993 H 137.877 -4.49994 -1.01504 0
M  V30 994 H 136.12 -4.24641 -0.886704 0
M  V30 995 H 136.791 -5.0016 -2.33547 0
M  V30 996 H 139.267 -3.12042 -2.75262 0
M  V30 997 H 138.143 -3.80902 -3.95228 0
M  V30 998 H 138.404 -2.0726 -3.90507 0
M  V30 999 N 137.463 0.71206 -1.40597 0
M  V30 1000 C 138.874 1.29135 -1.34837 0
M  V30 1001 C 139.225 1.96186 -0.0235395 0
M  V30 1002 O 138.35 1.97768 0.878444 0
M  V30 1003 C 138.945 2.34827 -2.44217 0
M  V30 1004 C 137.504 2.88371 -2.41907 0
M  V30 1005 C 136.651 1.62202 -2.24913 0
M  V30 1006 H 139.602 0.507944 -1.50352 0
M  V30 1007 H 139.623 3.15749 -2.12327 0
M  V30 1008 H 139.135 1.85996 -3.40627 0
M  V30 1009 H 137.236 3.41422 -1.49204 0
M  V30 1010 H 137.349 3.39925 -3.37621 0
M  V30 1011 H 135.713 1.874 -1.72492 0
M  V30 1012 H 136.496 1.15391 -3.23326 0
M  V30 1013 N 138.941 1.26152 0.944643 0
M  V30 1014 C 140.187 1.11657 1.69294 0
M  V30 1015 C 140.52 -0.339926 1.91202 0
M  V30 1016 O 139.795 -1.24994 1.49019 0
M  V30 1017 C 140.078 1.88236 3.06984 0
M  V30 1018 C 139.931 3.41772 2.92424 0
M  V30 1019 C 141.25 1.67343 4.07043 0
M  V30 1020 H 138.369 0.407004 0.614424 0
M  V30 1021 H 141.011 1.55106 1.09737 0
M  V30 1022 H 139.161 1.51308 3.57824 0
M  V30 1023 H 140.833 3.88433 2.48832 0
M  V30 1024 H 139.076 3.68974 2.28124 0
M  V30 1025 H 139.747 3.90579 3.90067 0
M  V30 1026 H 142.223 1.99509 3.65151 0
M  V30 1027 H 141.099 2.23346 5.01406 0
M  V30 1028 H 141.36 0.617158 4.37771 0
M  V30 1029 N 140.419 -1.14872 1.07899 0
M  V30 1030 C 141.659 -1.8745 0.814965 0
M  V30 1031 C 142.023 -1.80758 -0.64733 0
M  V30 1032 O 143.224 -2.48422 -1.02664 0
M  V30 1033 C 141.495 -3.32286 1.31607 0
M  V30 1034 S 143.054 -4.22537 1.18357 0
M  V30 1035 H 139.872 -0.646833 0.295174 0
M  V30 1036 H 142.474 -1.38555 1.37923 0
M  V30 1037 H 141.178 -3.34703 2.37491 0
M  V30 1038 H 140.709 -3.86238 0.747261 0
M  V30 1039 H 142.724 -4.96044 0.124586 0
M  V30 1040 N 141.898 -0.863906 -1.31812 0
M  V30 1041 C 143.138 -0.47825 -1.98726 0
M  V30 1042 C 143.502 0.950397 -1.66828 0
M  V30 1043 O 144.703 1.44109 -2.26905 0
M  V30 1044 C 142.974 -0.721134 -3.50049 0
M  V30 1045 S 144.533 -0.434432 -4.36644 0
M  V30 1046 H 141.351 -0.178773 -0.688158 0
M  V30 1047 H 143.953 -1.11862 -1.60334 0
M  V30 1048 H 142.657 -1.75981 -3.70755 0
M  V30 1049 H 142.188 -0.0675315 -3.93342 0
M  V30 1050 H 144.203 0.735786 -4.90714 0
M  V30 1051 N 143.376 1.44774 -0.622745 0
M  V30 1052 C 144.601 2.06999 -0.128968 0
M  V30 1053 C 145.026 1.4617 1.1839 0
M  V30 1054 O 144.384 0.560007 1.72434 0
M  V30 1055 C 144.432 3.60595 -0.0188351 0
M  V30 1056 O 143.536 3.99398 1.02739 0
M  V30 1057 H 142.877 0.659047 -0.0809544 0
M  V30 1058 H 145.407 1.85784 -0.85705 0
M  V30 1059 H 145.417 4.07627 0.174476 0
M  V30 1060 H 144.092 4.04252 -0.977384 0
M  V30 1061 H 142.669 3.64011 0.809326 0
M  V30 1062 N 144.854 0.36279 1.53368 0
M  V30 1063 C 146.079 -0.231226 2.06107 0
M  V30 1064 C 146.504 -1.419 1.23474 0
M  V30 1065 O 145.862 -1.79524 0.253128 0
M  V30 1066 C 145.91 -0.605523 3.5548 0
M  V30 1067 O 145.014 -1.70312 3.7559 0
M  V30 1068 H 144.355 -0.034327 0.663112 0
M  V30 1069 H 146.885 0.522584 1.97814 0
M  V30 1070 H 146.895 -0.877314 3.98456 0
M  V30 1071 H 145.57 0.263004 4.15068 0
M  V30 1072 H 144.147 -1.4271 3.44512 0
M  V30 1073 N 146.332 -1.57332 0.0918853 0
M  V30 1074 C 147.557 -1.98995 -0.584442 0
M  V30 1075 C 147.982 -0.970528 -1.61128 0
M  V30 1076 O 147.34 0.0613904 -1.81196 0
M  V30 1077 C 147.388 -3.39636 -1.21161 0
M  V30 1078 O 146.492 -3.40447 -2.32744 0
M  V30 1079 H 145.833 -0.647165 -0.148572 0
M  V30 1080 H 148.363 -2.03873 0.172347 0
M  V30 1081 H 148.373 -3.7726 -1.55367 0
M  V30 1082 H 147.048 -4.13356 -0.459313 0
M  V30 1083 H 145.625 -3.14614 -2.0018 0
M  V30 1084 N 147.81 0.181792 -1.56548 0
M  V30 1085 C 149.05 0.906711 -1.83189 0
M  V30 1086 C 149.414 1.79882 -0.671312 0
M  V30 1087 O 150.615 2.56054 -0.81792 0
M  V30 1088 C 148.886 1.69023 -3.14906 0
M  V30 1089 S 150.445 2.46535 -3.62996 0
M  V30 1090 H 147.263 0.303877 -0.642791 0
M  V30 1091 H 149.865 0.169107 -1.94767 0
M  V30 1092 H 148.569 1.02571 -3.97376 0
M  V30 1093 H 148.1 2.46941 -3.06241 0
M  V30 1094 H 150.115 3.71014 -3.29489 0
M  V30 1095 N 149.288 1.51039 0.449983 0
M  V30 1096 C 150.536 1.62759 1.19808 0
M  V30 1097 C 150.857 0.339981 1.92013 0
M  V30 1098 O 150.127 -0.643606 1.85026 0
M  V30 1099 H 148.707 0.599811 0.445237 0
M  V30 1100 H 151.369 1.87914 0.517138 0
M  V30 1101 H 150.465 2.44911 1.93455 0
M  V30 1102 N 150.766 -0.704594 1.40972 0
M  V30 1103 C 151.991 -1.49858 1.43378 0
M  V30 1104 C 152.416 -1.88061 0.038184 0
M  V30 1105 O 151.774 -1.5402 -0.956425 0
M  V30 1106 C 151.822 -2.74333 2.34038 0
M  V30 1107 O 150.926 -3.7147 1.7912 0
M  V30 1108 H 150.267 -0.45139 0.486974 0
M  V30 1109 H 152.797 -0.866832 1.8533 0
M  V30 1110 H 152.807 -3.22741 2.49604 0
M  V30 1111 H 151.482 -2.45863 3.35446 0
M  V30 1112 H 150.059 -3.30363 1.72958 0
M  V30 1113 N 152.244 -1.26651 -0.937939 0
M  V30 1114 C 153.484 -1.13611 -1.69917 0
M  V30 1115 C 153.848 0.314687 -1.89404 0
M  V30 1116 O 155.049 0.567285 -2.62746 0
M  V30 1117 C 153.32 -1.88742 -3.03498 0
M  V30 1118 S 154.879 -1.91794 -3.94665 0
M  V30 1119 H 151.697 -0.405767 -0.583844 0
M  V30 1120 H 154.299 -1.60416 -1.11745 0
M  V30 1121 H 153.003 -2.9336 -2.86999 0
M  V30 1122 H 152.534 -1.42391 -3.66727 0
M  V30 1123 H 154.549 -1.00698 -4.85875 0
M  V30 1124 N 153.722 1.14298 -1.08507 0
M  V30 1125 C 154.97 1.84993 -0.813763 0
M  V30 1126 C 155.291 1.83405 0.662393 0
M  V30 1127 O 154.561 1.28319 1.48024 0
M  V30 1128 H 153.141 0.684966 -0.298045 0
M  V30 1129 H 155.803 1.385 -1.37126 0
M  V30 1130 H 154.899 2.89788 -1.15884 0
M  V30 1131 N 155.201 0.870884 1.31352 0
M  V30 1132 C 156.449 0.48132 1.96285 0
M  V30 1133 C 156.77 -0.969813 1.69173 0
M  V30 1134 O 156.04 -1.67998 1.00764 0
M  V30 1135 H 154.62 0.175002 0.726212 0
M  V30 1136 H 157.282 1.11087 1.60143 0
M  V30 1137 H 156.378 0.639825 3.05471 0
M  V30 1138 N 156.679 -1.44442 0.630414 0
M  V30 1139 C 157.904 -2.06927 0.139944 0
M  V30 1140 C 158.329 -1.46795 -1.17613 0
M  V30 1141 O 157.687 -0.569144 -1.72135 0
M  V30 1142 C 157.735 -3.6058 0.0379581 0
M  V30 1143 O 156.839 -3.99937 -1.0062 0
M  V30 1144 H 156.18 -0.658608 0.0844483 0
M  V30 1145 H 158.71 -1.85327 0.866891 0
M  V30 1146 H 158.72 -4.07714 -0.152856 0
M  V30 1147 H 157.395 -4.03728 0.998809 0
M  V30 1148 H 155.972 -3.64436 -0.79001 0
M  V30 1149 N 158.157 -0.370918 -1.53173 0
M  V30 1150 C 159.104 0.473035 -2.259 0
M  V30 1151 C 160.074 1.07311 -1.26781 0
M  V30 1152 O 161.259 1.1046 -1.55574 0
M  V30 1153 C 158.399 1.60405 -3.05556 0
M  V30 1154 C 157.512 1.02863 -4.19575 0
M  V30 1155 C 156.647 2.12918 -4.86661 0
M  V30 1156 C 155.686 1.52869 -5.92704 0
M  V30 1157 N 154.823 2.56779 -6.53459 0
M  V30 1158 H 159.663 -0.153649 -2.97604 0
M  V30 1159 H 157.2 -0.0875946 -1.46839 0
M  V30 1160 H 159.158 2.27034 -3.50016 0
M  V30 1161 H 157.788 2.20131 -2.36097 0
M  V30 1162 H 156.84 0.252465 -3.79561 0
M  V30 1163 H 158.152 0.549642 -4.95762 0
M  V30 1164 H 157.306 2.87356 -5.34333 0
M  V30 1165 H 156.045 2.6417 -4.09958 0
M  V30 1166 H 155.05 0.769479 -5.44389 0
M  V30 1167 H 156.275 1.02435 -6.7133 0
M  V30 1168 H 154.221 3.07235 -5.79606 0
M  V30 1169 H 154.138 2.13583 -7.25202 0
M  V30 1170 H 155.406 3.30903 -7.05779 0
M  V30 1171 N 159.635 1.57281 -0.100228 0
M  V30 1172 C 160.883 1.94153 0.561157 0
M  V30 1173 C 161.204 0.983157 1.68401 0
M  V30 1174 O 160.474 0.0361132 1.95867 0
M  V30 1175 H 159.054 0.716791 0.210283 0
M  V30 1176 H 161.716 1.94202 -0.164765 0
M  V30 1177 H 160.812 2.96709 0.968008 0
M  V30 1178 N 161.113 -0.173488 1.56642 0
M  V30 1179 C 162.359 -0.891784 1.8214 0
M  V30 1180 C 162.692 -1.8199 0.677736 0
M  V30 1181 O 161.967 -1.91842 -0.320446 0
M  V30 1182 C 162.25 -1.68933 3.18015 0
M  V30 1183 C 162.103 -0.784487 4.42906 0
M  V30 1184 C 163.422 -2.65748 3.50808 0
M  V30 1185 H 160.541 -0.322761 0.662567 0
M  V30 1186 H 163.183 -0.158095 1.89341 0
M  V30 1187 H 161.333 -2.31482 3.12007 0
M  V30 1188 H 163.005 -0.172046 4.60979 0
M  V30 1189 H 161.248 -0.0924117 4.33702 0
M  V30 1190 H 161.919 -1.37799 5.34524 0
M  V30 1191 H 164.395 -2.13327 3.57255 0
M  V30 1192 H 163.271 -3.18619 4.4696 0
M  V30 1193 H 163.532 -3.45842 2.75401 0
M  V30 1194 N 162.591 -1.51276 -0.441967 0
M  V30 1195 C 163.831 -1.65372 -1.20132 0
M  V30 1196 C 164.195 -0.359871 -1.88597 0
M  V30 1197 O 165.396 -0.376551 -2.66149 0
M  V30 1198 C 163.667 -2.8207 -2.1948 0
M  V30 1199 S 165.226 -3.16467 -3.03964 0
M  V30 1200 H 162.044 -0.582669 -0.407453 0
M  V30 1201 H 164.646 -1.89166 -0.493609 0
M  V30 1202 H 163.35 -3.74523 -1.67812 0
M  V30 1203 H 162.881 -2.6045 -2.94838 0
M  V30 1204 H 164.896 -2.62543 -4.21053 0
M  V30 1205 N 164.069 0.697108 -1.41344 0
M  V30 1206 C 165.317 1.45426 -1.40341 0
M  V30 1207 C 165.638 1.94996 -0.0128787 0
M  V30 1208 O 164.908 1.71599 0.945027 0
M  V30 1209 H 163.488 0.539594 -0.516573 0
M  V30 1210 H 166.15 0.825201 -1.76569 0
M  V30 1211 H 165.246 2.31817 -2.08967 0
M  V30 1212 N 165.547 1.27147 0.931209 0
M  V30 1213 C 166.794 1.13278 1.67852 0
M  V30 1214 C 167.122 -0.32204 1.91815 0
M  V30 1215 O 166.377 -1.25224 1.50391 0
M  V30 1216 C 166.676 1.8579 3.05314 0
M  V30 1217 C 166.342 3.35657 3.01073 0
M  V30 1218 C 165.004 3.76536 2.99623 0
M  V30 1219 C 167.356 4.31299 2.92627 0
M  V30 1220 C 164.684 5.11426 2.87506 0
M  V30 1221 C 167.036 5.66242 2.82051 0
M  V30 1222 C 165.7 6.06418 2.7895 0
M  V30 1223 H 164.97 0.414515 0.614214 0
M  V30 1224 H 167.617 1.57712 1.08624 0
M  V30 1225 H 165.922 1.33854 3.68226 0
M  V30 1226 H 167.619 1.72491 3.62005 0
M  V30 1227 H 164.209 3.03146 3.02986 0
M  V30 1228 H 168.393 4.00692 2.92848 0
M  V30 1229 H 163.649 5.41705 2.83489 0
M  V30 1230 H 167.823 6.40026 2.74481 0
M  V30 1231 H 165.45 7.10895 2.69318 0
M  V30 1232 N 167.025 -1.13721 1.09112 0
M  V30 1233 C 168.441 -1.36914 0.820174 0
M  V30 1234 C 168.641 -1.93356 -0.567079 0
M  V30 1235 O 167.697 -2.15093 -1.32255 0
M  V30 1236 C 169.01 -2.3235 1.90877 0
M  V30 1237 C 170.558 -2.45973 1.93562 0
M  V30 1238 C 171.033 -3.44714 3.01556 0
M  V30 1239 N 172.524 -3.52263 3.00775 0
M  V30 1240 C 173.259 -4.28536 3.80978 0
M  V30 1241 N 172.755 -5.07991 4.71081 0
M  V30 1242 N 174.548 -4.23804 3.69251 0
M  V30 1243 H 166.699 -0.754348 1.98553 0
M  V30 1244 H 168.962 -0.3944 0.862063 0
M  V30 1245 H 168.668 -1.98027 2.90651 0
M  V30 1246 H 168.542 -3.32332 1.78424 0
M  V30 1247 H 170.929 -2.79584 0.944286 0
M  V30 1248 H 171.01 -1.45926 2.10093 0
M  V30 1249 H 170.654 -3.11835 4.00901 0
M  V30 1250 H 170.584 -4.44558 2.82269 0
M  V30 1251 H 173.075 -2.95567 2.35475 0
M  V30 1252 H 173.388 -5.63487 5.28869 0
M  V30 1253 H 171.733 -5.07235 4.75119 0
M  V30 1254 H 174.924 -3.60806 2.98222 0
M  V30 1255 H 175.097 -4.82995 4.31995 0
M  V30 1256 N 168.503 -0.877838 -1.30888 0
M  V30 1257 C 169.751 -0.491723 -1.96027 0
M  V30 1258 C 170.072 0.960827 -1.69685 0
M  V30 1259 O 169.342 1.67462 -1.01654 0
M  V30 1260 H 167.922 -0.17885 -0.725273 0
M  V30 1261 H 170.584 -1.11935 -1.59551 0
M  V30 1262 H 169.68 -0.656016 -3.05128 0
M  V30 1263 N 169.982 1.44106 -0.638065 0
M  V30 1264 C 171.23 2.01579 -0.145043 0
M  V30 1265 C 171.551 1.50496 1.24 0
M  V30 1266 O 170.821 0.711374 1.82527 0
M  V30 1267 H 169.401 0.745282 -0.05063 0
M  V30 1268 H 172.063 1.76516 -0.826327 0
M  V30 1269 H 171.159 3.11877 -0.118039 0
M  V30 1270 N 171.46 0.379036 1.52974 0
M  V30 1271 C 172.685 -0.209353 2.06341 0
M  V30 1272 C 173.11 -1.40583 1.24972 0
M  V30 1273 O 172.468 -1.79246 0.272155 0
M  V30 1274 C 172.516 -0.567786 3.56102 0
M  V30 1275 O 171.62 -1.66318 3.77375 0
M  V30 1276 H 170.961 -0.0272919 0.663439 0
M  V30 1277 H 173.491 0.543536 1.97248 0
M  V30 1278 H 173.501 -0.835003 3.99364 0
M  V30 1279 H 172.176 0.307013 4.14765 0
M  V30 1280 H 170.753 -1.39048 3.46006 0
M  V30 1281 N 172.938 -1.57226 0.108567 0
M  V30 1282 C 173.885 -2.14756 -0.845481 0
M  V30 1283 C 174.855 -1.06971 -1.27068 0
M  V30 1284 O 176.04 -1.34827 -1.35005 0
M  V30 1285 C 173.18 -2.74298 -2.09415 0
M  V30 1286 C 172.293 -3.96358 -1.71826 0
M  V30 1287 C 171.428 -4.44021 -2.9158 0
M  V30 1288 C 170.467 -5.58637 -2.50181 0
M  V30 1289 N 169.604 -6.01091 -3.62814 0
M  V30 1290 H 174.444 -2.95961 -0.348035 0
M  V30 1291 H 171.981 -1.46226 -0.160106 0
M  V30 1292 H 173.939 -3.06945 -2.82561 0
M  V30 1293 H 172.569 -1.95801 -2.56636 0
M  V30 1294 H 171.621 -3.69939 -0.885947 0
M  V30 1295 H 172.933 -4.79504 -1.37394 0
M  V30 1296 H 172.087 -4.78522 -3.72963 0
M  V30 1297 H 170.826 -3.59803 -3.29231 0
M  V30 1298 H 169.831 -5.23751 -1.67228 0
M  V30 1299 H 171.056 -6.44613 -2.13659 0
M  V30 1300 H 169.002 -5.19817 -4.00158 0
M  V30 1301 H 168.919 -6.79066 -3.32273 0
M  V30 1302 H 170.187 -6.40227 -4.44668 0
M  V30 1303 N 174.416 0.165178 -1.56732 0
M  V30 1304 C 175.664 0.879068 -1.8198 0
M  V30 1305 C 175.985 1.82514 -0.686561 0
M  V30 1306 O 175.255 1.93694 0.293146 0
M  V30 1307 H 173.835 0.327608 -0.671329 0
M  V30 1308 H 176.497 0.163526 -1.94213 0
M  V30 1309 H 175.593 1.45228 -2.76252 0
M  V30 1310 N 175.894 1.51508 0.433938 0
M  V30 1311 C 177.142 1.6402 1.18075 0
M  V30 1312 C 177.463 0.360328 1.91642 0
M  V30 1313 O 176.733 -0.623945 1.85698 0
M  V30 1314 H 175.313 0.6045 0.43885 0
M  V30 1315 H 177.975 1.88452 0.497178 0
M  V30 1316 H 177.071 2.46949 1.90847 0
M  V30 1317 N 177.372 -0.689602 1.41712 0
M  V30 1318 C 178.612 -1.46184 1.42862 0
M  V30 1319 C 178.976 -1.91962 0.0382204 0
M  V30 1320 O 180.177 -2.68694 -0.0755019 0
M  V30 1321 C 178.448 -2.6371 2.4123 0
M  V30 1322 S 180.007 -3.52768 2.6096 0
M  V30 1323 H 176.825 -0.49947 0.506015 0
M  V30 1324 H 179.427 -0.804107 1.78198 0
M  V30 1325 H 178.131 -2.28293 3.41044 0
M  V30 1326 H 177.662 -3.3437 2.07269 0
M  V30 1327 H 179.677 -4.59146 1.88148 0
M  V30 1328 N 178.85 -1.27639 -0.924453 0
M  V30 1329 C 180.098 -1.13941 -1.66918 0
M  V30 1330 C 180.419 0.314589 -1.92446 0
M  V30 1331 O 179.689 1.21964 -1.53303 0
M  V30 1332 H 178.269 -0.418678 -0.618642 0
M  V30 1333 H 180.931 -1.60213 -1.10985 0
M  V30 1334 H 180.027 -1.67094 -2.63602 0
M  V30 1335 N 180.328 1.1314 -1.09713 0
M  V30 1336 C 181.553 1.88862 -0.857081 0
M  V30 1337 C 181.978 1.78729 0.586304 0
M  V30 1338 O 181.336 1.13692 1.41222 0
M  V30 1339 C 181.384 3.36325 -1.30069 0
M  V30 1340 O 180.488 4.09815 -0.461007 0
M  V30 1341 H 179.829 0.587108 -0.310162 0
M  V30 1342 H 182.359 1.43129 -1.46203 0
M  V30 1343 H 182.369 3.87157 -1.28738 0
M  V30 1344 H 181.044 3.43017 -2.35185 0
M  V30 1345 H 179.621 3.68986 -0.538888 0
M  V30 1346 N 181.806 0.884767 1.30421 0
M  V30 1347 C 183.046 0.509806 1.9794 0
M  V30 1348 C 183.41 -0.923736 1.68319 0
M  V30 1349 O 184.611 -1.40481 2.29169 0
M  V30 1350 C 182.882 0.776732 3.48858 0
M  V30 1351 S 184.441 0.503843 4.35898 0
M  V30 1352 H 181.259 0.189699 0.685227 0
M  V30 1353 H 183.861 1.14399 1.58535 0
M  V30 1354 H 182.565 1.81857 3.67908 0
M  V30 1355 H 182.096 0.1301 3.93185 0
M  V30 1356 H 184.111 -0.657625 4.91823 0
M  V30 1357 N 183.284 -1.43765 0.645699 0
M  V30 1358 C 184.532 -2.01499 0.155731 0
M  V30 1359 C 184.853 -1.51151 -1.232 0
M  V30 1360 O 184.123 -0.721044 -1.82148 0
M  V30 1361 H 182.703 -0.745003 0.0545817 0
M  V30 1362 H 185.365 -1.76075 0.835677 0
M  V30 1363 H 184.461 -3.1181 0.134577 0
M  V30 1364 N 184.763 -0.387143 -1.52771 0
M  V30 1365 C 186.003 0.195537 -2.03463 0
M  V30 1366 C 186.367 1.44222 -1.26744 0
M  V30 1367 O 187.568 2.10192 -1.67549 0
M  V30 1368 C 185.839 0.459097 -3.54439 0
M  V30 1369 S 187.398 1.01237 -4.26962 0
M  V30 1370 H 184.216 0.0552675 -0.708849 0
M  V30 1371 H 186.818 -0.534992 -1.88037 0
M  V30 1372 H 185.522 -0.455382 -4.07866 0
M  V30 1373 H 185.053 1.21811 -3.74066 0
M  V30 1374 H 187.068 2.29492 -4.39941 0
M  V30 1375 N 186.241 1.57166 -0.116904 0
M  V30 1376 C 187.466 1.999 0.55271 0
M  V30 1377 C 187.891 0.996039 1.59564 0
M  V30 1378 O 187.249 -0.032556 1.81271 0
M  V30 1379 C 187.297 3.4152 1.15742 0
M  V30 1380 O 186.401 3.44106 2.27299 0
M  V30 1381 H 185.742 0.649447 0.138258 0
M  V30 1382 H 188.272 2.03573 -0.204759 0
M  V30 1383 H 188.282 3.79684 1.49346 0
M  V30 1384 H 186.957 4.14034 0.393493 0
M  V30 1385 H 185.534 3.17759 1.9515 0
M  V30 1386 N 187.719 -0.156864 1.56817 0
M  V30 1387 C 188.651 -1.21883 1.94106 0
M  V30 1388 C 189.664 -1.3971 0.835754 0
M  V30 1389 O 190.853 -1.39457 1.11418 0
M  V30 1390 C 187.953 -2.58527 2.19127 0
M  V30 1391 C 187.126 -2.61809 3.50393 0
M  V30 1392 C 186.185 -3.7992 3.64071 0
M  V30 1393 O 185.211 -3.65249 4.36557 0
M  V30 1394 N 186.413 -4.96973 2.99997 0
M  V30 1395 H 189.178 -0.901974 2.85805 0
M  V30 1396 H 186.739 -0.346513 1.58148 0
M  V30 1397 H 188.731 -3.36034 2.25529 0
M  V30 1398 H 187.301 -2.82545 1.33742 0
M  V30 1399 H 186.521 -1.7029 3.5552 0
M  V30 1400 H 187.809 -2.61024 4.36742 0
M  V30 1401 H 187.207 -5.11794 2.41004 0
M  V30 1402 H 185.764 -5.7229 3.11974 0
M  V30 1403 N 189.197 -1.51736 -0.425897 0
M  V30 1404 C 190.437 -1.66636 -1.18371 0
M  V30 1405 C 190.801 -0.379854 -1.88205 0
M  V30 1406 O 192.002 -0.404758 -2.65735 0
M  V30 1407 C 190.273 -2.84382 -2.16476 0
M  V30 1408 S 191.832 -3.19673 -3.0059 0
M  V30 1409 H 188.65 -0.586957 -0.40125 0
M  V30 1410 H 191.252 -1.89679 -0.473518 0
M  V30 1411 H 189.956 -3.76281 -1.63831 0
M  V30 1412 H 189.487 -2.63562 -2.92059 0
M  V30 1413 H 191.502 -2.66994 -4.18245 0
M  V30 1414 N 190.675 0.682077 -1.42076 0
M  V30 1415 C 191.9 1.47558 -1.45744 0
M  V30 1416 C 192.325 1.87977 -0.0680981 0
M  V30 1417 O 191.683 1.55522 0.9318 0
M  V30 1418 C 191.731 2.70575 -2.38373 0
M  V30 1419 O 190.835 3.68573 -1.85007 0
M  V30 1420 H 190.176 0.443585 -0.494093 0
M  V30 1421 H 192.706 0.837238 -1.86686 0
M  V30 1422 H 192.716 3.18729 -2.54707 0
M  V30 1423 H 191.391 2.40495 -3.39315 0
M  V30 1424 H 189.968 3.2757 -1.78192 0
M  V30 1425 N 192.153 1.28127 0.917671 0
M  V30 1426 C 193.393 1.163 1.68088 0
M  V30 1427 C 193.757 -0.284515 1.8988 0
M  V30 1428 O 194.958 -0.525413 2.63615 0
M  V30 1429 C 193.229 1.93546 3.00457 0
M  V30 1430 S 194.788 1.98048 3.91564 0
M  V30 1431 H 191.606 0.415005 0.577315 0
M  V30 1432 H 194.208 1.62173 1.09179 0
M  V30 1433 H 192.912 2.97888 2.82295 0
M  V30 1434 H 192.443 1.48207 3.64415 0
M  V30 1435 H 194.458 1.08415 4.84211 0
M  V30 1436 N 193.631 -1.12557 1.10312 0
M  V30 1437 C 194.861 -1.87592 0.865617 0
M  V30 1438 C 195.269 -1.79851 -0.587389 0
M  V30 1439 O 194.612 -1.16949 -1.41664 0
M  V30 1440 C 194.674 -3.37665 1.23381 0
M  V30 1441 C 194.338 -3.69181 2.69359 0
M  V30 1442 C 195.335 -3.67652 3.67597 0
M  V30 1443 C 193.02 -3.98555 3.05711 0
M  V30 1444 C 195.014 -3.95053 5.00212 0
M  V30 1445 C 192.701 -4.25616 4.38514 0
M  V30 1446 C 193.699 -4.23851 5.35574 0
M  V30 1447 O 193.387 -4.50242 6.65986 0
M  V30 1448 H 193.119 -0.600442 0.310557 0
M  V30 1449 H 195.673 -1.4335 1.47105 0
M  V30 1450 H 193.903 -3.82454 0.571467 0
M  V30 1451 H 195.592 -3.94041 0.973994 0
M  V30 1452 H 196.358 -3.45024 3.40857 0
M  V30 1453 H 192.237 -3.99071 2.30789 0
M  V30 1454 H 195.781 -3.93591 5.75962 0
M  V30 1455 H 191.678 -4.47718 4.64994 0
M  V30 1456 H 192.446 -4.67867 6.71597 0
M  V30 1457 N 195.109 -0.891671 -1.2995 0
M  V30 1458 C 196.056 -0.361736 -2.27948 0
M  V30 1459 C 197.026 0.551761 -1.56668 0
M  V30 1460 O 198.211 0.478736 -1.84696 0
M  V30 1461 C 195.351 0.411825 -3.42634 0
M  V30 1462 C 194.464 -0.531651 -4.28716 0
M  V30 1463 C 193.599 0.258167 -5.30572 0
M  V30 1464 C 192.638 -0.680349 -6.08307 0
M  V30 1465 N 191.775 0.0745613 -7.0206 0
M  V30 1466 H 196.615 -1.20254 -2.72659 0
M  V30 1467 H 194.152 -0.604352 -1.34112 0
M  V30 1468 H 196.11 0.876304 -4.07893 0
M  V30 1469 H 194.74 1.21715 -2.98974 0
M  V30 1470 H 193.792 -1.11463 -3.63703 0
M  V30 1471 H 195.104 -1.25038 -4.82874 0
M  V30 1472 H 194.258 0.784204 -6.0161 0
M  V30 1473 H 192.997 1.01008 -4.77126 0
M  V30 1474 H 192.002 -1.21796 -5.3614 0
M  V30 1475 H 193.227 -1.43145 -6.63842 0
M  V30 1476 H 191.173 0.808883 -6.50994 0
M  V30 1477 H 191.09 -0.584409 -7.53738 0
M  V30 1478 H 192.358 0.581123 -7.77331 0
M  V30 1479 N 196.587 1.43421 -0.653314 0
M  V30 1480 C 197.998 1.85065 -0.246537 0
M  V30 1481 C 198.349 1.54688 1.2069 0
M  V30 1482 O 197.474 0.995896 1.92122 0
M  V30 1483 C 198.069 3.35922 -0.440666 0
M  V30 1484 C 196.628 3.76297 -0.0882064 0
M  V30 1485 C 195.775 2.67147 -0.743484 0
M  V30 1486 H 198.726 1.33572 -0.856979 0
M  V30 1487 H 198.747 3.79204 0.313798 0
M  V30 1488 H 198.259 3.58 -1.49858 0
M  V30 1489 H 196.36 3.5983 0.96711 0
M  V30 1490 H 196.473 4.76338 -0.513738 0
M  V30 1491 H 194.837 2.54086 -0.176712 0
M  V30 1492 H 195.62 2.92053 -1.80443 0
M  V30 1493 N 198.065 0.39524 1.52563 0
M  V30 1494 C 199.305 -0.184744 2.03563 0
M  V30 1495 C 199.669 -1.43548 1.27507 0
M  V30 1496 O 200.87 -2.093 1.68662 0
M  V30 1497 C 199.141 -0.440294 3.54678 0
M  V30 1498 S 200.7 -0.989712 4.27493 0
M  V30 1499 H 197.518 -0.0515075 0.709132 0
M  V30 1500 H 200.12 0.544957 1.87751 0
M  V30 1501 H 198.824 0.477005 4.07618 0
M  V30 1502 H 198.355 -1.19825 3.74707 0
M  V30 1503 H 200.37 -2.27155 4.41152 0
M  V30 1504 N 199.544 -1.57102 0.125237 0
M  V30 1505 C 200.784 -1.97294 -0.534259 0
M  V30 1506 C 201.148 -1.0074 -1.63449 0
M  V30 1507 O 202.349 -1.29893 -2.35332 0
M  V30 1508 C 200.62 -3.41705 -1.04748 0
M  V30 1509 S 202.179 -4.03913 -1.71463 0
M  V30 1510 H 198.997 -0.689517 -0.173458 0
M  V30 1511 H 201.599 -1.94349 0.211797 0
M  V30 1512 H 200.303 -4.09723 -0.235649 0
M  V30 1513 H 199.834 -3.48315 -1.82867 0
M  V30 1514 H 201.849 -3.95182 -3.00077 0
M  V30 1515 N 201.022 0.148545 -1.56898 0
M  V30 1516 C 202.262 0.86765 -1.85071 0
M  V30 1517 C 202.626 1.78417 -0.709317 0
M  V30 1518 O 203.827 2.54261 -0.872049 0
M  V30 1519 C 202.098 1.62306 -3.1842 0
M  V30 1520 S 203.657 2.3878 -3.68143 0
M  V30 1521 H 200.475 0.290174 -0.649092 0
M  V30 1522 H 203.077 0.127755 -1.95082 0
M  V30 1523 H 201.781 0.941192 -3.99462 0
M  V30 1524 H 201.312 2.4039 -3.1141 0
M  V30 1525 H 203.327 3.63942 -3.37285 0
M  V30 1526 N 202.5 1.5196 0.417844 0
M  V30 1527 C 203.725 1.69717 1.1921 0
M  V30 1528 C 204.15 0.402148 1.83751 0
M  V30 1529 O 203.508 -0.639593 1.69643 0
M  V30 1530 C 203.556 2.82794 2.2374 0
M  V30 1531 O 202.66 2.47756 3.29683 0
M  V30 1532 H 202.001 0.565263 0.348387 0
M  V30 1533 H 204.531 1.98621 0.490985 0
M  V30 1534 H 204.541 3.07452 2.68212 0
M  V30 1535 H 203.216 3.76756 1.76146 0
M  V30 1536 H 201.793 2.33739 2.90552 0
M  V30 1537 N 203.978 -0.674533 1.42435 0
M  V30 1538 C 205.203 -1.46784 1.46524 0
M  V30 1539 C 205.628 -1.87938 0.078066 0
M  V30 1540 O 204.986 -1.56014 -0.92354 0
M  V30 1541 C 205.034 -2.69307 2.39805 0
M  V30 1542 O 204.138 -3.67587 1.86959 0
M  V30 1543 H 203.479 -0.440959 0.496439 0
M  V30 1544 H 206.009 -0.827326 1.87127 0
M  V30 1545 H 206.019 -3.17374 2.56393 0
M  V30 1546 H 204.694 -2.38692 3.40586 0
M  V30 1547 H 203.271 -3.2662 1.79927 0
M  V30 1548 N 205.456 -1.28612 -0.910864 0
M  V30 1549 C 206.704 -1.15705 -1.65701 0
M  V30 1550 C 207.025 0.29416 -1.92769 0
M  V30 1551 O 206.295 1.20331 -1.54588 0
M  V30 1552 H 204.875 -0.425216 -0.614167 0
M  V30 1553 H 207.537 -1.61381 -1.0928 0
M  V30 1554 H 206.633 -1.6988 -2.61815 0
M  V30 1555 N 206.934 1.1197 -1.10907 0
M  V30 1556 C 208.174 1.85224 -0.864378 0
M  V30 1557 C 208.538 1.82411 0.599178 0
M  V30 1558 O 209.739 2.51057 0.960416 0
M  V30 1559 C 208.01 3.2868 -1.40371 0
M  V30 1560 S 209.569 4.1925 -1.29518 0
M  V30 1561 H 206.387 0.63878 -0.312219 0
M  V30 1562 H 208.989 1.3485 -1.41548 0
M  V30 1563 H 207.693 3.28289 -2.46281 0
M  V30 1564 H 207.224 3.84121 -0.849402 0
M  V30 1565 H 209.239 4.95539 -0.256059 0
M  V30 1566 N 208.412 0.89855 1.29475 0
M  V30 1567 C 209.66 0.522847 1.9522 0
M  V30 1568 C 209.981 -0.93371 1.71192 0
M  V30 1569 O 209.251 -1.65823 1.04305 0
M  V30 1570 H 207.831 0.190366 0.722336 0
M  V30 1571 H 210.493 1.14459 1.5775 0
M  V30 1572 H 209.589 0.704476 3.04045 0
M  V30 1573 N 209.89 -1.43072 0.660911 0
M  V30 1574 C 211.115 -2.06584 0.183805 0
M  V30 1575 C 211.54 -1.49257 -1.14472 0
M  V30 1576 O 210.898 -0.605528 -1.70889 0
M  V30 1577 C 210.946 -3.60418 0.114434 0
M  V30 1578 O 210.05 -4.01981 -0.921137 0
M  V30 1579 H 209.391 -0.656669 0.0983994 0
M  V30 1580 H 211.921 -1.83447 0.906006 0
M  V30 1581 H 211.931 -4.07946 -0.0663394 0
M  V30 1582 H 210.606 -4.01519 1.08422 0
M  V30 1583 H 209.183 -3.66029 -0.71253 0
M  V30 1584 N 211.368 -0.403325 -1.52352 0
M  V30 1585 C 212.593 0.176499 -2.06648 0
M  V30 1586 C 213.018 1.38577 -1.27193 0
M  V30 1587 O 212.376 1.7879 -0.300637 0
M  V30 1588 C 212.424 0.511061 -3.5696 0
M  V30 1589 O 211.528 1.60294 -3.79973 0
M  V30 1590 H 210.869 0.0167337 -0.663789 0
M  V30 1591 H 213.399 -0.574848 -1.96359 0
M  V30 1592 H 213.409 0.771362 -4.00642 0
M  V30 1593 H 212.084 -0.37296 -4.14224 0
M  V30 1594 H 210.661 1.33526 -3.48174 0
M  V30 1595 N 212.846 1.57033 -0.133567 0
M  V30 1596 C 214.086 1.97575 0.523789 0
M  V30 1597 C 214.45 1.01605 1.62912 0
M  V30 1598 O 215.651 1.3114 2.3464 0
M  V30 1599 C 213.922 3.42256 1.02935 0
M  V30 1600 S 215.481 4.04817 1.69319 0
M  V30 1601 H 212.299 0.690427 0.169799 0
M  V30 1602 H 214.901 1.94234 -0.222101 0
M  V30 1603 H 213.605 4.09842 0.213917 0
M  V30 1604 H 213.136 3.4928 1.81017 0
M  V30 1605 H 215.151 3.96767 2.97977 0
M  V30 1606 N 214.325 -0.140222 1.56975 0
M  V30 1607 C 215.565 -0.857823 1.85528 0
M  V30 1608 C 215.929 -1.78039 0.718768 0
M  V30 1609 O 217.13 -2.53795 0.885521 0
M  V30 1610 C 215.401 -1.60615 3.19277 0
M  V30 1611 S 216.96 -2.36824 3.69405 0
M  V30 1612 H 213.778 -0.286727 0.650622 0
M  V30 1613 H 216.38 -0.117408 1.95147 0
M  V30 1614 H 215.084 -0.919994 3.99955 0
M  V30 1615 H 214.615 -2.38735 3.12681 0
M  V30 1616 H 216.63 -3.62148 3.3921 0
M  V30 1617 N 215.803 -1.52179 -0.40978 0
M  V30 1618 C 216.735 -1.71703 -1.51825 0
M  V30 1619 C 217.748 -0.597445 -1.51441 0
M  V30 1620 O 218.937 -0.872582 -1.55719 0
M  V30 1621 C 216.037 -1.74171 -2.90719 0
M  V30 1622 C 215.21 -3.03156 -3.15302 0
M  V30 1623 C 214.269 -2.97445 -4.34065 0
M  V30 1624 O 213.295 -3.71352 -4.31377 0
M  V30 1625 N 214.497 -2.15191 -5.39141 0
M  V30 1626 H 217.262 -2.67334 -1.35472 0
M  V30 1627 H 214.823 -1.50409 -0.599069 0
M  V30 1628 H 216.815 -1.67884 -3.68235 0
M  V30 1629 H 215.385 -0.860166 -3.00533 0
M  V30 1630 H 214.605 -3.23097 -2.25836 0
M  V30 1631 H 215.893 -3.88484 -3.28569 0
M  V30 1632 H 215.291 -1.54573 -5.44173 0
M  V30 1633 H 213.848 -2.1476 -6.15403 0
M  V30 1634 N 217.281 0.66697 -1.42791 0
M  V30 1635 C 218.506 1.46004 -1.47301 0
M  V30 1636 C 218.931 1.87894 -0.0880317 0
M  V30 1637 O 218.289 1.56502 0.915253 0
M  V30 1638 C 218.337 2.68031 -2.41229 0
M  V30 1639 O 217.441 3.6659 -1.88906 0
M  V30 1640 H 216.782 0.43832 -0.49877 0
M  V30 1641 H 219.312 0.817391 -1.87563 0
M  V30 1642 H 219.322 3.1601 -2.58073 0
M  V30 1643 H 217.997 2.36883 -3.41847 0
M  V30 1644 H 216.574 3.25661 -1.81656 0
M  V30 1645 N 218.759 1.29093 0.90403 0
M  V30 1646 C 219.984 1.19809 1.69294 0
M  V30 1647 C 220.409 -0.238481 1.86582 0
M  V30 1648 O 219.767 -1.1723 1.383 0
M  V30 1649 C 219.815 1.91202 3.05736 0
M  V30 1650 O 218.919 1.22611 3.93752 0
M  V30 1651 H 218.26 0.415385 0.518027 0
M  V30 1652 H 220.79 1.70586 1.12967 0
M  V30 1653 H 220.8 1.99487 3.55906 0
M  V30 1654 H 219.475 2.95692 2.92471 0
M  V30 1655 H 218.052 1.22554 3.52186 0
M  V30 1656 N 220.237 -1.11381 1.11499 0
M  V30 1657 C 221.477 -1.84763 0.874188 0
M  V30 1658 C 221.841 -1.82726 -0.589496 0
M  V30 1659 O 223.042 -2.51562 -0.947089 0
M  V30 1660 C 221.313 -3.27931 1.42112 0
M  V30 1661 S 222.872 -4.18557 1.31739 0
M  V30 1662 H 219.69 -0.637115 0.315603 0
M  V30 1663 H 222.292 -1.34097 1.42261 0
M  V30 1664 H 220.996 -3.26978 2.48019 0
M  V30 1665 H 220.527 -3.83665 0.869761 0
M  V30 1666 H 222.542 -4.95396 0.282335 0
M  V30 1667 N 221.715 -0.905404 -1.28997 0
M  V30 1668 C 222.955 -0.541232 -1.97104 0
M  V30 1669 C 223.319 0.896841 -1.69767 0
M  V30 1670 O 224.52 1.36817 -2.31375 0
M  V30 1671 C 222.791 -0.832134 -3.47578 0
M  V30 1672 S 224.35 -0.573127 -4.35041 0
M  V30 1673 H 221.168 -0.200576 -0.682122 0
M  V30 1674 H 223.77 -1.16906 -1.56694 0
M  V30 1675 H 222.474 -1.87687 -3.64968 0
M  V30 1676 H 222.005 -0.192636 -3.92928 0
M  V30 1677 H 224.02 0.579297 -4.92807 0
M  V30 1678 N 223.193 1.4272 -0.668489 0
M  V30 1679 C 224.14 2.30796 0.0137489 0
M  V30 1680 C 225.11 1.4561 0.799177 0
M  V30 1681 O 226.295 1.74453 0.772702 0
M  V30 1682 C 223.435 3.31377 0.963507 0
M  V30 1683 C 222.548 4.31655 0.172569 0
M  V30 1684 C 221.683 5.19312 1.1175 0
M  V30 1685 C 220.722 6.11274 0.317886 0
M  V30 1686 N 219.859 6.91504 1.2152 0
M  V30 1687 H 224.699 2.88585 -0.743161 0
M  V30 1688 H 222.236 1.42154 -0.378226 0
M  V30 1689 H 224.194 3.88214 1.52792 0
M  V30 1690 H 222.824 2.75202 1.68712 0
M  V30 1691 H 221.876 3.76988 -0.508374 0
M  V30 1692 H 223.188 4.96779 -0.448527 0
M  V30 1693 H 222.342 5.80851 1.75206 0
M  V30 1694 H 221.081 4.5435 1.77249 0
M  V30 1695 H 220.086 5.48809 -0.329918 0
M  V30 1696 H 221.311 6.78283 -0.332917 0
M  V30 1697 H 219.257 6.29176 1.85671 0
M  V30 1698 H 219.174 7.53209 0.649036 0
M  V30 1699 H 220.442 7.57535 1.83742 0
M  V30 1700 N 224.671 0.411399 1.52136 0
M  V30 1701 C 226.082 -0.0576826 1.86611 0
M  V30 1702 C 226.433 -1.44238 1.33003 0
M  V30 1703 O 225.558 -2.05759 0.670228 0
M  V30 1704 C 226.153 -0.111448 3.38617 0
M  V30 1705 C 224.712 -0.52487 3.72723 0
M  V30 1706 C 223.859 0.299176 2.75681 0
M  V30 1707 H 226.81 0.628368 1.4573 0
M  V30 1708 H 226.831 -0.926252 3.69054 0
M  V30 1709 H 226.343 0.896488 3.77604 0
M  V30 1710 H 224.444 -1.53936 3.39315 0
M  V30 1711 H 224.557 -0.267681 4.78352 0
M  V30 1712 H 222.921 -0.238814 2.53578 0
M  V30 1713 H 223.704 1.3055 3.17508 0
M  V30 1714 N 226.149 -1.5696 0.141893 0
M  V30 1715 C 227.374 -2.00754 -0.520838 0
M  V30 1716 C 227.799 -1.0213 -1.57959 0
M  V30 1717 O 227.157 0.00371324 -1.813 0
M  V30 1718 C 227.205 -3.43318 -1.10294 0
M  V30 1719 O 226.309 -3.47679 -2.21795 0
M  V30 1720 H 225.65 -0.651564 -0.127908 0
M  V30 1721 H 228.18 -2.03221 0.23712 0
M  V30 1722 H 228.19 -3.82012 -1.43287 0
M  V30 1723 H 226.865 -4.14608 -0.327574 0
M  V30 1724 H 225.442 -3.20824 -1.9007 0
M  V30 1725 N 227.627 0.131896 -1.57047 0
M  V30 1726 C 228.867 0.847972 -1.85981 0
M  V30 1727 C 229.231 1.77655 -0.7282 0
M  V30 1728 O 230.432 2.53322 -0.898968 0
M  V30 1729 C 228.703 1.58919 -3.20124 0
M  V30 1730 S 230.262 2.34862 -3.70655 0
M  V30 1731 H 227.08 0.283273 -0.652133 0
M  V30 1732 H 229.682 0.107057 -1.95207 0
M  V30 1733 H 228.386 0.898771 -4.00438 0
M  V30 1734 H 227.917 2.37073 -3.13942 0
M  V30 1735 H 229.932 3.60344 -3.41126 0
M  V30 1736 N 229.106 1.52395 0.401703 0
M  V30 1737 C 230.331 1.70972 1.17403 0
M  V30 1738 C 230.756 0.421615 1.83314 0
M  V30 1739 O 230.114 -0.621564 1.70312 0
M  V30 1740 C 230.162 2.85151 2.20728 0
M  V30 1741 O 229.266 2.51238 3.27037 0
M  V30 1742 H 228.607 0.568927 0.342372 0
M  V30 1743 H 231.137 1.99131 0.469891 0
M  V30 1744 H 231.147 3.10279 2.64936 0
M  V30 1745 H 229.822 3.78603 1.7214 0
M  V30 1746 H 228.399 2.36808 2.88057 0
M  V30 1747 N 230.584 -0.659388 1.43143 0
M  V30 1748 C 231.516 -1.7849 1.43784 0
M  V30 1749 C 232.529 -1.5932 0.334787 0
M  V30 1750 O 233.718 -1.68155 0.598842 0
M  V30 1751 C 230.818 -3.15828 1.22906 0
M  V30 1752 C 229.991 -3.61711 2.45934 0
M  V30 1753 C 229.05 -4.77831 2.20371 0
M  V30 1754 O 228.076 -4.87586 2.93681 0
M  V30 1755 N 229.278 -5.67611 1.21647 0
M  V30 1756 H 232.043 -1.7842 2.40803 0
M  V30 1757 H 229.604 -0.84302 1.3822 0
M  V30 1758 H 231.596 -3.91189 1.03697 0
M  V30 1759 H 230.166 -3.10707 0.343542 0
M  V30 1760 H 229.386 -2.76861 2.80609 0
M  V30 1761 H 230.674 -3.89112 3.27825 0
M  V30 1762 H 230.072 -5.62397 0.610449 0
M  V30 1763 H 228.629 -6.42719 1.08423 0
M  V30 1764 N 232.062 -1.29571 -0.897171 0
M  V30 1765 C 233.287 -1.20705 -1.68656 0
M  V30 1766 C 233.712 0.228582 -1.86706 0
M  V30 1767 O 233.07 1.16494 -1.3892 0
M  V30 1768 C 233.118 -1.9282 -3.04717 0
M  V30 1769 O 232.222 -1.24697 -3.93096 0
M  V30 1770 H 231.563 -0.418126 -0.515816 0
M  V30 1771 H 234.093 -1.71183 -1.12061 0
M  V30 1772 H 234.103 -2.01372 -3.54843 0
M  V30 1773 H 232.778 -2.97239 -2.90899 0
M  V30 1774 H 231.355 -1.2442 -3.51531 0
M  V30 1775 N 233.54 1.10788 -1.12088 0
M  V30 1776 C 234.765 1.87002 -0.896949 0
M  V30 1777 C 235.19 1.79933 0.548261 0
M  V30 1778 O 234.548 1.16662 1.38779 0
M  V30 1779 C 234.596 3.3349 -1.37174 0
M  V30 1780 O 233.7 4.08745 -0.547831 0
M  V30 1781 H 233.041 0.580397 -0.322545 0
M  V30 1782 H 235.571 1.39996 -1.49206 0
M  V30 1783 H 235.581 3.84339 -1.36922 0
M  V30 1784 H 234.256 3.37951 -2.42408 0
M  V30 1785 H 232.833 3.6776 -0.617034 0
M  V30 1786 N 235.018 0.912232 1.28515 0
M  V30 1787 C 236.258 0.551677 1.96814 0
M  V30 1788 C 236.622 -0.887825 1.7024 0
M  V30 1789 O 237.823 -1.35588 2.32098 0
M  V30 1790 C 236.094 0.850555 3.47132 0
M  V30 1791 S 237.653 0.59619 4.34731 0
M  V30 1792 H 234.471 0.204191 0.681049 0
M  V30 1793 H 237.073 1.17736 1.56072 0
M  V30 1794 H 235.777 1.8962 3.63968 0
M  V30 1795 H 235.308 0.213471 3.9282 0
M  V30 1796 H 237.323 -0.553154 4.93107 0
M  V30 1797 N 236.496 -1.42363 0.676048 0
M  V30 1798 C 237.736 -2.03392 0.20273 0
M  V30 1799 C 238.1 -1.52306 -1.16906 0
M  V30 1800 O 239.301 -2.05129 -1.73711 0
M  V30 1801 C 237.572 -3.56614 0.236947 0
M  V30 1802 S 239.131 -4.38489 -0.165186 0
M  V30 1803 H 235.949 -0.70611 0.0832418 0
M  V30 1804 H 238.551 -1.74093 0.88948 0
M  V30 1805 H 237.255 -3.91293 1.23767 0
M  V30 1806 H 236.786 -3.90587 -0.469596 0
M  V30 1807 H 238.801 -4.76093 -1.39822 0
M  V30 1808 N 237.974 -0.419461 -1.51915 0
M  V30 1809 C 238.921 0.400927 -2.27291 0
M  V30 1810 C 239.891 1.03224 -1.30131 0
M  V30 1811 O 241.076 1.05455 -1.59009 0
M  V30 1812 C 238.216 1.50603 -3.10504 0
M  V30 1813 C 237.329 0.89462 -4.22635 0
M  V30 1814 C 236.464 1.97328 -4.93189 0
M  V30 1815 C 235.503 1.33935 -5.97267 0
M  V30 1816 N 234.64 2.3586 -6.61298 0
M  V30 1817 H 239.48 -0.248251 -2.96964 0
M  V30 1818 H 237.017 -0.134266 -1.46486 0
M  V30 1819 H 238.975 2.15783 -3.57062 0
M  V30 1820 H 237.605 2.12509 -2.42981 0
M  V30 1821 H 236.657 0.131583 -3.80172 0
M  V30 1822 H 237.969 0.391641 -4.9726 0
M  V30 1823 H 237.123 2.70211 -5.43204 0
M  V30 1824 H 235.862 2.50994 -4.18155 0
M  V30 1825 H 234.867 0.595896 -5.46561 0
M  V30 1826 H 236.092 0.810252 -6.74249 0
M  V30 1827 H 234.038 2.88639 -5.89087 0
M  V30 1828 H 233.955 1.90403 -7.3163 0
M  V30 1829 H 235.223 3.08282 -7.15949 0
M  V30 1830 N 239.452 1.56882 -0.150215 0
M  V30 1831 C 240.863 1.82995 0.370076 0
M  V30 1832 C 241.214 1.06907 1.64515 0
M  V30 1833 O 240.339 0.315369 2.1409 0
M  V30 1834 C 240.934 3.31942 0.678208 0
M  V30 1835 C 239.493 3.58625 1.14301 0
M  V30 1836 C 238.64 2.76792 0.167778 0
M  V30 1837 H 241.591 1.54209 -0.374858 0
M  V30 1838 H 241.612 3.48272 1.53254 0
M  V30 1839 H 241.124 3.87294 -0.249991 0
M  V30 1840 H 239.225 3.08664 2.08704 0
M  V30 1841 H 239.338 4.67073 1.06676 0
M  V30 1842 H 237.702 2.45972 0.661037 0
M  V30 1843 H 238.485 3.34916 -0.754069 0
M  V30 1844 N 240.93 -0.123565 1.57115 0
M  V30 1845 C 242.17 -0.838097 1.86428 0
M  V30 1846 C 242.534 -1.77266 0.737611 0
M  V30 1847 O 243.735 -2.52842 0.912389 0
M  V30 1848 C 242.006 -1.57219 3.20962 0
M  V30 1849 S 243.565 -2.32893 3.71896 0
M  V30 1850 H 240.383 -0.279811 0.653626 0
M  V30 1851 H 242.985 -0.0967034 1.95261 0
M  V30 1852 H 241.689 -0.877522 4.00909 0
M  V30 1853 H 241.22 -2.35405 3.15195 0
M  V30 1854 H 243.235 -3.5853 3.43032 0
M  V30 1855 N 242.408 -1.52605 -0.393616 0
M  V30 1856 C 243.648 -1.6911 -1.1481 0
M  V30 1857 C 244.012 -0.41969 -1.87357 0
M  V30 1858 O 245.213 -0.461034 -2.64817 0
M  V30 1859 C 243.484 -2.88909 -2.10395 0
M  V30 1860 S 245.043 -3.25977 -2.93742 0
M  V30 1861 H 241.861 -0.595337 -0.38871 0
M  V30 1862 H 244.463 -1.90641 -0.433178 0
M  V30 1863 H 243.167 -3.79672 -1.55812 0
M  V30 1864 H 242.698 -2.69698 -2.86403 0
M  V30 1865 H 244.713 -2.75806 -4.12487 0
M  V30 1866 N 243.887 0.651787 -1.4349 0
M  V30 1867 C 245.112 1.44434 -1.48841 0
M  V30 1868 C 245.537 1.8779 -0.107955 0
M  V30 1869 O 244.895 1.57464 0.898602 0
M  V30 1870 C 244.943 2.65458 -2.44059 0
M  V30 1871 O 244.047 3.64566 -1.92784 0
M  V30 1872 H 243.388 0.433005 -0.503391 0
M  V30 1873 H 245.918 0.797451 -1.88419 0
M  V30 1874 H 245.928 3.13255 -2.6141 0
M  V30 1875 H 244.603 2.33244 -3.4434 0
M  V30 1876 H 243.18 3.23716 -1.851 0
M  V30 1877 N 245.365 1.30045 0.890287 0
M  V30 1878 C 246.297 1.11786 2.00091 0
M  V30 1879 C 247.31 0.0626307 1.62679 0
M  V30 1880 O 248.499 0.308112 1.75821 0
M  V30 1881 C 245.599 0.681527 3.31977 0
M  V30 1882 C 244.772 1.81735 3.97858 0
M  V30 1883 C 243.831 1.37045 5.08041 0
M  V30 1884 O 242.857 2.07677 5.29961 0
M  V30 1885 N 244.059 0.246525 5.79976 0
M  V30 1886 H 246.824 2.07441 2.16306 0
M  V30 1887 H 244.385 1.2211 1.06305 0
M  V30 1888 H 246.377 0.365675 4.03045 0
M  V30 1889 H 244.947 -0.182828 3.12065 0
M  V30 1890 H 244.167 2.30159 3.20032 0
M  V30 1891 H 245.455 2.57865 4.38615 0
M  V30 1892 H 244.853 -0.34215 5.64664 0
M  V30 1893 H 243.41 -0.00990438 6.51799 0
M  V30 1894 N 246.843 -1.10192 1.12674 0
M  V30 1895 C 248.068 -1.86523 0.906853 0
M  V30 1896 C 248.493 -1.80221 -0.538711 0
M  V30 1897 O 247.851 -1.17396 -1.38158 0
M  V30 1898 C 247.899 -3.32758 1.3894 0
M  V30 1899 O 247.003 -4.08449 0.5695 0
M  V30 1900 H 246.344 -0.578678 0.325619 0
M  V30 1901 H 248.874 -1.39203 1.49946 0
M  V30 1902 H 248.884 -3.83608 1.38958 0
M  V30 1903 H 247.559 -3.36661 2.44197 0
M  V30 1904 H 246.136 -3.67427 0.636528 0
M  V30 1905 N 248.321 -0.919034 -1.28029 0
M  V30 1906 C 249.546 -0.570357 -1.99403 0
M  V30 1907 C 249.971 0.842486 -1.68178 0
M  V30 1908 O 249.329 1.56391 -0.917141 0
M  V30 1909 C 249.377 -0.792541 -3.51783 0
M  V30 1910 O 248.481 0.145988 -4.12142 0
M  V30 1911 H 247.822 -0.220555 -0.6263 0
M  V30 1912 H 250.352 -1.23592 -1.63053 0
M  V30 1913 H 250.362 -0.704708 -4.01868 0
M  V30 1914 H 249.037 -1.82247 -3.73844 0
M  V30 1915 H 247.614 0.00897528 -3.72899 0
M  V30 1916 N 249.799 1.42003 -0.683588 0
M  V30 1917 C 251.039 2.03282 -0.213513 0
M  V30 1918 C 251.403 1.52924 1.16097 0
M  V30 1919 O 252.604 2.06048 1.7262 0
M  V30 1920 C 250.875 3.56483 -0.255856 0
M  V30 1921 S 252.434 4.3857 0.14193 0
M  V30 1922 H 249.252 0.705659 -0.0869853 0
M  V30 1923 H 251.854 1.73619 -0.8987 0
M  V30 1924 H 250.558 3.90631 -1.25841 0
M  V30 1925 H 250.089 3.90831 0.448875 0
M  V30 1926 H 252.104 4.76828 1.37295 0
M  V30 1927 N 251.277 0.427512 1.51691 0
M  V30 1928 C 252.517 -0.141524 2.03909 0
M  V30 1929 C 252.881 -1.40811 1.30523 0
M  V30 1930 O 254.082 -2.05676 1.73063 0
M  V30 1931 C 252.353 -0.364962 3.55532 0
M  V30 1932 S 253.912 -0.898812 4.29496 0
M  V30 1933 H 250.73 -0.0364542 0.710065 0
M  V30 1934 H 253.332 0.584659 1.86553 0
M  V30 1935 H 252.036 0.56336 4.06515 0
M  V30 1936 H 251.567 -1.1185 3.77164 0
M  V30 1937 H 253.582 -2.17747 4.45871 0
M  V30 1938 N 252.755 -1.56801 0.158532 0
M  V30 1939 C 253.702 -2.17337 -0.776729 0
M  V30 1940 C 254.672 -1.1096 -1.23601 0
M  V30 1941 O 255.857 -1.39054 -1.30647 0
M  V30 1942 C 252.997 -2.80822 -2.00582 0
M  V30 1943 C 252.11 -4.01624 -1.59129 0
M  V30 1944 C 251.245 -4.53072 -2.77306 0
M  V30 1945 C 250.284 -5.66314 -2.32282 0
M  V30 1946 N 249.421 -6.12329 -3.43508 0
M  V30 1947 H 254.261 -2.96918 -0.253701 0
M  V30 1948 H 251.798 -1.46661 -0.113504 0
M  V30 1949 H 253.756 -3.15779 -2.72652 0
M  V30 1950 H 252.386 -2.03866 -2.50277 0
M  V30 1951 H 251.438 -3.72571 -0.767806 0
M  V30 1952 H 252.75 -4.83633 -1.2207 0
M  V30 1953 H 251.904 -4.90145 -3.57551 0
M  V30 1954 H 250.643 -3.70095 -3.17617 0
M  V30 1955 H 249.648 -5.28806 -1.5048 0
M  V30 1956 H 250.873 -6.51085 -1.93043 0
M  V30 1957 H 248.819 -5.32284 -3.83418 0
M  V30 1958 H 248.736 -6.89293 -3.105 0
M  V30 1959 H 250.004 -6.5405 -4.24075 0
M  V30 1960 N 254.233 0.115231 -1.57178 0
M  V30 1961 C 255.644 0.67197 -1.74188 0
M  V30 1962 C 255.995 1.80125 -0.777777 0
M  V30 1963 O 255.12 2.16346 0.0484376 0
M  V30 1964 C 255.715 1.22573 -3.1585 0
M  V30 1965 C 254.274 1.72872 -3.34353 0
M  V30 1966 C 253.421 0.629972 -2.70049 0
M  V30 1967 H 256.372 -0.110712 -1.58313 0
M  V30 1968 H 256.393 2.09535 -3.17609 0
M  V30 1969 H 255.905 0.403598 -3.85996 0
M  V30 1970 H 254.006 2.5755 -2.69256 0
M  V30 1971 H 254.119 1.83557 -4.42542 0
M  V30 1972 H 252.483 1.0645 -2.31388 0
M  V30 1973 H 253.266 -0.181241 -3.42821 0
M  V30 1974 N 255.711 1.52812 0.385517 0
M  V30 1975 C 256.951 1.69716 1.13911 0
M  V30 1976 C 257.315 0.42962 1.87132 0
M  V30 1977 O 258.516 0.475071 2.64569 0
M  V30 1978 C 256.787 2.90021 2.0886 0
M  V30 1979 S 258.346 3.27531 2.92009 0
M  V30 1980 H 255.164 0.59739 0.385547 0
M  V30 1981 H 257.766 1.90868 0.423061 0
M  V30 1982 H 256.47 3.80493 1.53797 0
M  V30 1983 H 256.001 2.71213 2.84969 0
M  V30 1984 H 258.016 2.77989 4.11019 0
M  V30 1985 N 257.189 -0.644168 1.43834 0
M  V30 1986 C 258.429 -1.41565 1.47441 0
M  V30 1987 C 258.793 -1.91743 0.0992723 0
M  V30 1988 O 259.994 -2.68798 0.0100192 0
M  V30 1989 C 258.265 -2.55902 2.49498 0
M  V30 1990 S 259.824 -3.44287 2.72051 0
M  V30 1991 H 256.642 -0.483118 0.521649 0
M  V30 1992 H 259.244 -0.747008 1.80666 0
M  V30 1993 H 257.948 -2.17327 3.48134 0
M  V30 1994 H 257.479 -3.27607 2.17801 0
M  V30 1995 H 259.494 -4.52927 2.0266 0
M  V30 1996 N 258.668 -1.30515 -0.883378 0
M  V30 1997 C 259.908 -1.20716 -1.64946 0
M  V30 1998 C 260.272 0.234072 -1.90568 0
M  V30 1999 O 261.473 0.455335 -2.64915 0
M  V30 2000 C 259.744 -2.01444 -2.9522 0
M  V30 2001 S 261.303 -2.0836 -3.86175 0
M  V30 2002 H 258.121 -0.430165 -0.566109 0
M  V30 2003 H 260.723 -1.65011 -1.04841 0
M  V30 2004 H 259.427 -3.05268 -2.74298 0
M  V30 2005 H 258.958 -1.57817 -3.60357 0
M  V30 2006 H 260.973 -1.21215 -4.81167 0
M  V30 2007 N 260.146 1.09593 -1.13257 0
M  V30 2008 C 261.371 1.8604 -0.916732 0
M  V30 2009 C 261.796 1.80504 0.529146 0
M  V30 2010 O 261.154 1.18127 1.37534 0
M  V30 2011 C 261.202 3.32017 -1.40703 0
M  V30 2012 O 260.306 4.08141 -0.591153 0
M  V30 2013 H 259.647 0.576943 -0.328683 0
M  V30 2014 H 262.177 1.38405 -1.50682 0
M  V30 2015 H 262.187 3.82865 -1.4099 0
M  V30 2016 H 260.862 3.35361 -2.45979 0
M  V30 2017 H 259.439 3.67084 -0.656005 0
M  V30 2018 N 261.624 0.925811 1.2754 0
M  V30 2019 C 262.849 0.580924 1.99098 0
M  V30 2020 C 263.274 -0.833555 1.68622 0
M  V30 2021 O 262.632 -1.55903 0.925422 0
M  V30 2022 C 262.68 0.811186 3.51358 0
M  V30 2023 O 261.784 -0.124129 4.12213 0
M  V30 2024 H 261.125 0.223873 0.625122 0
M  V30 2025 H 263.655 1.24455 1.62395 0
M  V30 2026 H 263.665 0.72601 4.01489 0
M  V30 2027 H 262.34 1.84227 3.72872 0
M  V30 2028 H 260.917 0.0108006 3.72898 0
M  V30 2029 N 263.102 -1.41638 0.69111 0
M  V30 2030 C 264.35 -2.00902 0.219758 0
M  V30 2031 C 264.671 -1.54994 -1.18329 0
M  V30 2032 O 263.941 -0.778628 -1.79762 0
M  V30 2033 H 262.521 -0.74289 0.0782558 0
M  V30 2034 H 265.183 -1.73327 0.891271 0
M  V30 2035 H 264.279 -3.11224 0.233708 0
M  V30 2036 N 264.58 -0.43555 -1.51462 0
M  V30 2037 C 265.82 0.130708 -2.03982 0
M  V30 2038 C 266.184 1.40117 -1.31268 0
M  V30 2039 O 267.385 2.04755 -1.74152 0
M  V30 2040 C 265.656 0.346102 -3.5572 0
M  V30 2041 S 267.215 0.876022 -4.29967 0
M  V30 2042 H 264.033 0.0326881 -0.710248 0
M  V30 2043 H 266.635 -0.594544 -1.8624 0
M  V30 2044 H 265.339 -0.584911 -4.0621 0
M  V30 2045 H 264.87 1.09849 -3.77752 0
M  V30 2046 H 266.885 2.15379 -4.47019 0
M  V30 2047 N 266.058 1.56714 -0.166846 0
M  V30 2048 C 267.306 1.96358 0.478305 0
M  V30 2049 C 267.627 1.0537 1.6408 0
M  V30 2050 O 266.897 0.119154 1.95537 0
M  V30 2051 H 265.477 0.725065 0.179692 0
M  V30 2052 H 268.139 1.93329 -0.246985 0
M  V30 2053 H 267.235 3.00547 0.841292 0
M  V30 2054 N 267.536 -0.106894 1.57237 0
M  V30 2055 C 268.761 -0.830287 1.90055 0
M  V30 2056 C 269.186 -1.72064 0.75998 0
M  V30 2057 O 268.544 -1.78982 -0.288991 0
M  V30 2058 C 268.592 -1.6295 3.21683 0
M  V30 2059 O 267.696 -2.73748 3.08441 0
M  V30 2060 H 267.037 -0.228855 0.623315 0
M  V30 2061 H 269.567 -0.085658 2.04421 0
M  V30 2062 H 269.577 -2.01621 3.54701 0
M  V30 2063 H 268.252 -0.975989 4.04286 0
M  V30 2064 H 266.829 -2.38192 2.86913 0
M  V30 2065 N 269.014 -1.53014 -0.377408 0
M  V30 2066 C 270.239 -1.72818 -1.14668 0
M  V30 2067 C 270.664 -0.450725 -1.8262 0
M  V30 2068 O 270.022 0.59439 -1.7128 0
M  V30 2069 C 270.07 -2.88627 -2.16164 0
M  V30 2070 O 269.174 -2.56409 -3.22998 0
M  V30 2071 H 268.515 -0.574301 -0.333278 0
M  V30 2072 H 271.045 -1.99853 -0.438152 0
M  V30 2073 H 271.055 -3.14455 -2.59966 0
M  V30 2074 H 269.73 -3.81294 -1.66095 0
M  V30 2075 H 268.307 -2.4136 -2.84253 0
M  V30 2076 N 270.492 0.636531 -1.44174 0
M  V30 2077 C 271.732 1.40781 -1.48189 0
M  V30 2078 C 272.096 1.91688 -0.10944 0
M  V30 2079 O 273.297 2.68789 -0.0242741 0
M  V30 2080 C 271.568 2.54575 -2.50851 0
M  V30 2081 S 273.127 3.4284 -2.73873 0
M  V30 2082 H 269.945 0.480345 -0.524204 0
M  V30 2083 H 272.547 0.737416 -1.81059 0
M  V30 2084 H 271.251 2.15478 -3.49281 0
M  V30 2085 H 270.782 3.26447 -2.19536 0
M  V30 2086 H 272.797 4.51846 -2.05059 0
M  V30 2087 N 271.97 1.30982 0.876444 0
M  V30 2088 C 273.21 1.21589 1.64303 0
M  V30 2089 C 273.574 -0.223962 1.90689 0
M  V30 2090 O 274.775 -0.44128 2.65153 0
M  V30 2091 C 273.046 2.03007 2.94148 0
M  V30 2092 S 274.605 2.10405 3.85065 0
M  V30 2093 H 271.423 0.433161 0.563819 0
M  V30 2094 H 274.025 1.65565 1.03964 0
M  V30 2095 H 272.729 3.06719 2.72675 0
M  V30 2096 H 272.26 1.59725 3.59515 0
M  V30 2097 H 274.275 1.23765 4.80517 0
M  V30 2098 N 273.449 -1.08991 1.13837 0
M  V30 2099 C 274.381 -2.15606 0.777612 0
M  V30 2100 C 275.394 -1.61533 -0.202739 0
M  V30 2101 O 276.583 -1.78491 0.0181055 0
M  V30 2102 C 273.683 -3.3864 0.132623 0
M  V30 2103 C 272.856 -4.22115 1.1462 0
M  V30 2104 C 271.915 -5.23564 0.526074 0
M  V30 2105 O 270.941 -5.56678 1.18735 0
M  V30 2106 N 272.143 -5.76266 -0.699866 0
M  V30 2107 H 274.908 -2.47159 1.69506 0
M  V30 2108 H 272.469 -1.24747 1.03198 0
M  V30 2109 H 274.461 -4.03626 -0.29459 0
M  V30 2110 H 273.031 -3.04938 -0.687849 0
M  V30 2111 H 272.251 -3.53199 1.75055 0
M  V30 2112 H 273.539 -4.74709 1.83109 0
M  V30 2113 H 272.937 -5.51585 -1.25581 0
M  V30 2114 H 271.494 -6.42963 -1.06968 0
M  V30 2115 N 274.927 -0.932562 -1.27047 0
M  V30 2116 C 276.152 -0.591474 -1.98787 0
M  V30 2117 C 276.577 0.824601 -1.69062 0
M  V30 2118 O 275.935 1.5541 -0.933677 0
M  V30 2119 C 275.983 -0.829808 -3.50922 0
M  V30 2120 O 275.087 0.102266 -4.12273 0
M  V30 2121 H 274.428 -0.227185 -0.623926 0
M  V30 2122 H 276.958 -1.25314 -1.61733 0
M  V30 2123 H 276.968 -0.747292 -4.01098 0
M  V30 2124 H 275.643 -1.86201 -3.7189 0
M  V30 2125 H 274.22 -0.0305761 -3.72887 0
M  V30 2126 N 276.405 1.4127 -0.698611 0
M  V30 2127 C 277.63 2.06024 -0.238512 0
M  V30 2128 C 278.055 1.5224 1.10475 0
M  V30 2129 O 277.413 0.650623 1.69223 0
M  V30 2130 C 277.461 3.59988 -0.209952 0
M  V30 2131 O 276.565 4.04282 0.814235 0
M  V30 2132 H 275.906 0.653829 -0.115775 0
M  V30 2133 H 278.436 1.8098 -0.954326 0
M  V30 2134 H 278.446 4.07979 -0.0418436 0
M  V30 2135 H 277.121 3.98503 -1.1903 0
M  V30 2136 H 275.698 3.6779 0.615234 0
M  V30 2137 N 277.883 0.443576 1.51229 0
M  V30 2138 C 279.123 -0.119889 2.04048 0
M  V30 2139 C 279.487 -1.39418 1.32009 0
M  V30 2140 O 280.688 -2.03829 1.75235 0
M  V30 2141 C 278.959 -0.327233 3.55899 0
M  V30 2142 S 280.518 -0.853208 4.30425 0
M  V30 2143 H 277.336 -0.028921 0.710412 0
M  V30 2144 H 279.938 0.604413 1.85922 0
M  V30 2145 H 278.642 0.606445 4.05895 0
M  V30 2146 H 278.173 -1.07844 3.7833 0
M  V30 2147 H 280.188 -2.13005 4.48155 0
M  V30 2148 N 279.361 -1.56624 0.175154 0
M  V30 2149 C 280.601 -1.98894 -0.471221 0
M  V30 2150 C 280.965 -1.05889 -1.60161 0
M  V30 2151 O 282.166 -1.37315 -2.3108 0
M  V30 2152 C 280.437 -3.44865 -0.938241 0
M  V30 2153 S 281.996 -4.09164 -1.58526 0
M  V30 2154 H 278.814 -0.694686 -0.151434 0
M  V30 2155 H 281.416 -1.93577 0.27352 0
M  V30 2156 H 280.12 -4.10265 -0.10518 0
M  V30 2157 H 279.651 -3.53956 -1.71693 0
M  V30 2158 H 281.666 -4.04528 -2.87352 0
M  V30 2159 N 280.839 0.0985539 -1.57292 0
M  V30 2160 C 281.786 1.11981 -2.01814 0
M  V30 2161 C 282.756 1.39999 -0.89384 0
M  V30 2162 O 283.941 1.5152 -1.15958 0
M  V30 2163 C 281.081 2.43577 -2.44467 0
M  V30 2164 C 280.194 2.2232 -3.70402 0
M  V30 2165 C 279.329 3.4729 -4.01949 0
M  V30 2166 C 278.368 3.2128 -5.21005 0
M  V30 2167 N 277.505 4.38507 -5.48321 0
M  V30 2168 H 282.345 0.733149 -2.88841 0
M  V30 2169 H 279.882 0.350482 -1.42864 0
M  V30 2170 H 281.84 3.20373 -2.6724 0
M  V30 2171 H 280.47 2.80097 -1.60455 0
M  V30 2172 H 279.522 1.36343 -3.55126 0
M  V30 2173 H 280.834 1.99089 -4.57345 0
M  V30 2174 H 279.988 4.32495 -4.25479 0
M  V30 2175 H 278.727 3.73572 -3.13521 0
M  V30 2176 H 277.732 2.34468 -4.97298 0
M  V30 2177 H 278.957 2.96348 -6.11028 0
M  V30 2178 H 276.903 4.64871 -4.62851 0
M  V30 2179 H 276.82 4.18455 -6.29628 0
M  V30 2180 H 278.088 5.24787 -5.76385 0
M  V30 2181 N 282.317 1.53212 0.369288 0
M  V30 2182 C 283.728 1.60943 0.946276 0
M  V30 2183 C 284.079 0.47452 1.90375 0
M  V30 2184 O 283.204 -0.399597 2.12679 0
M  V30 2185 C 283.799 2.91715 1.72302 0
M  V30 2186 C 282.358 3.01792 2.24941 0
M  V30 2187 C 281.505 2.56211 1.06072 0
M  V30 2188 H 284.456 1.58007 0.148198 0
M  V30 2189 H 284.477 2.79309 2.58393 0
M  V30 2190 H 283.989 3.74295 1.0259 0
M  V30 2191 H 282.09 2.23791 2.97906 0
M  V30 2192 H 282.203 4.06803 2.53077 0
M  V30 2193 H 280.567 2.10998 1.4266 0
M  V30 2194 H 281.35 3.41206 0.378639 0
M  V30 2195 N 283.795 -0.628877 1.44509 0
M  V30 2196 C 285.035 -1.39993 1.48934 0
M  V30 2197 C 285.399 -1.91627 0.119604 0
M  V30 2198 O 286.6 -2.68772 0.0385283 0
M  V30 2199 C 284.871 -2.53241 2.52198 0
M  V30 2200 S 286.43 -3.41383 2.75687 0
M  V30 2201 H 283.248 -0.477558 0.526744 0
M  V30 2202 H 285.85 -0.727804 1.81448 0
M  V30 2203 H 284.554 -2.13622 3.50419 0
M  V30 2204 H 284.085 -3.25278 2.21264 0
M  V30 2205 H 286.1 -4.50752 2.07453 0
M  V30 2206 N 285.273 -1.31445 -0.869486 0
M  V30 2207 C 286.513 -1.22458 -1.63656 0
M  V30 2208 C 286.877 0.213846 -1.90805 0
M  V30 2209 O 288.078 0.427212 -2.65383 0
M  V30 2210 C 286.349 -2.04564 -2.93067 0
M  V30 2211 S 287.908 -2.12445 -3.83944 0
M  V30 2212 H 284.726 -0.436145 -0.561514 0
M  V30 2213 H 287.328 -1.66114 -1.03085 0
M  V30 2214 H 286.032 -3.0816 -2.71045 0
M  V30 2215 H 285.563 -1.6163 -3.58663 0
M  V30 2216 H 287.578 -1.26312 -4.79854 0
M  V30 2217 N 286.751 1.08385 -1.14413 0
M  V30 2218 C 287.976 1.85057 -0.936413 0
M  V30 2219 C 288.401 1.81055 0.509971 0
M  V30 2220 O 287.759 1.1958 1.36273 0
M  V30 2221 C 287.807 3.30505 -1.44217 0
M  V30 2222 O 286.911 4.07491 -0.634409 0
M  V30 2223 H 286.252 0.573425 -0.334784 0
M  V30 2224 H 288.782 1.36799 -1.52142 0
M  V30 2225 H 288.792 3.81348 -1.45043 0
M  V30 2226 H 287.467 3.32734 -2.49522 0
M  V30 2227 H 286.044 3.66368 -0.694902 0
M  V30 2228 N 288.23 0.939286 1.26551 0
M  V30 2229 C 289.162 0.404704 2.25599 0
M  V30 2230 C 290.175 -0.470983 1.55838 0
M  V30 2231 O 291.364 -0.281734 1.76263 0
M  V30 2232 C 288.464 -0.43764 3.36062 0
M  V30 2233 C 287.637 0.421449 4.35365 0
M  V30 2234 C 286.696 -0.36015 5.24966 0
M  V30 2235 O 285.722 0.236167 5.6871 0
M  V30 2236 N 286.924 -1.65715 5.56344 0
M  V30 2237 H 289.689 1.25618 2.72103 0
M  V30 2238 H 287.25 0.807963 1.40298 0
M  V30 2239 H 289.242 -0.967866 3.92956 0
M  V30 2240 H 287.812 -1.18991 2.89067 0
M  V30 2241 H 287.032 1.1329 3.7757 0
M  V30 2242 H 288.32 1.00835 4.98708 0
M  V30 2243 H 287.718 -2.16378 5.22682 0
M  V30 2244 H 286.275 -2.13366 6.15888 0
M  V30 2245 N 289.708 -1.40897 0.706093 0
M  V30 2246 C 290.933 -2.05895 0.249435 0
M  V30 2247 C 291.358 -1.52823 -1.09666 0
M  V30 2248 O 290.716 -0.659589 -1.68876 0
M  V30 2249 C 290.764 -3.59872 0.22904 0
M  V30 2250 O 289.868 -4.04708 -0.792784 0
M  V30 2251 H 289.209 -0.653206 0.119241 0
M  V30 2252 H 291.739 -1.80471 0.96391 0
M  V30 2253 H 291.749 -4.07951 0.0634791 0
M  V30 2254 H 290.424 -3.97866 1.21141 0
M  V30 2255 H 289.001 -3.68111 -0.59572 0
M  V30 2256 N 291.186 -0.45159 -1.50991 0
M  V30 2257 C 292.411 0.110667 -2.07105 0
M  V30 2258 C 292.836 1.3446 -1.31538 0
M  V30 2259 O 292.194 1.77743 -0.357365 0
M  V30 2260 C 292.242 0.397238 -3.58405 0
M  V30 2261 O 291.346 1.48124 -3.84881 0
M  V30 2262 H 290.687 -0.00439271 -0.663985 0
M  V30 2263 H 293.217 -0.637026 -1.9443 0
M  V30 2264 H 293.227 0.64351 -4.02893 0
M  V30 2265 H 291.902 -0.504553 -4.12828 0
M  V30 2266 H 290.479 1.22381 -3.52246 0
M  V30 2267 N 292.664 1.56529 -0.183458 0
M  V30 2268 C 293.904 1.99141 0.460667 0
M  V30 2269 C 294.268 1.06736 1.59597 0
M  V30 2270 O 295.469 1.38538 2.30349 0
M  V30 2271 C 293.74 3.45358 0.919939 0
M  V30 2272 S 295.299 4.09999 1.56354 0
M  V30 2273 H 292.117 0.695479 0.147748 0
M  V30 2274 H 294.719 1.93429 -0.283782 0
M  V30 2275 H 293.423 4.10315 0.0834208 0
M  V30 2276 H 292.954 3.54862 1.69814 0
M  V30 2277 H 294.969 4.06046 2.85203 0
M  V30 2278 N 294.142 -0.090211 1.57342 0
M  V30 2279 C 295.382 -0.798365 1.88163 0
M  V30 2280 C 295.746 -1.75662 0.775046 0
M  V30 2281 O 296.947 -2.50849 0.965816 0
M  V30 2282 C 295.218 -1.50376 3.24225 0
M  V30 2283 S 296.777 -2.24952 3.76752 0
M  V30 2284 H 293.595 -0.265883 0.659414 0
M  V30 2285 H 296.197 -0.055264 1.95422 0
M  V30 2286 H 294.901 -0.792286 4.0268 0
M  V30 2287 H 294.432 -2.28666 3.20118 0
M  V30 2288 H 296.447 -3.51173 3.5056 0
M  V30 2289 N 295.62 -1.53406 -0.361157 0
M  V30 2290 C 296.567 -1.80156 -1.44265 0
M  V30 2291 C 297.537 -0.646183 -1.53015 0
M  V30 2292 O 298.722 -0.888818 -1.68833 0
M  V30 2293 C 295.862 -2.00116 -2.81154 0
M  V30 2294 C 294.975 -3.27833 -2.81335 0
M  V30 2295 C 294.11 -3.37957 -4.09828 0
M  V30 2296 C 293.149 -4.59689 -4.04168 0
M  V30 2297 N 292.286 -4.66942 -5.24318 0
M  V30 2298 H 297.126 -2.72438 -1.20754 0
M  V30 2299 H 294.663 -1.34954 -0.585296 0
M  V30 2300 H 296.621 -2.09677 -3.60682 0
M  V30 2301 H 295.251 -1.11167 -3.03054 0
M  V30 2302 H 294.303 -3.27204 -1.94014 0
M  V30 2303 H 295.615 -4.17442 -2.73027 0
M  V30 2304 H 294.769 -3.46853 -4.97773 0
M  V30 2305 H 293.508 -2.46372 -4.20894 0
M  V30 2306 H 292.513 -4.50889 -3.14609 0
M  V30 2307 H 293.738 -5.5262 -3.947 0
M  V30 2308 H 291.684 -3.7826 -5.35962 0
M  V30 2309 H 291.601 -5.50462 -5.18197 0
M  V30 2310 H 292.869 -4.80127 -6.14084 0
M  V30 2311 N 297.098 0.621204 -1.44841 0
M  V30 2312 C 298.509 1.20298 -1.42777 0
M  V30 2313 C 298.86 1.95639 -0.148259 0
M  V30 2314 O 297.985 2.02955 0.750892 0
M  V30 2315 C 298.58 2.1882 -2.58657 0
M  V30 2316 C 297.139 2.72403 -2.59756 0
M  V30 2317 C 296.286 1.4757 -2.34773 0
M  V30 2318 H 299.237 0.411297 -1.53278 0
M  V30 2319 H 299.258 3.01607 -2.31977 0
M  V30 2320 H 298.77 1.63957 -3.51766 0
M  V30 2321 H 296.871 3.31242 -1.70615 0
M  V30 2322 H 296.984 3.17765 -3.58556 0
M  V30 2323 H 295.348 1.76051 -1.8406 0
M  V30 2324 H 296.131 0.945954 -3.3001 0
M  V30 2325 N 298.576 1.31904 0.862503 0
M  V30 2326 C 299.816 1.23324 1.63004 0
M  V30 2327 C 300.18 -0.203724 1.90916 0
M  V30 2328 O 301.381 -0.413132 2.65606 0
M  V30 2329 C 299.652 2.06116 2.91978 0
M  V30 2330 S 301.211 2.14478 3.82812 0
M  V30 2331 H 298.029 0.439117 0.559193 0
M  V30 2332 H 300.631 1.66658 1.02202 0
M  V30 2333 H 299.335 3.09593 2.69407 0
M  V30 2334 H 298.866 1.6353 3.57801 0
M  V30 2335 H 300.881 1.28855 4.79177 0
M  V30 2336 N 300.054 -1.07777 1.14986 0
M  V30 2337 C 301.294 -1.81888 0.932527 0
M  V30 2338 C 301.658 -1.84509 -0.531064 0
M  V30 2339 O 302.859 -2.54448 -0.866577 0
M  V30 2340 C 301.13 -3.23244 1.52473 0
M  V30 2341 S 302.689 -4.14154 1.44989 0
M  V30 2342 H 299.507 -0.626752 0.335712 0
M  V30 2343 H 302.109 -1.29503 1.46455 0
M  V30 2344 H 300.813 -3.18922 2.58296 0
M  V30 2345 H 300.344 -3.80704 0.991381 0
M  V30 2346 H 302.359 -4.94247 0.439799 0
M  V30 2347 N 301.532 -0.945985 -1.26051 0
M  V30 2348 C 302.772 -0.603665 -1.95282 0
M  V30 2349 C 303.136 0.842377 -1.72534 0
M  V30 2350 O 304.337 1.29387 -2.35611 0
M  V30 2351 C 302.608 -0.942292 -3.44754 0
M  V30 2352 S 304.167 -0.711242 -4.32997 0
M  V30 2353 H 300.985 -0.222176 -0.675395 0
M  V30 2354 H 303.587 -1.21832 -1.52896 0
M  V30 2355 H 302.291 -1.99203 -3.58812 0
M  V30 2356 H 301.822 -0.317546 -3.92116 0
M  V30 2357 H 303.837 0.422221 -4.944 0
M  V30 2358 N 303.011 1.40521 -0.713556 0
M  V30 2359 C 304.236 2.05759 -0.26035 0
M  V30 2360 C 304.661 1.53403 1.08854 0
M  V30 2361 O 304.019 0.668535 1.68524 0
M  V30 2362 C 304.067 3.59745 -0.248122 0
M  V30 2363 O 303.171 4.05123 0.77131 0
M  V30 2364 H 302.512 0.652564 -0.122703 0
M  V30 2365 H 305.042 1.79958 -0.973467 0
M  V30 2366 H 305.052 4.07911 -0.0851129 0
M  V30 2367 H 303.727 3.97218 -1.2325 0
M  V30 2368 H 302.304 3.68422 0.57619 0
M  V30 2369 N 304.489 0.459591 1.5075 0
M  V30 2370 C 305.714 -0.0996819 2.0716 0
M  V30 2371 C 306.139 -1.33761 1.32249 0
M  V30 2372 O 305.497 -1.77551 0.366786 0
M  V30 2373 C 305.545 -0.378226 3.58611 0
M  V30 2374 O 304.649 -1.46081 3.85661 0
M  V30 2375 H 303.99 0.00791392 0.663953 0
M  V30 2376 H 306.52 0.647329 1.9409 0
M  V30 2377 H 306.53 -0.622135 4.03229 0
M  V30 2378 H 305.205 0.526439 4.12555 0
M  V30 2379 H 303.782 -1.20511 3.5289 0
M  V30 2380 N 305.967 -1.56429 0.191757 0
M  V30 2381 C 307.215 -1.97095 -0.447006 0
M  V30 2382 C 307.536 -1.07967 -1.62383 0
M  V30 2383 O 306.806 -0.150248 -1.95323 0
M  V30 2384 H 305.386 -0.727832 -0.168135 0
M  V30 2385 H 308.048 -1.92911 0.27771 0
M  V30 2386 H 307.144 -3.01848 -0.793371 0
M  V30 2387 N 307.445 0.0818655 -1.57387 0
M  V30 2388 C 308.685 0.788375 -1.88584 0
M  V30 2389 C 309.049 1.75248 -0.784351 0
M  V30 2390 O 310.25 2.50334 -0.979105 0
M  V30 2391 C 308.521 1.48654 -3.25018 0
M  V30 2392 S 310.08 2.22951 -3.7794 0
M  V30 2393 H 306.898 0.262383 -0.660815 0
M  V30 2394 H 309.5 0.0448995 -1.95448 0
M  V30 2395 H 308.204 0.770919 -4.03094 0
M  V30 2396 H 307.735 2.26965 -3.21326 0
M  V30 2397 H 309.75 3.49309 -3.52417 0
M  V30 2398 N 308.923 1.53595 0.353017 0
M  V30 2399 C 310.171 1.70049 1.09215 0
M  V30 2400 C 310.492 0.461406 1.89463 0
M  V30 2401 O 309.762 -0.524633 1.88744 0
M  V30 2402 H 308.342 0.626912 0.40619 0
M  V30 2403 H 311.004 1.90822 0.396585 0
M  V30 2404 H 310.1 2.56718 1.77488 0
M  V30 2405 N 310.401 -0.613514 1.45168 0
M  V30 2406 C 311.626 -1.40437 1.52618 0
M  V30 2407 C 312.051 -1.87438 0.157707 0
M  V30 2408 O 311.409 -1.59791 -0.856537 0
M  V30 2409 C 311.457 -2.58894 2.51011 0
M  V30 2410 O 310.561 -3.59326 2.02382 0
M  V30 2411 H 309.902 -0.419506 0.514695 0
M  V30 2412 H 312.432 -0.747215 1.90467 0
M  V30 2413 H 312.442 -3.06214 2.69624 0
M  V30 2414 H 311.117 -2.24032 3.50403 0
M  V30 2415 H 309.694 -3.18695 1.93618 0
M  V30 2416 N 311.879 -1.3236 -0.855495 0
M  V30 2417 C 313.104 -1.2601 -1.64731 0
M  V30 2418 C 313.529 0.169068 -1.87339 0
M  V30 2419 O 312.887 1.12016 -1.42556 0
M  V30 2420 C 312.935 -2.02417 -2.98429 0
M  V30 2421 O 312.039 -1.3714 -3.8893 0
M  V30 2422 H 311.38 -0.434325 -0.502253 0
M  V30 2423 H 313.91 -1.74661 -1.06558 0
M  V30 2424 H 313.92 -2.12559 -3.48257 0
M  V30 2425 H 312.595 -3.06343 -2.81295 0
M  V30 2426 H 311.172 -1.3554 -3.47395 0
M  V30 2427 N 313.357 1.07166 -1.15556 0
M  V30 2428 C 314.597 1.81391 -0.94216 0
M  V30 2429 C 314.961 1.84788 0.521272 0
M  V30 2430 O 316.162 2.54904 0.85307 0
M  V30 2431 C 314.433 3.22431 -1.54185 0
M  V30 2432 S 315.992 4.13379 -1.47183 0
M  V30 2433 H 312.81 0.624963 -0.339031 0
M  V30 2434 H 315.412 1.28725 -1.4714 0
M  V30 2435 H 314.116 3.17548 -2.59984 0
M  V30 2436 H 313.647 3.80172 -1.01156 0
M  V30 2437 H 315.662 4.94007 -0.466004 0
M  V30 2438 N 314.835 0.952656 1.25548 0
M  V30 2439 C 316.075 0.614013 1.9496 0
M  V30 2440 C 316.439 -0.833215 1.72978 0
M  V30 2441 O 317.64 -1.28135 2.36294 0
M  V30 2442 C 315.911 0.960562 3.4425 0
M  V30 2443 S 317.47 0.734195 4.32614 0
M  V30 2444 H 314.288 0.225754 0.674208 0
M  V30 2445 H 316.89 1.22641 1.52248 0
M  V30 2446 H 315.594 2.01103 3.57751 0
M  V30 2447 H 315.125 0.338336 3.91942 0
M  V30 2448 H 317.14 -0.395995 4.94617 0
M  V30 2449 N 316.313 -1.40141 0.720998 0
M  V30 2450 C 317.245 -2.29177 0.0324669 0
M  V30 2451 C 318.258 -1.46105 -0.718126 0
M  V30 2452 O 319.447 -1.69335 -0.564608 0
M  V30 2453 C 316.547 -3.24473 -0.978292 0
M  V30 2454 C 315.72 -4.36423 -0.292115 0
M  V30 2455 C 314.779 -5.12122 -1.20901 0
M  V30 2456 O 313.805 -5.64981 -0.691766 0
M  V30 2457 N 315.007 -5.21992 -2.53978 0
M  V30 2458 H 317.772 -2.88909 0.796984 0
M  V30 2459 H 315.333 -1.51569 0.569068 0
M  V30 2460 H 317.325 -3.71987 -1.59398 0
M  V30 2461 H 315.895 -2.65871 -1.64413 0
M  V30 2462 H 315.115 -3.90967 0.503847 0
M  V30 2463 H 316.403 -5.08467 0.183971 0
M  V30 2464 H 315.801 -4.8054 -2.98493 0
M  V30 2465 H 314.358 -5.72995 -3.10677 0
M  V30 2466 N 317.792 -0.46758 -1.50504 0
M  V30 2467 C 319.017 0.0886943 -2.0721 0
M  V30 2468 C 319.442 1.33057 -1.32956 0
M  V30 2469 O 318.8 1.77354 -0.376197 0
M  V30 2470 C 318.848 0.359202 -3.58806 0
M  V30 2471 O 317.952 1.44034 -3.8643 0
M  V30 2472 H 317.293 -0.0114349 -0.663902 0
M  V30 2473 H 319.823 -0.657613 -1.93744 0
M  V30 2474 H 319.833 0.600742 -4.03553 0
M  V30 2475 H 318.508 -0.548311 -4.1227 0
M  V30 2476 H 317.085 1.18638 -3.53524 0
M  V30 2477 N 319.27 1.56325 -0.20005 0
M  V30 2478 C 320.495 2.02548 0.44597 0
M  V30 2479 C 320.92 1.07922 1.5406 0
M  V30 2480 O 320.278 0.0635775 1.81188 0
M  V30 2481 C 320.326 3.47175 0.974761 0
M  V30 2482 O 319.43 3.55671 2.08739 0
M  V30 2483 H 318.771 0.655862 0.103638 0
M  V30 2484 H 321.301 2.02201 -0.312381 0
M  V30 2485 H 321.311 3.87067 1.2901 0
M  V30 2486 H 319.986 4.15538 0.17347 0
M  V30 2487 H 318.563 3.27657 1.78032 0
M  V30 2488 N 320.748 -0.0735177 1.57428 0
M  V30 2489 C 321.988 -0.778363 1.89 0
M  V30 2490 C 322.352 -1.7483 0.793634 0
M  V30 2491 O 323.553 -2.49811 0.992367 0
M  V30 2492 C 321.824 -1.46929 3.25802 0
M  V30 2493 S 323.383 -2.20943 3.79117 0
M  V30 2494 H 320.201 -0.258874 0.662197 0
M  V30 2495 H 322.803 -0.0345338 1.95469 0
M  V30 2496 H 321.507 -0.749532 4.03497 0
M  V30 2497 H 321.038 -2.25258 3.22525 0
M  V30 2498 H 323.053 -3.47435 3.54265 0
M  V30 2499 N 322.226 -1.5378 -0.344866 0
M  V30 2500 C 323.466 -1.72677 -1.09371 0
M  V30 2501 C 323.83 -0.479084 -1.85927 0
M  V30 2502 O 325.031 -0.54505 -2.63216 0
M  V30 2503 C 323.302 -2.95457 -2.01097 0
M  V30 2504 S 324.861 -3.35158 -2.83222 0
M  V30 2505 H 321.679 -0.607402 -0.369573 0
M  V30 2506 H 324.281 -1.91922 -0.372307 0
M  V30 2507 H 322.985 -3.84437 -1.43655 0
M  V30 2508 H 322.516 -2.78673 -2.77678 0
M  V30 2509 H 324.531 -2.88789 -4.03504 0
M  V30 2510 N 323.704 0.605807 -1.45491 0
M  V30 2511 C 324.651 1.7164 -1.54299 0
M  V30 2512 C 325.621 1.61486 -0.388761 0
M  V30 2513 O 326.806 1.81039 -0.602445 0
M  V30 2514 C 323.946 3.09953 -1.51734 0
M  V30 2515 C 323.059 3.309 -2.77721 0
M  V30 2516 C 322.194 4.59329 -2.66816 0
M  V30 2517 C 321.233 4.7354 -3.87848 0
M  V30 2518 N 320.37 5.9327 -3.75467 0
M  V30 2519 H 325.21 1.63449 -2.49176 0
M  V30 2520 H 322.747 0.796957 -1.23641 0
M  V30 2521 H 324.705 3.89977 -1.48235 0
M  V30 2522 H 323.335 3.17098 -0.604068 0
M  V30 2523 H 322.387 2.44639 -2.913 0
M  V30 2524 H 323.699 3.37274 -3.67488 0
M  V30 2525 H 322.853 5.4755 -2.61292 0
M  V30 2526 H 321.592 4.55355 -1.74651 0
M  V30 2527 H 320.597 3.83741 -3.93729 0
M  V30 2528 H 321.822 4.79309 -4.81082 0
M  V30 2529 H 319.768 5.90338 -2.86072 0
M  V30 2530 H 319.685 6.00811 -4.5887 0
M  V30 2531 H 320.953 6.83984 -3.73879 0
M  V30 2532 N 325.182 1.32811 0.848464 0
M  V30 2533 C 326.593 1.21315 1.41914 0
M  V30 2534 C 326.944 -0.171847 1.95446 0
M  V30 2535 O 326.069 -1.07093 1.88043 0
M  V30 2536 C 326.664 2.19631 2.57968 0
M  V30 2537 C 325.223 2.12003 3.11017 0
M  V30 2538 C 324.37 2.07651 1.83783 0
M  V30 2539 H 327.321 1.44549 0.655071 0
M  V30 2540 H 327.342 1.79845 3.35315 0
M  V30 2541 H 326.854 3.20423 2.18976 0
M  V30 2542 H 324.955 1.14481 3.54577 0
M  V30 2543 H 325.068 3.02111 3.71841 0
M  V30 2544 H 323.432 1.52983 2.03638 0
M  V30 2545 H 324.215 3.10235 1.47 0
M  V30 2546 N 326.66 -1.06551 1.16123 0
M  V30 2547 C 327.9 -1.80889 0.951766 0
M  V30 2548 C 328.264 -1.85062 -0.511465 0
M  V30 2549 O 329.465 -2.55353 -0.83954 0
M  V30 2550 C 327.736 -3.21609 1.55893 0
M  V30 2551 S 329.295 -4.12593 1.49373 0
M  V30 2552 H 326.113 -0.623156 0.342341 0
M  V30 2553 H 328.715 -1.27943 1.47821 0
M  V30 2554 H 327.419 -3.16165 2.61664 0
M  V30 2555 H 326.95 -3.79631 1.0317 0
M  V30 2556 H 328.965 -4.93753 0.492196 0
M  V30 2557 N 328.138 -0.959301 -1.25041 0
M  V30 2558 C 329.363 -0.633507 -1.97488 0
M  V30 2559 C 329.788 0.788555 -1.70773 0
M  V30 2560 O 329.146 1.53394 -0.966431 0
M  V30 2561 C 329.194 -0.904057 -3.49083 0
M  V30 2562 O 328.298 0.0147939 -4.12397 0
M  V30 2563 H 327.639 -0.240368 -0.618966 0
M  V30 2564 H 330.169 -1.28717 -1.59038 0
M  V30 2565 H 330.179 -0.832203 -3.99423 0
M  V30 2566 H 328.854 -1.94048 -3.67856 0
M  V30 2567 H 327.431 -0.109664 -3.72739 0
M  V30 2568 N 329.616 1.39756 -0.72842 0
M  V30 2569 C 330.841 2.05472 -0.282159 0
M  V30 2570 C 331.266 1.54549 1.07221 0
M  V30 2571 O 330.624 0.686372 1.67805 0
M  V30 2572 C 330.672 3.59462 -0.286264 0
M  V30 2573 O 329.776 4.05918 0.728298 0
M  V30 2574 H 329.117 0.651226 -0.129618 0
M  V30 2575 H 331.647 1.78915 -0.992499 0
M  V30 2576 H 331.657 4.07798 -0.128373 0
M  V30 2577 H 330.332 3.95889 -1.27456 0
M  V30 2578 H 328.909 3.69012 0.537081 0
M  V30 2579 N 331.094 0.475555 1.50254 0
M  V30 2580 C 332.026 -0.352649 2.26471 0
M  V30 2581 C 333.039 -0.953165 1.3198 0
M  V30 2582 O 334.228 -0.840815 1.57457 0
M  V30 2583 C 331.328 -1.50902 3.0345 0
M  V30 2584 C 330.501 -1.02047 4.25329 0
M  V30 2585 C 329.56 -2.05142 4.84565 0
M  V30 2586 O 328.586 -1.63023 5.45355 0
M  V30 2587 N 329.788 -3.37987 4.71959 0
M  V30 2588 H 332.553 0.300767 2.98187 0
M  V30 2589 H 330.114 0.306598 1.5897 0
M  V30 2590 H 332.106 -2.19572 3.39956 0
M  V30 2591 H 330.676 -2.06705 2.34504 0
M  V30 2592 H 329.896 -0.159507 3.93877 0
M  V30 2593 H 331.184 -0.672061 5.04342 0
M  V30 2594 H 330.582 -3.74913 4.23623 0
M  V30 2595 H 329.139 -4.02443 5.12721 0
M  V30 2596 N 332.573 -1.56217 0.208337 0
M  V30 2597 C 333.798 -2.02782 -0.435222 0
M  V30 2598 C 334.223 -1.08738 -1.53485 0
M  V30 2599 O 333.581 -0.0731855 -1.81152 0
M  V30 2600 C 333.629 -3.47687 -0.956335 0
M  V30 2601 O 332.733 -3.56773 -2.06849 0
M  V30 2602 H 332.074 -0.656403 -0.100158 0
M  V30 2603 H 334.604 -2.02033 0.3231 0
M  V30 2604 H 334.614 -3.87745 -1.26955 0
M  V30 2605 H 333.289 -4.15624 -0.15143 0
M  V30 2606 H 331.866 -3.28597 -1.76292 0
M  V30 2607 N 334.051 0.0651679 -1.57465 0
M  V30 2608 C 335.276 0.779605 -1.9219 0
M  V30 2609 C 335.701 1.69988 -0.805333 0
M  V30 2610 O 335.059 1.79685 0.241435 0
M  V30 2611 C 335.107 1.54364 -3.2589 0
M  V30 2612 O 334.211 2.65474 -3.1559 0
M  V30 2613 H 333.552 0.212249 -0.629163 0
M  V30 2614 H 336.082 0.0314294 -2.04576 0
M  V30 2615 H 336.092 1.92146 -3.59922 0
M  V30 2616 H 334.767 0.868457 -4.06732 0
M  V30 2617 H 333.344 2.30501 -2.93128 0
M  V30 2618 N 335.529 1.53961 0.336706 0
M  V30 2619 C 336.769 1.73254 1.08454 0
M  V30 2620 C 337.133 0.488937 1.8567 0
M  V30 2621 O 338.334 0.559001 2.62923 0
M  V30 2622 C 336.605 2.96519 1.99528 0
M  V30 2623 S 338.164 3.36655 2.81441 0
M  V30 2624 H 334.982 0.609353 0.366347 0
M  V30 2625 H 337.584 1.92117 0.362124 0
M  V30 2626 H 336.288 3.85193 1.41614 0
M  V30 2627 H 335.819 2.80142 2.76196 0
M  V30 2628 H 337.834 2.90925 4.01967 0
M  V30 2629 N 337.007 -0.598083 1.45811 0
M  V30 2630 C 338.247 -1.36802 1.5187 0
M  V30 2631 C 338.611 -1.9133 0.160224 0
M  V30 2632 O 339.812 -2.6863 0.0955302 0
M  V30 2633 C 338.083 -2.47835 2.57513 0
M  V30 2634 S 339.642 -3.35458 2.82866 0
M  V30 2635 H 336.46 -0.466278 0.536755 0
M  V30 2636 H 339.062 -0.689152 1.82951 0
M  V30 2637 H 337.766 -2.06141 3.54872 0
M  V30 2638 H 337.297 -3.20512 2.28114 0
M  V30 2639 H 339.312 -4.46251 2.16967 0
M  V30 2640 N 338.485 -1.33259 -0.841409 0
M  V30 2641 C 339.731 -1.24757 -1.59886 0
M  V30 2642 C 340.064 0.186913 -1.93298 0
M  V30 2643 O 339.339 1.12757 -1.5848 0
M  V30 2644 C 339.622 -2.12036 -2.91055 0
M  V30 2645 C 339.475 -3.63929 -2.6434 0
M  V30 2646 C 340.794 -1.9916 -3.92458 0
M  V30 2647 H 337.913 -0.454542 -0.580138 0
M  V30 2648 H 340.555 -1.63335 -0.970647 0
M  V30 2649 H 338.705 -1.79265 -3.44669 0
M  V30 2650 H 340.377 -4.06978 -2.17178 0
M  V30 2651 H 338.62 -3.85935 -1.98082 0
M  V30 2652 H 339.291 -4.20341 -3.57796 0
M  V30 2653 H 341.767 -2.27895 -3.48143 0
M  V30 2654 H 340.643 -2.62484 -4.82072 0
M  V30 2655 H 340.904 -0.963082 -4.31482 0
M  V30 2656 N 339.963 1.05934 -1.16686 0
M  V30 2657 C 341.374 1.60263 -0.957745 0
M  V30 2658 C 341.725 1.89789 0.49745 0
M  V30 2659 O 340.85 1.67401 1.37135 0
M  V30 2660 C 341.445 2.91172 -1.73218 0
M  V30 2661 C 340.004 3.42188 -1.56794 0
M  V30 2662 C 339.151 2.16028 -1.73859 0
M  V30 2663 H 342.102 0.888392 -1.31504 0
M  V30 2664 H 342.123 3.60744 -1.21014 0
M  V30 2665 H 341.635 2.6965 -2.79124 0
M  V30 2666 H 339.736 3.68762 -0.533437 0
M  V30 2667 H 339.849 4.17273 -2.35414 0
M  V30 2668 H 338.213 2.26426 -1.16633 0
M  V30 2669 H 338.996 1.96985 -2.81161 0
M  V30 2670 N 341.441 0.965919 1.2453 0
M  V30 2671 C 342.69 0.622437 1.91856 0
M  V30 2672 C 343.003 -0.846006 1.76358 0
M  V30 2673 O 344.209 -1.29993 2.38357 0
M  V30 2674 C 342.665 1.0626 3.43856 0
M  V30 2675 C 342.273 2.55437 3.68043 0
M  V30 2676 C 344.017 0.792183 4.17043 0
M  V30 2677 C 341.924 2.93196 5.13605 0
M  V30 2678 H 340.854 0.229092 0.718354 0
M  V30 2679 H 343.505 1.17189 1.41206 0
M  V30 2680 H 341.887 0.441476 3.93531 0
M  V30 2681 H 343.061 3.22665 3.28974 0
M  V30 2682 H 341.376 2.8007 3.08139 0
M  V30 2683 H 343.973 1.05031 5.24283 0
M  V30 2684 H 344.316 -0.271584 4.15413 0
M  V30 2685 H 344.849 1.37419 3.73311 0
M  V30 2686 H 341.588 3.98636 5.20355 0
M  V30 2687 H 341.108 2.30651 5.53679 0
M  V30 2688 H 342.787 2.83004 5.81823 0
M  V30 2689 N 342.919 -1.39368 0.735821 0
M  V30 2690 C 344.159 -2.02349 0.288813 0
M  V30 2691 C 344.523 -1.57127 -1.10341 0
M  V30 2692 O 345.724 -2.12312 -1.64854 0
M  V30 2693 C 343.995 -3.55288 0.387986 0
M  V30 2694 S 345.554 -4.38795 0.0209408 0
M  V30 2695 H 342.372 -0.701944 0.113115 0
M  V30 2696 H 344.974 -1.70164 0.962518 0
M  V30 2697 H 343.678 -3.85691 1.40252 0
M  V30 2698 H 343.209 -3.92227 -0.303512 0
M  V30 2699 H 345.224 -4.81595 -1.19503 0
M  V30 2700 N 344.397 -0.483516 -1.5 0
M  V30 2701 C 345.637 0.0657469 -2.04294 0
M  V30 2702 C 346.001 1.35869 -1.35659 0
M  V30 2703 O 347.202 1.99111 -1.80578 0
M  V30 2704 C 345.473 0.232758 -3.56641 0
M  V30 2705 S 347.032 0.738788 -4.32536 0
M  V30 2706 H 343.85 0.0100755 -0.710929 0
M  V30 2707 H 346.452 -0.653494 -1.84254 0
M  V30 2708 H 345.156 -0.713847 -4.04144 0
M  V30 2709 H 344.687 0.977751 -3.81056 0
M  V30 2710 H 346.702 2.01048 -4.53645 0
M  V30 2711 N 345.875 1.56104 -0.216619 0
M  V30 2712 C 346.807 2.17339 0.72776 0
M  V30 2713 C 347.82 1.14109 1.16116 0
M  V30 2714 O 349.009 1.4111 1.09317 0
M  V30 2715 C 346.109 2.73818 1.99693 0
M  V30 2716 C 345.282 4.02168 1.71988 0
M  V30 2717 C 344.341 4.43259 2.83562 0
M  V30 2718 O 343.367 5.10257 2.52244 0
M  V30 2719 N 344.569 4.08535 4.12407 0
M  V30 2720 H 347.334 2.99005 0.203983 0
M  V30 2721 H 344.895 1.61861 -0.0354289 0
M  V30 2722 H 346.887 2.9828 2.73516 0
M  V30 2723 H 345.457 1.96483 2.43132 0
M  V30 2724 H 344.677 3.85612 0.818337 0
M  V30 2725 H 345.965 4.85907 1.50903 0
M  V30 2726 H 345.363 3.54687 4.40696 0
M  V30 2727 H 343.92 4.37901 4.8279 0
M  V30 2728 N 347.353 -0.0568162 1.57498 0
M  V30 2729 C 348.593 -0.758273 1.89815 0
M  V30 2730 C 348.957 -1.73978 0.812132 0
M  V30 2731 O 350.158 -2.48744 1.01881 0
M  V30 2732 C 348.429 -1.43465 3.27342 0
M  V30 2733 S 349.988 -2.1691 3.81439 0
M  V30 2734 H 346.806 -0.251836 0.664906 0
M  V30 2735 H 349.408 -0.0137997 1.95495 0
M  V30 2736 H 348.112 -0.706693 4.0427 0
M  V30 2737 H 347.643 -2.21825 3.24896 0
M  V30 2738 H 349.658 -3.43658 3.5793 0
M  V30 2739 N 348.832 -1.54138 -0.328536 0
M  V30 2740 C 349.779 -1.83176 -1.40411 0
M  V30 2741 C 350.749 -0.678494 -1.5161 0
M  V30 2742 O 351.934 -0.92443 -1.6691 0
M  V30 2743 C 349.074 -2.06035 -2.76846 0
M  V30 2744 C 348.187 -3.33727 -2.74318 0
M  V30 2745 C 347.322 -3.46574 -4.02567 0
M  V30 2746 C 346.361 -4.68159 -3.94327 0
M  V30 2747 N 345.498 -4.77959 -5.14296 0
M  V30 2748 H 350.338 -2.74938 -1.14948 0
M  V30 2749 H 347.875 -1.36166 -0.556538 0
M  V30 2750 H 349.833 -2.1728 -3.56153 0
M  V30 2751 H 348.463 -1.1757 -3.00628 0
M  V30 2752 H 347.515 -3.31246 -1.8703 0
M  V30 2753 H 348.827 -4.23139 -2.64111 0
M  V30 2754 H 347.981 -3.57333 -4.90304 0
M  V30 2755 H 346.72 -2.55245 -4.15574 0
M  V30 2756 H 345.725 -4.57461 -3.04974 0
M  V30 2757 H 346.95 -5.60868 -3.82889 0
M  V30 2758 H 344.896 -3.89544 -5.27818 0
M  V30 2759 H 344.813 -5.6133 -5.06404 0
M  V30 2760 H 346.081 -4.93044 -6.03761 0
M  V30 2761 N 350.31 0.590341 -1.46126 0
M  V30 2762 C 351.559 1.34499 -1.50309 0
M  V30 2763 C 351.872 1.94977 -0.156021 0
M  V30 2764 O 353.078 2.71395 -0.0756037 0
M  V30 2765 C 351.534 2.43723 -2.64815 0
M  V30 2766 C 351.142 1.89582 -4.0591 0
M  V30 2767 C 352.886 3.20579 -2.78262 0
M  V30 2768 C 350.793 2.9639 -5.11769 0
M  V30 2769 H 349.723 0.505593 -0.559368 0
M  V30 2770 H 352.374 0.630848 -1.72315 0
M  V30 2771 H 350.756 3.17902 -2.36124 0
M  V30 2772 H 351.93 1.21997 -4.44357 0
M  V30 2773 H 350.245 1.25418 -3.97063 0
M  V30 2774 H 352.842 4.00276 -3.54519 0
M  V30 2775 H 353.185 3.72684 -1.85505 0
M  V30 2776 H 353.718 2.53505 -3.06562 0
M  V30 2777 H 350.457 2.49181 -6.06291 0
M  V30 2778 H 349.977 3.62487 -4.77873 0
M  V30 2779 H 351.656 3.60474 -5.37278 0
M  V30 2780 O 351.827 1.43831 0.734505 0
M  V30 2781 H 352.518 1.35486 1.38431 0
M  V30 END ATOM
M  V30 BEGIN BOND
M  V30 END BOND
M  V30 END CTAB
M  END
$$$$
