drugbank_target|Q6LFH8 Ornithine aminotransferase (DB11638)
 OpenBabel12092121093D

  0  0  0     0  0            999 V3000
M  V30 BEGIN CTAB
M  V30 COUNTS 6489 6553 0 0 0
M  V30 BEGIN ATOM
M  V30 1 H -0.908 1.98254 -0.117106 0
M  V30 2 N 0 1.576 0 0
M  V30 3 C 0.933 2.03868 1.02534 0
M  V30 4 C 1.911 0.928543 1.3348 0
M  V30 5 O 3.095 1.19667 1.45644 0
M  V30 6 C 0.222 2.43627 2.35294 0
M  V30 7 C -0.732 3.65373 2.2001 0
M  V30 8 S 0.101 5.13292 1.52614 0
M  V30 9 C 1.257 5.56322 2.86805 0
M  V30 10 H 1.49 2.90518 0.631377 0
M  V30 11 H -0.977 1.52953 0.210867 0
M  V30 12 H 0.981 2.67203 3.11629 0
M  V30 13 H -0.358 1.57376 2.7183 0
M  V30 14 H -1.165 3.90944 3.18086 0
M  V30 15 H -1.563 3.418 1.51819 0
M  V30 16 H 0.729 5.58782 3.83104 0
M  V30 17 H 1.672 6.56266 2.65933 0
M  V30 18 H 2.08 4.83886 2.90714 0
M  V30 19 N 1.4781 -0.272755 1.55222 0
M  V30 20 C 2.7551 -1.02562 1.66555 0
M  V30 21 C 3.1351 -2.04282 0.532189 0
M  V30 22 O 2.4831 -2.23662 -0.467717 0
M  V30 23 C 2.6931 -1.6822 3.05782 0
M  V30 24 C 4.0411 -2.19373 3.63539 0
M  V30 25 O 5.0651 -1.78206 3.08417 0
M  V30 26 O 3.9241 -2.94883 4.60115 0
M  V30 27 H 1.0181 -0.475755 0.676451 0
M  V30 28 H 3.5641 -0.268593 1.67561 0
M  V30 29 H 2.3361 -0.945112 3.79715 0
M  V30 30 H 1.9591 -2.50609 3.08676 0
M  V30 31 N 2.9562 -1.48159 -0.537278 0
M  V30 32 C 4.2032 -1.55804 -1.29349 0
M  V30 33 C 4.5312 -0.228802 -1.9315 0
M  V30 34 O 3.7862 0.780242 -1.79473 0
M  V30 35 C 4.0852 -2.63956 -2.40961 0
M  V30 36 C 3.7512 -4.0662 -1.94861 0
M  V30 37 C 2.4132 -4.45452 -1.82006 0
M  V30 38 C 4.7652 -4.96055 -1.59933 0
M  V30 39 C 2.0932 -5.71531 -1.32547 0
M  V30 40 C 4.4452 -6.22617 -1.11939 0
M  V30 41 C 3.1092 -6.60312 -0.976951 0
M  V30 42 H 2.3792 -0.570129 -0.473322 0
M  V30 43 H 5.0262 -1.81845 -0.600372 0
M  V30 44 H 3.3312 -2.31747 -3.15912 0
M  V30 45 H 5.0282 -2.67089 -2.99107 0
M  V30 46 H 1.6182 -3.75949 -2.05815 0
M  V30 47 H 5.8022 -4.66738 -1.68728 0
M  V30 48 H 1.0582 -5.99468 -1.202 0
M  V30 49 H 5.2322 -6.91318 -0.839811 0
M  V30 50 H 2.8592 -7.57895 -0.591501 0
M  V30 51 N 4.4343 0.785586 -1.36625 0
M  V30 52 C 5.6803 1.54591 -1.31261 0
M  V30 53 C 6.0133 1.93906 0.106823 0
M  V30 54 O 5.2883 1.63007 1.06108 0
M  V30 55 C 5.5713 2.82038 -2.23889 0
M  V30 56 C 5.4243 2.49066 -3.74548 0
M  V30 57 C 6.7433 3.83887 -2.15217 0
M  V30 58 H 3.8623 0.560846 -0.478143 0
M  V30 59 H 6.5043 0.902278 -1.67209 0
M  V30 60 H 4.6543 3.36961 -1.93363 0
M  V30 61 H 6.3263 2.00164 -4.15611 0
M  V30 62 H 4.5693 1.81954 -3.93796 0
M  V30 63 H 5.2403 3.40109 -4.34776 0
M  V30 64 H 7.7163 3.38421 -2.42096 0
M  V30 65 H 6.5923 4.70806 -2.82193 0
M  V30 66 H 6.8533 4.27131 -1.14068 0
M  V30 67 N 5.9124 1.20967 1.01018 0
M  V30 68 C 6.8594 0.964281 2.09691 0
M  V30 69 C 7.8294 -0.107853 1.65749 0
M  V30 70 O 9.0144 0.0381987 1.90762 0
M  V30 71 C 6.1544 0.52943 3.41015 0
M  V30 72 C 5.2674 1.67043 3.98398 0
M  V30 73 C 4.4024 1.18525 5.17808 0
M  V30 74 C 3.4414 2.29892 5.67288 0
M  V30 75 N 2.5784 1.82546 6.77954 0
M  V30 76 H 7.4184 1.89463 2.30017 0
M  V30 77 H 4.9554 0.944289 1.1279 0
M  V30 78 H 6.9134 0.258588 4.16398 0
M  V30 79 H 5.5434 -0.363919 3.20742 0
M  V30 80 H 4.5954 2.05603 3.20049 0
M  V30 81 H 5.9074 2.50877 4.31117 0
M  V30 82 H 5.0614 0.870762 6.00419 0
M  V30 83 H 3.8004 0.316887 4.86669 0
M  V30 84 H 2.8054 2.6215 4.83278 0
M  V30 85 H 4.0304 3.17216 6.00459 0
M  V30 86 H 1.9764 0.980454 6.48632 0
M  V30 87 H 1.8934 2.59956 7.09901 0
M  V30 88 H 3.1614 1.54115 7.64113 0
M  V30 89 N 7.3905 -1.2043 1.01659 0
M  V30 90 C 8.3005 -2.2689 0.596484 0
M  V30 91 C 9.3165 -1.70107 -0.36599 0
M  V30 92 O 10.4925 -2.00117 -0.226942 0
M  V30 93 C 7.5575 -3.4665 -0.0586659 0
M  V30 94 C 6.6185 -4.18662 0.949751 0
M  V30 95 C 5.8515 -5.32705 0.32577 0
M  V30 96 O 6.0745 -5.63656 -0.874509 0
M  V30 97 O 5.0085 -5.92803 1.04249 0
M  V30 98 H 8.8345 -2.65041 1.4828 0
M  V30 99 H 6.4195 -1.27048 0.786082 0
M  V30 100 H 8.3015 -4.19256 -0.424564 0
M  V30 101 H 6.9765 -3.10375 -0.91918 0
M  V30 102 H 5.8835 -3.48229 1.36702 0
M  V30 103 H 7.2165 -4.58878 1.78023 0
M  V30 104 N 8.8686 -0.792821 -1.36206 0
M  V30 105 C 9.7986 -0.207853 -2.32573 0
M  V30 106 C 10.7796 0.659055 -1.56813 0
M  V30 107 O 11.9646 0.592176 -1.84951 0
M  V30 108 C 9.0946 0.655449 -3.41059 0
M  V30 109 C 8.0486 -0.111842 -4.27854 0
M  V30 110 C 7.3746 0.872274 -5.27537 0
M  V30 111 C 8.6746 -1.30299 -5.05786 0
M  V30 112 H 10.3686 -1.01294 -2.81744 0
M  V30 113 H 7.9146 -0.48854 -1.3546 0
M  V30 114 H 9.8676 1.07464 -4.07467 0
M  V30 115 H 8.5916 1.49328 -2.90463 0
M  V30 116 H 7.2506 -0.512053 -3.63006 0
M  V30 117 H 6.8986 1.70523 -4.73214 0
M  V30 118 H 6.5986 0.363291 -5.86476 0
M  V30 119 H 8.1226 1.28996 -5.96818 0
M  V30 120 H 9.5366 -0.959379 -5.65216 0
M  V30 121 H 7.9336 -1.7455 -5.74154 0
M  V30 122 H 9.0036 -2.09663 -4.37229 0
M  V30 123 N 10.3467 1.47872 -0.545128 0
M  V30 124 C 11.2937 2.29849 0.2093 0
M  V30 125 C 12.2637 1.38313 0.919707 0
M  V30 126 O 13.4487 1.67277 0.917772 0
M  V30 127 C 10.5887 3.22019 1.24088 0
M  V30 128 C 9.7017 4.2864 0.537778 0
M  V30 129 C 8.8367 5.07973 1.5536 0
M  V30 130 C 7.8757 6.06381 0.8348 0
M  V30 131 N 7.0127 6.78717 1.79688 0
M  V30 132 H 11.8527 2.93845 -0.49591 0
M  V30 133 H 9.3897 1.44848 -0.256389 0
M  V30 134 H 11.3477 3.73868 1.85144 0
M  V30 135 H 9.9777 2.59914 1.91428 0
M  V30 136 H 9.0297 3.7994 -0.187046 0
M  V30 137 H 10.3417 4.98793 -0.0258907 0
M  V30 138 H 9.4957 5.63912 2.23803 0
M  V30 139 H 8.2347 4.37693 2.15118 0
M  V30 140 H 7.2397 5.49631 0.136388 0
M  V30 141 H 8.4647 6.78665 0.24313 0
M  V30 142 H 6.4107 6.11177 2.38326 0
M  V30 143 H 6.3277 7.44998 1.28505 0
M  V30 144 H 7.5957 7.39237 2.47282 0
M  V30 145 N 11.8248 0.280983 1.55075 0
M  V30 146 C 13.0498 -0.340154 2.04592 0
M  V30 147 C 13.4748 -1.48246 1.15779 0
M  V30 148 O 12.8328 -1.80614 0.15761 0
M  V30 149 C 12.8808 -0.793104 3.5177 0
M  V30 150 O 11.9848 -1.89981 3.66034 0
M  V30 151 H 11.3258 -0.0694289 0.66036 0
M  V30 152 H 13.8558 0.416993 2.00306 0
M  V30 153 H 13.8658 -1.08729 3.93245 0
M  V30 154 H 12.5408 0.0426163 4.15878 0
M  V30 155 H 11.1178 -1.60771 3.36463 0
M  V30 156 N 13.3029 -1.57598 0.00835791 0
M  V30 157 C 14.5279 -1.95617 -0.689103 0
M  V30 158 C 14.9529 -0.883753 -1.66046 0
M  V30 159 O 14.3109 0.157352 -1.80616 0
M  V30 160 C 14.3589 -3.32736 -1.38994 0
M  V30 161 O 13.4629 -3.27631 -2.50463 0
M  V30 162 H 12.8039 -0.638379 -0.182668 0
M  V30 163 H 15.3339 -2.045 0.064036 0
M  V30 164 H 15.3439 -3.68494 -1.75147 0
M  V30 165 H 14.0189 -4.1034 -0.677778 0
M  V30 166 H 12.5959 -3.03561 -2.16576 0
M  V30 167 N 14.781 0.264519 -1.55364 0
M  V30 168 C 15.713 1.34965 -1.85248 0
M  V30 169 C 16.726 1.45136 -0.737525 0
M  V30 170 O 17.915 1.46801 -1.01547 0
M  V30 171 C 15.015 2.73008 -2.00797 0
M  V30 172 C 14.188 2.85324 -3.31525 0
M  V30 173 C 13.247 4.04097 -3.37034 0
M  V30 174 O 12.273 3.94455 -4.10358 0
M  V30 175 N 13.475 5.16458 -2.65049 0
M  V30 176 H 16.24 1.09672 -2.78913 0
M  V30 177 H 13.801 0.454635 -1.55386 0
M  V30 178 H 15.793 3.50772 -2.01844 0
M  V30 179 H 14.363 2.91087 -1.1396 0
M  V30 180 H 13.583 1.94377 -3.42945 0
M  V30 181 H 14.871 2.9049 -4.17724 0
M  V30 182 H 14.269 5.27181 -2.05175 0
M  V30 183 H 12.826 5.92422 -2.71809 0
M  V30 184 N 16.2591 1.48442 0.529413 0
M  V30 185 C 17.5361 1.46978 1.29062 0
M  V30 186 C 17.9161 0.181769 2.10316 0
M  V30 187 O 17.2641 -0.836481 2.12639 0
M  V30 188 C 17.4741 2.7321 2.17157 0
M  V30 189 C 18.8221 3.21562 2.77278 0
M  V30 190 O 19.8461 2.74131 2.27444 0
M  V30 191 O 18.7051 4.04094 3.67927 0
M  V30 192 H 15.7991 0.587003 0.582543 0
M  V30 193 H 18.3451 1.60676 0.546021 0
M  V30 194 H 17.1171 3.58465 1.56903 0
M  V30 195 H 16.7401 2.62235 2.98862 0
M  V30 196 N 17.7372 -0.778329 1.37039 0
M  V30 197 C 18.9672 -1.56507 1.34868 0
M  V30 198 C 19.3752 -1.89072 -0.0694802 0
M  V30 199 O 18.7182 -1.51434 -1.03987 0
M  V30 200 C 18.7802 -2.90641 2.11585 0
M  V30 201 C 18.4442 -2.80746 3.60598 0
M  V30 202 C 19.4412 -2.52226 4.54618 0
M  V30 203 C 17.1262 -2.98974 4.03633 0
M  V30 204 C 19.1202 -2.42054 5.89651 0
M  V30 205 C 16.8072 -2.88423 5.38754 0
M  V30 206 C 17.8052 -2.60002 6.31576 0
M  V30 207 O 17.4932 -2.49465 7.64214 0
M  V30 208 H 17.2252 -0.491723 0.463879 0
M  V30 209 H 19.7792 -0.973053 1.80889 0
M  V30 210 H 18.0092 -3.51936 1.60243 0
M  V30 211 H 19.6982 -3.51992 2.0213 0
M  V30 212 H 20.4642 -2.37835 4.22681 0
M  V30 213 H 16.3432 -3.20099 3.31749 0
M  V30 214 H 19.8872 -2.19791 6.62071 0
M  V30 215 H 15.7842 -3.0238 5.70295 0
M  V30 216 H 16.5522 -2.64864 7.74461 0
M  V30 217 N 19.2153 -1.21501 -1.00376 0
M  V30 218 C 20.1483 -0.918669 -2.08892 0
M  V30 219 C 21.1263 0.134277 -1.62045 0
M  V30 220 O 22.3103 0.00504255 -1.88499 0
M  V30 221 C 19.4373 -0.379645 -3.36566 0
M  V30 222 C 18.4833 -1.41559 -4.02323 0
M  V30 223 S 19.3163 -2.98521 -4.44574 0
M  V30 224 C 20.4723 -2.46228 -5.75433 0
M  V30 225 H 20.7053 -1.83761 -2.33707 0
M  V30 226 H 18.2383 -1.04489 -1.13673 0
M  V30 227 H 20.1963 -0.0752195 -4.10431 0
M  V30 228 H 18.8573 0.518008 -3.09799 0
M  V30 229 H 18.0503 -0.988076 -4.9422 0
M  V30 230 H 17.6523 -1.66815 -3.34737 0
M  V30 231 H 19.9443 -1.86791 -6.51241 0
M  V30 232 H 20.8873 -3.36572 -6.22997 0
M  V30 233 H 21.2953 -1.87894 -5.32312 0
M  V30 234 N 20.6934 1.19889 -1.02296 0
M  V30 235 C 21.6414 2.24938 -0.592081 0
M  V30 236 C 22.6354 1.65257 0.372357 0
M  V30 237 O 23.8414 1.78371 0.241583 0
M  V30 238 H 20.2164 0.731787 -0.173182 0
M  V30 239 H 22.1874 2.58603 -1.48885 0
M  V30 240 C 20.9364 3.47668 0.047351 0
M  V30 241 H 20.2594 3.93875 -0.685772 0
M  V30 242 H 21.6994 4.22852 0.311862 0
M  V30 243 C 20.1584 3.11136 1.29212 0
M  V30 244 O 20.6884 3.2325 2.38479 0
M  V30 245 N 18.8944 2.65625 1.17863 0
M  V30 246 H 18.4414 2.55968 0.289493 0
M  V30 247 H 18.3994 2.41553 2.01245 0
M  V30 248 N 22.1715 0.800033 1.35784 0
M  V30 249 C 23.1195 0.193851 2.31791 0
M  V30 250 C 24.1135 -0.652744 1.56319 0
M  V30 251 O 25.3195 -0.546641 1.71499 0
M  V30 252 H 21.6945 0.04392 0.750716 0
M  V30 253 H 23.6655 1.01883 2.80468 0
M  V30 254 C 22.4145 -0.648338 3.41602 0
M  V30 255 H 21.7375 -0.00624665 3.998 0
M  V30 256 H 23.1775 -1.03898 4.11073 0
M  V30 257 C 21.6365 -1.8111 2.84079 0
M  V30 258 O 22.1665 -2.90825 2.77099 0
M  V30 259 N 20.3725 -1.62056 2.41218 0
M  V30 260 H 19.9195 -0.728123 2.47095 0
M  V30 261 H 19.8775 -2.40013 2.03079 0
M  V30 262 N 23.6496 -1.47581 0.552962 0
M  V30 263 C 24.5596 -2.33743 -0.200353 0
M  V30 264 C 25.5756 -1.47928 -0.916151 0
M  V30 265 O 26.7516 -1.80865 -0.885993 0
M  V30 266 C 23.8166 -3.24536 -1.21973 0
M  V30 267 C 22.8776 -4.26238 -0.511819 0
M  V30 268 C 22.1106 -5.12693 -1.48263 0
M  V30 269 O 22.3336 -5.01525 -2.71714 0
M  V30 270 O 21.2676 -5.93375 -1.00945 0
M  V30 271 H 25.0936 -2.9945 0.506304 0
M  V30 272 H 22.6786 -1.46071 0.313622 0
M  V30 273 H 24.5606 -3.80631 -1.80827 0
M  V30 274 H 23.2356 -2.61462 -1.90839 0
M  V30 275 H 22.1426 -3.73914 0.117799 0
M  V30 276 H 23.4756 -4.92014 0.135308 0
M  V30 277 N 25.1277 -0.289203 -1.54924 0
M  V30 278 C 26.0577 0.58549 -2.2604 0
M  V30 279 C 27.0387 1.14753 -1.25562 0
M  V30 280 O 28.2237 1.17906 -1.54311 0
M  V30 281 C 25.3537 1.76305 -2.99222 0
M  V30 282 C 24.3077 1.33191 -4.06748 0
M  V30 283 C 23.6337 2.5937 -4.6758 0
M  V30 284 C 24.9337 0.471775 -5.20165 0
M  V30 285 H 26.6277 -0.00763532 -2.99399 0
M  V30 286 H 24.1737 -0.00511229 -1.43999 0
M  V30 287 H 26.1267 2.38097 -3.47689 0
M  V30 288 H 24.8507 2.38223 -2.23422 0
M  V30 289 H 23.5097 0.737121 -3.59113 0
M  V30 290 H 23.1577 3.19576 -3.88433 0
M  V30 291 H 22.8577 2.31228 -5.40192 0
M  V30 292 H 24.3817 3.21985 -5.18804 0
M  V30 293 H 25.7957 0.995056 -5.64599 0
M  V30 294 H 24.1927 0.284639 -5.99425 0
M  V30 295 H 25.2627 -0.506041 -4.82252 0
M  V30 296 N 26.6058 1.57591 -0.0167156 0
M  V30 297 C 27.8338 1.95575 0.675128 0
M  V30 298 C 28.2488 0.892542 1.6637 0
M  V30 299 O 27.6058 -0.126912 1.82058 0
M  V30 300 C 27.6568 3.33608 1.39239 0
M  V30 301 O 27.3778 4.3585 0.443444 0
M  V30 302 C 28.8788 3.86151 2.17721 0
M  V30 303 H 26.0988 0.644423 0.186978 0
M  V30 304 H 28.6428 2.0437 -0.0728 0
M  V30 305 H 26.7978 3.2607 2.09182 0
M  V30 306 H 27.2118 5.158 0.951358 0
M  V30 307 H 28.6858 4.85114 2.63379 0
M  V30 308 H 29.1628 3.19738 3.01105 0
M  V30 309 H 29.7688 3.96918 1.52761 0
M  V30 310 N 28.0839 -0.256276 1.55502 0
M  V30 311 C 29.3139 -1.00196 1.80677 0
M  V30 312 C 29.7219 -1.79805 0.588797 0
M  V30 313 O 29.0649 -1.78055 -0.451883 0
M  V30 314 C 29.1269 -1.99515 2.99055 0
M  V30 315 C 28.7909 -1.38688 4.35448 0
M  V30 316 C 29.7879 -0.794079 5.138 0
M  V30 317 C 27.4729 -1.40906 4.82132 0
M  V30 318 C 29.4669 -0.231562 6.36979 0
M  V30 319 C 27.1539 -0.842684 6.05262 0
M  V30 320 C 28.1519 -0.254953 6.82524 0
M  V30 321 O 27.8399 0.3027 8.0333 0
M  V30 322 H 27.5719 -0.300919 0.60533 0
M  V30 323 H 30.1259 -0.287307 2.03381 0
M  V30 324 H 28.3559 -2.74785 2.72084 0
M  V30 325 H 30.0449 -2.60349 3.11405 0
M  V30 326 H 30.8109 -0.769519 4.78856 0
M  V30 327 H 26.6899 -1.85591 4.21992 0
M  V30 328 H 30.2339 0.227816 6.97228 0
M  V30 329 H 26.1309 -0.86454 6.39684 0
M  V30 330 H 26.8989 0.193662 8.18271 0
M  V30 331 N 29.562 -1.4872 -0.521534 0
M  V30 332 C 30.81 -1.56857 -1.27437 0
M  V30 333 C 31.131 -0.247982 -1.93417 0
M  V30 334 O 30.401 0.731151 -1.81744 0
M  V30 335 H 28.981 -0.577885 -0.473347 0
M  V30 336 H 31.643 -1.85233 -0.606205 0
M  V30 337 H 30.739 -2.35402 -2.0492 0
M  V30 338 N 31.0401 0.771051 -1.3745 0
M  V30 339 C 32.0031 1.86598 -1.33093 0
M  V30 340 C 33.0031 1.59076 -0.234845 0
M  V30 341 O 34.1931 1.67145 -0.490732 0
M  V30 342 C 31.3251 3.23747 -1.06773 0
M  V30 343 H 32.5181 1.91873 -2.30488 0
M  V30 344 H 30.0711 0.970876 -1.2249 0
M  V30 345 H 30.8061 3.24148 -0.099129 0
M  V30 346 H 30.5911 3.45115 -1.86112 0
M  V30 347 H 32.0811 4.03824 -1.06377 0
M  V30 348 N 32.5182 1.22032 0.997298 0
M  V30 349 C 33.4682 0.953838 2.07089 0
M  V30 350 C 34.4522 -0.0938669 1.60626 0
M  V30 351 O 35.6442 0.116078 1.76619 0
M  V30 352 C 32.7732 0.528726 3.39204 0
M  V30 353 C 31.8592 1.61092 3.92314 0
M  V30 354 N 32.2502 2.83768 4.18699 0
M  V30 355 C 30.5482 1.48158 4.20672 0
M  V30 356 C 31.2492 3.53715 4.61802 0
M  V30 357 N 30.2252 2.81174 4.65233 0
M  V30 358 H 34.0272 1.88577 2.25424 0
M  V30 359 H 31.5412 1.11719 1.17867 0
M  V30 360 H 33.5382 0.31915 4.15677 0
M  V30 361 H 32.1982 -0.39635 3.22272 0
M  V30 362 H 33.2092 3.20238 4.07023 0
M  V30 363 H 29.8862 0.622369 4.12835 0
M  V30 364 H 31.2762 4.58793 4.90875 0
M  V30 365 N 33.9963 -1.19345 1.0293 0
M  V30 366 C 34.9443 -2.24621 0.604001 0
M  V30 367 C 35.9383 -1.65452 -0.363587 0
M  V30 368 O 37.1443 -1.78497 -0.23212 0
M  V30 369 H 33.5193 -0.730858 0.177061 0
M  V30 370 H 35.4903 -2.5781 1.50255 0
M  V30 371 C 34.2393 -3.47688 -0.0289127 0
M  V30 372 H 33.5623 -3.93505 0.706651 0
M  V30 373 H 35.0023 -4.23011 -0.289432 0
M  V30 374 C 33.4613 -3.11817 -1.2756 0
M  V30 375 O 33.9913 -3.2451 -2.36762 0
M  V30 376 N 32.1973 -2.66246 -1.16453 0
M  V30 377 H 31.7443 -2.56118 -0.275914 0
M  V30 378 H 31.7023 -2.42617 -1.99961 0
M  V30 379 N 35.4744 -0.807222 -1.35358 0
M  V30 380 C 36.7044 -0.399796 -2.02695 0
M  V30 381 C 37.1124 0.994176 -1.60974 0
M  V30 382 O 36.4554 1.65209 -0.803226 0
M  V30 383 C 36.5174 -0.404445 -3.57218 0
M  V30 384 C 36.1814 -1.74904 -4.22206 0
M  V30 385 C 37.1784 -2.70743 -4.4384 0
M  V30 386 C 34.8634 -2.03322 -4.5931 0
M  V30 387 C 36.8574 -3.93183 -5.01683 0
M  V30 388 C 34.5444 -3.26026 -5.16866 0
M  V30 389 C 35.5424 -4.20774 -5.37994 0
M  V30 390 O 35.2304 -5.41312 -5.94337 0
M  V30 391 H 34.9624 -0.160517 -0.656666 0
M  V30 392 H 37.5164 -1.09235 -1.73945 0
M  V30 393 H 35.7464 0.344707 -3.85161 0
M  V30 394 H 37.4354 -0.0192429 -4.05895 0
M  V30 395 H 38.2014 -2.5008 -4.15554 0
M  V30 396 H 34.0804 -1.30384 -4.42178 0
M  V30 397 H 37.6244 -4.6715 -5.1809 0
M  V30 398 H 33.5214 -3.46559 -5.44579 0
M  V30 399 H 34.2894 -5.42618 -6.12787 0
M  V30 400 N 36.9525 1.47285 -0.560781 0
M  V30 401 C 38.2295 1.9558 0.0277798 0
M  V30 402 C 38.6095 1.5034 1.48192 0
M  V30 403 O 37.9575 0.743882 2.16052 0
M  V30 404 C 38.1675 3.48789 -0.121418 0
M  V30 405 C 39.5155 4.24594 0.0220912 0
M  V30 406 O 40.5395 3.56166 -0.0491439 0
M  V30 407 O 39.3985 5.46217 0.175958 0
M  V30 408 H 36.4925 0.824663 0.0621342 0
M  V30 409 H 39.0385 1.5767 -0.627556 0
M  V30 410 H 37.8105 3.74533 -1.13316 0
M  V30 411 H 37.4335 3.93473 0.571366 0
M  V30 412 N 38.4306 0.297415 1.54768 0
M  V30 413 C 39.8416 -0.195947 1.85669 0
M  V30 414 C 40.1926 -1.53707 1.21937 0
M  V30 415 O 39.3176 -2.10164 0.515754 0
M  V30 416 C 39.9126 -0.362318 3.36857 0
M  V30 417 C 38.4716 -0.799901 3.67802 0
M  V30 418 C 37.6186 0.0938578 2.77141 0
M  V30 419 H 40.5696 0.518538 1.4999 0
M  V30 420 H 40.5906 -1.19745 3.61167 0
M  V30 421 H 40.1026 0.613921 3.83214 0
M  V30 422 H 38.2036 -1.78682 3.26961 0
M  V30 423 H 38.3166 -0.621773 4.75048 0
M  V30 424 H 36.6806 -0.426254 2.51108 0
M  V30 425 H 37.4636 1.06639 3.26318 0
M  V30 426 N 39.9087 -1.5758 0.0250728 0
M  V30 427 C 41.1577 -1.90811 -0.653767 0
M  V30 428 C 41.4707 -0.90273 -1.73523 0
M  V30 429 O 42.6767 -1.12614 -2.47043 0
M  V30 430 C 41.1327 -3.38804 -1.21409 0
M  V30 431 C 40.7407 -4.47692 -0.166126 0
M  V30 432 C 42.4847 -3.81108 -1.86967 0
M  V30 433 C 40.3917 -5.86779 -0.737856 0
M  V30 434 H 39.3217 -0.712063 -0.247956 0
M  V30 435 H 41.9727 -1.83281 0.0897137 0
M  V30 436 H 40.3547 -3.41252 -2.00905 0
M  V30 437 H 41.5287 -4.56797 0.606079 0
M  V30 438 H 39.8437 -4.14565 0.390466 0
M  V30 439 H 42.4407 -4.82375 -2.30692 0
M  V30 440 H 42.7837 -3.15953 -2.71071 0
M  V30 441 H 43.3167 -3.81065 -1.14167 0
M  V30 442 H 40.0557 -6.55468 0.0649577 0
M  V30 443 H 39.5757 -5.81288 -1.47864 0
M  V30 444 H 41.2547 -6.35223 -1.22884 0
M  V30 445 N 41.3868 0.248026 -1.55636 0
M  V30 446 C 42.7978 0.817177 -1.67866 0
M  V30 447 C 43.1488 1.86069 -0.622322 0
M  V30 448 O 42.2738 2.15157 0.231618 0
M  V30 449 C 42.8688 1.489 -3.04326 0
M  V30 450 C 41.4278 2.00587 -3.185 0
M  V30 451 C 40.5748 0.856573 -2.63739 0
M  V30 452 H 43.5258 0.0238579 -1.58682 0
M  V30 453 H 43.5468 2.35698 -2.98708 0
M  V30 454 H 43.0588 0.729279 -3.81186 0
M  V30 455 H 41.1598 2.79443 -2.4646 0
M  V30 456 H 41.2728 2.20402 -4.25393 0
M  V30 457 H 39.6368 1.25678 -2.21534 0
M  V30 458 H 40.4198 0.109953 -3.43124 0
M  V30 459 N 42.8649 1.48995 0.513639 0
M  V30 460 C 44.1109 1.58076 1.27042 0
M  V30 461 C 44.4439 0.261026 1.92438 0
M  V30 462 O 43.7189 -0.734393 1.80103 0
M  V30 463 C 44.0019 2.73091 2.34719 0
M  V30 464 C 43.8549 4.14821 1.73907 0
M  V30 465 C 45.1739 2.83796 3.36375 0
M  V30 466 H 42.2929 0.575391 0.460536 0
M  V30 467 H 44.9349 1.81232 0.570516 0
M  V30 468 H 43.0849 2.53479 2.94416 0
M  V30 469 H 44.7569 4.45917 1.18135 0
M  V30 470 H 42.9999 4.21058 1.0437 0
M  V30 471 H 43.6709 4.91147 2.51949 0
M  V30 472 H 46.1469 3.01611 2.86653 0
M  V30 473 H 45.0229 3.65971 4.09093 0
M  V30 474 H 45.2839 1.92624 3.9793 0
M  V30 475 N 44.343 -0.763751 1.37857 0
M  V30 476 C 45.589 -1.52483 1.33704 0
M  V30 477 C 45.922 -1.94051 -0.0759612 0
M  V30 478 O 45.197 -1.64675 -1.03501 0
M  V30 479 C 45.48 -2.78441 2.28348 0
M  V30 480 C 45.333 -2.43075 3.78463 0
M  V30 481 C 46.652 -3.80415 2.21298 0
M  V30 482 H 43.771 -0.553169 0.487005 0
M  V30 483 H 46.413 -0.875562 1.68624 0
M  V30 484 H 44.563 -3.33842 1.987 0
M  V30 485 H 46.235 -1.93527 4.18742 0
M  V30 486 H 44.478 -1.75666 3.96641 0
M  V30 487 H 45.149 -3.33149 4.40132 0
M  V30 488 H 47.625 -3.34527 2.47449 0
M  V30 489 H 46.501 -4.66257 2.89647 0
M  V30 490 H 46.762 -4.25262 1.20849 0
M  V30 491 N 45.8211 -1.22559 -0.990812 0
M  V30 492 C 46.7511 -1.0218 -2.09956 0
M  V30 493 C 47.7321 0.0579394 -1.70001 0
M  V30 494 O 48.9171 -0.104684 -1.93918 0
M  V30 495 C 46.0471 -0.601023 -3.4206 0
M  V30 496 C 45.0011 -1.62694 -3.95872 0
M  V30 497 C 44.3271 -1.06193 -5.24049 0
M  V30 498 C 45.6271 -3.01743 -4.2632 0
M  V30 499 H 47.3211 -1.94916 -2.27262 0
M  V30 500 H 44.8671 -0.938566 -1.09211 0
M  V30 501 H 46.8201 -0.445561 -4.19038 0
M  V30 502 H 45.5441 0.362005 -3.24588 0
M  V30 503 H 44.2031 -1.77021 -3.21028 0
M  V30 504 H 43.8511 -0.0901903 -5.02919 0
M  V30 505 H 43.5511 -1.74732 -5.61019 0
M  V30 506 H 45.0751 -0.918092 -6.03658 0
M  V30 507 H 46.4891 -2.90777 -4.94087 0
M  V30 508 H 44.8861 -3.67425 -4.74467 0
M  V30 509 H 45.9561 -3.51518 -3.34011 0
M  V30 510 N 47.2992 1.18797 -1.03562 0
M  V30 511 C 48.2462 2.22253 -0.622259 0
M  V30 512 C 49.2162 1.61987 0.36736 0
M  V30 513 O 50.4012 1.88986 0.262492 0
M  V30 514 C 47.5412 3.45097 0.0138462 0
M  V30 515 C 46.6542 4.19722 -1.02263 0
M  V30 516 C 45.7892 5.30009 -0.355573 0
M  V30 517 C 44.8282 5.96399 -1.37749 0
M  V30 518 N 43.9652 6.98234 -0.735766 0
M  V30 519 H 48.8052 2.56968 -1.50903 0
M  V30 520 H 46.3422 1.26245 -0.755017 0
M  V30 521 H 48.3002 4.15279 0.399948 0
M  V30 522 H 46.9302 3.11018 0.864158 0
M  V30 523 H 45.9822 3.48418 -1.52673 0
M  V30 524 H 47.2942 4.65227 -1.79903 0
M  V30 525 H 46.4482 6.0664 0.0850095 0
M  V30 526 H 45.1872 4.85592 0.452967 0
M  V30 527 H 44.1922 5.18512 -1.82826 0
M  V30 528 H 45.4172 6.42899 -2.18764 0
M  V30 529 H 43.3632 6.55979 0.0525597 0
M  V30 530 H 43.2802 7.41965 -1.44995 0
M  V30 531 H 44.5482 7.78845 -0.31941 0
M  V30 532 N 48.7773 0.814389 1.34928 0
M  V30 533 C 50.1933 0.499084 1.51596 0
M  V30 534 C 50.3933 -0.978319 1.76157 0
M  V30 535 O 49.4493 -1.76309 1.80752 0
M  V30 536 C 50.7623 1.35121 2.68631 0
M  V30 537 C 52.3103 1.34746 2.82511 0
M  V30 538 C 52.7853 2.18388 4.0258 0
M  V30 539 N 54.2763 2.15966 4.09772 0
M  V30 540 C 55.0113 2.77437 5.01813 0
M  V30 541 N 54.5073 3.47866 5.99134 0
M  V30 542 N 56.3003 2.67037 4.94619 0
M  V30 543 H 48.4513 1.7711 1.17243 0
M  V30 544 H 50.7143 0.754256 0.574284 0
M  V30 545 H 50.4203 2.40001 2.57085 0
M  V30 546 H 50.2943 1.00991 3.63429 0
M  V30 547 H 52.6813 0.30648 2.93504 0
M  V30 548 H 52.7623 1.72869 1.88547 0
M  V30 549 H 52.4063 3.2253 3.92347 0
M  V30 550 H 52.3363 1.77621 4.9574 0
M  V30 551 H 54.8273 1.64729 3.40107 0
M  V30 552 H 55.1403 3.92038 6.65977 0
M  V30 553 H 53.4853 3.51972 5.99284 0
M  V30 554 H 56.6763 2.11597 4.17546 0
M  V30 555 H 56.8493 3.15232 5.66156 0
M  V30 556 N 50.2554 -1.46986 0.568584 0
M  V30 557 C 51.5034 -2.02041 0.0487022 0
M  V30 558 C 51.8244 -1.44408 -1.31039 0
M  V30 559 O 51.0944 -0.623477 -1.85714 0
M  V30 560 H 49.6744 -0.746849 0.015014 0
M  V30 561 H 52.3364 -1.80257 0.741168 0
M  V30 562 H 51.4324 -3.12085 -0.0308961 0
M  V30 563 N 51.7335 -0.305618 -1.54608 0
M  V30 564 C 52.6805 0.568421 -2.23691 0
M  V30 565 C 53.6505 1.12592 -1.22116 0
M  V30 566 O 54.8355 1.16959 -1.50749 0
M  V30 567 C 51.9755 1.7322 -2.98477 0
M  V30 568 C 51.0885 1.20566 -4.14835 0
M  V30 569 C 50.2235 2.33368 -4.77193 0
M  V30 570 C 49.2625 1.7787 -5.85686 0
M  V30 571 N 48.3995 2.84263 -6.4198 0
M  V30 572 H 53.2395 -0.0272867 -2.97988 0
M  V30 573 H 50.7765 -0.0252363 -1.47078 0
M  V30 574 H 52.7345 2.41675 -3.40072 0
M  V30 575 H 51.3645 2.29947 -2.26548 0
M  V30 576 H 50.4165 0.413223 -3.78149 0
M  V30 577 H 51.7285 0.759417 -4.92985 0
M  V30 578 H 50.8825 3.09761 -5.21664 0
M  V30 579 H 49.6215 2.8132 -3.98385 0
M  V30 580 H 48.6265 0.99968 -5.40635 0
M  V30 581 H 49.8515 1.30816 -6.66381 0
M  V30 582 H 47.7975 3.31541 -5.66053 0
M  V30 583 H 47.7145 2.44149 -7.15491 0
M  V30 584 H 48.9825 3.6054 -6.91109 0
M  V30 585 N 53.2116 1.57565 -0.0334293 0
M  V30 586 C 54.4596 1.91598 0.642999 0
M  V30 587 C 54.7806 0.910847 1.7242 0
M  V30 588 O 54.0506 -0.0469931 1.95844 0
M  V30 589 H 52.6306 0.707228 0.240496 0
M  V30 590 H 55.2926 1.94726 -0.0822488 0
M  V30 591 H 54.3886 2.92336 1.09298 0
M  V30 592 N 54.6897 -0.239769 1.55765 0
M  V30 593 C 55.9357 -0.968234 1.78194 0
M  V30 594 C 56.2687 -1.84701 0.599938 0
M  V30 595 O 55.5437 -1.9031 -0.401524 0
M  V30 596 C 55.8267 -1.8227 3.10564 0
M  V30 597 C 55.6797 -0.971633 4.3918 0
M  V30 598 C 56.9987 -2.80388 3.39221 0
M  V30 599 H 54.1177 -0.350572 0.648281 0
M  V30 600 H 56.7597 -0.238259 1.885 0
M  V30 601 H 54.9097 -2.44507 3.01908 0
M  V30 602 H 56.5817 -0.367408 4.59835 0
M  V30 603 H 54.8247 -0.276276 4.32919 0
M  V30 604 H 55.4957 -1.60346 5.28198 0
M  V30 605 H 57.9717 -2.28287 3.47885 0
M  V30 606 H 56.8477 -3.3729 4.33044 0
M  V30 607 H 57.1087 -3.57212 2.60484 0
M  V30 608 N 56.1678 -1.49265 -0.50573 0
M  V30 609 C 57.4148 -1.58513 -1.26015 0
M  V30 610 C 57.7428 -0.26972 -1.92621 0
M  V30 611 O 56.9978 0.741997 -1.81088 0
M  V30 612 C 57.2968 -2.69008 -2.35308 0
M  V30 613 C 56.9628 -4.10662 -1.86192 0
M  V30 614 C 55.6248 -4.49212 -1.72516 0
M  V30 615 C 57.9768 -4.99336 -1.49375 0
M  V30 616 C 55.3048 -5.74214 -1.20394 0
M  V30 617 C 57.6568 -6.24852 -0.987072 0
M  V30 618 C 56.3208 -6.62236 -0.836669 0
M  V30 619 H 55.5908 -0.580041 -0.461122 0
M  V30 620 H 58.2378 -1.83078 -0.561665 0
M  V30 621 H 56.5428 -2.38396 -3.10926 0
M  V30 622 H 58.2398 -2.73373 -2.93374 0
M  V30 623 H 54.8298 -3.8023 -1.97795 0
M  V30 624 H 59.0138 -4.70212 -1.5879 0
M  V30 625 H 54.2698 -6.01883 -1.07458 0
M  V30 626 H 58.4438 -6.92944 -0.692983 0
M  V30 627 H 56.0708 -7.58979 -0.430607 0
M  V30 628 N 57.6459 0.756429 -1.3826 0
M  V30 629 C 58.8919 1.51772 -1.34511 0
M  V30 630 C 59.2249 1.94089 0.0656691 0
M  V30 631 O 58.4999 1.65221 1.02626 0
M  V30 632 C 58.7829 2.77226 -2.29821 0
M  V30 633 C 58.6359 2.41065 -3.79747 0
M  V30 634 C 59.9549 3.79236 -2.23312 0
M  V30 635 H 57.0739 0.550578 -0.489931 0
M  V30 636 H 59.7159 0.866607 -1.69086 0
M  V30 637 H 57.8659 3.32784 -2.00467 0
M  V30 638 H 59.5379 1.91303 -4.19763 0
M  V30 639 H 57.7809 1.7356 -3.97567 0
M  V30 640 H 58.4519 3.3081 -4.41892 0
M  V30 641 H 60.9279 3.3321 -2.49219 0
M  V30 642 H 59.8039 4.64714 -2.92116 0
M  V30 643 H 60.0649 4.24615 -1.23102 0
M  V30 644 N 59.124 1.23083 0.984299 0
M  V30 645 C 60.354 1.08556 1.75781 0
M  V30 646 C 60.762 -0.366171 1.85623 0
M  V30 647 O 60.105 -1.26524 1.33182 0
M  V30 648 C 60.167 1.63208 3.20318 0
M  V30 649 C 59.831 3.11922 3.33997 0
M  V30 650 C 60.828 4.09259 3.2063 0
M  V30 651 C 58.513 3.51552 3.58771 0
M  V30 652 C 60.507 5.4421 3.31835 0
M  V30 653 C 58.194 4.86649 3.69616 0
M  V30 654 C 59.192 5.82787 3.56157 0
M  V30 655 O 58.88 7.15431 3.66626 0
M  V30 656 H 58.612 0.380713 0.5586 0
M  V30 657 H 61.166 1.63321 1.2456 0
M  V30 658 H 59.396 1.0286 3.72769 0
M  V30 659 H 61.085 1.44216 3.79416 0
M  V30 660 H 61.851 3.79984 3.01392 0
M  V30 661 H 57.73 2.77239 3.6832 0
M  V30 662 H 61.274 6.1923 3.21247 0
M  V30 663 H 57.171 5.15601 3.88363 0
M  V30 664 H 57.939 7.23127 3.83445 0
M  V30 665 N 60.6021 -1.18246 1.0419 0
M  V30 666 C 61.8791 -1.84121 0.660208 0
M  V30 667 C 62.2591 -1.92778 -0.860221 0
M  V30 668 O 61.6071 -1.45464 -1.76217 0
M  V30 669 C 61.8171 -3.22355 1.33747 0
M  V30 670 C 63.1651 -3.98376 1.46906 0
M  V30 671 O 64.1891 -3.31799 1.29568 0
M  V30 672 O 63.0481 -5.17665 1.75171 0
M  V30 673 H 60.1421 -0.794036 0.231161 0
M  V30 674 H 62.6881 -1.25628 1.14087 0
M  V30 675 H 61.4601 -3.10964 2.37522 0
M  V30 676 H 61.0831 -3.88506 0.845515 0
M  V30 677 N 62.0802 -0.821533 -1.34494 0
M  V30 678 C 63.3292 -0.405355 -1.97585 0
M  V30 679 C 63.6422 1.03677 -1.65863 0
M  V30 680 O 64.8482 1.55679 -2.22433 0
M  V30 681 C 63.3042 -0.673861 -3.53535 0
M  V30 682 C 62.9122 -2.12951 -3.94152 0
M  V30 683 C 64.6562 -0.32378 -4.23263 0
M  V30 684 C 62.5632 -2.34298 -5.43009 0
M  V30 685 H 61.4932 -0.147836 -0.739365 0
M  V30 686 H 64.1442 -1.00769 -1.53355 0
M  V30 687 H 62.5262 -0.00137554 -3.96 0
M  V30 688 H 63.7002 -2.84104 -3.62797 0
M  V30 689 H 62.0152 -2.44089 -3.37356 0
M  V30 690 H 64.6122 -0.461126 -5.32708 0
M  V30 691 H 64.9552 0.731586 -4.09821 0
M  V30 692 H 65.4882 -0.950786 -3.8627 0
M  V30 693 H 62.2272 -3.38335 -5.61435 0
M  V30 694 H 61.7472 -1.67687 -5.75883 0
M  V30 695 H 63.4262 -2.16588 -6.09671 0
M  V30 696 N 63.5583 1.46682 -0.576371 0
M  V30 697 C 64.4683 2.34032 0.163141 0
M  V30 698 C 65.4843 1.49367 0.892501 0
M  V30 699 O 66.6603 1.82252 0.857106 0
M  V30 700 C 63.7253 3.26435 1.16795 0
M  V30 701 C 62.7863 4.26998 0.443944 0
M  V30 702 C 62.0193 5.14986 1.40088 0
M  V30 703 O 62.2423 5.05785 2.637 0
M  V30 704 O 61.1763 5.94906 0.914917 0
M  V30 705 H 65.0023 2.98607 -0.55388 0
M  V30 706 H 62.5873 1.45554 -0.336821 0
M  V30 707 H 64.4693 3.83459 1.74748 0
M  V30 708 H 63.1443 2.64465 1.86655 0
M  V30 709 H 62.0513 3.7368 -0.177271 0
M  V30 710 H 63.3843 4.91736 -0.213566 0
M  V30 711 N 65.0364 0.313813 1.54444 0
M  V30 712 C 66.3134 -0.345447 1.92525 0
M  V30 713 C 66.6934 -1.70667 1.24242 0
M  V30 714 O 66.0414 -2.25273 0.382654 0
M  V30 715 C 66.2514 -0.44737 3.46121 0
M  V30 716 C 67.5994 -0.712238 4.18584 0
M  V30 717 O 68.6234 -0.530678 3.52225 0
M  V30 718 O 67.4824 -1.06183 5.36085 0
M  V30 719 H 64.5764 -0.195407 0.803583 0
M  V30 720 H 67.1224 0.362813 1.65776 0
M  V30 721 H 65.8944 0.509043 3.87975 0
M  V30 722 H 65.5174 -1.20359 3.78945 0
M  V30 723 N 66.5145 -1.57545 0.0417849 0
M  V30 724 C 67.9305 -1.56467 -0.314704 0
M  V30 725 C 68.1305 -1.04859 -1.72066 0
M  V30 726 O 67.1865 -0.700983 -2.42575 0
M  V30 727 C 68.4995 -3.00317 -0.15174 0
M  V30 728 C 70.0475 -3.12201 -0.223553 0
M  V30 729 C 70.5225 -4.57913 -0.0892295 0
M  V30 730 N 72.0135 -4.6297 -0.145808 0
M  V30 731 C 72.7485 -5.73362 -0.0658459 0
M  V30 732 N 72.2445 -6.92769 0.0659282 0
M  V30 733 N 74.0375 -5.6197 -0.12075 0
M  V30 734 H 66.1885 -1.89416 0.961014 0
M  V30 735 H 68.4515 -0.871862 0.372237 0
M  V30 736 H 68.1575 -3.42073 0.817254 0
M  V30 737 H 68.0315 -3.65892 -0.916692 0
M  V30 738 H 70.4185 -2.70349 -1.18301 0
M  V30 739 H 70.4995 -2.49323 0.571994 0
M  V30 740 H 70.1435 -5.00448 0.866867 0
M  V30 741 H 70.0735 -5.18786 -0.903802 0
M  V30 742 H 72.5645 -3.7709 -0.247286 0
M  V30 743 H 72.8775 -7.72707 0.119905 0
M  V30 744 H 71.2225 -6.94927 0.100885 0
M  V30 745 H 74.4135 -4.67572 -0.222187 0
M  V30 746 H 74.5865 -6.47977 -0.0549735 0
M  V30 747 N 67.9926 0.231505 -1.5589 0
M  V30 748 C 69.4086 0.580748 -1.48659 0
M  V30 749 C 69.6086 1.87617 -0.73498 0
M  V30 750 O 68.6646 2.51046 -0.270586 0
M  V30 751 C 69.9776 0.669202 -2.93159 0
M  V30 752 C 71.5256 0.760499 -3.03621 0
M  V30 753 C 72.0006 0.880383 -4.49459 0
M  V30 754 N 73.4916 0.944861 -4.53461 0
M  V30 755 C 74.2266 1.05716 -5.63571 0
M  V30 756 N 73.7226 1.13403 -6.83456 0
M  V30 757 N 75.5156 1.09152 -5.514 0
M  V30 758 H 67.6666 -0.618695 -2.03189 0
M  V30 759 H 69.9296 -0.215728 -0.923128 0
M  V30 760 H 69.6356 -0.212904 -3.51055 0
M  V30 761 H 69.5096 1.5361 -3.44505 0
M  V30 762 H 71.8966 1.63305 -2.45796 0
M  V30 763 H 71.9776 -0.131864 -2.5546 0
M  V30 764 H 71.6216 0.0123284 -5.07899 0
M  V30 765 H 71.5516 1.78802 -4.95316 0
M  V30 766 H 74.0426 0.896176 -3.6712 0
M  V30 767 H 74.3556 1.21921 -7.63122 0
M  V30 768 H 72.7006 1.10333 -6.86186 0
M  V30 769 H 75.8916 1.02805 -4.56671 0
M  V30 770 H 76.0646 1.17558 -6.37247 0
M  V30 771 N 69.4707 1.49531 0.497807 0
M  V30 772 C 70.7007 1.62657 1.27382 0
M  V30 773 C 71.1087 0.298488 1.86831 0
M  V30 774 O 70.4517 -0.72647 1.68725 0
M  V30 775 C 70.5137 2.6393 2.44093 0
M  V30 776 C 70.1777 4.08195 2.05489 0
M  V30 777 C 71.1747 4.949 1.59279 0
M  V30 778 C 68.8597 4.53948 2.15026 0
M  V30 779 C 70.8537 6.25397 1.23113 0
M  V30 780 C 68.5407 5.84458 1.78473 0
M  V30 781 C 69.5387 6.70006 1.32591 0
M  V30 782 O 69.2267 7.98083 0.965327 0
M  V30 783 H 68.9587 0.550429 0.392434 0
M  V30 784 H 71.5127 1.96325 0.603801 0
M  V30 785 H 69.7427 2.25449 3.14181 0
M  V30 786 H 71.4317 2.66552 3.06113 0
M  V30 787 H 72.1977 4.60779 1.51354 0
M  V30 788 H 68.0767 3.87525 2.4969 0
M  V30 789 H 71.6207 6.92125 0.872299 0
M  V30 790 H 67.5177 6.18107 1.86048 0
M  V30 791 H 68.2857 8.11122 1.09652 0
M  V30 792 N 70.9488 -0.749086 1.3866 0
M  V30 793 C 72.1788 -1.53611 1.38157 0
M  V30 794 C 72.5868 -1.89177 -0.0293595 0
M  V30 795 O 71.9298 -1.53606 -1.00752 0
M  V30 796 C 71.9918 -2.86087 2.17702 0
M  V30 797 C 71.6558 -2.73034 3.66472 0
M  V30 798 C 72.6528 -2.42526 4.59866 0
M  V30 799 C 70.3378 -2.90345 4.09884 0
M  V30 800 C 72.3318 -2.29492 5.94653 0
M  V30 801 C 70.0188 -2.7693 5.4475 0
M  V30 802 C 71.0168 -2.46547 6.36949 0
M  V30 803 O 70.7048 -2.33199 7.69333 0
M  V30 804 H 70.4368 -0.481773 0.474205 0
M  V30 805 H 72.9908 -0.934465 1.82912 0
M  V30 806 H 71.2208 -3.48458 1.67672 0
M  V30 807 H 72.9098 -3.47625 2.09551 0
M  V30 808 H 73.6758 -2.28816 4.27631 0
M  V30 809 H 69.5548 -3.1299 3.38464 0
M  V30 810 H 73.0988 -2.05698 6.66584 0
M  V30 811 H 68.9958 -2.90215 5.76581 0
M  V30 812 H 69.7638 -2.48376 7.79905 0
M  V30 813 N 72.4269 -1.23603 -0.977757 0
M  V30 814 C 73.7039 -0.977897 -1.69401 0
M  V30 815 C 74.0839 0.502738 -2.05026 0
M  V30 816 O 73.4319 1.47459 -1.74551 0
M  V30 817 C 73.6419 -1.89077 -2.93345 0
M  V30 818 C 74.9899 -2.15579 -3.65802 0
M  V30 819 O 76.0139 -1.86648 -3.03383 0
M  V30 820 O 74.8729 -2.64658 -4.78141 0
M  V30 821 H 71.9669 -0.369025 -0.740101 0
M  V30 822 H 74.5129 -1.34657 -1.03274 0
M  V30 823 H 73.2849 -2.89158 -2.63634 0
M  V30 824 H 72.9079 -1.52463 -3.67207 0
M  V30 825 N 73.905 1.17692 -1.04816 0
M  V30 826 C 75.152 1.87859 -0.75599 0
M  V30 827 C 75.48 1.80812 0.716752 0
M  V30 828 O 74.735 1.20819 1.53952 0
M  V30 829 C 75.034 3.37462 -1.17703 0
M  V30 830 C 74.7 3.64713 -2.65133 0
M  V30 831 C 73.362 3.71859 -3.05408 0
M  V30 832 C 75.714 3.76492 -3.60421 0
M  V30 833 C 73.042 3.88271 -4.39843 0
M  V30 834 C 75.394 3.94421 -4.94585 0
M  V30 835 C 74.058 3.99806 -5.3452 0
M  V30 836 H 73.328 0.687425 -0.276636 0
M  V30 837 H 75.975 1.39255 -1.31455 0
M  V30 838 H 74.28 3.88097 -0.537395 0
M  V30 839 H 75.977 3.90109 -0.928218 0
M  V30 840 H 72.567 3.59772 -2.32942 0
M  V30 841 H 76.751 3.70295 -3.30447 0
M  V30 842 H 72.007 3.90687 -4.70291 0
M  V30 843 H 76.181 4.02477 -5.68318 0
M  V30 844 H 73.808 4.12276 -6.38696 0
M  V30 845 N 75.3831 0.828654 1.34056 0
M  V30 846 C 76.3131 0.269443 2.3194 0
M  V30 847 C 77.2941 -0.617247 1.58506 0
M  V30 848 O 78.4791 -0.542931 1.86456 0
M  V30 849 C 75.6091 -0.564793 3.42677 0
M  V30 850 C 74.5631 0.225241 4.27407 0
M  V30 851 C 73.8891 -0.7321 5.29664 0
M  V30 852 C 75.1891 1.43663 5.02154 0
M  V30 853 H 76.8831 1.08728 2.7896 0
M  V30 854 H 74.4291 0.524283 1.34117 0
M  V30 855 H 76.3821 -0.966233 4.10173 0
M  V30 856 H 75.1061 -1.41574 2.9432 0
M  V30 857 H 73.7651 0.608117 3.61521 0
M  V30 858 H 73.4131 -1.57916 4.77568 0
M  V30 859 H 73.1131 -0.20767 5.87233 0
M  V30 860 H 74.6371 -1.13128 6.00029 0
M  V30 861 H 76.0511 1.1089 5.62473 0
M  V30 862 H 74.4481 1.89711 5.69324 0
M  V30 863 H 75.5181 2.21181 4.31517 0
M  V30 864 N 76.8612 -1.46375 0.584142 0
M  V30 865 C 78.0862 -2.07268 0.0740405 0
M  V30 866 C 78.5112 -1.42979 -1.22223 0
M  V30 867 O 77.8692 -0.514092 -1.73859 0
M  V30 868 C 77.9172 -3.60518 -0.0767769 0
M  V30 869 O 77.0212 -3.96533 -1.13292 0
M  V30 870 H 76.3622 -0.660961 0.0634524 0
M  V30 871 H 78.8922 -1.87991 0.807492 0
M  V30 872 H 78.9022 -4.07021 -0.282489 0
M  V30 873 H 77.5772 -4.06702 0.86986 0
M  V30 874 H 76.1542 -3.61738 -0.905553 0
M  V30 875 N 78.3393 -0.321999 -1.54275 0
M  V30 876 C 79.3023 0.531975 -2.22941 0
M  V30 877 C 80.3023 1.04478 -1.22234 0
M  V30 878 O 81.4923 0.937452 -1.46825 0
M  V30 879 C 78.6243 1.73874 -2.93224 0
M  V30 880 H 79.8173 -0.0682612 -2.99822 0
M  V30 881 H 77.3703 -0.0730644 -1.56129 0
M  V30 882 H 78.1053 2.37825 -2.20476 0
M  V30 883 H 77.8903 1.37847 -3.6707 0
M  V30 884 H 79.3803 2.34496 -3.45545 0
M  V30 885 N 79.8174 1.5752 -0.0501392 0
M  V30 886 C 81.0474 1.96678 0.632573 0
M  V30 887 C 81.4554 0.926298 1.64974 0
M  V30 888 O 80.7984 -0.09802 1.83438 0
M  V30 889 C 80.8604 3.32068 1.37735 0
M  V30 890 C 80.5244 4.54076 0.516131 0
M  V30 891 C 81.5214 5.19445 -0.217357 0
M  V30 892 C 79.2064 5.00304 0.44736 0
M  V30 893 C 81.2004 6.29378 -1.00807 0
M  V30 894 C 78.8874 6.10114 -0.347038 0
M  V30 895 C 79.8854 6.74512 -1.07344 0
M  V30 896 O 79.5734 7.82211 -1.85477 0
M  V30 897 H 79.3054 0.652193 0.177821 0
M  V30 898 H 81.8594 2.05091 -0.112543 0
M  V30 899 H 80.0894 3.20206 2.16807 0
M  V30 900 H 81.7784 3.55981 1.95019 0
M  V30 901 H 82.5444 4.84689 -0.173688 0
M  V30 902 H 78.4234 4.49971 1.00235 0
M  V30 903 H 81.9674 6.79575 -1.57556 0
M  V30 904 H 77.8644 6.44307 -0.392349 0
M  V30 905 H 78.6324 7.98982 -1.77678 0
M  V30 906 N 81.2955 -0.223234 1.56011 0
M  V30 907 C 82.5205 -0.968978 1.83373 0
M  V30 908 C 82.9455 -1.77227 0.630254 0
M  V30 909 O 82.3035 -1.76345 -0.420959 0
M  V30 910 C 82.3515 -1.86363 3.08709 0
M  V30 911 O 81.4555 -2.95873 2.87285 0
M  V30 912 H 80.7965 -0.274461 0.604622 0
M  V30 913 H 83.3265 -0.237056 2.03222 0
M  V30 914 H 83.3365 -2.27376 3.38768 0
M  V30 915 H 82.0115 -1.27319 3.95933 0
M  V30 916 H 80.5885 -2.58818 2.68454 0
M  V30 917 N 82.7736 -1.49793 -0.48987 0
M  V30 918 C 83.9986 -1.63836 -1.27172 0
M  V30 919 C 84.4236 -0.31402 -1.8546 0
M  V30 920 O 83.7816 0.719803 -1.66399 0
M  V30 921 C 83.8296 -2.71797 -2.36978 0
M  V30 922 O 82.9336 -2.31744 -3.41128 0
M  V30 923 H 82.2746 -0.547997 -0.37496 0
M  V30 924 H 84.8046 -1.96053 -0.585191 0
M  V30 925 H 84.8146 -2.94305 -2.82575 0
M  V30 926 H 83.4896 -3.67923 -1.93921 0
M  V30 927 H 82.0666 -2.1961 -3.01373 0
M  V30 928 N 84.2517 0.741722 -1.39055 0
M  V30 929 C 85.4977 1.50336 -1.36113 0
M  V30 930 C 85.8307 1.94148 0.0450796 0
M  V30 931 O 85.1057 1.66301 1.00868 0
M  V30 932 C 85.3887 2.74773 -2.32749 0
M  V30 933 C 85.2417 2.37023 -3.82283 0
M  V30 934 C 86.5607 3.76846 -2.27322 0
M  V30 935 H 83.6797 0.545351 -0.495743 0
M  V30 936 H 86.3217 0.848624 -1.69995 0
M  V30 937 H 84.4717 3.30639 -2.03986 0
M  V30 938 H 86.1437 1.8684 -4.21768 0
M  V30 939 H 84.3867 1.69334 -3.99385 0
M  V30 940 H 85.0577 3.26104 -4.45376 0
M  V30 941 H 87.5337 3.30548 -2.5274 0
M  V30 942 H 86.4097 4.6159 -2.97028 0
M  V30 943 H 86.6707 4.23286 -1.27599 0
M  V30 944 N 85.7298 1.2412 0.971189 0
M  V30 945 C 86.6778 1.02812 2.08644 0
M  V30 946 C 87.6718 -0.0358403 1.69362 0
M  V30 947 O 88.8778 0.118429 1.7961 0
M  V30 948 H 85.2528 0.315428 0.682649 0
M  V30 949 H 87.2238 1.97397 2.23779 0
M  V30 950 C 85.9728 0.645874 3.41649 0
M  V30 951 H 85.2958 1.45632 3.72332 0
M  V30 952 H 86.7358 0.536366 4.20594 0
M  V30 953 C 85.1948 -0.646713 3.30635 0
M  V30 954 O 85.7248 -1.69338 3.64263 0
M  V30 955 N 83.9308 -0.626115 2.83775 0
M  V30 956 H 83.4778 0.225988 2.56607 0
M  V30 957 H 83.4358 -1.49117 2.76788 0
M  V30 958 N 87.2079 -1.17134 1.05439 0
M  V30 959 C 88.1399 -2.2078 0.615539 0
M  V30 960 C 89.1529 -1.59584 -0.322001 0
M  V30 961 O 90.3419 -1.78133 -0.114344 0
M  V30 962 C 87.4419 -3.38691 -0.118938 0
M  V30 963 C 86.6149 -4.29454 0.829924 0
M  V30 964 C 85.6739 -5.26024 0.136258 0
M  V30 965 O 84.6999 -5.63952 0.77115 0
M  V30 966 N 85.9019 -5.69487 -1.1254 0
M  V30 967 H 88.6669 -2.59052 1.50705 0
M  V30 968 H 86.2279 -1.32058 0.936603 0
M  V30 969 H 88.2199 -4.00329 -0.593179 0
M  V30 970 H 86.7899 -2.98996 -0.91215 0
M  V30 971 H 86.0099 -3.65211 1.48373 0
M  V30 972 H 87.2979 -4.86984 1.47392 0
M  V30 973 H 86.6959 -5.4075 -1.6615 0
M  V30 974 H 85.2529 -6.33257 -1.54366 0
M  V30 975 N 88.686 -0.835752 -1.33615 0
M  V30 976 C 89.934 -0.429109 -1.97492 0
M  V30 977 C 90.255 1.01433 -1.66543 0
M  V30 978 O 89.525 1.70611 -0.962744 0
M  V30 979 H 88.105 -0.155686 -0.730596 0
M  V30 980 H 90.767 -1.06802 -1.63031 0
M  V30 981 H 89.863 -0.55861 -3.0706 0
M  V30 982 N 90.1641 1.46063 -0.591896 0
M  V30 983 C 91.1141 2.27458 0.157172 0
M  V30 984 C 92.0981 1.3641 0.853301 0
M  V30 985 O 93.2901 1.60517 0.74588 0
M  V30 986 C 90.4191 3.22956 1.16423 0
M  V30 987 C 89.5051 4.2149 0.469742 0
M  V30 988 N 89.8961 5.03519 -0.479839 0
M  V30 989 C 88.1941 4.40161 0.719319 0
M  V30 990 C 88.8951 5.74904 -0.886591 0
M  V30 991 N 87.8711 5.43097 -0.233731 0
M  V30 992 H 91.6731 2.88272 -0.572392 0
M  V30 993 H 89.1871 1.57024 -0.414375 0
M  V30 994 H 91.1841 3.79986 1.71513 0
M  V30 995 H 89.8441 2.63701 1.89451 0
M  V30 996 H 90.8551 5.1078 -0.855823 0
M  V30 997 H 87.5321 3.92046 1.43548 0
M  V30 998 H 88.9221 6.50844 -1.66888 0
M  V30 999 N 91.6422 0.330177 1.54103 0
M  V30 1000 C 92.8822 -0.270916 2.02597 0
M  V30 1001 C 93.2462 -1.48826 1.21304 0
M  V30 1002 O 94.4472 -2.16266 1.59633 0
M  V30 1003 C 92.7182 -0.590328 3.52491 0
M  V30 1004 S 94.2772 -1.17014 4.2291 0
M  V30 1005 H 91.0952 -0.0815379 0.706309 0
M  V30 1006 H 93.6972 0.464835 1.89893 0
M  V30 1007 H 92.4012 0.303691 4.09275 0
M  V30 1008 H 91.9322 -1.3561 3.69288 0
M  V30 1009 H 93.9472 -2.45662 4.3112 0
M  V30 1010 N 93.1203 -1.57491 0.0584922 0
M  V30 1011 C 94.0703 -2.08474 -0.923188 0
M  V30 1012 C 95.0543 -0.991479 -1.26722 0
M  V30 1013 O 96.2463 -1.25473 -1.24842 0
M  V30 1014 C 93.3753 -2.6392 -2.19548 0
M  V30 1015 C 92.4613 -3.80227 -1.87852 0
M  V30 1016 N 92.8523 -4.89714 -1.26546 0
M  V30 1017 C 91.1503 -3.89271 -2.17679 0
M  V30 1018 C 91.8513 -5.70689 -1.12644 0
M  V30 1019 N 90.8273 -5.18531 -1.63176 0
M  V30 1020 H 94.6293 -2.90517 -0.444653 0
M  V30 1021 H 92.1433 -1.61745 -0.145764 0
M  V30 1022 H 94.1403 -2.98752 -2.9078 0
M  V30 1023 H 92.8003 -1.83318 -2.68001 0
M  V30 1024 H 93.8113 -5.09358 -0.936757 0
M  V30 1025 H 90.4883 -3.19623 -2.68602 0
M  V30 1026 H 91.8783 -6.6875 -0.6499 0
M  V30 1027 N 94.5984 0.214957 -1.56127 0
M  V30 1028 C 96.0094 0.781386 -1.69562 0
M  V30 1029 C 96.3604 1.84707 -0.66165 0
M  V30 1030 O 95.4854 2.156 0.185927 0
M  V30 1031 C 96.0804 1.42411 -3.07416 0
M  V30 1032 C 94.6394 1.93786 -3.22683 0
M  V30 1033 C 93.7864 0.800438 -2.65496 0
M  V30 1034 H 96.7374 -0.00980633 -1.58697 0
M  V30 1035 H 96.7584 2.29309 -3.0364 0
M  V30 1036 H 96.2704 0.64826 -3.82648 0
M  V30 1037 H 94.3714 2.74152 -2.52332 0
M  V30 1038 H 94.4844 2.1133 -4.29973 0
M  V30 1039 H 92.8484 1.2095 -2.2415 0
M  V30 1040 H 93.6314 0.0371471 -3.4328 0
M  V30 1041 N 96.0765 1.50051 0.48192 0
M  V30 1042 C 97.3535 1.51009 1.2432 0
M  V30 1043 C 97.7335 0.248587 2.09631 0
M  V30 1044 O 97.0815 -0.768409 2.15192 0
M  V30 1045 C 97.2915 2.79981 2.08355 0
M  V30 1046 C 98.6395 3.3022 2.66908 0
M  V30 1047 O 99.6635 2.81228 2.18607 0
M  V30 1048 O 98.5225 4.15595 3.54884 0
M  V30 1049 H 95.6165 0.605239 0.563573 0
M  V30 1050 H 98.1625 1.62332 0.494627 0
M  V30 1051 H 96.9345 3.63275 1.45419 0
M  V30 1052 H 96.5575 2.7161 2.90368 0
M  V30 1053 N 97.5546 -0.734337 1.39446 0
M  V30 1054 C 98.8036 -1.48937 1.36017 0
M  V30 1055 C 99.1166 -1.95557 -0.0409005 0
M  V30 1056 O 100.323 -2.70779 -0.19778 0
M  V30 1057 C 98.7786 -2.69125 2.38955 0
M  V30 1058 C 98.3866 -2.29452 3.8478 0
M  V30 1059 C 100.131 -3.46944 2.44603 0
M  V30 1060 C 98.0376 -3.46366 4.79358 0
M  V30 1061 H 96.9676 -0.559296 0.505672 0
M  V30 1062 H 99.6186 -0.800983 1.65095 0
M  V30 1063 H 98.0006 -3.40041 2.02948 0
M  V30 1064 H 99.1746 -1.66077 4.29831 0
M  V30 1065 H 97.4896 -1.64723 3.82433 0
M  V30 1066 H 100.087 -4.33907 3.12456 0
M  V30 1067 H 100.43 -3.89454 1.47076 0
M  V30 1068 H 100.963 -2.83056 2.79507 0
M  V30 1069 H 97.7016 -3.08905 5.78151 0
M  V30 1070 H 97.2216 -4.08719 4.38986 0
M  V30 1071 H 98.9006 -4.12691 4.98292 0
M  V30 1072 N 99.0327 -1.24633 -0.964593 0
M  V30 1073 C 99.9627 -1.06611 -2.07741 0
M  V30 1074 C 100.944 0.0218666 -1.70086 0
M  V30 1075 O 102.129 -0.145793 -1.93652 0
M  V30 1076 C 99.2587 -0.673444 -3.40708 0
M  V30 1077 C 98.2127 -1.71054 -3.92332 0
M  V30 1078 C 97.5387 -1.17285 -5.21678 0
M  V30 1079 C 98.8387 -3.10718 -4.19824 0
M  V30 1080 H 100.533 -1.99693 -2.23076 0
M  V30 1081 H 98.0787 -0.96152 -1.07195 0
M  V30 1082 H 100.032 -0.534345 -4.17998 0
M  V30 1083 H 98.7557 0.293073 -3.25282 0
M  V30 1084 H 97.4147 -1.83791 -3.17201 0
M  V30 1085 H 97.0627 -0.196847 -5.02615 0
M  V30 1086 H 96.7627 -1.86592 -5.57187 0
M  V30 1087 H 98.2867 -1.04593 -6.01575 0
M  V30 1088 H 99.7007 -3.01192 -4.87808 0
M  V30 1089 H 98.0977 -3.77406 -4.66567 0
M  V30 1090 H 99.1677 -3.58524 -3.26479 0
M  V30 1091 N 100.511 1.16574 -1.06058 0
M  V30 1092 C 101.459 2.22941 -0.663343 0
M  V30 1093 C 102.453 1.66358 0.319593 0
M  V30 1094 O 103.659 1.7905 0.184713 0
M  V30 1095 H 100.034 0.725907 -0.196376 0
M  V30 1096 H 102.005 2.53736 -1.57037 0
M  V30 1097 C 100.754 3.47642 -0.0632808 0
M  V30 1098 H 100.077 3.91493 -0.810733 0
M  V30 1099 H 101.517 4.2363 0.177177 0
M  V30 1100 C 99.9758 3.1509 1.19248 0
M  V30 1101 O 100.506 3.30673 2.28075 0
M  V30 1102 N 98.7118 2.6924 1.09353 0
M  V30 1103 H 98.2588 2.5676 0.207912 0
M  V30 1104 H 98.2168 2.47833 1.93458 0
M  V30 1105 N 101.989 0.842826 1.3317 0
M  V30 1106 C 102.952 0.284065 2.27433 0
M  V30 1107 C 103.952 -0.54948 1.5112 0
M  V30 1108 O 105.142 -0.362699 1.70382 0
M  V30 1109 C 102.274 -0.599384 3.35589 0
M  V30 1110 H 103.467 1.11589 2.78366 0
M  V30 1111 H 101.02 0.616221 1.4364 0
M  V30 1112 H 101.755 -1.45349 2.89904 0
M  V30 1113 H 101.54 -0.00291266 3.921 0
M  V30 1114 H 103.03 -0.983488 4.05854 0
M  V30 1115 N 103.467 -1.45747 0.599634 0
M  V30 1116 C 104.4 -2.27547 -0.172552 0
M  V30 1117 C 105.378 -1.36657 -0.881116 0
M  V30 1118 O 106.562 -1.66081 -0.891595 0
M  V30 1119 C 103.689 -3.14829 -1.24903 0
M  V30 1120 C 102.735 -4.21603 -0.644465 0
M  V30 1121 S 103.568 -5.32754 0.541606 0
M  V30 1122 C 104.724 -6.23604 -0.535656 0
M  V30 1123 H 104.957 -2.92691 0.521468 0
M  V30 1124 H 102.49 -1.49473 0.386947 0
M  V30 1125 H 104.448 -3.65675 -1.86527 0
M  V30 1126 H 103.109 -2.48965 -1.91508 0
M  V30 1127 H 102.302 -4.82566 -1.45417 0
M  V30 1128 H 101.904 -3.73857 -0.103534 0
M  V30 1129 H 104.196 -6.62519 -1.41686 0
M  V30 1130 H 105.139 -7.0809 0.0376246 0
M  V30 1131 H 105.547 -5.58103 -0.84741 0
M  V30 1132 N 104.945 -0.338344 -1.53925 0
M  V30 1133 C 106.194 0.260732 -2.00008 0
M  V30 1134 C 106.507 1.52073 -1.23017 0
M  V30 1135 O 107.713 2.19672 -1.5955 0
M  V30 1136 C 106.169 0.51515 -3.56194 0
M  V30 1137 C 105.777 -0.728645 -4.42035 0
M  V30 1138 C 107.521 1.07337 -4.10706 0
M  V30 1139 C 105.428 -0.445315 -5.89721 0
M  V30 1140 H 104.358 0.101205 -0.747177 0
M  V30 1141 H 107.009 -0.452866 -1.77824 0
M  V30 1142 H 105.391 1.28932 -3.74423 0
M  V30 1143 H 106.565 -1.50352 -4.35581 0
M  V30 1144 H 104.88 -1.20813 -3.98489 0
M  V30 1145 H 107.477 1.30022 -5.18651 0
M  V30 1146 H 107.82 2.0273 -3.63602 0
M  V30 1147 H 108.353 0.360034 -3.96167 0
M  V30 1148 H 105.092 -1.36883 -6.41049 0
M  V30 1149 H 104.612 0.291569 -5.99091 0
M  V30 1150 H 106.291 -0.0606218 -6.46972 0
M  V30 1151 N 106.423 1.57458 -0.0668435 0
M  V30 1152 C 107.371 2.13639 0.919851 0
M  V30 1153 C 108.365 1.07204 1.31163 0
M  V30 1154 O 109.571 1.25591 1.28945 0
M  V30 1155 H 105.946 0.683048 0.314562 0
M  V30 1156 H 107.917 2.95415 0.421047 0
M  V30 1157 C 106.666 2.70892 2.17975 0
M  V30 1158 H 105.989 3.5246 1.88711 0
M  V30 1159 H 107.429 3.13803 2.85138 0
M  V30 1160 C 105.888 1.65414 2.93496 0
M  V30 1161 O 106.418 1.07619 3.87015 0
M  V30 1162 N 104.624 1.36564 2.56512 0
M  V30 1163 H 104.171 1.83751 1.80536 0
M  V30 1164 H 104.129 0.66223 3.07347 0
M  V30 1165 N 107.901 -0.206675 1.56239 0
M  V30 1166 C 108.833 -1.27997 1.9013 0
M  V30 1167 C 109.846 -1.42299 0.790883 0
M  V30 1168 O 111.035 -1.42931 1.06925 0
M  V30 1169 C 108.135 -2.65368 2.10792 0
M  V30 1170 C 107.308 -2.72824 3.41886 0
M  V30 1171 C 106.367 -3.9131 3.51799 0
M  V30 1172 O 105.393 -3.78953 4.24716 0
M  V30 1173 N 106.595 -5.06265 2.84035 0
M  V30 1174 H 109.36 -0.992444 2.82791 0
M  V30 1175 H 106.921 -0.396652 1.56966 0
M  V30 1176 H 108.913 -3.43039 2.14724 0
M  V30 1177 H 107.483 -2.86657 1.24685 0
M  V30 1178 H 106.703 -1.81515 3.49923 0
M  V30 1179 H 107.991 -2.74786 4.28217 0
M  V30 1180 H 107.389 -5.19203 2.246 0
M  V30 1181 H 105.946 -5.81925 2.93609 0
M  V30 1182 N 109.379 -1.50304 -0.473955 0
M  V30 1183 C 110.342 -1.6841 -1.55469 0
M  V30 1184 C 111.342 -0.554905 -1.50922 0
M  V30 1185 O 112.532 -0.821882 -1.53593 0
M  V30 1186 C 109.664 -1.70667 -2.95102 0
M  V30 1187 H 110.857 -2.64828 -1.40733 0
M  V30 1188 H 108.41 -1.39742 -0.700132 0
M  V30 1189 H 109.145 -0.75932 -3.15285 0
M  V30 1190 H 108.93 -2.52698 -2.9981 0
M  V30 1191 H 110.42 -1.8664 -3.73571 0
M  V30 1192 N 110.857 0.726932 -1.39834 0
M  V30 1193 C 111.804 1.841 -1.39197 0
M  V30 1194 C 112.774 1.642 -0.250502 0
M  V30 1195 O 113.959 1.85494 -0.446846 0
M  V30 1196 C 111.099 3.21697 -1.24919 0
M  V30 1197 C 110.212 3.53247 -2.48678 0
M  V30 1198 C 109.347 4.80289 -2.26928 0
M  V30 1199 C 108.386 5.04707 -3.4632 0
M  V30 1200 N 107.523 6.22956 -3.23836 0
M  V30 1201 H 112.363 1.83979 -2.34427 0
M  V30 1202 H 109.9 0.898876 -1.16442 0
M  V30 1203 H 111.858 4.01137 -1.1465 0
M  V30 1204 H 110.488 3.21076 -0.333153 0
M  V30 1205 H 109.54 2.68447 -2.69519 0
M  V30 1206 H 110.852 3.67205 -3.37582 0
M  V30 1207 H 110.006 5.67725 -2.13947 0
M  V30 1208 H 108.745 4.68519 -1.35431 0
M  V30 1209 H 107.75 4.1573 -3.5979 0
M  V30 1210 H 108.975 5.18357 -4.38729 0
M  V30 1211 H 106.921 6.12459 -2.35011 0
M  V30 1212 H 106.838 6.37539 -4.063 0
M  V30 1213 H 108.106 7.1321 -3.14566 0
M  V30 1214 N 112.336 1.25143 0.95797 0
M  V30 1215 C 113.283 1.05235 2.05412 0
M  V30 1216 C 114.253 -0.0374561 1.66058 0
M  V30 1217 O 115.438 0.119073 1.90428 0
M  V30 1218 C 112.578 0.673589 3.38462 0
M  V30 1219 C 111.691 1.8379 3.90954 0
M  V30 1220 C 110.826 1.40381 5.12315 0
M  V30 1221 C 109.865 2.53746 5.57027 0
M  V30 1222 N 109.002 2.11136 6.69601 0
M  V30 1223 H 113.842 1.99048 2.21774 0
M  V30 1224 H 111.379 0.991277 1.08683 0
M  V30 1225 H 113.337 0.434964 4.14926 0
M  V30 1226 H 111.967 -0.227554 3.21997 0
M  V30 1227 H 111.019 2.18992 3.11041 0
M  V30 1228 H 112.331 2.68937 4.20089 0
M  V30 1229 H 111.485 1.12464 5.96185 0
M  V30 1230 H 110.224 0.523015 4.84887 0
M  V30 1231 H 109.229 2.82412 4.71724 0
M  V30 1232 H 110.454 3.42398 5.86464 0
M  V30 1233 H 108.4 1.25468 6.4389 0
M  V30 1234 H 108.317 2.89832 6.98236 0
M  V30 1235 H 109.585 1.86385 7.56889 0
M  V30 1236 N 113.814 -1.1601 1.06675 0
M  V30 1237 C 114.744 -2.22688 0.702307 0
M  V30 1238 C 115.725 -1.67306 -0.307032 0
M  V30 1239 O 116.91 -1.93352 -0.181305 0
M  V30 1240 C 114.04 -3.47178 0.092038 0
M  V30 1241 C 112.994 -4.15477 1.02777 0
M  V30 1242 C 112.32 -5.33963 0.28061 0
M  V30 1243 C 113.62 -4.66019 2.35846 0
M  V30 1244 H 115.314 -2.53429 1.59419 0
M  V30 1245 H 112.86 -1.21813 0.767961 0
M  V30 1246 H 114.813 -4.21037 -0.174814 0
M  V30 1247 H 113.537 -3.15749 -0.834877 0
M  V30 1248 H 112.196 -3.43549 1.27944 0
M  V30 1249 H 111.844 -4.98788 -0.649545 0
M  V30 1250 H 111.544 -5.806 0.904258 0
M  V30 1251 H 113.068 -6.10596 0.021396 0
M  V30 1252 H 114.482 -5.3144 2.15045 0
M  V30 1253 H 112.879 -5.23293 2.93743 0
M  V30 1254 H 113.949 -3.82023 2.98641 0
M  V30 1255 N 115.292 -0.849877 -1.32721 0
M  V30 1256 C 116.52 -0.464754 -2.01613 0
M  V30 1257 C 116.935 0.937191 -1.63897 0
M  V30 1258 O 116.292 1.61081 -0.857856 0
M  V30 1259 C 116.343 -0.588638 -3.56675 0
M  V30 1260 O 116.064 -1.93535 -3.93034 0
M  V30 1261 C 117.565 -0.2019 -4.4284 0
M  V30 1262 H 114.785 -0.183215 -0.645502 0
M  V30 1263 H 117.329 -1.1455 -1.69407 0
M  V30 1264 H 115.484 0.0443159 -3.87375 0
M  V30 1265 H 115.898 -1.92871 -4.87751 0
M  V30 1266 H 117.372 -0.339599 -5.50954 0
M  V30 1267 H 117.849 0.857224 -4.30753 0
M  V30 1268 H 118.455 -0.809733 -4.17521 0
M  V30 1269 N 116.77 1.45427 -0.607355 0
M  V30 1270 C 118.019 2.01452 -0.100036 0
M  V30 1271 C 118.332 1.48159 1.27704 0
M  V30 1272 O 119.538 1.96159 1.87707 0
M  V30 1273 C 117.994 3.59672 -0.128158 0
M  V30 1274 C 117.602 4.21962 -1.50507 0
M  V30 1275 C 119.346 4.23262 0.323932 0
M  V30 1276 C 117.253 5.72333 -1.48959 0
M  V30 1277 H 116.183 0.75325 -0.0336299 0
M  V30 1278 H 118.834 1.66901 -0.76265 0
M  V30 1279 H 117.216 3.91411 0.601105 0
M  V30 1280 H 118.39 4.01796 -2.25602 0
M  V30 1281 H 116.705 3.70565 -1.89923 0
M  V30 1282 H 119.302 5.33522 0.354691 0
M  V30 1283 H 119.645 3.93921 1.34656 0
M  V30 1284 H 120.178 3.96239 -0.352056 0
M  V30 1285 H 116.917 6.06373 -2.48981 0
M  V30 1286 H 116.437 5.94691 -0.781214 0
M  V30 1287 H 118.116 6.35525 -1.21313 0
M  V30 1288 N 118.248 0.346503 1.53744 0
M  V30 1289 C 119.488 -0.249413 2.02873 0
M  V30 1290 C 119.852 -1.47532 1.22876 0
M  V30 1291 O 121.053 -2.1456 1.61918 0
M  V30 1292 C 119.324 -0.552909 3.53097 0
M  V30 1293 S 120.883 -1.12521 4.24128 0
M  V30 1294 H 117.701 -0.074042 0.707134 0
M  V30 1295 H 120.303 0.48495 1.8939 0
M  V30 1296 H 119.007 0.347083 4.0893 0
M  V30 1297 H 118.538 -1.31686 3.70705 0
M  V30 1298 H 120.553 -2.41075 4.33702 0
M  V30 1299 N 119.726 -1.57421 0.075193 0
M  V30 1300 C 120.951 -1.98364 -0.605515 0
M  V30 1301 C 121.376 -0.953383 -1.62149 0
M  V30 1302 O 120.734 0.0806053 -1.81121 0
M  V30 1303 C 120.782 -3.38332 -1.24756 0
M  V30 1304 O 119.886 -3.37959 -2.36342 0
M  V30 1305 H 119.227 -0.645553 -0.155428 0
M  V30 1306 H 121.757 -2.04044 0.150714 0
M  V30 1307 H 121.767 -3.75591 -1.5936 0
M  V30 1308 H 120.442 -4.12846 -0.503129 0
M  V30 1309 H 119.019 -3.12474 -2.03506 0
M  V30 1310 N 121.204 0.198386 -1.56346 0
M  V30 1311 C 122.62 0.549085 -1.49857 0
M  V30 1312 C 122.82 1.86016 -0.774611 0
M  V30 1313 O 121.876 2.50416 -0.323776 0
M  V30 1314 C 123.189 0.606868 -2.94512 0
M  V30 1315 C 124.737 0.695925 -3.05165 0
M  V30 1316 C 125.212 0.784848 -4.51225 0
M  V30 1317 N 126.703 0.848463 -4.55363 0
M  V30 1318 C 127.438 0.937378 -5.65686 0
M  V30 1319 N 126.934 0.9888 -6.85707 0
M  V30 1320 N 128.727 0.974312 -5.53592 0
M  V30 1321 H 120.878 -0.661655 -2.01831 0
M  V30 1322 H 123.141 -0.235261 -0.918344 0
M  V30 1323 H 122.847 -0.28732 -3.50524 0
M  V30 1324 H 122.721 1.46268 -3.47686 0
M  V30 1325 H 125.108 1.58055 -2.49204 0
M  V30 1326 H 125.189 -0.186022 -2.55123 0
M  V30 1327 H 124.833 -0.0954072 -5.0781 0
M  V30 1328 H 124.763 1.68255 -4.98997 0
M  V30 1329 H 127.254 0.818103 -3.68938 0
M  V30 1330 H 127.567 1.05707 -7.65536 0
M  V30 1331 H 125.912 0.957534 -6.88372 0
M  V30 1332 H 129.103 0.930954 -4.58749 0
M  V30 1333 H 129.276 1.04015 -6.39597 0
M  V30 1334 N 122.682 1.50554 0.465978 0
M  V30 1335 C 123.645 1.69233 1.54574 0
M  V30 1336 C 124.645 0.562901 1.50626 0
M  V30 1337 O 125.835 0.830016 1.53155 0
M  V30 1338 C 122.967 1.7223 2.94193 0
M  V30 1339 H 124.16 2.65571 1.39327 0
M  V30 1340 H 121.713 1.40111 0.692711 0
M  V30 1341 H 122.448 0.77603 3.14878 0
M  V30 1342 H 122.233 2.54285 2.98466 0
M  V30 1343 H 123.723 1.88618 3.72576 0
M  V30 1344 N 124.16 -0.719506 1.40217 0
M  V30 1345 C 125.407 -1.47933 1.38283 0
M  V30 1346 C 125.735 -1.94493 -0.0161536 0
M  V30 1347 O 124.99 -1.68224 -0.999956 0
M  V30 1348 C 125.289 -2.72271 2.31524 0
M  V30 1349 C 124.955 -2.44496 3.78857 0
M  V30 1350 C 123.617 -2.36631 4.18998 0
M  V30 1351 C 125.969 -2.21104 4.71977 0
M  V30 1352 C 123.297 -2.03437 5.503 0
M  V30 1353 C 125.649 -1.89423 6.03574 0
M  V30 1354 C 124.313 -1.80038 6.42762 0
M  V30 1355 H 123.583 -0.541325 0.506012 0
M  V30 1356 H 126.23 -0.824502 1.72842 0
M  V30 1357 H 124.535 -3.42572 1.90137 0
M  V30 1358 H 126.232 -3.30348 2.27313 0
M  V30 1359 H 122.822 -2.51503 3.47051 0
M  V30 1360 H 127.006 -2.26139 4.41786 0
M  V30 1361 H 122.262 -1.94705 5.79569 0
M  V30 1362 H 126.436 -1.70336 6.75247 0
M  V30 1363 H 124.063 -1.54083 7.44421 0
M  V30 1364 N 125.638 -1.25649 -0.95132 0
M  V30 1365 C 126.885 -1.10594 -1.69633 0
M  V30 1366 C 127.213 0.352515 -1.91279 0
M  V30 1367 O 126.468 1.27601 -1.4838 0
M  V30 1368 C 126.767 -1.80909 -3.08231 0
M  V30 1369 C 126.433 -3.30825 -3.06375 0
M  V30 1370 C 125.095 -3.71722 -3.05576 0
M  V30 1371 C 127.447 -4.26589 -2.99452 0
M  V30 1372 C 124.775 -5.06788 -2.95606 0
M  V30 1373 C 127.127 -5.61683 -2.91024 0
M  V30 1374 C 125.791 -6.01904 -2.88562 0
M  V30 1375 H 125.061 -0.404691 -0.620731 0
M  V30 1376 H 127.708 -1.55964 -1.11119 0
M  V30 1377 H 126.013 -1.27979 -3.70309 0
M  V30 1378 H 127.71 -1.6671 -3.64704 0
M  V30 1379 H 124.3 -2.98287 -3.07771 0
M  V30 1380 H 128.484 -3.95982 -2.99185 0
M  V30 1381 H 123.74 -5.37126 -2.92071 0
M  V30 1382 H 127.914 -6.35578 -2.84629 0
M  V30 1383 H 125.541 -7.06521 -2.80593 0
M  V30 1384 N 127.117 1.15442 -1.07289 0
M  V30 1385 C 128.342 1.90638 -0.816828 0
M  V30 1386 C 128.767 1.77445 0.624083 0
M  V30 1387 O 128.125 1.10671 1.43602 0
M  V30 1388 C 128.173 3.39008 -1.22906 0
M  V30 1389 O 127.277 4.10701 -0.373975 0
M  V30 1390 H 126.618 0.593555 -0.297638 0
M  V30 1391 H 129.148 1.46198 -1.43134 0
M  V30 1392 H 129.158 3.89801 -1.20497 0
M  V30 1393 H 127.833 3.47929 -2.27856 0
M  V30 1394 H 126.41 3.70046 -0.460499 0
M  V30 1395 N 128.595 0.856903 1.32268 0
M  V30 1396 C 129.872 0.382583 1.91822 0
M  V30 1397 C 130.252 -1.13407 1.78051 0
M  V30 1398 O 129.6 -1.95673 1.18001 0
M  V30 1399 C 129.81 0.849446 3.38505 0
M  V30 1400 C 131.158 0.867936 4.15634 0
M  V30 1401 O 132.182 0.794232 3.47232 0
M  V30 1402 O 131.041 0.972286 5.37781 0
M  V30 1403 H 128.135 0.112014 0.819379 0
M  V30 1404 H 130.681 0.943952 1.41024 0
M  V30 1405 H 129.453 1.89267 3.42482 0
M  V30 1406 H 129.076 0.265652 3.96712 0
M  V30 1407 N 130.073 -1.45103 0.615059 0
M  V30 1408 C 131.298 -2.07064 0.117988 0
M  V30 1409 C 131.723 -1.4554 -1.19163 0
M  V30 1410 O 131.081 -0.550855 -1.72729 0
M  V30 1411 C 131.129 -3.606 -0.000288387 0
M  V30 1412 O 130.233 -3.98847 -1.04856 0
M  V30 1413 H 129.574 -0.659467 0.0774581 0
M  V30 1414 H 132.104 -1.86236 0.847186 0
M  V30 1415 H 132.114 -4.07529 -0.196091 0
M  V30 1416 H 130.789 -4.04765 0.955932 0
M  V30 1417 H 129.366 -3.63577 -0.828619 0
M  V30 1418 N 131.551 -0.354651 -1.53558 0
M  V30 1419 C 132.481 0.489091 -2.2832 0
M  V30 1420 C 133.462 1.09324 -1.30316 0
M  V30 1421 O 134.647 1.11255 -1.59173 0
M  V30 1422 C 131.777 1.63456 -3.0643 0
M  V30 1423 C 130.731 1.1582 -4.12031 0
M  V30 1424 C 130.057 2.39305 -4.7816 0
M  V30 1425 C 131.357 0.250731 -5.21698 0
M  V30 1426 H 133.051 -0.134614 -2.99097 0
M  V30 1427 H 130.597 -0.0661826 -1.43848 0
M  V30 1428 H 132.55 2.23136 -3.57475 0
M  V30 1429 H 131.274 2.28533 -2.33325 0
M  V30 1430 H 129.933 0.584146 -3.61916 0
M  V30 1431 H 129.581 3.02814 -4.01637 0
M  V30 1432 H 129.281 2.08109 -5.49513 0
M  V30 1433 H 130.805 2.99691 -5.31994 0
M  V30 1434 H 132.219 0.754695 -5.68311 0
M  V30 1435 H 130.616 0.0301468 -6.00092 0
M  V30 1436 H 131.686 -0.710125 -4.79672 0
M  V30 1437 N 133.029 1.57378 -0.0835403 0
M  V30 1438 C 134.277 1.93547 0.581718 0
M  V30 1439 C 134.598 0.96524 1.69435 0
M  V30 1440 O 133.868 0.0153369 1.95894 0
M  V30 1441 H 132.448 0.714521 0.217874 0
M  V30 1442 H 135.11 1.94366 -0.144158 0
M  V30 1443 H 134.206 2.95665 0.999423 0
M  V30 1444 N 134.507 -0.190092 1.56449 0
M  V30 1445 C 135.753 -0.911052 1.81184 0
M  V30 1446 C 136.086 -1.82699 0.658396 0
M  V30 1447 O 135.361 -1.91491 -0.340775 0
M  V30 1448 C 135.644 -1.72297 3.16205 0
M  V30 1449 C 135.497 -0.831419 4.42049 0
M  V30 1450 C 136.816 -2.69454 3.47969 0
M  V30 1451 H 133.935 -0.32977 0.659106 0
M  V30 1452 H 136.577 -0.178169 1.89163 0
M  V30 1453 H 134.727 -2.34778 3.09534 0
M  V30 1454 H 136.399 -0.220929 4.60771 0
M  V30 1455 H 134.642 -0.138406 4.33579 0
M  V30 1456 H 135.313 -1.43461 5.33032 0
M  V30 1457 H 137.789 -2.17104 3.54972 0
M  V30 1458 H 136.665 -3.23342 4.43555 0
M  V30 1459 H 136.926 -3.48744 2.71717 0
M  V30 1460 N 135.985 -1.50799 -0.457987 0
M  V30 1461 C 137.225 -1.64088 -1.21879 0
M  V30 1462 C 137.589 -0.339848 -1.88968 0
M  V30 1463 O 138.79 -0.348301 -2.66534 0
M  V30 1464 C 137.061 -2.79726 -2.2246 0
M  V30 1465 S 138.62 -3.13225 -3.07303 0
M  V30 1466 H 135.438 -0.578314 -0.41361 0
M  V30 1467 H 138.04 -1.88632 -0.513645 0
M  V30 1468 H 136.744 -3.72722 -1.71775 0
M  V30 1469 H 136.275 -2.57308 -2.97584 0
M  V30 1470 H 138.29 -2.58062 -4.23814 0
M  V30 1471 N 137.463 0.71206 -1.40597 0
M  V30 1472 C 138.373 1.8562 -1.43466 0
M  V30 1473 C 139.389 1.70902 -0.326902 0
M  V30 1474 O 140.565 1.93105 -0.572043 0
M  V30 1475 C 137.63 3.21451 -1.29884 0
M  V30 1476 C 136.691 3.48398 -2.50833 0
M  V30 1477 C 135.924 4.77749 -2.3789 0
M  V30 1478 O 136.147 5.53089 -1.39459 0
M  V30 1479 O 135.081 5.05111 -3.27333 0
M  V30 1480 H 138.907 1.86155 -2.39958 0
M  V30 1481 H 136.492 0.86295 -1.21957 0
M  V30 1482 H 138.374 4.02579 -1.24531 0
M  V30 1483 H 137.049 3.21636 -0.364997 0
M  V30 1484 H 135.956 2.67265 -2.61763 0
M  V30 1485 H 137.289 3.53014 -3.4299 0
M  V30 1486 N 138.941 1.26152 0.944643 0
M  V30 1487 C 140.357 1.03189 1.21754 0
M  V30 1488 C 140.557 -0.245112 2.00004 0
M  V30 1489 O 139.613 -0.955176 2.33736 0
M  V30 1490 C 140.926 2.26119 1.98219 0
M  V30 1491 C 142.474 2.30984 2.11224 0
M  V30 1492 C 142.949 3.53597 2.91089 0
M  V30 1493 N 144.44 3.54053 2.98664 0
M  V30 1494 C 145.175 4.45593 3.60881 0
M  V30 1495 N 144.671 5.47416 4.24626 0
M  V30 1496 N 146.464 4.33252 3.58119 0
M  V30 1497 H 138.615 2.08177 0.421437 0
M  V30 1498 H 140.878 0.914723 0.248969 0
M  V30 1499 H 140.584 3.18984 1.48128 0
M  V30 1500 H 140.458 2.3009 2.98895 0
M  V30 1501 H 142.845 1.38635 2.60508 0
M  V30 1502 H 142.926 2.31026 1.09821 0
M  V30 1503 H 142.57 4.46273 2.42493 0
M  V30 1504 H 142.5 3.50802 3.92741 0
M  V30 1505 H 144.991 2.80403 2.53343 0
M  V30 1506 H 145.304 6.13459 4.69987 0
M  V30 1507 H 143.649 5.51278 4.23223 0
M  V30 1508 H 146.84 3.52924 3.0751 0
M  V30 1509 H 147.013 5.04786 4.06319 0
M  V30 1510 N 140.419 -1.14872 1.07899 0
M  V30 1511 C 141.649 -1.89386 0.825631 0
M  V30 1512 C 142.057 -1.78565 -0.625406 0
M  V30 1513 O 141.4 -1.13918 -1.44113 0
M  V30 1514 C 141.462 -3.40206 1.16191 0
M  V30 1515 C 141.126 -3.74812 2.61467 0
M  V30 1516 C 142.123 -3.75367 3.59716 0
M  V30 1517 C 139.808 -4.0495 2.97189 0
M  V30 1518 C 141.802 -4.05574 4.9172 0
M  V30 1519 C 139.489 -4.34821 4.29388 0
M  V30 1520 C 140.487 -4.35116 5.26463 0
M  V30 1521 O 140.175 -4.64267 6.56286 0
M  V30 1522 H 139.907 -0.606894 0.297751 0
M  V30 1523 H 142.461 -1.46438 1.44031 0
M  V30 1524 H 140.691 -3.8358 0.490214 0
M  V30 1525 H 142.38 -3.96018 0.890193 0
M  V30 1526 H 143.146 -3.52176 3.33462 0
M  V30 1527 H 139.025 -4.03876 2.22273 0
M  V30 1528 H 142.569 -4.05719 5.67484 0
M  V30 1529 H 138.466 -4.5748 4.55392 0
M  V30 1530 H 139.234 -4.82007 6.61522 0
M  V30 1531 N 141.898 -0.863906 -1.31812 0
M  V30 1532 C 142.828 -0.330843 -2.31144 0
M  V30 1533 C 143.809 0.575005 -1.60087 0
M  V30 1534 O 144.994 0.493304 -1.8783 0
M  V30 1535 C 142.124 0.47374 -3.44054 0
M  V30 1536 C 141.078 -0.338481 -4.26659 0
M  V30 1537 C 140.404 0.591412 -5.31419 0
M  V30 1538 C 141.704 -1.56926 -4.98168 0
M  V30 1539 H 143.398 -1.16086 -2.75979 0
M  V30 1540 H 140.944 -0.559657 -1.32679 0
M  V30 1541 H 142.897 0.857143 -4.12591 0
M  V30 1542 H 141.621 1.33721 -2.9797 0
M  V30 1543 H 140.28 -0.703754 -3.59782 0
M  V30 1544 H 139.928 1.45199 -4.81587 0
M  V30 1545 H 139.628 0.0519022 -5.87577 0
M  V30 1546 H 141.152 0.97179 -6.02817 0
M  V30 1547 H 142.566 -1.25764 -5.59336 0
M  V30 1548 H 140.963 -2.04739 -5.64094 0
M  V30 1549 H 142.033 -2.32544 -4.25501 0
M  V30 1550 N 143.376 1.44774 -0.622745 0
M  V30 1551 C 144.604 2.06487 -0.130722 0
M  V30 1552 C 145.019 1.46476 1.19123 0
M  V30 1553 O 144.376 0.584502 1.72887 0
M  V30 1554 C 144.427 3.615 -0.000807207 0
M  V30 1555 O 144.148 4.19274 -1.27048 0
M  V30 1556 C 145.649 4.40229 0.520898 0
M  V30 1557 H 142.869 0.666704 -0.0758106 0
M  V30 1558 H 145.413 1.85779 -0.854774 0
M  V30 1559 H 143.568 3.81498 0.673643 0
M  V30 1560 H 143.982 5.12622 -1.1099 0
M  V30 1561 H 145.456 5.49144 0.560838 0
M  V30 1562 H 145.933 4.1108 1.54627 0
M  V30 1563 H 146.539 4.25131 -0.120018 0
M  V30 1564 N 144.854 0.36279 1.53368 0
M  V30 1565 C 145.802 -0.500155 2.27159 0
M  V30 1566 C 146.796 -1.08575 1.3003 0
M  V30 1567 O 148.002 -1.02927 1.47668 0
M  V30 1568 H 144.377 -0.180009 0.730138 0
M  V30 1569 H 146.348 0.14401 2.98052 0
M  V30 1570 C 145.097 -1.62937 3.07159 0
M  V30 1571 H 144.42 -1.18806 3.8174 0
M  V30 1572 H 145.86 -2.20795 3.61975 0
M  V30 1573 C 144.319 -2.57007 2.17829 0
M  V30 1574 O 144.849 -3.59752 1.78721 0
M  V30 1575 N 143.055 -2.26131 1.82518 0
M  V30 1576 H 142.602 -1.42616 2.14519 0
M  V30 1577 H 142.56 -2.89327 1.23034 0
M  V30 1578 N 146.332 -1.57332 0.0918853 0
M  V30 1579 C 147.262 -2.16872 -0.865371 0
M  V30 1580 C 148.243 -1.10118 -1.29646 0
M  V30 1581 O 149.428 -1.38242 -1.36392 0
M  V30 1582 C 146.558 -2.74649 -2.12569 0
M  V30 1583 C 145.512 -3.86747 -1.83333 0
M  V30 1584 C 144.838 -4.31212 -3.16166 0
M  V30 1585 C 146.138 -5.10089 -1.1228 0
M  V30 1586 H 147.832 -2.97114 -0.369307 0
M  V30 1587 H 145.378 -1.42918 -0.176194 0
M  V30 1588 H 147.331 -3.14952 -2.7997 0
M  V30 1589 H 146.055 -1.91657 -2.64452 0
M  V30 1590 H 144.714 -3.46978 -1.18331 0
M  V30 1591 H 144.362 -3.45115 -3.6593 0
M  V30 1592 H 144.062 -5.06788 -2.97388 0
M  V30 1593 H 145.586 -4.74146 -3.84731 0
M  V30 1594 H 147 -5.47582 -1.69785 0
M  V30 1595 H 145.397 -5.91073 -1.03693 0
M  V30 1596 H 146.467 -4.84786 -0.105041 0
M  V30 1597 N 147.81 0.181792 -1.56548 0
M  V30 1598 C 149.057 0.900097 -1.81396 0
M  V30 1599 C 149.385 1.82695 -0.667281 0
M  V30 1600 O 148.64 1.92614 0.346146 0
M  V30 1601 C 148.939 1.73728 -3.12335 0
M  V30 1602 C 148.605 0.960255 -4.40556 0
M  V30 1603 C 147.267 0.745766 -4.75386 0
M  V30 1604 C 149.619 0.414477 -5.19549 0
M  V30 1605 C 146.947 -0.0257694 -5.86694 0
M  V30 1606 C 149.299 -0.343916 -6.31664 0
M  V30 1607 C 147.963 -0.569301 -6.65068 0
M  V30 1608 H 147.233 0.329369 -0.663775 0
M  V30 1609 H 149.88 0.165647 -1.90782 0
M  V30 1610 H 148.185 2.54081 -2.98245 0
M  V30 1611 H 149.882 2.29591 -3.28769 0
M  V30 1612 H 146.472 1.13746 -4.13231 0
M  V30 1613 H 150.656 0.567554 -4.93044 0
M  V30 1614 H 145.912 -0.210233 -6.11038 0
M  V30 1615 H 150.086 -0.774133 -6.92084 0
M  V30 1616 H 147.713 -1.16903 -7.51158 0
M  V30 1617 N 149.288 1.51039 0.449983 0
M  V30 1618 C 150.536 1.62759 1.19808 0
M  V30 1619 C 150.857 0.339981 1.92013 0
M  V30 1620 O 150.127 -0.643606 1.85026 0
M  V30 1621 H 148.707 0.599811 0.445237 0
M  V30 1622 H 151.369 1.87914 0.517138 0
M  V30 1623 H 150.465 2.44911 1.93455 0
M  V30 1624 N 150.766 -0.704594 1.40972 0
M  V30 1625 C 151.996 -1.49138 1.42974 0
M  V30 1626 C 152.404 -1.89175 0.0308406 0
M  V30 1627 O 151.747 -1.56734 -0.958138 0
M  V30 1628 C 151.809 -2.79016 2.26694 0
M  V30 1629 C 151.473 -2.61236 3.74973 0
M  V30 1630 C 152.47 -2.27773 4.67349 0
M  V30 1631 C 150.155 -2.77158 4.18914 0
M  V30 1632 C 152.149 -2.10457 6.01653 0
M  V30 1633 C 149.836 -2.59459 5.53285 0
M  V30 1634 C 150.834 -2.26158 6.4447 0
M  V30 1635 O 150.522 -2.08605 7.76363 0
M  V30 1636 H 150.254 -0.466443 0.489292 0
M  V30 1637 H 152.808 -0.8758 1.85793 0
M  V30 1638 H 151.038 -3.42947 1.78673 0
M  V30 1639 H 152.727 -3.40782 2.20504 0
M  V30 1640 H 153.493 -2.15095 4.34694 0
M  V30 1641 H 149.372 -3.02064 3.48251 0
M  V30 1642 H 152.916 -1.84387 6.72791 0
M  V30 1643 H 148.813 -2.71725 5.85522 0
M  V30 1644 H 149.581 -2.23439 7.87412 0
M  V30 1645 N 152.244 -1.26651 -0.937939 0
M  V30 1646 C 153.521 -1.0313 -1.66204 0
M  V30 1647 C 153.901 0.437256 -2.06522 0
M  V30 1648 O 153.249 1.41831 -1.79154 0
M  V30 1649 C 153.459 -1.98314 -2.87181 0
M  V30 1650 C 154.807 -2.27107 -3.58758 0
M  V30 1651 O 155.831 -1.96205 -2.97291 0
M  V30 1652 O 154.69 -2.79736 -4.69479 0
M  V30 1653 H 151.784 -0.392384 -0.727986 0
M  V30 1654 H 154.33 -1.37874 -0.989382 0
M  V30 1655 H 153.102 -2.97399 -2.54302 0
M  V30 1656 H 152.725 -1.64068 -3.6217 0
M  V30 1657 N 153.722 1.14298 -1.08507 0
M  V30 1658 C 154.669 2.19414 -0.715965 0
M  V30 1659 C 155.639 1.63399 0.298326 0
M  V30 1660 O 156.824 1.89929 0.182101 0
M  V30 1661 C 153.964 3.44845 -0.132534 0
M  V30 1662 C 153.077 4.15007 -1.19973 0
M  V30 1663 C 152.212 5.28024 -0.580048 0
M  V30 1664 C 151.251 5.9002 -1.62921 0
M  V30 1665 N 150.388 6.94485 -1.03125 0
M  V30 1666 H 155.228 2.50336 -1.61666 0
M  V30 1667 H 152.765 1.2293 -0.807882 0
M  V30 1668 H 154.723 4.16601 0.223454 0
M  V30 1669 H 153.353 3.14403 0.731467 0
M  V30 1670 H 152.405 3.41629 -1.67313 0
M  V30 1671 H 153.717 4.57178 -1.99473 0
M  V30 1672 H 152.871 6.06455 -0.172364 0
M  V30 1673 H 151.61 4.87076 0.246603 0
M  V30 1674 H 150.615 5.10291 -2.04654 0
M  V30 1675 H 151.84 6.33042 -2.45835 0
M  V30 1676 H 149.786 6.55612 -0.225711 0
M  V30 1677 H 149.703 7.35148 -1.76334 0
M  V30 1678 H 150.971 7.7679 -0.649458 0
M  V30 1679 N 155.201 0.870884 1.31352 0
M  V30 1680 C 156.447 0.482987 1.96965 0
M  V30 1681 C 156.78 -0.962462 1.68672 0
M  V30 1682 O 156.055 -1.6779 0.98371 0
M  V30 1683 C 156.338 0.741752 3.52378 0
M  V30 1684 C 156.191 2.2368 3.9024 0
M  V30 1685 C 157.51 0.208838 4.39604 0
M  V30 1686 H 154.629 0.176955 0.715441 0
M  V30 1687 H 157.271 1.09229 1.55464 0
M  V30 1688 H 155.421 0.223149 3.87859 0
M  V30 1689 H 157.093 2.82273 3.64856 0
M  V30 1690 H 155.336 2.70901 3.38814 0
M  V30 1691 H 156.007 2.3685 4.98604 0
M  V30 1692 H 158.483 0.652529 4.10952 0
M  V30 1693 H 157.359 0.419336 5.47296 0
M  V30 1694 H 157.62 -0.889275 4.33064 0
M  V30 1695 N 156.679 -1.44442 0.630414 0
M  V30 1696 C 157.609 -2.33418 -0.0618083 0
M  V30 1697 C 158.59 -1.48165 -0.835541 0
M  V30 1698 O 159.775 -1.76886 -0.801564 0
M  V30 1699 C 156.905 -3.31222 -1.04449 0
M  V30 1700 C 155.859 -4.26288 -0.382436 0
M  V30 1701 C 155.185 -5.13954 -1.47497 0
M  V30 1702 C 156.485 -5.1744 0.710865 0
M  V30 1703 H 158.179 -2.91548 0.681184 0
M  V30 1704 H 155.725 -1.40191 0.329026 0
M  V30 1705 H 157.678 -3.92351 -1.53748 0
M  V30 1706 H 156.402 -2.71299 -1.81836 0
M  V30 1707 H 155.061 -3.6649 0.0899054 0
M  V30 1708 H 154.709 -4.50385 -2.2397 0
M  V30 1709 H 154.409 -5.7837 -1.03737 0
M  V30 1710 H 155.933 -5.77955 -1.96979 0
M  V30 1711 H 157.347 -5.72509 0.300996 0
M  V30 1712 H 155.744 -5.90455 1.07156 0
M  V30 1713 H 156.814 -4.58496 1.57829 0
M  V30 1714 N 158.157 -0.370918 -1.53173 0
M  V30 1715 C 159.09 0.516727 -2.22273 0
M  V30 1716 C 160.068 1.07877 -1.21661 0
M  V30 1717 O 161.252 1.13389 -1.50583 0
M  V30 1718 C 158.379 1.71346 -2.92161 0
M  V30 1719 C 157.425 1.27838 -4.0689 0
M  V30 1720 S 158.258 0.275217 -5.34792 0
M  V30 1721 C 159.414 1.47816 -6.08195 0
M  V30 1722 H 159.647 -0.0701054 -2.97217 0
M  V30 1723 H 157.18 -0.155038 -1.5362 0
M  V30 1724 H 159.138 2.39988 -3.3304 0
M  V30 1725 H 157.799 2.27156 -2.16931 0
M  V30 1726 H 156.992 2.17141 -4.54825 0
M  V30 1727 H 156.594 0.671105 -3.6793 0
M  V30 1728 H 158.886 2.40831 -6.33251 0
M  V30 1729 H 159.829 1.04008 -7.0042 0
M  V30 1730 H 160.237 1.68663 -5.38714 0
M  V30 1731 N 159.635 1.57281 -0.100228 0
M  V30 1732 C 160.568 2.09976 0.893612 0
M  V30 1733 C 161.546 1.01155 1.27304 0
M  V30 1734 O 162.73 1.28687 1.37739 0
M  V30 1735 C 159.857 2.58098 2.19324 0
M  V30 1736 C 158.903 3.78626 1.96328 0
M  V30 1737 S 159.736 5.21959 1.19662 0
M  V30 1738 C 160.892 5.73435 2.50844 0
M  V30 1739 H 161.125 2.93946 0.44534 0
M  V30 1740 H 158.658 1.53985 0.113167 0
M  V30 1741 H 160.616 2.8648 2.94005 0
M  V30 1742 H 159.277 1.74344 2.61272 0
M  V30 1743 H 158.47 4.10382 2.92579 0
M  V30 1744 H 158.072 3.50763 1.29775 0
M  V30 1745 H 160.364 5.82015 3.46792 0
M  V30 1746 H 161.307 6.7185 2.23659 0
M  V30 1747 H 161.715 5.01395 2.59352 0
M  V30 1748 N 161.113 -0.173488 1.56642 0
M  V30 1749 C 162.061 -1.23417 1.97157 0
M  V30 1750 C 163.055 -1.45946 0.860013 0
M  V30 1751 O 164.261 -1.46551 1.04512 0
M  V30 1752 H 160.636 -0.414818 0.62724 0
M  V30 1753 H 162.607 -0.865582 2.8557 0
M  V30 1754 C 161.356 -2.5665 2.34576 0
M  V30 1755 H 160.679 -2.40137 3.19647 0
M  V30 1756 H 162.119 -3.2956 2.6677 0
M  V30 1757 C 160.578 -3.15245 1.18836 0
M  V30 1758 O 161.108 -3.98883 0.474869 0
M  V30 1759 N 159.314 -2.74303 0.959497 0
M  V30 1760 H 158.861 -2.0639 1.54146 0
M  V30 1761 H 158.819 -3.13844 0.186932 0
M  V30 1762 N 162.591 -1.51276 -0.441967 0
M  V30 1763 C 163.819 -1.67516 -1.21434 0
M  V30 1764 C 164.234 -0.37055 -1.85128 0
M  V30 1765 O 163.591 0.650498 -1.70513 0
M  V30 1766 C 163.642 -2.78748 -2.30177 0
M  V30 1767 O 163.363 -4.04154 -1.69089 0
M  V30 1768 C 164.864 -3.06217 -3.20541 0
M  V30 1769 H 162.084 -0.562276 -0.366178 0
M  V30 1770 H 164.628 -1.97666 -0.524244 0
M  V30 1771 H 162.783 -2.5121 -2.94911 0
M  V30 1772 H 163.197 -4.65894 -2.40922 0
M  V30 1773 H 164.671 -3.8764 -3.92987 0
M  V30 1774 H 165.148 -2.18439 -3.81026 0
M  V30 1775 H 165.754 -3.35397 -2.61513 0
M  V30 1776 N 164.069 0.697108 -1.41344 0
M  V30 1777 C 165.317 1.45426 -1.40341 0
M  V30 1778 C 165.638 1.94996 -0.0128787 0
M  V30 1779 O 164.908 1.71599 0.945027 0
M  V30 1780 H 163.488 0.539594 -0.516573 0
M  V30 1781 H 166.15 0.825201 -1.76569 0
M  V30 1782 H 165.246 2.31817 -2.08967 0
M  V30 1783 N 165.547 1.27147 0.931209 0
M  V30 1784 C 166.51 1.09615 2.01289 0
M  V30 1785 C 167.51 0.0412581 1.60747 0
M  V30 1786 O 168.7 0.285545 1.71844 0
M  V30 1787 C 165.832 0.669447 3.34262 0
M  V30 1788 H 167.025 2.05662 2.18273 0
M  V30 1789 H 164.578 1.09885 1.11153 0
M  V30 1790 H 165.313 -0.292572 3.22978 0
M  V30 1791 H 165.098 1.43127 3.65044 0
M  V30 1792 H 166.588 0.568921 4.13706 0
M  V30 1793 N 167.025 -1.13721 1.09112 0
M  V30 1794 C 167.935 -2.22638 0.73957 0
M  V30 1795 C 168.951 -1.72091 -0.257068 0
M  V30 1796 O 170.127 -2.01155 -0.0992154 0
M  V30 1797 C 167.192 -3.46322 0.16191 0
M  V30 1798 C 166.253 -4.11775 1.21408 0
M  V30 1799 C 165.486 -5.29555 0.663891 0
M  V30 1800 O 165.709 -5.68077 -0.514274 0
M  V30 1801 O 164.643 -5.84973 1.41738 0
M  V30 1802 H 168.469 -2.55074 1.64836 0
M  V30 1803 H 166.054 -1.21791 0.865289 0
M  V30 1804 H 167.936 -4.21107 -0.157073 0
M  V30 1805 H 166.611 -3.15593 -0.719932 0
M  V30 1806 H 165.518 -3.3883 1.58571 0
M  V30 1807 H 166.851 -4.46627 2.06845 0
M  V30 1808 N 168.503 -0.877838 -1.30888 0
M  V30 1809 C 169.466 -0.344265 -2.266 0
M  V30 1810 C 170.466 0.50922 -1.52524 0
M  V30 1811 O 171.656 0.317398 -1.71284 0
M  V30 1812 C 168.788 0.510198 -3.37061 0
M  V30 1813 H 169.981 -1.1893 -2.7531 0
M  V30 1814 H 167.534 -0.654088 -1.41956 0
M  V30 1815 H 168.269 1.37612 -2.93655 0
M  V30 1816 H 168.054 -0.101047 -3.9197 0
M  V30 1817 H 169.544 0.875537 -4.08319 0
M  V30 1818 N 169.982 1.44106 -0.638065 0
M  V30 1819 C 171.207 2.0685 -0.150916 0
M  V30 1820 C 171.632 1.47417 1.16833 0
M  V30 1821 O 170.99 0.578264 1.71831 0
M  V30 1822 C 171.038 3.60555 -0.05708 0
M  V30 1823 O 170.142 4.00465 0.984972 0
M  V30 1824 H 169.483 0.658151 -0.0879399 0
M  V30 1825 H 172.013 1.84865 -0.876707 0
M  V30 1826 H 172.023 4.07789 0.131232 0
M  V30 1827 H 170.698 4.03193 -1.02021 0
M  V30 1828 H 169.275 3.64849 0.770672 0
M  V30 1829 N 171.46 0.379036 1.52974 0
M  V30 1830 C 172.37 -0.468639 2.29872 0
M  V30 1831 C 173.386 -1.08067 1.36373 0
M  V30 1832 O 174.562 -1.08871 1.69438 0
M  V30 1833 C 171.627 -1.58594 3.083 0
M  V30 1834 C 170.688 -1.00007 4.17489 0
M  V30 1835 C 169.921 -2.06413 4.92168 0
M  V30 1836 O 170.144 -3.27751 4.66835 0
M  V30 1837 O 169.078 -1.68717 5.7777 0
M  V30 1838 H 172.904 0.157508 3.03291 0
M  V30 1839 H 170.489 0.143035 1.48714 0
M  V30 1840 H 172.371 -2.23525 3.57232 0
M  V30 1841 H 171.046 -2.19724 2.37703 0
M  V30 1842 H 169.953 -0.314299 3.72777 0
M  V30 1843 H 171.286 -0.433135 4.90291 0
M  V30 1844 N 172.938 -1.57226 0.108567 0
M  V30 1845 C 174.166 -1.99179 -0.559954 0
M  V30 1846 C 174.581 -0.988022 -1.60884 0
M  V30 1847 O 173.938 0.0205512 -1.82488 0
M  V30 1848 C 173.989 -3.41159 -1.19552 0
M  V30 1849 O 173.71 -4.37694 -0.188577 0
M  V30 1850 C 175.211 -3.98188 -1.94837 0
M  V30 1851 H 172.431 -0.654228 -0.149088 0
M  V30 1852 H 174.975 -2.03598 0.19183 0
M  V30 1853 H 173.13 -3.37711 -1.89815 0
M  V30 1854 H 173.544 -5.20469 -0.649014 0
M  V30 1855 H 175.018 -4.99644 -2.34648 0
M  V30 1856 H 175.495 -3.3675 -2.81951 0
M  V30 1857 H 176.101 -4.0515 -1.2936 0
M  V30 1858 N 174.416 0.165178 -1.56732 0
M  V30 1859 C 175.379 1.18822 -1.95995 0
M  V30 1860 C 176.379 1.3685 -0.84431 0
M  V30 1861 O 177.569 1.34152 -1.11126 0
M  V30 1862 C 174.701 2.5521 -2.26011 0
M  V30 1863 H 175.894 0.851825 -2.87548 0
M  V30 1864 H 173.447 0.407857 -1.50885 0
M  V30 1865 H 174.182 2.93852 -1.37191 0
M  V30 1866 H 173.967 2.43489 -3.07336 0
M  V30 1867 H 175.457 3.28927 -2.57288 0
M  V30 1868 N 175.894 1.51508 0.433938 0
M  V30 1869 C 177.124 1.67914 1.20369 0
M  V30 1870 C 177.532 0.377461 1.85397 0
M  V30 1871 O 176.875 -0.654255 1.71654 0
M  V30 1872 C 176.937 2.74045 2.32679 0
M  V30 1873 C 176.601 4.16543 1.87991 0
M  V30 1874 C 177.598 5.01211 1.38145 0
M  V30 1875 C 175.283 4.6266 1.95579 0
M  V30 1876 C 177.277 6.30056 0.964774 0
M  V30 1877 C 174.964 5.91501 1.53523 0
M  V30 1878 C 175.962 6.75027 1.04055 0
M  V30 1879 O 175.65 8.01459 0.625964 0
M  V30 1880 H 175.382 0.566578 0.368735 0
M  V30 1881 H 177.936 1.98709 0.51999 0
M  V30 1882 H 176.166 2.38572 3.04336 0
M  V30 1883 H 177.855 2.79295 2.94532 0
M  V30 1884 H 178.621 4.66783 1.31675 0
M  V30 1885 H 174.5 3.97767 2.33029 0
M  V30 1886 H 178.044 6.95202 0.57796 0
M  V30 1887 H 173.941 6.25442 1.59665 0
M  V30 1888 H 174.709 8.15043 0.751509 0
M  V30 1889 N 177.372 -0.689602 1.41712 0
M  V30 1890 C 178.319 -1.80345 1.44029 0
M  V30 1891 C 179.289 -1.63478 0.293948 0
M  V30 1892 O 180.474 -1.84244 0.495869 0
M  V30 1893 C 177.614 -3.18272 1.33405 0
M  V30 1894 C 176.727 -3.46529 2.57956 0
M  V30 1895 C 175.862 -4.74103 2.39582 0
M  V30 1896 C 174.901 -4.95347 3.5958 0
M  V30 1897 N 174.038 -6.14151 3.40239 0
M  V30 1898 H 178.878 -1.77698 2.39222 0
M  V30 1899 H 176.415 -0.867688 1.18784 0
M  V30 1900 H 178.373 -3.97956 1.25246 0
M  V30 1901 H 177.003 -3.2008 0.418164 0
M  V30 1902 H 176.055 -2.61207 2.76542 0
M  V30 1903 H 177.367 -3.58126 3.47199 0
M  V30 1904 H 176.521 -5.61853 2.28924 0
M  V30 1905 H 175.26 -4.64763 1.47805 0
M  V30 1906 H 174.265 -4.06044 3.70686 0
M  V30 1907 H 175.49 -5.06542 4.52318 0
M  V30 1908 H 173.436 -6.06013 2.51167 0
M  V30 1909 H 173.353 -6.26543 4.23061 0
M  V30 1910 H 174.621 -7.04619 3.33365 0
M  V30 1911 N 178.85 -1.27639 -0.924453 0
M  V30 1912 C 179.78 -1.13166 -2.04244 0
M  V30 1913 C 180.761 -0.032256 -1.70069 0
M  V30 1914 O 181.946 -0.207328 -1.9309 0
M  V30 1915 C 179.076 -0.781496 -3.38393 0
M  V30 1916 C 178.03 -1.83449 -3.86692 0
M  V30 1917 C 177.356 -1.33822 -5.17683 0
M  V30 1918 C 178.656 -3.23917 -4.09726 0
M  V30 1919 H 180.35 -2.06689 -2.1661 0
M  V30 1920 H 177.896 -0.995136 -1.04082 0
M  V30 1921 H 179.849 -0.667057 -4.16087 0
M  V30 1922 H 178.573 0.189439 -3.2605 0
M  V30 1923 H 177.232 -1.93789 -3.11193 0
M  V30 1924 H 176.88 -0.35665 -5.01734 0
M  V30 1925 H 176.58 -2.04224 -5.50968 0
M  V30 1926 H 178.104 -1.23679 -5.97943 0
M  V30 1927 H 179.518 -3.16559 -4.77978 0
M  V30 1928 H 177.915 -3.92059 -4.54324 0
M  V30 1929 H 178.985 -3.68729 -3.14908 0
M  V30 1930 N 180.328 1.1314 -1.09713 0
M  V30 1931 C 181.568 1.8613 -0.844683 0
M  V30 1932 C 181.932 1.81765 0.618491 0
M  V30 1933 O 183.133 2.50024 0.98699 0
M  V30 1934 C 181.404 3.30151 -1.36877 0
M  V30 1935 S 182.963 4.206 -1.25064 0
M  V30 1936 H 179.781 0.642056 -0.305427 0
M  V30 1937 H 182.383 1.36343 -1.4011 0
M  V30 1938 H 181.087 3.30883 -2.42786 0
M  V30 1939 H 180.618 3.85 -0.808614 0
M  V30 1940 H 182.633 4.95783 -0.203486 0
M  V30 1941 N 181.806 0.884767 1.30421 0
M  V30 1942 C 183.222 0.57874 1.48737 0
M  V30 1943 C 183.422 -0.883567 1.81095 0
M  V30 1944 O 182.478 -1.6648 1.89844 0
M  V30 1945 C 183.791 1.49171 2.61091 0
M  V30 1946 C 185.339 1.49532 2.74971 0
M  V30 1947 C 185.814 2.39421 3.90438 0
M  V30 1948 N 187.305 2.37383 3.97748 0
M  V30 1949 C 188.04 3.03647 4.86401 0
M  V30 1950 N 187.536 3.79136 5.79852 0
M  V30 1951 N 189.329 2.9288 4.79768 0
M  V30 1952 H 181.48 1.83075 1.0769 0
M  V30 1953 H 183.743 0.783637 0.533495 0
M  V30 1954 H 183.449 2.53291 2.44001 0
M  V30 1955 H 183.323 1.20113 3.57565 0
M  V30 1956 H 185.71 0.46163 2.91467 0
M  V30 1957 H 185.791 1.8262 1.79119 0
M  V30 1958 H 185.435 3.42874 3.74699 0
M  V30 1959 H 185.365 2.03649 4.85628 0
M  V30 1960 H 187.856 1.82525 3.30897 0
M  V30 1961 H 188.169 4.26789 6.4426 0
M  V30 1962 H 186.514 3.83243 5.79784 0
M  V30 1963 H 189.705 2.33433 4.05742 0
M  V30 1964 H 189.878 3.448 5.4865 0
M  V30 1965 N 183.284 -1.43765 0.645699 0
M  V30 1966 C 184.231 -2.30745 -0.0504648 0
M  V30 1967 C 185.201 -1.4432 -0.822241 0
M  V30 1968 O 186.386 -1.73202 -0.800358 0
M  V30 1969 C 183.526 -3.29802 -1.0161 0
M  V30 1970 C 182.639 -4.31326 -0.241219 0
M  V30 1971 C 181.774 -5.17469 -1.19998 0
M  V30 1972 C 180.813 -6.10691 -0.415094 0
M  V30 1973 N 179.95 -6.89483 -1.32506 0
M  V30 1974 H 184.79 -2.8973 0.697155 0
M  V30 1975 H 182.327 -1.42738 0.355563 0
M  V30 1976 H 184.285 -3.85734 -1.58949 0
M  V30 1977 H 182.915 -2.72483 -1.73069 0
M  V30 1978 H 181.967 -3.77749 0.448334 0
M  V30 1979 H 183.279 -4.9743 0.369437 0
M  V30 1980 H 182.433 -5.7799 -1.84424 0
M  V30 1981 H 181.172 -4.51473 -1.84455 0
M  V30 1982 H 180.177 -5.49265 0.242565 0
M  V30 1983 H 181.402 -6.78727 0.224966 0
M  V30 1984 H 179.348 -6.26142 -1.95657 0
M  V30 1985 H 179.265 -7.52081 -0.768783 0
M  V30 1986 H 180.533 -7.54516 -1.9577 0
M  V30 1987 N 184.763 -0.387143 -1.52771 0
M  V30 1988 C 186.009 0.188506 -2.02525 0
M  V30 1989 C 186.364 1.44649 -1.26864 0
M  V30 1990 O 185.657 1.88189 -0.359945 0
M  V30 1991 C 185.851 0.512209 -3.53711 0
M  V30 1992 C 185.68 -0.712855 -4.44014 0
M  V30 1993 C 184.45 -1.23147 -4.90064 0
M  V30 1994 C 186.648 -1.58453 -4.89282 0
M  V30 1995 N 184.63 -2.41431 -5.64433 0
M  V30 1996 C 186.001 -2.61381 -5.6221 0
M  V30 1997 C 188.056 -1.60488 -4.71326 0
M  V30 1998 C 186.759 -3.66227 -6.19088 0
M  V30 1999 C 188.785 -2.6424 -5.29085 0
M  V30 2000 C 188.147 -3.6589 -6.01917 0
M  V30 2001 H 184.246 0.0311236 -0.78138 0
M  V30 2002 H 186.83 -0.536548 -1.87161 0
M  V30 2003 H 185.001 1.20632 -3.69192 0
M  V30 2004 H 186.733 1.07482 -3.90166 0
M  V30 2005 H 183.488 -0.792795 -4.66917 0
M  V30 2006 H 183.912 -3.01274 -6.0627 0
M  V30 2007 H 188.554 -0.83247 -4.14524 0
M  V30 2008 H 186.272 -4.44337 -6.74974 0
M  V30 2009 H 189.858 -2.66695 -5.17074 0
M  V30 2010 H 188.738 -4.44855 -6.45813 0
M  V30 2011 N 186.241 1.57166 -0.116904 0
M  V30 2012 C 187.489 1.94737 0.540533 0
M  V30 2013 C 187.81 1.00096 1.67349 0
M  V30 2014 O 187.08 0.0568854 1.95817 0
M  V30 2015 H 185.66 0.718981 0.202669 0
M  V30 2016 H 188.322 1.94017 -0.185353 0
M  V30 2017 H 187.418 2.97719 0.936483 0
M  V30 2018 N 187.719 -0.156864 1.56817 0
M  V30 2019 C 188.949 -0.885031 1.86684 0
M  V30 2020 C 189.357 -1.75696 0.701954 0
M  V30 2021 O 188.7 -1.80569 -0.337732 0
M  V30 2022 C 188.762 -1.80092 3.11138 0
M  V30 2023 C 188.426 -1.10714 4.43386 0
M  V30 2024 C 189.423 -0.465714 5.1781 0
M  V30 2025 C 187.108 -1.09959 4.90117 0
M  V30 2026 C 189.102 0.174002 6.37162 0
M  V30 2027 C 186.789 -0.456055 6.09396 0
M  V30 2028 C 187.787 0.179622 6.82764 0
M  V30 2029 O 187.475 0.812975 7.99779 0
M  V30 2030 H 187.207 -0.261813 0.623242 0
M  V30 2031 H 189.761 -0.157383 2.04796 0
M  V30 2032 H 187.991 -2.56926 2.89009 0
M  V30 2033 H 189.68 -2.40018 3.27332 0
M  V30 2034 H 190.446 -0.463427 4.82781 0
M  V30 2035 H 186.325 -1.58378 4.3294 0
M  V30 2036 H 189.869 0.670765 6.94368 0
M  V30 2037 H 185.766 -0.455975 6.43888 0
M  V30 2038 H 186.534 0.71366 8.15383 0
M  V30 2039 N 189.197 -1.51736 -0.425897 0
M  V30 2040 C 190.107 -1.76738 -1.54275 0
M  V30 2041 C 191.123 -0.65211 -1.61318 0
M  V30 2042 O 192.299 -0.935654 -1.78346 0
M  V30 2043 C 189.364 -1.89755 -2.90162 0
M  V30 2044 C 188.425 -3.13633 -2.93143 0
M  V30 2045 C 187.658 -3.2602 -4.22548 0
M  V30 2046 O 187.881 -2.44067 -5.15546 0
M  V30 2047 O 186.815 -4.19071 -4.32046 0
M  V30 2048 H 190.641 -2.71502 -1.36089 0
M  V30 2049 H 188.226 -1.36376 -0.610069 0
M  V30 2050 H 190.108 -2.00236 -3.70788 0
M  V30 2051 H 188.783 -0.981785 -3.08452 0
M  V30 2052 H 187.69 -3.08622 -2.11431 0
M  V30 2053 H 189.023 -4.04936 -2.798 0
M  V30 2054 N 190.675 0.682077 -1.42076 0
M  V30 2055 C 191.921 1.44428 -1.42367 0
M  V30 2056 C 192.254 1.94164 -0.0373056 0
M  V30 2057 O 191.529 1.70429 0.937239 0
M  V30 2058 C 191.812 2.64654 -2.44194 0
M  V30 2059 C 191.665 2.20596 -3.91991 0
M  V30 2060 C 192.984 3.66865 -2.431 0
M  V30 2061 H 190.103 0.523834 -0.518428 0
M  V30 2062 H 192.745 0.77576 -1.73442 0
M  V30 2063 H 190.895 3.2169 -2.17826 0
M  V30 2064 H 192.567 1.68783 -4.29313 0
M  V30 2065 H 190.81 1.52242 -4.06208 0
M  V30 2066 H 191.481 3.06921 -4.58807 0
M  V30 2067 H 193.957 3.19531 -2.66532 0
M  V30 2068 H 192.833 4.48577 -3.16339 0
M  V30 2069 H 193.094 4.17493 -1.45437 0
M  V30 2070 N 192.153 1.28127 0.917671 0
M  V30 2071 C 193.1 1.11717 2.0196 0
M  V30 2072 C 194.07 0.0153929 1.66093 0
M  V30 2073 O 195.255 0.179596 1.89953 0
M  V30 2074 C 192.395 0.780927 3.36148 0
M  V30 2075 C 191.508 1.96135 3.84909 0
M  V30 2076 C 190.643 1.56609 5.0759 0
M  V30 2077 C 189.682 2.71339 5.48673 0
M  V30 2078 N 188.819 2.32332 6.62545 0
M  V30 2079 H 193.659 2.06003 2.15329 0
M  V30 2080 H 191.196 1.02535 1.05475 0
M  V30 2081 H 193.154 0.56675 4.13333 0
M  V30 2082 H 191.784 -0.124998 3.22558 0
M  V30 2083 H 190.836 2.28777 3.03916 0
M  V30 2084 H 192.148 2.82165 4.1132 0
M  V30 2085 H 191.302 1.31374 5.92305 0
M  V30 2086 H 190.041 0.677014 4.82978 0
M  V30 2087 H 189.046 2.97276 4.62501 0
M  V30 2088 H 190.271 3.60882 5.75274 0
M  V30 2089 H 188.217 1.45889 6.39572 0
M  V30 2090 H 188.134 3.11899 6.88662 0
M  V30 2091 H 189.402 2.10371 7.50576 0
M  V30 2092 N 193.631 -1.12557 1.10312 0
M  V30 2093 C 194.578 -2.18247 0.750781 0
M  V30 2094 C 195.548 -1.63853 -0.272293 0
M  V30 2095 O 196.733 -1.90195 -0.151862 0
M  V30 2096 C 193.873 -3.44591 0.187379 0
M  V30 2097 C 192.986 -4.13046 1.2656 0
M  V30 2098 C 192.121 -5.27034 0.663978 0
M  V30 2099 C 191.16 -5.87353 1.72287 0
M  V30 2100 N 190.297 -6.92757 1.1416 0
M  V30 2101 H 195.137 -2.47732 1.65628 0
M  V30 2102 H 192.674 -1.21629 0.827337 0
M  V30 2103 H 194.632 -4.16904 -0.157148 0
M  V30 2104 H 193.262 -3.15527 -0.681355 0
M  V30 2105 H 192.314 -3.38924 1.72727 0
M  V30 2106 H 193.626 -4.53947 2.06721 0
M  V30 2107 H 192.78 -6.06104 0.268824 0
M  V30 2108 H 191.519 -4.87407 -0.169082 0
M  V30 2109 H 190.524 -5.06971 2.12746 0
M  V30 2110 H 191.749 -6.29051 2.55875 0
M  V30 2111 H 189.695 -6.5517 0.329984 0
M  V30 2112 H 189.612 -7.3225 1.88007 0
M  V30 2113 H 190.88 -7.75658 0.772956 0
M  V30 2114 N 195.109 -0.891671 -1.2995 0
M  V30 2115 C 196.358 -0.509521 -1.95158 0
M  V30 2116 C 196.671 0.947388 -1.71125 0
M  V30 2117 O 197.877 1.43669 -2.30372 0
M  V30 2118 C 196.333 -0.860315 -3.49466 0
M  V30 2119 C 195.941 -2.33545 -3.8231 0
M  V30 2120 C 197.685 -0.547687 -4.20952 0
M  V30 2121 C 195.592 -2.62752 -5.29826 0
M  V30 2122 H 194.522 -0.18682 -0.730489 0
M  V30 2123 H 197.173 -1.08756 -1.47798 0
M  V30 2124 H 195.555 -0.211285 -3.95436 0
M  V30 2125 H 196.729 -3.02936 -3.47227 0
M  V30 2126 H 195.044 -2.61629 -3.23944 0
M  V30 2127 H 197.641 -0.742854 -5.29515 0
M  V30 2128 H 197.984 0.51332 -4.13123 0
M  V30 2129 H 198.517 -1.1542 -3.80688 0
M  V30 2130 H 195.256 -3.6762 -5.42712 0
M  V30 2131 H 194.776 -1.97977 -5.66185 0
M  V30 2132 H 196.455 -2.48601 -5.97333 0
M  V30 2133 N 196.587 1.43421 -0.653314 0
M  V30 2134 C 197.998 1.85065 -0.246537 0
M  V30 2135 C 198.349 1.54688 1.2069 0
M  V30 2136 O 197.474 0.995896 1.92122 0
M  V30 2137 C 198.069 3.35922 -0.440666 0
M  V30 2138 C 196.628 3.76297 -0.0882064 0
M  V30 2139 C 195.775 2.67147 -0.743484 0
M  V30 2140 H 198.726 1.33572 -0.856979 0
M  V30 2141 H 198.747 3.79204 0.313798 0
M  V30 2142 H 198.259 3.58 -1.49858 0
M  V30 2143 H 196.36 3.5983 0.96711 0
M  V30 2144 H 196.473 4.76338 -0.513738 0
M  V30 2145 H 194.837 2.54086 -0.176712 0
M  V30 2146 H 195.62 2.92053 -1.80443 0
M  V30 2147 N 198.065 0.39524 1.52563 0
M  V30 2148 C 198.975 -0.444232 2.30356 0
M  V30 2149 C 199.991 -1.06615 1.37511 0
M  V30 2150 O 201.167 -1.07067 1.70583 0
M  V30 2151 C 198.232 -1.55315 3.09964 0
M  V30 2152 C 197.293 -0.955734 4.18526 0
M  V30 2153 C 196.526 -2.01181 4.9433 0
M  V30 2154 O 196.749 -3.22781 4.70285 0
M  V30 2155 O 195.683 -1.62579 5.79527 0
M  V30 2156 H 199.509 0.189667 3.03107 0
M  V30 2157 H 197.094 0.1588 1.48554 0
M  V30 2158 H 198.976 -2.19724 3.59582 0
M  V30 2159 H 197.651 -2.17191 2.4002 0
M  V30 2160 H 196.558 -0.274743 3.7309 0
M  V30 2161 H 197.891 -0.381109 4.90722 0
M  V30 2162 N 199.544 -1.57102 0.125237 0
M  V30 2163 C 200.492 -2.16905 -0.839927 0
M  V30 2164 C 201.486 -1.11998 -1.27094 0
M  V30 2165 O 202.692 -1.3029 -1.24195 0
M  V30 2166 H 199.067 -0.694252 -0.288995 0
M  V30 2167 H 201.038 -2.96774 -0.311115 0
M  V30 2168 C 199.787 -2.78795 -2.07771 0
M  V30 2169 H 199.11 -3.59221 -1.755 0
M  V30 2170 H 200.55 -3.2417 -2.73295 0
M  V30 2171 C 199.009 -1.76193 -2.87155 0
M  V30 2172 O 199.539 -1.21909 -3.82755 0
M  V30 2173 N 197.745 -1.45991 -2.51267 0
M  V30 2174 H 197.292 -1.90325 -1.73592 0
M  V30 2175 H 197.25 -0.775844 -3.04677 0
M  V30 2176 N 201.022 0.148545 -1.56898 0
M  V30 2177 C 202.247 0.880385 -1.87787 0
M  V30 2178 C 202.672 1.74018 -0.714093 0
M  V30 2179 O 202.03 1.78153 0.336343 0
M  V30 2180 C 202.078 1.71422 -3.17249 0
M  V30 2181 O 201.182 2.8183 -3.01074 0
M  V30 2182 H 200.523 0.245301 -0.617028 0
M  V30 2183 H 203.053 0.139826 -2.04122 0
M  V30 2184 H 203.063 2.10954 -3.49231 0
M  V30 2185 H 201.738 1.08284 -4.01556 0
M  V30 2186 H 200.315 2.45715 -2.80497 0
M  V30 2187 N 202.5 1.5196 0.417844 0
M  V30 2188 C 203.463 1.74065 1.49111 0
M  V30 2189 C 204.463 0.610537 1.48758 0
M  V30 2190 O 205.653 0.87832 1.50437 0
M  V30 2191 C 202.785 1.81502 2.88565 0
M  V30 2192 H 203.978 2.69869 1.30807 0
M  V30 2193 H 201.531 1.42244 0.647785 0
M  V30 2194 H 202.266 0.875813 3.1225 0
M  V30 2195 H 202.051 2.63651 2.90225 0
M  V30 2196 H 203.541 2.00376 3.66387 0
M  V30 2197 N 203.978 -0.674533 1.42435 0
M  V30 2198 C 204.925 -1.78807 1.45934 0
M  V30 2199 C 205.895 -1.63157 0.311271 0
M  V30 2200 O 207.08 -1.83707 0.515383 0
M  V30 2201 C 204.22 -3.16839 1.36773 0
M  V30 2202 C 203.333 -3.43774 2.61617 0
M  V30 2203 C 202.468 -4.71536 2.44597 0
M  V30 2204 C 201.507 -4.91505 3.64814 0
M  V30 2205 N 200.644 -6.10508 3.46734 0
M  V30 2206 H 205.484 -1.75151 2.41093 0
M  V30 2207 H 203.021 -0.85504 1.19697 0
M  V30 2208 H 204.979 -3.96606 1.29459 0
M  V30 2209 H 203.609 -3.19619 0.452089 0
M  V30 2210 H 202.661 -2.58259 2.79297 0
M  V30 2211 H 203.973 -3.54423 3.50978 0
M  V30 2212 H 203.127 -5.59393 2.3487 0
M  V30 2213 H 201.866 -4.6317 1.52726 0
M  V30 2214 H 200.871 -4.0209 3.74972 0
M  V30 2215 H 202.096 -5.01716 4.57665 0
M  V30 2216 H 200.042 -6.03315 2.5758 0
M  V30 2217 H 199.959 -6.2202 4.29682 0
M  V30 2218 H 201.227 -7.01044 3.40819 0
M  V30 2219 N 205.456 -1.28612 -0.910864 0
M  V30 2220 C 206.705 -1.15311 -1.65488 0
M  V30 2221 C 207.018 0.296999 -1.93332 0
M  V30 2222 O 208.224 0.551168 -2.65847 0
M  V30 2223 C 206.68 -2.01599 -2.98137 0
M  V30 2224 C 206.288 -3.51367 -2.7793 0
M  V30 2225 C 208.032 -1.96993 -3.76024 0
M  V30 2226 C 205.939 -4.29797 -4.06237 0
M  V30 2227 H 204.869 -0.42796 -0.620779 0
M  V30 2228 H 207.52 -1.53166 -1.01057 0
M  V30 2229 H 205.902 -1.56603 -3.63719 0
M  V30 2230 H 207.076 -4.0434 -2.21011 0
M  V30 2231 H 205.391 -3.57529 -2.13452 0
M  V30 2232 H 207.988 -2.52856 -4.71135 0
M  V30 2233 H 208.331 -0.94733 -4.05378 0
M  V30 2234 H 208.864 -2.39973 -3.17266 0
M  V30 2235 H 205.603 -5.32648 -3.82055 0
M  V30 2236 H 205.123 -3.81596 -4.62757 0
M  V30 2237 H 206.802 -4.39869 -4.74473 0
M  V30 2238 N 206.934 1.1197 -1.10907 0
M  V30 2239 C 208.183 1.82947 -0.849302 0
M  V30 2240 C 208.496 1.85275 0.627112 0
M  V30 2241 O 209.702 2.52296 1.00295 0
M  V30 2242 C 208.158 3.28529 -1.46959 0
M  V30 2243 C 207.766 3.34546 -2.97965 0
M  V30 2244 C 209.51 4.04443 -1.28942 0
M  V30 2245 C 207.417 4.74491 -3.53004 0
M  V30 2246 H 206.347 0.685477 -0.314065 0
M  V30 2247 H 208.998 1.2604 -1.33365 0
M  V30 2248 H 207.38 3.85333 -0.912917 0
M  V30 2249 H 208.554 2.87654 -3.59989 0
M  V30 2250 H 206.869 2.72108 -3.15192 0
M  V30 2251 H 209.466 5.07787 -1.67502 0
M  V30 2252 H 209.809 4.15656 -0.231456 0
M  V30 2253 H 210.342 3.5401 -1.81443 0
M  V30 2254 H 207.081 4.68474 -4.58489 0
M  V30 2255 H 206.601 5.21816 -2.9575 0
M  V30 2256 H 208.28 5.4344 -3.51115 0
M  V30 2257 N 208.412 0.89855 1.29475 0
M  V30 2258 C 209.658 0.524658 1.95896 0
M  V30 2259 C 209.991 -0.926468 1.70676 0
M  V30 2260 O 209.266 -1.65665 1.01908 0
M  V30 2261 C 209.549 0.81633 3.50725 0
M  V30 2262 C 209.402 2.31907 3.85408 0
M  V30 2263 C 210.721 0.302038 4.39062 0
M  V30 2264 H 207.84 0.19209 0.711527 0
M  V30 2265 H 210.482 1.12502 1.53112 0
M  V30 2266 H 208.632 0.305369 3.87298 0
M  V30 2267 H 210.304 2.89949 3.58786 0
M  V30 2268 H 208.547 2.78027 3.32992 0
M  V30 2269 H 209.218 2.47373 4.93468 0
M  V30 2270 H 211.694 0.739551 4.09475 0
M  V30 2271 H 210.57 0.535331 5.46283 0
M  V30 2272 H 210.831 -0.797216 4.34853 0
M  V30 2273 N 209.89 -1.43072 0.660911 0
M  V30 2274 C 211.13 -2.03596 0.181146 0
M  V30 2275 C 211.494 -1.51057 -1.18515 0
M  V30 2276 O 212.695 -2.03275 -1.75877 0
M  V30 2277 C 210.966 -3.56845 0.19911 0
M  V30 2278 S 212.525 -4.38289 -0.211684 0
M  V30 2279 H 209.343 -0.706954 0.0757479 0
M  V30 2280 H 211.945 -1.75027 0.870965 0
M  V30 2281 H 210.649 -3.92583 1.1961 0
M  V30 2282 H 210.18 -3.90067 -0.510996 0
M  V30 2283 H 212.195 -4.74583 -1.44863 0
M  V30 2284 N 211.368 -0.403325 -1.52352 0
M  V30 2285 C 212.316 0.439752 -2.28405 0
M  V30 2286 C 213.31 1.05089 -1.32863 0
M  V30 2287 O 214.516 0.989759 -1.50345 0
M  V30 2288 H 210.891 0.160587 -0.734653 0
M  V30 2289 H 212.862 -0.222983 -2.97566 0
M  V30 2290 C 211.611 1.54736 -3.11371 0
M  V30 2291 H 210.934 1.08643 -3.84755 0
M  V30 2292 H 212.374 2.1112 -3.67701 0
M  V30 2293 C 210.833 2.51141 -2.24566 0
M  V30 2294 O 211.363 3.54887 -1.88196 0
M  V30 2295 N 209.569 2.21213 -1.8845 0
M  V30 2296 H 209.116 1.36878 -2.18225 0
M  V30 2297 H 209.074 2.85963 -1.30662 0
M  V30 2298 N 212.846 1.57033 -0.133567 0
M  V30 2299 C 213.794 2.17348 0.828412 0
M  V30 2300 C 214.788 1.12671 1.26498 0
M  V30 2301 O 215.994 1.30947 1.23502 0
M  V30 2302 H 212.369 0.695775 0.285309 0
M  V30 2303 H 214.34 2.96935 0.295372 0
M  V30 2304 C 213.089 2.79893 2.06289 0
M  V30 2305 H 212.412 3.60147 1.73592 0
M  V30 2306 H 213.852 3.25615 2.71572 0
M  V30 2307 C 212.311 1.77713 2.86216 0
M  V30 2308 O 212.841 1.23937 3.82103 0
M  V30 2309 N 211.047 1.47321 2.50489 0
M  V30 2310 H 210.594 1.91243 1.7258 0
M  V30 2311 H 210.552 0.79199 3.04261 0
M  V30 2312 N 214.325 -0.140222 1.56975 0
M  V30 2313 C 215.273 -1.19207 1.99731 0
M  V30 2314 C 216.267 -1.44089 0.890777 0
M  V30 2315 O 217.473 -1.44301 1.07597 0
M  V30 2316 H 213.848 -0.40142 0.635898 0
M  V30 2317 H 215.819 -0.804813 2.87342 0
M  V30 2318 C 214.568 -2.51617 2.39967 0
M  V30 2319 H 213.891 -2.33303 3.24669 0
M  V30 2320 H 215.331 -3.23827 2.73701 0
M  V30 2321 C 213.79 -3.12654 1.25496 0
M  V30 2322 O 214.32 -3.97786 0.559371 0
M  V30 2323 N 212.526 -2.72206 1.01746 0
M  V30 2324 H 212.073 -2.03074 1.58489 0
M  V30 2325 H 212.031 -3.13377 0.253461 0
M  V30 2326 N 215.803 -1.52179 -0.40978 0
M  V30 2327 C 217.05 -1.66206 -1.15679 0
M  V30 2328 C 217.378 -0.391674 -1.90516 0
M  V30 2329 O 216.633 0.62533 -1.8544 0
M  V30 2330 C 216.932 -2.83428 -2.17723 0
M  V30 2331 C 216.598 -4.21672 -1.59699 0
M  V30 2332 C 215.26 -4.59274 -1.43599 0
M  V30 2333 C 217.612 -5.07825 -1.17317 0
M  V30 2334 C 214.94 -5.80709 -0.836328 0
M  V30 2335 C 217.292 -6.29864 -0.587691 0
M  V30 2336 C 215.956 -6.66216 -0.413818 0
M  V30 2337 H 215.226 -0.608192 -0.423301 0
M  V30 2338 H 217.873 -1.86279 -0.444097 0
M  V30 2339 H 216.178 -2.57687 -2.95135 0
M  V30 2340 H 217.875 -2.91477 -2.75394 0
M  V30 2341 H 214.465 -3.9204 -1.73213 0
M  V30 2342 H 218.649 -4.79359 -1.28565 0
M  V30 2343 H 213.905 -6.07498 -0.689626 0
M  V30 2344 H 218.079 -6.95948 -0.250894 0
M  V30 2345 H 215.706 -7.60182 0.0529471 0
M  V30 2346 N 217.281 0.66697 -1.42791 0
M  V30 2347 C 218.506 1.46004 -1.47301 0
M  V30 2348 C 218.931 1.87894 -0.0880317 0
M  V30 2349 O 218.289 1.56502 0.915253 0
M  V30 2350 C 218.337 2.68031 -2.41229 0
M  V30 2351 O 217.441 3.6659 -1.88906 0
M  V30 2352 H 216.782 0.43832 -0.49877 0
M  V30 2353 H 219.312 0.817391 -1.87563 0
M  V30 2354 H 219.322 3.1601 -2.58073 0
M  V30 2355 H 217.997 2.36883 -3.41847 0
M  V30 2356 H 216.574 3.25661 -1.81656 0
M  V30 2357 N 218.759 1.29093 0.90403 0
M  V30 2358 C 220.007 1.16583 1.65085 0
M  V30 2359 C 220.328 -0.283933 1.92922 0
M  V30 2360 O 219.598 -1.19509 1.55224 0
M  V30 2361 H 218.178 0.428467 0.611903 0
M  V30 2362 H 220.84 1.61959 1.08422 0
M  V30 2363 H 219.936 1.71266 2.6091 0
M  V30 2364 N 220.237 -1.11381 1.11499 0
M  V30 2365 C 221.653 -1.35143 0.849031 0
M  V30 2366 C 221.853 -1.94515 -0.525938 0
M  V30 2367 O 220.909 -2.1785 -1.27662 0
M  V30 2368 C 222.222 -2.28249 1.95762 0
M  V30 2369 C 223.77 -2.41812 1.98736 0
M  V30 2370 C 224.245 -3.3824 3.088 0
M  V30 2371 N 225.736 -3.45803 3.08179 0
M  V30 2372 C 226.471 -4.20358 3.89982 0
M  V30 2373 N 225.967 -4.97884 4.8175 0
M  V30 2374 N 227.76 -4.15877 3.78157 0
M  V30 2375 H 219.911 -0.712062 2.00109 0
M  V30 2376 H 222.174 -0.376025 0.870235 0
M  V30 2377 H 221.88 -1.91817 2.94787 0
M  V30 2378 H 221.754 -3.28473 1.85433 0
M  V30 2379 H 224.141 -2.77518 1.00338 0
M  V30 2380 H 224.222 -1.41437 2.13141 0
M  V30 2381 H 223.866 -3.03261 4.07425 0
M  V30 2382 H 223.796 -4.38471 2.91635 0
M  V30 2383 H 226.287 -2.90506 2.41691 0
M  V30 2384 H 226.6 -5.52142 5.40702 0
M  V30 2385 H 224.945 -4.97043 4.85771 0
M  V30 2386 H 228.136 -3.544 3.05808 0
M  V30 2387 H 228.309 -4.73723 4.42143 0
M  V30 2388 N 221.715 -0.905404 -1.28997 0
M  V30 2389 C 222.943 -0.549846 -1.9946 0
M  V30 2390 C 223.358 0.866834 -1.67724 0
M  V30 2391 O 222.715 1.57298 -0.925404 0
M  V30 2392 C 222.766 -0.739387 -3.53858 0
M  V30 2393 O 222.487 -2.10031 -3.84472 0
M  V30 2394 C 223.988 -0.389541 -4.41585 0
M  V30 2395 H 221.208 -0.210429 -0.637151 0
M  V30 2396 H 223.752 -1.21632 -1.64396 0
M  V30 2397 H 221.907 -0.120023 -3.87214 0
M  V30 2398 H 222.321 -2.13385 -4.79132 0
M  V30 2399 H 223.795 -0.572972 -5.49018 0
M  V30 2400 H 224.272 0.673756 -4.34001 0
M  V30 2401 H 224.878 -0.986089 -4.1371 0
M  V30 2402 N 223.193 1.4272 -0.668489 0
M  V30 2403 C 224.123 2.335 -0.000100175 0
M  V30 2404 C 225.104 1.50328 0.795964 0
M  V30 2405 O 226.289 1.78949 0.754385 0
M  V30 2406 C 223.419 3.33874 0.956302 0
M  V30 2407 C 222.373 4.27152 0.269278 0
M  V30 2408 C 221.699 5.17684 1.33818 0
M  V30 2409 C 222.999 5.15373 -0.847805 0
M  V30 2410 H 224.693 2.89639 -0.758244 0
M  V30 2411 H 222.239 1.39269 -0.366079 0
M  V30 2412 H 224.192 3.9629 1.43292 0
M  V30 2413 H 222.916 2.76025 1.74579 0
M  V30 2414 H 221.575 3.66123 -0.187042 0
M  V30 2415 H 221.223 4.56165 2.1195 0
M  V30 2416 H 220.923 5.80918 0.883659 0
M  V30 2417 H 222.447 5.82974 1.81586 0
M  V30 2418 H 223.861 5.7151 -0.452681 0
M  V30 2419 H 222.258 5.87407 -1.22773 0
M  V30 2420 H 223.328 4.5415 -1.69929 0
M  V30 2421 N 224.671 0.411399 1.52136 0
M  V30 2422 C 225.919 -0.163322 2.01439 0
M  V30 2423 C 226.24 -1.45453 1.29879 0
M  V30 2424 O 225.51 -1.91225 0.4254 0
M  V30 2425 H 224.09 -0.0633447 0.744309 0
M  V30 2426 H 226.752 0.548161 1.87033 0
M  V30 2427 H 225.848 -0.357817 3.10042 0
M  V30 2428 N 226.149 -1.5696 0.141893 0
M  V30 2429 C 227.389 -1.9785 -0.513304 0
M  V30 2430 C 227.753 -1.02467 -1.62371 0
M  V30 2431 O 228.954 -1.32382 -2.33941 0
M  V30 2432 C 227.225 -3.42797 -1.01118 0
M  V30 2433 S 228.784 -4.05709 -1.67169 0
M  V30 2434 H 225.602 -0.691318 -0.166135 0
M  V30 2435 H 228.204 -1.94114 0.232398 0
M  V30 2436 H 226.908 -4.0995 -0.192179 0
M  V30 2437 H 226.439 -3.50235 -1.79162 0
M  V30 2438 H 228.454 -3.98342 -2.95868 0
M  V30 2439 N 227.627 0.131896 -1.57047 0
M  V30 2440 C 228.873 0.843179 -1.84441 0
M  V30 2441 C 229.206 1.80129 -0.725749 0
M  V30 2442 O 228.481 1.92624 0.269469 0
M  V30 2443 C 228.764 1.60442 -3.22382 0
M  V30 2444 C 228.617 0.666782 -4.4483 0
M  V30 2445 C 229.936 2.56354 -3.5773 0
M  V30 2446 H 227.055 0.305081 -0.670891 0
M  V30 2447 H 229.697 0.107839 -1.89694 0
M  V30 2448 H 227.847 2.23128 -3.18035 0
M  V30 2449 H 229.519 0.0497646 -4.61273 0
M  V30 2450 H 227.762 -0.022609 -4.33794 0
M  V30 2451 H 228.433 1.23579 -5.37989 0
M  V30 2452 H 230.909 2.0378 -3.62785 0
M  V30 2453 H 229.785 3.06657 -4.5525 0
M  V30 2454 H 230.046 3.38419 -2.84473 0
M  V30 2455 N 229.106 1.52395 0.401703 0
M  V30 2456 C 230.331 1.70972 1.17403 0
M  V30 2457 C 230.756 0.421615 1.83314 0
M  V30 2458 O 230.114 -0.621564 1.70312 0
M  V30 2459 C 230.162 2.85151 2.20728 0
M  V30 2460 O 229.266 2.51238 3.27037 0
M  V30 2461 H 228.607 0.568927 0.342372 0
M  V30 2462 H 231.137 1.99131 0.469891 0
M  V30 2463 H 231.147 3.10279 2.64936 0
M  V30 2464 H 229.822 3.78603 1.7214 0
M  V30 2465 H 228.399 2.36808 2.88057 0
M  V30 2466 N 230.584 -0.659388 1.43143 0
M  V30 2467 C 231.547 -1.75432 1.47501 0
M  V30 2468 C 232.547 -1.56707 0.360512 0
M  V30 2469 O 233.737 -1.62717 0.622002 0
M  V30 2470 C 230.869 -3.14239 1.32162 0
M  V30 2471 H 232.062 -1.7295 2.45006 0
M  V30 2472 H 229.615 -0.870469 1.29817 0
M  V30 2473 H 230.35 -3.22336 0.356401 0
M  V30 2474 H 230.135 -3.29235 2.12948 0
M  V30 2475 H 231.625 -3.94094 1.3813 0
M  V30 2476 N 232.062 -1.29571 -0.897171 0
M  V30 2477 C 233.287 -1.20705 -1.68656 0
M  V30 2478 C 233.712 0.228582 -1.86706 0
M  V30 2479 O 233.07 1.16494 -1.3892 0
M  V30 2480 C 233.118 -1.9282 -3.04717 0
M  V30 2481 O 232.222 -1.24697 -3.93096 0
M  V30 2482 H 231.563 -0.418126 -0.515816 0
M  V30 2483 H 234.093 -1.71183 -1.12061 0
M  V30 2484 H 234.103 -2.01372 -3.54843 0
M  V30 2485 H 232.778 -2.97239 -2.90899 0
M  V30 2486 H 231.355 -1.2442 -3.51531 0
M  V30 2487 N 233.54 1.10788 -1.12088 0
M  V30 2488 C 234.768 1.86461 -0.896651 0
M  V30 2489 C 235.183 1.80492 0.553912 0
M  V30 2490 O 234.54 1.19102 1.38278 0
M  V30 2491 C 234.591 3.35006 -1.35843 0
M  V30 2492 O 234.312 3.40866 -2.75213 0
M  V30 2493 C 235.813 4.27565 -1.1706 0
M  V30 2494 H 233.033 0.589425 -0.320654 0
M  V30 2495 H 235.577 1.40076 -1.48993 0
M  V30 2496 H 233.732 3.7887 -0.808458 0
M  V30 2497 H 234.146 4.33411 -2.9539 0
M  V30 2498 H 235.62 5.30007 -1.54263 0
M  V30 2499 H 236.097 4.3906 -0.110814 0
M  V30 2500 H 236.703 3.89501 -1.70789 0
M  V30 2501 N 235.018 0.912232 1.28515 0
M  V30 2502 C 236.295 0.463597 1.90027 0
M  V30 2503 C 236.675 -1.05753 1.82701 0
M  V30 2504 O 236.023 -1.90492 1.26194 0
M  V30 2505 C 236.233 0.992253 3.34597 0
M  V30 2506 C 237.581 1.04344 4.11579 0
M  V30 2507 O 238.605 0.94079 3.43551 0
M  V30 2508 O 237.464 1.1995 5.33174 0
M  V30 2509 H 234.558 0.146666 0.813891 0
M  V30 2510 H 237.104 1.00292 1.36893 0
M  V30 2511 H 235.876 2.03623 3.34146 0
M  V30 2512 H 235.499 0.433672 3.95228 0
M  V30 2513 N 236.496 -1.42363 0.676048 0
M  V30 2514 C 237.443 -2.308 -0.00150904 0
M  V30 2515 C 238.413 -1.46032 -0.791444 0
M  V30 2516 O 239.598 -1.74861 -0.76344 0
M  V30 2517 C 236.738 -3.31883 -0.945919 0
M  V30 2518 C 235.851 -4.31741 -0.149675 0
M  V30 2519 C 234.986 -5.19898 -1.08995 0
M  V30 2520 C 234.025 -6.11434 -0.285465 0
M  V30 2521 N 233.162 -6.92138 -1.17851 0
M  V30 2522 H 238.002 -2.88187 0.758455 0
M  V30 2523 H 235.539 -1.41952 0.38576 0
M  V30 2524 H 237.497 -3.89019 -1.50731 0
M  V30 2525 H 236.127 -2.76093 -1.6725 0
M  V30 2526 H 235.179 -3.76713 0.528359 0
M  V30 2527 H 236.491 -4.96534 0.474866 0
M  V30 2528 H 235.645 -5.81772 -1.72123 0
M  V30 2529 H 234.384 -4.55284 -1.74837 0
M  V30 2530 H 233.389 -5.48627 0.359018 0
M  V30 2531 H 234.614 -6.78097 0.368883 0
M  V30 2532 H 232.56 -6.30152 -1.82332 0
M  V30 2533 H 232.477 -7.53542 -0.609082 0
M  V30 2534 H 233.745 -7.58499 -1.79722 0
M  V30 2535 N 237.974 -0.419461 -1.51915 0
M  V30 2536 C 238.921 0.400927 -2.27291 0
M  V30 2537 C 239.891 1.03224 -1.30131 0
M  V30 2538 O 241.076 1.05455 -1.59009 0
M  V30 2539 C 238.216 1.50603 -3.10504 0
M  V30 2540 C 237.329 0.89462 -4.22635 0
M  V30 2541 C 236.464 1.97328 -4.93189 0
M  V30 2542 C 235.503 1.33935 -5.97267 0
M  V30 2543 N 234.64 2.3586 -6.61298 0
M  V30 2544 H 239.48 -0.248251 -2.96964 0
M  V30 2545 H 237.017 -0.134266 -1.46486 0
M  V30 2546 H 238.975 2.15783 -3.57062 0
M  V30 2547 H 237.605 2.12509 -2.42981 0
M  V30 2548 H 236.657 0.131583 -3.80172 0
M  V30 2549 H 237.969 0.391641 -4.9726 0
M  V30 2550 H 237.123 2.70211 -5.43204 0
M  V30 2551 H 235.862 2.50994 -4.18155 0
M  V30 2552 H 234.867 0.595896 -5.46561 0
M  V30 2553 H 236.092 0.810252 -6.74249 0
M  V30 2554 H 234.038 2.88639 -5.89087 0
M  V30 2555 H 233.955 1.90403 -7.3163 0
M  V30 2556 H 235.223 3.08282 -7.15949 0
M  V30 2557 N 239.452 1.56882 -0.150215 0
M  V30 2558 C 240.692 1.98119 0.502804 0
M  V30 2559 C 241.056 1.03327 1.61826 0
M  V30 2560 O 242.257 1.33621 2.33236 0
M  V30 2561 C 240.528 3.43329 0.992988 0
M  V30 2562 S 242.087 4.0659 1.65015 0
M  V30 2563 H 238.905 0.692189 0.162467 0
M  V30 2564 H 241.507 1.93988 -0.242689 0
M  V30 2565 H 240.211 4.10046 0.170436 0
M  V30 2566 H 239.742 3.5118 1.77303 0
M  V30 2567 H 241.757 3.99906 2.93752 0
M  V30 2568 N 240.93 -0.123565 1.57115 0
M  V30 2569 C 241.877 -1.15177 2.00007 0
M  V30 2570 C 242.847 -1.41403 0.871454 0
M  V30 2571 O 244.032 -1.53346 1.13533 0
M  V30 2572 C 241.172 -2.47436 2.40561 0
M  V30 2573 C 240.285 -2.28184 3.66819 0
M  V30 2574 C 239.42 -3.53641 3.96373 0
M  V30 2575 C 238.459 -3.29528 5.15827 0
M  V30 2576 N 237.596 -4.47175 5.41275 0
M  V30 2577 H 242.436 -0.779008 2.87638 0
M  V30 2578 H 239.973 -0.373166 1.42288 0
M  V30 2579 H 241.931 -3.24584 2.62109 0
M  V30 2580 H 240.561 -2.82614 1.55978 0
M  V30 2581 H 239.613 -1.41976 3.52912 0
M  V30 2582 H 240.925 -2.0634 4.5412 0
M  V30 2583 H 240.079 -4.39209 4.18545 0
M  V30 2584 H 238.818 -3.78512 3.07538 0
M  V30 2585 H 237.823 -2.42349 4.93505 0
M  V30 2586 H 239.048 -3.06031 6.06236 0
M  V30 2587 H 236.994 -4.72175 4.55397 0
M  V30 2588 H 236.911 -4.28419 6.22891 0
M  V30 2589 H 238.179 -5.3389 5.67963 0
M  V30 2590 N 242.408 -1.52605 -0.393616 0
M  V30 2591 C 243.356 -1.77688 -1.50099 0
M  V30 2592 C 244.35 -0.644615 -1.56656 0
M  V30 2593 O 245.556 -0.826997 -1.59877 0
M  V30 2594 H 241.931 -0.562159 -0.499481 0
M  V30 2595 H 243.902 -2.7043 -1.26135 0
M  V30 2596 C 242.651 -1.95858 -2.87289 0
M  V30 2597 H 241.974 -2.8241 -2.82992 0
M  V30 2598 H 243.414 -2.174 -3.64024 0
M  V30 2599 C 241.873 -0.729848 -3.28899 0
M  V30 2600 O 242.403 0.0949217 -4.01588 0
M  V30 2601 N 240.609 -0.561283 -2.85128 0
M  V30 2602 H 240.156 -1.23357 -2.26143 0
M  V30 2603 H 240.114 0.2595 -3.13327 0
M  V30 2604 N 243.887 0.651787 -1.4349 0
M  V30 2605 C 244.835 1.78586 -1.49029 0
M  V30 2606 C 245.829 1.65448 -0.363767 0
M  V30 2607 O 247.035 1.71777 -0.537821 0
M  V30 2608 H 243.41 0.589236 -0.467231 0
M  V30 2609 H 245.381 1.71035 -2.44519 0
M  V30 2610 C 244.13 3.16851 -1.43181 0
M  V30 2611 H 243.453 3.27598 -2.29171 0
M  V30 2612 H 244.893 3.96156 -1.51118 0
M  V30 2613 C 243.352 3.36568 -0.149616 0
M  V30 2614 O 243.882 3.93885 0.788509 0
M  V30 2615 N 242.088 2.90539 -0.0593484 0
M  V30 2616 H 241.635 2.4408 -0.823575 0
M  V30 2617 H 241.593 3.04108 0.797853 0
M  V30 2618 N 245.365 1.30045 0.890287 0
M  V30 2619 C 246.612 1.18561 1.64163 0
M  V30 2620 C 246.94 -0.260852 1.92743 0
M  V30 2621 O 246.195 -1.20376 1.54299 0
M  V30 2622 C 246.494 1.95409 2.99249 0
M  V30 2623 C 246.16 3.45066 2.90242 0
M  V30 2624 C 244.822 3.85878 2.87492 0
M  V30 2625 C 247.174 4.4039 2.78758 0
M  V30 2626 C 244.502 5.20314 2.7109 0
M  V30 2627 C 246.854 5.74928 2.63894 0
M  V30 2628 C 245.518 6.14986 2.59516 0
M  V30 2629 H 244.788 0.433846 0.600715 0
M  V30 2630 H 247.435 1.61088 1.03552 0
M  V30 2631 H 245.74 1.45501 3.63781 0
M  V30 2632 H 247.437 1.8392 3.56334 0
M  V30 2633 H 244.027 3.12631 2.93189 0
M  V30 2634 H 248.211 4.09806 2.79952 0
M  V30 2635 H 243.467 5.50449 2.66112 0
M  V30 2636 H 247.641 6.48434 2.53981 0
M  V30 2637 H 245.268 7.19104 2.46565 0
M  V30 2638 N 246.843 -1.10192 1.12674 0
M  V30 2639 C 248.091 -1.81845 0.881861 0
M  V30 2640 C 248.412 -1.85737 -0.593867 0
M  V30 2641 O 247.682 -1.33724 -1.4316 0
M  V30 2642 H 246.262 -0.673432 0.323261 0
M  V30 2643 H 248.924 -1.33316 1.42172 0
M  V30 2644 H 248.02 -2.85288 1.2656 0
M  V30 2645 N 248.321 -0.919034 -1.28029 0
M  V30 2646 C 249.732 -0.600735 -1.76771 0
M  V30 2647 C 250.083 0.884024 -1.75156 0
M  V30 2648 O 249.208 1.69163 -1.34956 0
M  V30 2649 C 249.803 -1.08372 -3.21 0
M  V30 2650 C 248.362 -0.816248 -3.67443 0
M  V30 2651 C 247.509 -1.24742 -2.47658 0
M  V30 2652 H 250.46 -1.09974 -1.14418 0
M  V30 2653 H 250.481 -0.427512 -3.78091 0
M  V30 2654 H 249.993 -2.16437 -3.22144 0
M  V30 2655 H 248.094 0.250968 -3.71754 0
M  V30 2656 H 248.207 -1.4277 -4.57333 0
M  V30 2657 H 246.571 -0.666083 -2.45836 0
M  V30 2658 H 247.354 -2.33653 -2.51518 0
M  V30 2659 N 249.799 1.42003 -0.683588 0
M  V30 2660 C 251.046 2.01413 -0.209514 0
M  V30 2661 C 251.374 1.54088 1.1869 0
M  V30 2662 O 250.629 0.737591 1.81268 0
M  V30 2663 C 250.928 3.56827 -0.202357 0
M  V30 2664 C 250.594 4.23617 -1.54464 0
M  V30 2665 C 249.256 4.41577 -1.91215 0
M  V30 2666 C 251.608 4.61178 -2.42826 0
M  V30 2667 C 248.936 4.9437 -3.15935 0
M  V30 2668 C 251.288 5.15355 -3.66867 0
M  V30 2669 C 249.952 5.31528 -4.03776 0
M  V30 2670 H 249.222 0.737023 -0.0766668 0
M  V30 2671 H 251.869 1.70067 -0.880312 0
M  V30 2672 H 250.174 3.87892 0.551969 0
M  V30 2673 H 251.871 4.00588 0.181793 0
M  V30 2674 H 248.461 4.10004 -1.24877 0
M  V30 2675 H 252.645 4.46968 -2.15717 0
M  V30 2676 H 247.901 5.05076 -3.44541 0
M  V30 2677 H 252.075 5.43402 -4.35531 0
M  V30 2678 H 249.702 5.72199 -5.00492 0
M  V30 2679 N 251.277 0.427512 1.51691 0
M  V30 2680 C 252.523 -0.142439 2.02299 0
M  V30 2681 C 252.856 -1.43214 1.31162 0
M  V30 2682 O 252.131 -1.89833 0.423511 0
M  V30 2683 C 252.414 -0.371301 3.58181 0
M  V30 2684 C 252.267 0.936358 4.39946 0
M  V30 2685 C 253.586 -1.14542 4.24933 0
M  V30 2686 H 250.705 -0.0502937 0.735282 0
M  V30 2687 H 253.347 0.564584 1.81418 0
M  V30 2688 H 251.497 -0.973559 3.76104 0
M  V30 2689 H 253.169 1.57184 4.33694 0
M  V30 2690 H 251.412 1.5432 4.05423 0
M  V30 2691 H 252.083 0.730388 5.47147 0
M  V30 2692 H 254.559 -0.635362 4.11221 0
M  V30 2693 H 253.435 -1.27431 5.33903 0
M  V30 2694 H 253.696 -2.17093 3.85127 0
M  V30 2695 N 252.755 -1.56801 0.158532 0
M  V30 2696 C 254.166 -1.83189 -0.360366 0
M  V30 2697 C 254.517 -1.07778 -1.63946 0
M  V30 2698 O 253.642 -0.326718 -2.13919 0
M  V30 2699 C 254.237 -3.32297 -0.660595 0
M  V30 2700 C 252.796 -3.59227 -1.12398 0
M  V30 2701 C 251.943 -2.76877 -0.153097 0
M  V30 2702 H 254.894 -1.54008 0.383031 0
M  V30 2703 H 254.915 -3.4908 -1.51405 0
M  V30 2704 H 254.427 -3.87156 0.270527 0
M  V30 2705 H 252.528 -3.09766 -2.07064 0
M  V30 2706 H 252.641 -4.67632 -1.04197 0
M  V30 2707 H 251.005 -2.46319 -0.647983 0
M  V30 2708 H 251.788 -3.34511 0.77182 0
M  V30 2709 N 254.233 0.115231 -1.57178 0
M  V30 2710 C 255.181 1.16014 -2.01602 0
M  V30 2711 C 256.175 1.42653 -0.913587 0
M  V30 2712 O 257.381 1.42571 -1.09879 0
M  V30 2713 H 253.756 0.391252 -0.642204 0
M  V30 2714 H 255.727 0.758998 -2.88586 0
M  V30 2715 C 254.476 2.47767 -2.4394 0
M  V30 2716 H 253.799 2.28108 -3.28339 0
M  V30 2717 H 255.239 3.19432 -2.78818 0
M  V30 2718 C 253.698 3.10617 -1.30455 0
M  V30 2719 O 254.228 3.96846 -0.622585 0
M  V30 2720 N 252.434 2.70553 -1.06064 0
M  V30 2721 H 251.981 2.00527 -1.61699 0
M  V30 2722 H 251.939 3.12934 -0.303284 0
M  V30 2723 N 255.711 1.52812 0.385517 0
M  V30 2724 C 256.958 1.68026 1.1302 0
M  V30 2725 C 257.286 0.421934 1.89868 0
M  V30 2726 O 256.541 -0.595749 1.86412 0
M  V30 2727 C 256.84 2.86856 2.13187 0
M  V30 2728 C 256.506 4.24159 1.5297 0
M  V30 2729 C 255.168 4.61501 1.36274 0
M  V30 2730 C 257.52 5.09627 1.09223 0
M  V30 2731 C 254.848 5.81966 0.743837 0
M  V30 2732 C 257.2 6.30719 0.487411 0
M  V30 2733 C 255.864 6.6679 0.307777 0
M  V30 2734 H 255.134 0.614849 0.413571 0
M  V30 2735 H 257.781 1.86962 0.414405 0
M  V30 2736 H 256.086 2.6235 2.90998 0
M  V30 2737 H 257.783 2.95821 2.70722 0
M  V30 2738 H 254.373 3.94746 1.66954 0
M  V30 2739 H 258.557 4.81343 1.20922 0
M  V30 2740 H 253.813 6.08519 0.592891 0
M  V30 2741 H 257.987 6.96259 0.140143 0
M  V30 2742 H 255.614 7.60001 -0.173879 0
M  V30 2743 N 257.189 -0.644168 1.43834 0
M  V30 2744 C 258.119 -1.76814 1.52509 0
M  V30 2745 C 259.1 -1.65823 0.379052 0
M  V30 2746 O 260.285 -1.84781 0.597466 0
M  V30 2747 C 257.415 -3.15288 1.4564 0
M  V30 2748 C 256.369 -3.41053 2.58586 0
M  V30 2749 C 255.695 -4.79421 2.36769 0
M  V30 2750 C 256.995 -3.34902 4.00797 0
M  V30 2751 H 258.689 -1.69812 2.46586 0
M  V30 2752 H 256.235 -0.815542 1.1868 0
M  V30 2753 H 258.188 -3.93681 1.50311 0
M  V30 2754 H 256.912 -3.23043 0.480725 0
M  V30 2755 H 255.571 -2.65035 2.53282 0
M  V30 2756 H 255.219 -4.83863 1.37424 0
M  V30 2757 H 254.919 -4.9762 3.12487 0
M  V30 2758 H 256.443 -5.6006 2.43238 0
M  V30 2759 H 257.857 -4.03218 4.07539 0
M  V30 2760 H 256.254 -3.64637 4.76613 0
M  V30 2761 H 257.324 -2.32928 4.25291 0
M  V30 2762 N 258.668 -1.30515 -0.883378 0
M  V30 2763 C 259.615 -1.17032 -1.98927 0
M  V30 2764 C 260.585 -0.0594241 -1.65994 0
M  V30 2765 O 261.77 -0.229895 -1.8941 0
M  V30 2766 C 258.91 -0.869777 -3.33959 0
M  V30 2767 C 258.023 -2.06271 -3.79574 0
M  V30 2768 C 257.158 -1.70011 -5.03259 0
M  V30 2769 C 256.197 -2.8579 -5.41286 0
M  V30 2770 N 255.334 -2.49816 -6.56153 0
M  V30 2771 H 260.174 -2.1164 -2.09792 0
M  V30 2772 H 257.711 -1.05296 -1.02719 0
M  V30 2773 H 259.669 -0.676138 -4.11685 0
M  V30 2774 H 258.299 0.0394332 -3.22776 0
M  V30 2775 H 257.351 -2.36755 -2.97744 0
M  V30 2776 H 258.663 -2.92971 -4.03694 0
M  V30 2777 H 257.817 -1.47032 -5.88614 0
M  V30 2778 H 256.556 -0.804829 -4.81013 0
M  V30 2779 H 255.561 -3.09434 -4.54456 0
M  V30 2780 H 256.786 -3.76008 -5.65504 0
M  V30 2781 H 254.732 -1.62795 -6.35479 0
M  V30 2782 H 254.649 -3.30048 -6.8015 0
M  V30 2783 H 255.917 -2.30197 -7.44735 0
M  V30 2784 N 260.146 1.09593 -1.13257 0
M  V30 2785 C 261.392 1.82003 -0.89458 0
M  V30 2786 C 261.725 1.85402 0.577906 0
M  V30 2787 O 261 1.32099 1.42759 0
M  V30 2788 C 261.283 3.28237 -1.48096 0
M  V30 2789 C 261.136 3.3312 -3.02244 0
M  V30 2790 C 262.455 4.24871 -1.14774 0
M  V30 2791 H 259.574 0.66077 -0.326424 0
M  V30 2792 H 262.216 1.28389 -1.40058 0
M  V30 2793 H 260.366 3.74024 -1.05062 0
M  V30 2794 H 262.038 2.95748 -3.54021 0
M  V30 2795 H 260.281 2.72756 -3.37323 0
M  V30 2796 H 260.952 4.3613 -3.38371 0
M  V30 2797 H 263.428 3.87361 -1.51957 0
M  V30 2798 H 262.304 5.25532 -1.58452 0
M  V30 2799 H 262.565 4.42058 -0.0611849 0
M  V30 2800 N 261.624 0.925811 1.2754 0
M  V30 2801 C 263.035 0.610102 1.7645 0
M  V30 2802 C 263.386 -0.874723 1.75622 0
M  V30 2803 O 262.511 -1.68444 1.35851 0
M  V30 2804 C 263.106 1.10073 3.20421 0
M  V30 2805 C 261.665 0.835723 3.67005 0
M  V30 2806 C 260.812 1.26054 2.46993 0
M  V30 2807 H 263.763 1.10579 1.13833 0
M  V30 2808 H 263.784 0.447557 3.77859 0
M  V30 2809 H 263.296 2.18143 3.20991 0
M  V30 2810 H 261.397 -0.231249 3.71882 0
M  V30 2811 H 261.51 1.45193 4.56569 0
M  V30 2812 H 259.874 0.679111 2.45479 0
M  V30 2813 H 260.657 2.34984 2.50275 0
M  V30 2814 N 263.102 -1.41638 0.69111 0
M  V30 2815 C 264.332 -2.0533 0.228758 0
M  V30 2816 C 264.74 -1.52089 -1.12541 0
M  V30 2817 O 264.083 -0.662145 -1.71351 0
M  V30 2818 C 264.145 -3.59349 0.10407 0
M  V30 2819 C 263.809 -4.35362 1.38956 0
M  V30 2820 C 264.806 -4.64942 2.32648 0
M  V30 2821 C 262.491 -4.74714 1.64169 0
M  V30 2822 C 264.485 -5.32828 3.49818 0
M  V30 2823 C 262.172 -5.42338 2.81625 0
M  V30 2824 C 263.17 -5.71322 3.74273 0
M  V30 2825 O 262.858 -6.37554 4.89673 0
M  V30 2826 H 262.59 -0.667796 0.104997 0
M  V30 2827 H 265.144 -1.82477 0.942938 0
M  V30 2828 H 263.374 -3.80924 -0.665839 0
M  V30 2829 H 265.063 -4.04633 -0.320519 0
M  V30 2830 H 265.829 -4.35025 2.14425 0
M  V30 2831 H 261.708 -4.51538 0.929202 0
M  V30 2832 H 265.252 -5.55368 4.22152 0
M  V30 2833 H 261.149 -5.71673 2.99768 0
M  V30 2834 H 261.917 -6.56049 4.8943 0
M  V30 2835 N 264.58 -0.43555 -1.51462 0
M  V30 2836 C 265.857 0.191364 -1.94662 0
M  V30 2837 C 266.237 1.60254 -1.37411 0
M  V30 2838 O 265.585 2.2152 -0.560458 0
M  V30 2839 C 265.795 0.17091 -3.48581 0
M  V30 2840 C 267.143 0.377357 -4.2292 0
M  V30 2841 O 268.167 0.249104 -3.55328 0
M  V30 2842 O 267.026 0.63247 -5.42828 0
M  V30 2843 H 264.12 0.130932 -0.816569 0
M  V30 2844 H 266.666 -0.4934 -1.62369 0
M  V30 2845 H 265.438 -0.815738 -3.82703 0
M  V30 2846 H 265.061 0.898659 -3.87311 0
M  V30 2847 N 266.058 1.56714 -0.166846 0
M  V30 2848 C 267.335 1.88412 0.525373 0
M  V30 2849 C 267.715 1.07602 1.81618 0
M  V30 2850 O 267.063 0.168621 2.27877 0
M  V30 2851 C 267.273 3.40363 0.771613 0
M  V30 2852 C 268.621 4.10007 1.1036 0
M  V30 2853 O 269.645 3.45655 0.860304 0
M  V30 2854 O 268.504 5.2369 1.56239 0
M  V30 2855 H 265.598 0.781587 0.270278 0
M  V30 2856 H 268.144 1.68458 -0.204946 0
M  V30 2857 H 266.916 3.91046 -0.141093 0
M  V30 2858 H 266.539 3.65914 1.55541 0
M  V30 2859 N 267.536 -0.106894 1.57237 0
M  V30 2860 C 268.466 -1.13148 2.04254 0
M  V30 2861 C 269.447 -1.42476 0.929224 0
M  V30 2862 O 270.632 -1.52709 1.19973 0
M  V30 2863 C 267.762 -2.4545 2.45706 0
M  V30 2864 C 266.716 -2.30558 3.60592 0
M  V30 2865 C 266.042 -3.67931 3.87983 0
M  V30 2866 C 267.342 -1.75597 4.91897 0
M  V30 2867 H 269.036 -0.740374 2.90101 0
M  V30 2868 H 266.582 -0.354696 1.39563 0
M  V30 2869 H 268.535 -3.17389 2.77205 0
M  V30 2870 H 267.259 -2.86475 1.56843 0
M  V30 2871 H 265.918 -1.61067 3.29322 0
M  V30 2872 H 265.566 -4.06462 2.96306 0
M  V30 2873 H 265.266 -3.58817 4.65322 0
M  V30 2874 H 266.79 -4.41356 4.21945 0
M  V30 2875 H 268.204 -2.37364 5.21854 0
M  V30 2876 H 266.601 -1.77272 5.73319 0
M  V30 2877 H 267.671 -0.714451 4.79608 0
M  V30 2878 N 269.014 -1.53014 -0.377408 0
M  V30 2879 C 269.924 -1.81557 -1.48574 0
M  V30 2880 C 270.94 -0.703102 -1.59162 0
M  V30 2881 O 272.116 -0.99192 -1.75279 0
M  V30 2882 C 269.181 -1.9889 -2.83978 0
M  V30 2883 C 268.242 -3.22801 -2.83016 0
M  V30 2884 C 267.475 -3.39298 -4.11962 0
M  V30 2885 O 267.698 -2.60345 -5.0752 0
M  V30 2886 O 266.632 -4.32604 -4.18494 0
M  V30 2887 H 270.458 -2.75695 -1.27382 0
M  V30 2888 H 268.043 -1.38248 -0.566373 0
M  V30 2889 H 269.925 -2.11931 -3.6423 0
M  V30 2890 H 268.6 -1.07942 -3.05172 0
M  V30 2891 H 267.507 -3.15193 -2.01505 0
M  V30 2892 H 268.84 -4.13632 -2.66775 0
M  V30 2893 N 270.492 0.636531 -1.44174 0
M  V30 2894 C 271.455 1.73063 -1.50273 0
M  V30 2895 C 272.455 1.56113 -0.385397 0
M  V30 2896 O 273.645 1.61707 -0.64781 0
M  V30 2897 C 270.777 3.12096 -1.37145 0
M  V30 2898 H 271.97 1.69031 -2.47727 0
M  V30 2899 H 269.523 0.849706 -1.31186 0
M  V30 2900 H 270.258 3.21728 -0.407636 0
M  V30 2901 H 270.043 3.25805 -2.18159 0
M  V30 2902 H 271.533 3.91846 -1.44382 0
M  V30 2903 N 271.97 1.30982 0.876444 0
M  V30 2904 C 272.9 1.20668 1.99903 0
M  V30 2905 C 273.881 0.095354 1.69833 0
M  V30 2906 O 275.066 0.27885 1.92188 0
M  V30 2907 C 272.196 0.90655 3.3526 0
M  V30 2908 C 271.15 1.97675 3.79617 0
M  V30 2909 C 270.476 1.52943 5.1236 0
M  V30 2910 C 271.776 3.389 3.97422 0
M  V30 2911 H 273.47 2.14586 2.0879 0
M  V30 2912 H 271.016 1.03308 1.00317 0
M  V30 2913 H 272.969 0.821025 4.13324 0
M  V30 2914 H 271.693 -0.0682969 3.26529 0
M  V30 2915 H 270.352 2.05205 3.03787 0
M  V30 2916 H 270 0.54262 5.00065 0
M  V30 2917 H 269.7 2.24532 5.43009 0
M  V30 2918 H 271.224 1.45786 5.92941 0
M  V30 2919 H 272.638 3.34081 4.659 0
M  V30 2920 H 271.035 4.0865 4.3946 0
M  V30 2921 H 272.105 3.80163 3.01006 0
M  V30 2922 N 273.449 -1.08991 1.13837 0
M  V30 2923 C 274.359 -2.19301 0.833333 0
M  V30 2924 C 275.375 -1.73026 -0.183847 0
M  V30 2925 O 276.551 -2.01395 -0.0138092 0
M  V30 2926 C 273.616 -3.45323 0.308651 0
M  V30 2927 C 272.677 -4.06255 1.38764 0
M  V30 2928 C 271.91 -5.26262 0.887896 0
M  V30 2929 O 272.133 -5.69747 -0.27287 0
M  V30 2930 O 271.067 -5.78435 1.66421 0
M  V30 2931 H 274.893 -2.47854 1.75506 0
M  V30 2932 H 272.478 -1.18012 0.916166 0
M  V30 2933 H 274.36 -4.21394 0.0216739 0
M  V30 2934 H 273.035 -3.18362 -0.585431 0
M  V30 2935 H 271.942 -3.318 1.72799 0
M  V30 2936 H 273.275 -4.37452 2.25602 0
M  V30 2937 N 274.927 -0.932562 -1.27047 0
M  V30 2938 C 275.874 -0.434072 -2.26681 0
M  V30 2939 C 276.844 0.501639 -1.58344 0
M  V30 2940 O 278.029 0.419734 -1.86126 0
M  V30 2941 C 275.169 0.30261 -3.43771 0
M  V30 2942 C 274.282 -0.667774 -4.26808 0
M  V30 2943 C 273.417 0.0892393 -5.31125 0
M  V30 2944 C 272.456 -0.873532 -6.05835 0
M  V30 2945 N 271.593 -0.148832 -7.01942 0
M  V30 2946 H 276.433 -1.28868 -2.68695 0
M  V30 2947 H 273.97 -0.646713 -1.32121 0
M  V30 2948 H 275.928 0.746092 -4.10474 0
M  V30 2949 H 274.558 1.12142 -3.02695 0
M  V30 2950 H 273.61 -1.22978 -3.59973 0
M  V30 2951 H 274.922 -1.40337 -4.78651 0
M  V30 2952 H 274.076 0.592409 -6.03801 0
M  V30 2953 H 272.815 0.85777 -4.80097 0
M  V30 2954 H 271.82 -1.38791 -5.31994 0
M  V30 2955 H 273.045 -1.64193 -6.58952 0
M  V30 2956 H 270.991 0.601365 -6.53238 0
M  V30 2957 H 270.908 -0.82391 -7.51497 0
M  V30 2958 H 272.176 0.333527 -7.78786 0
M  V30 2959 N 276.405 1.4127 -0.698611 0
M  V30 2960 C 277.315 2.34573 -0.0357891 0
M  V30 2961 C 278.331 1.56393 0.762701 0
M  V30 2962 O 279.507 1.8886 0.699564 0
M  V30 2963 C 276.572 3.35159 0.887089 0
M  V30 2964 C 275.633 4.29225 0.0804634 0
M  V30 2965 C 274.866 5.25006 0.959387 0
M  V30 2966 O 275.089 5.26314 2.19886 0
M  V30 2967 O 274.023 6.00519 0.407439 0
M  V30 2968 H 277.849 2.92838 -0.804957 0
M  V30 2969 H 275.434 1.42175 -0.458966 0
M  V30 2970 H 277.316 3.9689 1.41621 0
M  V30 2971 H 275.991 2.79333 1.6357 0
M  V30 2972 H 274.898 3.70833 -0.493328 0
M  V30 2973 H 276.231 4.88157 -0.629547 0
M  V30 2974 N 277.883 0.443576 1.51229 0
M  V30 2975 C 278.813 -0.355142 2.30783 0
M  V30 2976 C 279.794 -1.0154 1.36468 0
M  V30 2977 O 280.979 -1.01785 1.65389 0
M  V30 2978 C 278.109 -1.45312 3.15439 0
M  V30 2979 C 277.063 -0.916002 4.18083 0
M  V30 2980 C 276.389 -2.1102 4.91299 0
M  V30 2981 C 277.689 0.0538602 5.22272 0
M  V30 2982 H 279.383 0.308767 2.97804 0
M  V30 2983 H 276.929 0.149937 1.43217 0
M  V30 2984 H 278.882 -2.01914 3.69876 0
M  V30 2985 H 277.606 -2.14541 2.46252 0
M  V30 2986 H 276.265 -0.372145 3.64706 0
M  V30 2987 H 275.913 -2.78882 4.18609 0
M  V30 2988 H 275.613 -1.75717 5.60712 0
M  V30 2989 H 277.137 -2.68164 5.48562 0
M  V30 2990 H 278.551 -0.422069 5.71744 0
M  V30 2991 H 276.948 0.319776 5.99247 0
M  V30 2992 H 278.018 0.98858 4.74716 0
M  V30 2993 N 279.361 -1.56624 0.175154 0
M  V30 2994 C 280.293 -2.15333 -0.785128 0
M  V30 2995 C 281.306 -1.1099 -1.19101 0
M  V30 2996 O 282.495 -1.38162 -1.13019 0
M  V30 2997 C 279.595 -2.68427 -2.06882 0
M  V30 2998 C 278.768 -3.97466 -1.8259 0
M  V30 2999 C 277.827 -4.35585 -2.95215 0
M  V30 3000 O 276.853 -5.03389 -2.65684 0
M  V30 3001 N 278.055 -3.97457 -4.23094 0
M  V30 3002 H 280.82 -2.98359 -0.283187 0
M  V30 3003 H 278.381 -1.61898 -0.00749817 0
M  V30 3004 H 280.373 -2.90924 -2.81328 0
M  V30 3005 H 278.943 -1.89968 -2.48256 0
M  V30 3006 H 278.163 -3.83307 -0.920287 0
M  V30 3007 H 279.451 -4.81736 -1.63733 0
M  V30 3008 H 278.849 -3.42878 -4.49945 0
M  V30 3009 H 277.406 -4.24947 -4.9423 0
M  V30 3010 N 280.839 0.0985539 -1.57292 0
M  V30 3011 C 282.116 0.834155 -1.76921 0
M  V30 3012 C 282.496 1.97101 -0.755928 0
M  V30 3013 O 281.844 2.27474 0.216245 0
M  V30 3014 C 282.054 1.33194 -3.22584 0
M  V30 3015 C 283.402 1.77611 -3.85668 0
M  V30 3016 O 284.426 1.42825 -3.26312 0
M  V30 3017 O 283.285 2.4192 -4.90038 0
M  V30 3018 H 280.379 0.397628 -0.725135 0
M  V30 3019 H 282.925 0.0807044 -1.69508 0
M  V30 3020 H 281.697 0.517248 -3.87866 0
M  V30 3021 H 281.32 2.1475 -3.34616 0
M  V30 3022 N 282.317 1.53212 0.369288 0
M  V30 3023 C 283.728 1.60943 0.946276 0
M  V30 3024 C 284.079 0.47452 1.90375 0
M  V30 3025 O 283.204 -0.399597 2.12679 0
M  V30 3026 C 283.799 2.91715 1.72302 0
M  V30 3027 C 282.358 3.01792 2.24941 0
M  V30 3028 C 281.505 2.56211 1.06072 0
M  V30 3029 H 284.456 1.58007 0.148198 0
M  V30 3030 H 284.477 2.79309 2.58393 0
M  V30 3031 H 283.989 3.74295 1.0259 0
M  V30 3032 H 282.09 2.23791 2.97906 0
M  V30 3033 H 282.203 4.06803 2.53077 0
M  V30 3034 H 280.567 2.10998 1.4266 0
M  V30 3035 H 281.35 3.41206 0.378639 0
M  V30 3036 N 283.795 -0.628877 1.44509 0
M  V30 3037 C 284.743 -1.76193 1.51852 0
M  V30 3038 C 285.737 -1.64849 0.390042 0
M  V30 3039 O 286.943 -1.709 0.565082 0
M  V30 3040 H 283.318 -0.581728 0.476547 0
M  V30 3041 H 285.289 -1.67123 2.47209 0
M  V30 3042 C 284.038 -3.14533 1.48204 0
M  V30 3043 H 283.361 -3.23911 2.34354 0
M  V30 3044 H 284.801 -3.93701 1.57402 0
M  V30 3045 C 283.26 -3.36287 0.203142 0
M  V30 3046 O 283.79 -3.9509 -0.725745 0
M  V30 3047 N 281.996 -2.90408 0.105563 0
M  V30 3048 H 281.543 -2.42739 0.862301 0
M  V30 3049 H 281.501 -3.05339 -0.749371 0
M  V30 3050 N 285.273 -1.31445 -0.869486 0
M  V30 3051 C 286.519 -1.21337 -1.62496 0
M  V30 3052 C 286.852 0.227872 -1.92858 0
M  V30 3053 O 286.127 1.16094 -1.56053 0
M  V30 3054 C 286.41 -2.05814 -2.95487 0
M  V30 3055 C 286.263 -3.5824 -2.72 0
M  V30 3056 C 287.582 -1.9079 -3.96594 0
M  V30 3057 H 284.701 -0.442135 -0.589649 0
M  V30 3058 H 287.343 -1.6124 -1.00507 0
M  V30 3059 H 285.493 -1.71913 -3.48394 0
M  V30 3060 H 287.165 -4.0228 -2.25762 0
M  V30 3061 H 285.408 -3.81647 -2.06224 0
M  V30 3062 H 286.079 -4.12657 -3.66631 0
M  V30 3063 H 288.555 -2.20459 -3.52898 0
M  V30 3064 H 287.431 -2.52199 -4.87531 0
M  V30 3065 H 287.692 -0.871341 -4.33428 0
M  V30 3066 N 286.751 1.08385 -1.14413 0
M  V30 3067 C 287.991 1.8238 -0.922868 0
M  V30 3068 C 288.355 1.84225 0.540842 0
M  V30 3069 O 289.556 2.53985 0.880058 0
M  V30 3070 C 287.827 3.24048 -1.50757 0
M  V30 3071 S 289.386 4.14917 -1.4279 0
M  V30 3072 H 286.204 0.628524 -0.332384 0
M  V30 3073 H 288.806 1.30278 -1.45766 0
M  V30 3074 H 287.51 3.20288 -2.56601 0
M  V30 3075 H 287.041 3.81224 -0.971178 0
M  V30 3076 H 289.056 4.94473 -0.413582 0
M  V30 3077 N 288.23 0.939286 1.26551 0
M  V30 3078 C 289.193 0.451987 2.24699 0
M  V30 3079 C 290.193 -0.435869 1.5478 0
M  V30 3080 O 291.383 -0.235314 1.72603 0
M  V30 3081 C 288.515 -0.348801 3.39111 0
M  V30 3082 H 289.708 1.3193 2.69322 0
M  V30 3083 H 287.261 0.721072 1.38673 0
M  V30 3084 H 287.996 -1.23444 2.99887 0
M  V30 3085 H 287.781 0.287945 3.91041 0
M  V30 3086 H 289.271 -0.679726 4.12031 0
M  V30 3087 N 289.708 -1.40897 0.706093 0
M  V30 3088 C 290.955 -2.01054 0.241531 0
M  V30 3089 C 291.283 -1.55956 -1.16223 0
M  V30 3090 O 290.538 -0.766336 -1.80072 0
M  V30 3091 C 290.837 -3.5646 0.259099 0
M  V30 3092 C 290.503 -4.21106 1.61184 0
M  V30 3093 C 289.165 -4.38479 1.98216 0
M  V30 3094 C 291.517 -4.57256 2.50132 0
M  V30 3095 C 288.845 -4.89282 3.2376 0
M  V30 3096 C 291.197 -5.09454 3.7502 0
M  V30 3097 C 289.861 -5.25037 4.12181 0
M  V30 3098 H 289.131 -0.73571 0.0883825 0
M  V30 3099 H 291.778 -1.68645 0.907257 0
M  V30 3100 H 290.083 -3.88721 -0.490189 0
M  V30 3101 H 291.78 -4.00826 -0.11804 0
M  V30 3102 H 288.37 -4.07966 1.31384 0
M  V30 3103 H 292.554 -4.43479 2.228 0
M  V30 3104 H 287.81 -4.99531 3.52532 0
M  V30 3105 H 291.984 -5.36404 4.44121 0
M  V30 3106 H 289.611 -5.64164 5.09532 0
M  V30 3107 N 291.186 -0.45159 -1.50991 0
M  V30 3108 C 292.435 0.111653 -2.01391 0
M  V30 3109 C 292.748 1.42529 -1.33959 0
M  V30 3110 O 293.954 2.07232 -1.75405 0
M  V30 3111 C 292.41 0.249514 -3.59034 0
M  V30 3112 C 292.018 -1.05453 -4.35412 0
M  V30 3113 C 293.762 0.765762 -4.17536 0
M  V30 3114 C 291.669 -0.881529 -5.84793 0
M  V30 3115 H 290.599 0.0455022 -0.752626 0
M  V30 3116 H 293.25 -0.583524 -1.73975 0
M  V30 3117 H 291.632 1.00803 -3.82955 0
M  V30 3118 H 292.806 -1.82248 -4.23229 0
M  V30 3119 H 291.121 -1.50039 -3.88429 0
M  V30 3120 H 293.718 0.911913 -5.26866 0
M  V30 3121 H 294.061 1.75201 -3.77638 0
M  V30 3122 H 294.594 0.0651744 -3.97747 0
M  V30 3123 H 291.333 -1.84057 -6.29129 0
M  V30 3124 H 290.853 -0.153625 -5.99603 0
M  V30 3125 H 292.532 -0.540363 -6.4474 0
M  V30 3126 N 292.664 1.56529 -0.183458 0
M  V30 3127 C 293.91 1.97537 0.459036 0
M  V30 3128 C 294.243 1.06989 1.62071 0
M  V30 3129 O 293.518 0.11948 1.94133 0
M  V30 3130 C 293.801 3.47874 0.930368 0
M  V30 3131 C 293.654 4.492 -0.232317 0
M  V30 3132 C 294.973 4.01612 1.79989 0
M  V30 3133 H 292.092 0.718204 0.165383 0
M  V30 3134 H 294.734 1.88042 -0.272038 0
M  V30 3135 H 292.884 3.56095 1.55333 0
M  V30 3136 H 294.556 4.53027 -0.86972 0
M  V30 3137 H 292.799 4.24657 -0.885928 0
M  V30 3138 H 293.47 5.51823 0.139796 0
M  V30 3139 H 295.946 3.96097 1.27461 0
M  V30 3140 H 294.822 5.07195 2.09867 0
M  V30 3141 H 295.083 3.46163 2.74998 0
M  V30 3142 N 294.142 -0.090211 1.57342 0
M  V30 3143 C 295.052 -1.12735 2.05738 0
M  V30 3144 C 296.068 -1.43557 0.983231 0
M  V30 3145 O 297.244 -1.54101 1.29672 0
M  V30 3146 C 294.309 -2.42659 2.47624 0
M  V30 3147 C 293.37 -2.18975 3.69254 0
M  V30 3148 C 292.603 -3.42704 4.09133 0
M  V30 3149 O 292.826 -4.51127 3.49057 0
M  V30 3150 O 291.76 -3.32003 5.02053 0
M  V30 3151 H 295.586 -0.746279 2.94388 0
M  V30 3152 H 293.171 -0.303064 1.46294 0
M  V30 3153 H 295.053 -3.19155 2.7517 0
M  V30 3154 H 293.728 -2.80182 1.62109 0
M  V30 3155 H 292.635 -1.40244 3.46818 0
M  V30 3156 H 293.968 -1.86342 4.55563 0
M  V30 3157 N 295.62 -1.53406 -0.361157 0
M  V30 3158 C 297.031 -1.61442 -0.937728 0
M  V30 3159 C 297.382 -0.48461 -1.90121 0
M  V30 3160 O 296.507 0.388312 -2.12888 0
M  V30 3161 C 297.102 -2.92624 -1.70753 0
M  V30 3162 C 295.661 -3.02981 -2.23337 0
M  V30 3163 C 294.808 -2.5677 -1.04712 0
M  V30 3164 H 297.759 -1.58083 -0.139816 0
M  V30 3165 H 297.78 -2.80675 -2.56908 0
M  V30 3166 H 297.292 -3.74834 -1.00604 0
M  V30 3167 H 295.393 -2.25368 -2.96715 0
M  V30 3168 H 295.506 -4.0814 -2.50916 0
M  V30 3169 H 293.87 -2.11752 -1.41539 0
M  V30 3170 H 294.653 -3.41402 -0.360539 0
M  V30 3171 N 297.098 0.621204 -1.44841 0
M  V30 3172 C 298.344 1.3826 -1.48365 0
M  V30 3173 C 298.677 1.93831 -0.119624 0
M  V30 3174 O 297.952 1.74251 0.864111 0
M  V30 3175 C 298.235 2.54058 -2.55199 0
M  V30 3176 C 298.088 2.03772 -4.00995 0
M  V30 3177 C 299.407 3.56225 -2.58442 0
M  V30 3178 H 296.526 0.501374 -0.540179 0
M  V30 3179 H 299.168 0.7015 -1.76576 0
M  V30 3180 H 297.318 3.12162 -2.31274 0
M  V30 3181 H 298.99 1.50423 -4.36086 0
M  V30 3182 H 297.233 1.34876 -4.12299 0
M  V30 3183 H 297.904 2.87185 -4.71411 0
M  V30 3184 H 300.38 3.07939 -2.79844 0
M  V30 3185 H 299.256 4.34756 -3.3508 0
M  V30 3186 H 299.517 4.10949 -1.63013 0
M  V30 3187 N 298.576 1.31904 0.862503 0
M  V30 3188 C 299.508 1.16005 1.97675 0
M  V30 3189 C 300.521 0.0971234 1.6251 0
M  V30 3190 O 301.71 0.345337 1.75128 0
M  V30 3191 C 298.81 0.751791 3.30456 0
M  V30 3192 C 297.983 1.90133 3.93914 0
M  V30 3193 C 297.042 1.4779 5.05019 0
M  V30 3194 O 296.068 2.18872 5.25437 0
M  V30 3195 N 297.27 0.369491 5.79323 0
M  V30 3196 H 300.035 2.11982 2.11857 0
M  V30 3197 H 297.596 1.24337 1.03691 0
M  V30 3198 H 299.588 0.451084 4.02178 0
M  V30 3199 H 298.158 -0.116593 3.12382 0
M  V30 3200 H 297.378 2.36896 3.15078 0
M  V30 3201 H 298.666 2.67111 4.33047 0
M  V30 3202 H 298.064 -0.222299 5.65263 0
M  V30 3203 H 296.621 0.128354 6.51674 0
M  V30 3204 N 300.054 -1.07777 1.14986 0
M  V30 3205 C 301.302 -1.79934 0.920235 0
M  V30 3206 C 301.623 -1.86955 -0.554336 0
M  V30 3207 O 300.893 -1.36731 -1.40291 0
M  V30 3208 H 299.473 -0.666424 0.337473 0
M  V30 3209 H 302.135 -1.3027 1.44968 0
M  V30 3210 H 301.231 -2.82539 1.32583 0
M  V30 3211 N 301.532 -0.945985 -1.26051 0
M  V30 3212 C 302.442 -0.465633 -2.29933 0
M  V30 3213 C 303.458 0.462761 -1.67733 0
M  V30 3214 O 304.634 0.341118 -1.9849 0
M  V30 3215 C 301.699 0.256994 -3.45746 0
M  V30 3216 C 300.76 -0.708549 -4.23412 0
M  V30 3217 C 299.993 -0.0203135 -5.33696 0
M  V30 3218 O 300.216 1.19571 -5.57726 0
M  V30 3219 O 299.15 -0.701459 -5.97799 0
M  V30 3220 H 302.976 -1.32866 -2.73094 0
M  V30 3221 H 300.561 -0.712071 -1.31339 0
M  V30 3222 H 302.443 0.663852 -4.16138 0
M  V30 3223 H 301.118 1.09533 -3.04605 0
M  V30 3224 H 300.025 -1.16545 -3.55483 0
M  V30 3225 H 301.358 -1.51465 -4.68315 0
M  V30 3226 N 303.011 1.40521 -0.713556 0
M  V30 3227 C 303.974 2.29098 -0.0684347 0
M  V30 3228 C 304.974 1.45268 0.689472 0
M  V30 3229 O 306.164 1.66205 0.521677 0
M  V30 3230 C 303.296 3.28446 0.913024 0
M  V30 3231 H 304.489 2.87645 -0.84855 0
M  V30 3232 H 302.042 1.48809 -0.47809 0
M  V30 3233 H 302.777 2.74913 1.72027 0
M  V30 3234 H 302.562 3.90327 0.372472 0
M  V30 3235 H 304.052 3.94777 1.36165 0
M  V30 3236 N 304.489 0.459591 1.5075 0
M  V30 3237 C 305.737 -0.0991532 2.01857 0
M  V30 3238 C 306.058 -1.41247 1.34441 0
M  V30 3239 O 305.328 -1.89775 0.486022 0
M  V30 3240 H 303.908 -0.039633 0.745948 0
M  V30 3241 H 306.57 0.607387 1.85194 0
M  V30 3242 H 305.666 -0.258998 3.11023 0
M  V30 3243 N 305.967 -1.56429 0.191757 0
M  V30 3244 C 307.213 -1.97777 -0.448554 0
M  V30 3245 C 307.546 -1.07847 -1.61501 0
M  V30 3246 O 306.821 -0.129774 -1.94067 0
M  V30 3247 C 307.104 -3.48362 -0.911906 0
M  V30 3248 C 306.957 -4.4907 0.256136 0
M  V30 3249 C 308.276 -4.02561 -1.77857 0
M  V30 3250 H 305.395 -0.719071 -0.161572 0
M  V30 3251 H 308.037 -1.87896 0.282007 0
M  V30 3252 H 306.187 -3.56914 -1.53442 0
M  V30 3253 H 307.859 -4.5256 0.893733 0
M  V30 3254 H 306.102 -4.24181 0.908436 0
M  V30 3255 H 306.773 -5.51889 -0.11053 0
M  V30 3256 H 309.249 -3.96767 -1.25359 0
M  V30 3257 H 308.125 -5.08301 -2.07174 0
M  V30 3258 H 308.386 -3.47616 -2.73158 0
M  V30 3259 N 307.445 0.0818655 -1.57387 0
M  V30 3260 C 308.694 0.781681 -1.85937 0
M  V30 3261 C 309.007 1.79246 -0.782957 0
M  V30 3262 O 310.213 2.54112 -0.955987 0
M  V30 3263 C 308.669 1.44109 -3.29789 0
M  V30 3264 C 308.277 0.469396 -4.45534 0
M  V30 3265 C 310.021 2.12386 -3.67549 0
M  V30 3266 C 307.928 1.13415 -5.80423 0
M  V30 3267 H 306.858 0.295682 -0.693605 0
M  V30 3268 H 309.509 0.0348051 -1.83467 0
M  V30 3269 H 307.891 2.23588 -3.2684 0
M  V30 3270 H 309.065 -0.294856 -4.59856 0
M  V30 3271 H 307.38 -0.108383 -4.16259 0
M  V30 3272 H 309.977 2.62878 -4.65617 0
M  V30 3273 H 310.32 2.91877 -2.96839 0
M  V30 3274 H 310.853 1.39751 -3.72444 0
M  V30 3275 H 307.592 0.379771 -6.54399 0
M  V30 3276 H 307.112 1.8695 -5.69921 0
M  V30 3277 H 308.791 1.65686 -6.25426 0
M  V30 3278 N 308.923 1.53595 0.353017 0
M  V30 3279 C 310.169 1.70638 1.09593 0
M  V30 3280 C 310.502 0.463286 1.88593 0
M  V30 3281 O 309.777 -0.539597 1.86865 0
M  V30 3282 C 310.06 2.96406 2.04489 0
M  V30 3283 C 309.913 4.30901 1.29014 0
M  V30 3284 C 311.232 3.17812 3.0444 0
M  V30 3285 H 308.351 0.620913 0.397034 0
M  V30 3286 H 310.993 1.86254 0.375446 0
M  V30 3287 H 309.143 2.83223 2.65927 0
M  V30 3288 H 310.815 4.55917 0.702638 0
M  V30 3289 H 309.058 4.29741 0.592071 0
M  V30 3290 H 309.729 5.1506 1.98537 0
M  V30 3291 H 312.205 3.30263 2.53112 0
M  V30 3292 H 311.081 4.07223 3.6805 0
M  V30 3293 H 311.342 2.33669 3.75301 0
M  V30 3294 N 310.401 -0.613514 1.45168 0
M  V30 3295 C 311.812 -1.19539 1.43413 0
M  V30 3296 C 312.163 -1.95558 0.158632 0
M  V30 3297 O 311.288 -2.0335 -0.740119 0
M  V30 3298 C 311.883 -2.17445 2.59813 0
M  V30 3299 C 310.442 -2.71022 2.61197 0
M  V30 3300 C 309.589 -1.46323 2.35552 0
M  V30 3301 H 312.54 -0.403163 1.53494 0
M  V30 3302 H 312.561 -3.00373 2.33574 0
M  V30 3303 H 312.073 -1.62089 3.52631 0
M  V30 3304 H 310.174 -3.30332 1.7237 0
M  V30 3305 H 310.287 -3.15859 3.60236 0
M  V30 3306 H 308.651 -1.75072 1.84992 0
M  V30 3307 H 309.434 -0.92844 3.30507 0
M  V30 3308 N 311.879 -1.3236 -0.855495 0
M  V30 3309 C 313.104 -1.2601 -1.64731 0
M  V30 3310 C 313.529 0.169068 -1.87339 0
M  V30 3311 O 312.887 1.12016 -1.42556 0
M  V30 3312 C 312.935 -2.02417 -2.98429 0
M  V30 3313 O 312.039 -1.3714 -3.8893 0
M  V30 3314 H 311.38 -0.434325 -0.502253 0
M  V30 3315 H 313.91 -1.74661 -1.06558 0
M  V30 3316 H 313.92 -2.12559 -3.48257 0
M  V30 3317 H 312.595 -3.06343 -2.81295 0
M  V30 3318 H 311.172 -1.3554 -3.47395 0
M  V30 3319 N 313.357 1.07166 -1.15556 0
M  V30 3320 C 314.634 1.76546 -0.842069 0
M  V30 3321 C 315.014 2.00453 0.661939 0
M  V30 3322 O 314.362 1.62452 1.60691 0
M  V30 3323 C 314.572 3.07266 -1.65495 0
M  V30 3324 C 315.92 3.81578 -1.86234 0
M  V30 3325 O 316.944 3.17083 -1.62287 0
M  V30 3326 O 315.803 4.97419 -2.26355 0
M  V30 3327 H 312.897 0.766756 -0.309862 0
M  V30 3328 H 315.443 1.13514 -1.26145 0
M  V30 3329 H 314.215 2.85494 -2.67598 0
M  V30 3330 H 313.838 3.7803 -1.23203 0
M  V30 3331 N 314.835 0.952656 1.25548 0
M  V30 3332 C 316.06 0.623025 1.97821 0
M  V30 3333 C 316.485 -0.7976 1.70352 0
M  V30 3334 O 315.843 -1.53905 0.958283 0
M  V30 3335 C 315.891 0.885532 3.49558 0
M  V30 3336 O 314.995 -0.0366641 4.12384 0
M  V30 3337 H 314.336 0.237082 0.620232 0
M  V30 3338 H 316.866 1.27871 1.59719 0
M  V30 3339 H 316.876 0.811009 3.99858 0
M  V30 3340 H 315.551 1.92094 3.6888 0
M  V30 3341 H 314.128 0.0898954 3.72792 0
M  V30 3342 N 316.313 -1.40141 0.720998 0
M  V30 3343 C 317.543 -2.04798 0.27226 0
M  V30 3344 C 317.951 -1.54442 -1.09289 0
M  V30 3345 O 317.294 -0.698342 -1.69908 0
M  V30 3346 C 317.356 -3.59048 0.18027 0
M  V30 3347 C 317.02 -4.32317 1.48159 0
M  V30 3348 C 318.017 -4.59902 2.42458 0
M  V30 3349 C 315.702 -4.71125 1.74202 0
M  V30 3350 C 317.696 -5.25288 3.61042 0
M  V30 3351 C 315.383 -5.36242 2.93066 0
M  V30 3352 C 316.381 -5.63254 3.86308 0
M  V30 3353 O 316.069 -6.27024 5.03086 0
M  V30 3354 H 315.801 -0.665419 0.119139 0
M  V30 3355 H 318.355 -1.80436 0.981432 0
M  V30 3356 H 316.585 -3.82251 -0.58489 0
M  V30 3357 H 318.274 -4.05221 -0.234618 0
M  V30 3358 H 319.04 -4.30379 2.23604 0
M  V30 3359 H 314.919 -4.49466 1.02477 0
M  V30 3360 H 318.463 -5.46289 4.33837 0
M  V30 3361 H 314.36 -5.65185 3.11826 0
M  V30 3362 H 315.128 -6.4552 5.03235 0
M  V30 3363 N 317.792 -0.46758 -1.50504 0
M  V30 3364 C 319.039 0.0886219 -2.02306 0
M  V30 3365 C 319.367 1.40037 -1.34981 0
M  V30 3366 O 318.622 1.90136 -0.463318 0
M  V30 3367 C 318.921 0.323995 -3.55928 0
M  V30 3368 C 318.587 -0.905618 -4.41712 0
M  V30 3369 C 317.249 -1.24275 -4.64875 0
M  V30 3370 C 319.601 -1.72448 -4.91845 0
M  V30 3371 C 316.929 -2.39888 -5.35417 0
M  V30 3372 C 319.281 -2.87185 -5.63656 0
M  V30 3373 C 317.945 -3.21317 -5.85074 0
M  V30 3374 H 317.215 0.0324291 -0.74029 0
M  V30 3375 H 319.862 -0.620945 -1.81153 0
M  V30 3376 H 318.167 1.11577 -3.75577 0
M  V30 3377 H 319.864 0.76826 -3.93572 0
M  V30 3378 H 316.454 -0.632956 -4.239 0
M  V30 3379 H 320.638 -1.4772 -4.73806 0
M  V30 3380 H 315.894 -2.66611 -5.50208 0
M  V30 3381 H 320.068 -3.50985 -6.01484 0
M  V30 3382 H 317.695 -4.1101 -6.39511 0
M  V30 3383 N 319.27 1.56325 -0.20005 0
M  V30 3384 C 320.681 1.8408 0.31167 0
M  V30 3385 C 321.032 1.12087 1.61031 0
M  V30 3386 O 320.157 0.38332 2.12978 0
M  V30 3387 C 320.752 3.33932 0.57226 0
M  V30 3388 C 319.311 3.6208 1.02834 0
M  V30 3389 C 318.458 2.77186 0.079634 0
M  V30 3390 H 321.409 1.52939 -0.423729 0
M  V30 3391 H 321.43 3.52971 1.42096 0
M  V30 3392 H 320.942 3.86303 -0.37308 0
M  V30 3393 H 319.043 3.15147 1.98778 0
M  V30 3394 H 319.156 4.7023 0.917624 0
M  V30 3395 H 317.52 2.47951 0.582448 0
M  V30 3396 H 318.303 3.32347 -0.860238 0
M  V30 3397 N 320.748 -0.0735177 1.57428 0
M  V30 3398 C 321.996 -0.771472 1.86796 0
M  V30 3399 C 322.317 -1.78201 0.791804 0
M  V30 3400 O 321.587 -1.95074 -0.179718 0
M  V30 3401 H 320.167 -0.28791 0.689287 0
M  V30 3402 H 322.829 -0.0500161 1.94836 0
M  V30 3403 H 321.925 -1.28874 2.8425 0
M  V30 3404 N 322.226 -1.5378 -0.344866 0
M  V30 3405 C 323.472 -1.71216 -1.08687 0
M  V30 3406 C 323.805 -0.473281 -1.88345 0
M  V30 3407 O 323.08 0.52968 -1.87149 0
M  V30 3408 C 323.363 -2.97486 -2.02914 0
M  V30 3409 C 323.216 -4.31579 -1.26727 0
M  V30 3410 C 324.535 -3.19422 -3.0275 0
M  V30 3411 H 321.654 -0.62301 -0.393735 0
M  V30 3412 H 324.296 -1.8645 -0.365563 0
M  V30 3413 H 322.446 -2.84629 -2.64421 0
M  V30 3414 H 324.118 -4.56284 -0.67845 0
M  V30 3415 H 322.361 -4.30049 -0.569273 0
M  V30 3416 H 323.032 -5.16106 -1.95803 0
M  V30 3417 H 325.508 -3.316 -2.51357 0
M  V30 3418 H 324.384 -4.09169 -3.65885 0
M  V30 3419 H 324.645 -2.35656 -3.74057 0
M  V30 3420 N 323.704 0.605807 -1.45491 0
M  V30 3421 C 324.667 1.69836 -1.5391 0
M  V30 3422 C 325.667 1.55261 -0.418424 0
M  V30 3423 O 326.857 1.60296 -0.681965 0
M  V30 3424 C 323.989 3.09117 -1.43734 0
M  V30 3425 H 325.182 1.63738 -2.51257 0
M  V30 3426 H 322.735 0.821689 -1.32959 0
M  V30 3427 H 323.47 3.20791 -0.475788 0
M  V30 3428 H 323.255 3.21104 -2.25021 0
M  V30 3429 H 324.745 3.88696 -1.52661 0
M  V30 3430 N 325.182 1.32811 0.848464 0
M  V30 3431 C 326.407 1.26882 1.6406 0
M  V30 3432 C 326.832 -0.15913 1.87426 0
M  V30 3433 O 326.19 -1.11258 1.43148 0
M  V30 3434 C 326.238 2.03997 2.97351 0
M  V30 3435 O 325.342 1.39201 3.88197 0
M  V30 3436 H 324.683 0.436982 0.499943 0
M  V30 3437 H 327.213 1.75224 1.0563 0
M  V30 3438 H 327.223 2.14403 3.47124 0
M  V30 3439 H 325.898 3.0783 2.79666 0
M  V30 3440 H 324.475 1.37381 3.46671 0
M  V30 3441 N 326.66 -1.06551 1.16123 0
M  V30 3442 C 327.59 -2.15935 0.88851 0
M  V30 3443 C 328.571 -1.69306 -0.164135 0
M  V30 3444 O 329.756 -1.94193 -0.0167857 0
M  V30 3445 C 326.886 -3.45149 0.385942 0
M  V30 3446 C 325.84 -4.05271 1.3762 0
M  V30 3447 C 325.166 -5.29664 0.732137 0
M  V30 3448 C 326.466 -4.44355 2.74493 0
M  V30 3449 H 328.16 -2.39006 1.80323 0
M  V30 3450 H 325.706 -1.14866 0.868435 0
M  V30 3451 H 327.659 -4.21004 0.182647 0
M  V30 3452 H 326.383 -3.21689 -0.564274 0
M  V30 3453 H 325.042 -3.3147 1.56599 0
M  V30 3454 H 324.69 -5.02499 -0.224483 0
M  V30 3455 H 324.39 -5.70848 1.39307 0
M  V30 3456 H 325.914 -6.08218 0.538802 0
M  V30 3457 H 327.328 -5.11303 2.59311 0
M  V30 3458 H 325.725 -4.96515 3.37035 0
M  V30 3459 H 326.795 -3.55339 3.29943 0
M  V30 3460 N 328.138 -0.959301 -1.25041 0
M  V30 3461 C 329.378 -0.624343 -1.94631 0
M  V30 3462 C 329.742 0.82403 -1.73418 0
M  V30 3463 O 330.943 1.26881 -2.3697 0
M  V30 3464 C 329.214 -0.978805 -3.43736 0
M  V30 3465 S 330.773 -0.757127 -4.32219 0
M  V30 3466 H 327.591 -0.229327 -0.673001 0
M  V30 3467 H 330.193 -1.23447 -1.51595 0
M  V30 3468 H 328.897 -2.02997 -3.56679 0
M  V30 3469 H 328.428 -0.359117 -3.91757 0
M  V30 3470 H 330.443 0.369759 -4.9482 0
M  V30 3471 N 329.616 1.39756 -0.72842 0
M  V30 3472 C 330.563 2.30647 -0.0841519 0
M  V30 3473 C 331.533 1.48869 0.7367 0
M  V30 3474 O 332.718 1.77574 0.698015 0
M  V30 3475 C 329.858 3.35165 0.822091 0
M  V30 3476 C 328.971 4.31999 -0.0106663 0
M  V30 3477 C 328.106 5.23585 0.896241 0
M  V30 3478 C 327.145 6.12072 0.0583381 0
M  V30 3479 N 326.282 6.96035 0.920818 0
M  V30 3480 H 331.122 2.85173 -0.864891 0
M  V30 3481 H 328.659 1.40422 -0.438179 0
M  V30 3482 H 330.617 3.94345 1.36189 0
M  V30 3483 H 329.247 2.8211 1.56888 0
M  V30 3484 H 328.299 3.74492 -0.66781 0
M  V30 3485 H 329.611 4.9443 -0.658825 0
M  V30 3486 H 328.765 5.87759 1.50412 0
M  V30 3487 H 327.504 4.61459 1.57819 0
M  V30 3488 H 326.509 5.46916 -0.562389 0
M  V30 3489 H 327.734 6.76261 -0.6203 0
M  V30 3490 H 325.68 6.36485 1.58818 0
M  V30 3491 H 325.597 7.55284 0.32899 0
M  V30 3492 H 326.865 7.64646 1.51447 0
M  V30 3493 N 331.094 0.475555 1.50254 0
M  V30 3494 C 332.041 -0.316293 2.28622 0
M  V30 3495 C 333.011 -0.983227 1.33873 0
M  V30 3496 O 334.196 -0.994805 1.62814 0
M  V30 3497 C 331.336 -1.38975 3.1588 0
M  V30 3498 C 330.449 -0.737146 4.25664 0
M  V30 3499 C 329.584 -1.78887 5.00173 0
M  V30 3500 C 328.623 -1.11676 6.01826 0
M  V30 3501 N 327.76 -2.11154 6.69596 0
M  V30 3502 H 332.6 0.358297 2.95838 0
M  V30 3503 H 330.137 0.188541 1.45887 0
M  V30 3504 H 332.095 -2.02383 3.64825 0
M  V30 3505 H 330.725 -2.03344 2.50701 0
M  V30 3506 H 329.777 0.0096065 3.80399 0
M  V30 3507 H 331.089 -0.206816 4.98371 0
M  V30 3508 H 330.243 -2.49865 5.52859 0
M  V30 3509 H 328.982 -2.35302 4.27182 0
M  V30 3510 H 327.987 -0.392633 5.48396 0
M  V30 3511 H 329.212 -0.55945 6.76792 0
M  V30 3512 H 327.158 -2.66577 5.99394 0
M  V30 3513 H 327.075 -1.63118 7.38193 0
M  V30 3514 H 328.343 -2.81497 7.26897 0
M  V30 3515 N 332.573 -1.56217 0.208337 0
M  V30 3516 C 333.803 -2.02043 -0.431523 0
M  V30 3517 C 334.211 -1.08755 -1.54819 0
M  V30 3518 O 333.554 -0.0870009 -1.83494 0
M  V30 3519 C 333.616 -3.44239 -1.03633 0
M  V30 3520 C 333.28 -4.56965 -0.0567502 0
M  V30 3521 C 334.277 -5.14624 0.738773 0
M  V30 3522 C 331.962 -5.02266 0.0581736 0
M  V30 3523 C 333.956 -6.16045 1.63605 0
M  V30 3524 C 331.643 -6.03528 0.959001 0
M  V30 3525 C 332.641 -6.60293 1.7465 0
M  V30 3526 O 332.329 -7.59586 2.6322 0
M  V30 3527 H 332.061 -0.666772 -0.111313 0
M  V30 3528 H 334.615 -2.02919 0.318277 0
M  V30 3529 H 332.845 -3.40391 -1.83497 0
M  V30 3530 H 334.534 -3.73793 -1.58221 0
M  V30 3531 H 335.3 -4.80483 0.660364 0
M  V30 3532 H 331.179 -4.57771 -0.544633 0
M  V30 3533 H 334.723 -6.60279 2.25116 0
M  V30 3534 H 330.62 -6.37092 1.03848 0
M  V30 3535 H 331.388 -7.77057 2.57148 0
M  V30 3536 N 334.051 0.0651679 -1.57465 0
M  V30 3537 C 334.999 1.09542 -2.05191 0
M  V30 3538 C 335.993 1.39675 -0.958509 0
M  V30 3539 O 337.199 1.39003 -1.14359 0
M  V30 3540 H 333.574 0.370623 -0.654326 0
M  V30 3541 H 335.545 0.666802 -2.90854 0
M  V30 3542 C 334.294 2.39881 -2.51699 0
M  V30 3543 H 333.617 2.17547 -3.3543 0
M  V30 3544 H 335.057 3.104 -2.88839 0
M  V30 3545 C 333.516 3.0631 -1.40271 0
M  V30 3546 O 334.046 3.94664 -0.748523 0
M  V30 3547 N 332.252 2.67041 -1.14618 0
M  V30 3548 H 331.799 1.95281 -1.67997 0
M  V30 3549 H 331.757 3.1181 -0.402688 0
M  V30 3550 N 335.529 1.53961 0.336706 0
M  V30 3551 C 336.775 1.7179 1.07777 0
M  V30 3552 C 337.108 0.483263 1.88091 0
M  V30 3553 O 336.383 -0.519747 1.87427 0
M  V30 3554 C 336.666 2.98558 2.01334 0
M  V30 3555 C 336.519 4.32245 1.24437 0
M  V30 3556 C 337.838 3.21023 3.01052 0
M  V30 3557 H 334.957 0.625089 0.390426 0
M  V30 3558 H 337.599 1.86641 0.35567 0
M  V30 3559 H 335.749 2.86028 2.62908 0
M  V30 3560 H 337.421 4.56637 0.654243 0
M  V30 3561 H 335.664 4.30344 0.546458 0
M  V30 3562 H 336.335 5.17137 1.93063 0
M  V30 3563 H 338.811 3.32929 2.49595 0
M  V30 3564 H 337.687 4.11104 3.6371 0
M  V30 3565 H 337.948 2.37637 3.72802 0
M  V30 3566 N 337.007 -0.598083 1.45811 0
M  V30 3567 C 337.937 -1.71873 1.58057 0
M  V30 3568 C 338.918 -1.64533 0.431615 0
M  V30 3569 O 340.103 -1.82787 0.65595 0
M  V30 3570 C 337.233 -3.10495 1.55597 0
M  V30 3571 C 336.187 -3.32654 2.69305 0
M  V30 3572 C 335.513 -4.71646 2.51902 0
M  V30 3573 C 336.813 -3.21981 4.11248 0
M  V30 3574 H 338.507 -1.61881 2.51863 0
M  V30 3575 H 336.053 -0.777372 1.21214 0
M  V30 3576 H 338.006 -3.88699 1.6276 0
M  V30 3577 H 336.73 -3.2135 0.583255 0
M  V30 3578 H 335.389 -2.56843 2.61586 0
M  V30 3579 H 335.037 -4.79246 1.52748 0
M  V30 3580 H 334.737 -4.87426 3.2816 0
M  V30 3581 H 336.261 -5.52038 2.60933 0
M  V30 3582 H 337.675 -3.90049 4.20161 0
M  V30 3583 H 336.072 -3.49289 4.87972 0
M  V30 3584 H 337.142 -2.1928 4.32486 0
M  V30 3585 N 338.485 -1.33259 -0.841409 0
M  V30 3586 C 339.732 -1.24572 -1.5965 0
M  V30 3587 C 340.06 0.189137 -1.93578 0
M  V30 3588 O 339.315 1.14566 -1.5866 0
M  V30 3589 C 339.614 -2.06381 -2.9179 0
M  V30 3590 C 339.28 -3.556 -2.77235 0
M  V30 3591 C 337.942 -3.96282 -2.72973 0
M  V30 3592 C 340.294 -4.50433 -2.62221 0
M  V30 3593 C 337.622 -5.30017 -2.51592 0
M  V30 3594 C 339.974 -5.84327 -2.42374 0
M  V30 3595 C 338.638 -6.24194 -2.36512 0
M  V30 3596 H 337.908 -0.455842 -0.5842 0
M  V30 3597 H 340.555 -1.6482 -0.975016 0
M  V30 3598 H 338.86 -1.58903 -3.5813 0
M  V30 3599 H 340.557 -1.97019 -3.49263 0
M  V30 3600 H 337.147 -3.23298 -2.81384 0
M  V30 3601 H 341.331 -4.19914 -2.64549 0
M  V30 3602 H 336.587 -5.59947 -2.45499 0
M  V30 3603 H 340.761 -6.57414 -2.29739 0
M  V30 3604 H 338.388 -7.27759 -2.19706 0
M  V30 3605 N 339.963 1.05934 -1.16686 0
M  V30 3606 C 341.209 1.79065 -0.95203 0
M  V30 3607 C 341.542 1.87147 0.518629 0
M  V30 3608 O 340.817 1.36574 1.38484 0
M  V30 3609 C 341.1 3.23359 -1.58464 0
M  V30 3610 C 340.953 3.23336 -3.12689 0
M  V30 3611 C 342.272 4.21004 -1.28232 0
M  V30 3612 H 339.391 0.65005 -0.34728 0
M  V30 3613 H 342.033 1.23868 -1.44072 0
M  V30 3614 H 340.183 3.70493 -1.16908 0
M  V30 3615 H 341.855 2.84336 -3.6325 0
M  V30 3616 H 340.098 2.61886 -3.4583 0
M  V30 3617 H 340.769 4.25144 -3.52075 0
M  V30 3618 H 343.245 3.8233 -1.64203 0
M  V30 3619 H 342.121 5.20225 -1.75092 0
M  V30 3620 H 342.382 4.41639 -0.201791 0
M  V30 3621 N 341.441 0.965919 1.2453 0
M  V30 3622 C 342.404 0.499547 2.2369 0
M  V30 3623 C 343.404 -0.40294 1.5567 0
M  V30 3624 O 344.594 -0.19865 1.73064 0
M  V30 3625 C 341.726 -0.276792 3.39774 0
M  V30 3626 H 342.919 1.37613 2.66463 0
M  V30 3627 H 340.472 0.750324 1.37112 0
M  V30 3628 H 341.207 -1.17055 3.02438 0
M  V30 3629 H 340.992 0.370826 3.90343 0
M  V30 3630 H 342.482 -0.592175 4.1338 0
M  V30 3631 N 342.919 -1.39368 0.735821 0
M  V30 3632 C 344.196 -1.94465 0.210395 0
M  V30 3633 C 344.576 -1.67254 -1.28799 0
M  V30 3634 O 343.924 -1.00123 -2.05396 0
M  V30 3635 C 344.134 -3.4472 0.544897 0
M  V30 3636 C 345.482 -4.21708 0.494689 0
M  V30 3637 O 346.506 -3.52922 0.482136 0
M  V30 3638 O 345.365 -5.44299 0.489947 0
M  V30 3639 H 342.459 -0.826096 0.0386666 0
M  V30 3640 H 345.005 -1.48863 0.814735 0
M  V30 3641 H 343.777 -3.57963 1.58045 0
M  V30 3642 H 343.4 -3.97502 -0.08837 0
M  V30 3643 N 344.397 -0.483516 -1.5 0
M  V30 3644 C 345.307 0.309172 -2.32554 0
M  V30 3645 C 346.323 0.984159 -1.43493 0
M  V30 3646 O 347.499 0.969399 -1.76535 0
M  V30 3647 C 344.564 1.36979 -3.18493 0
M  V30 3648 C 343.625 0.710095 -4.23387 0
M  V30 3649 C 342.858 1.72018 -5.05218 0
M  V30 3650 O 343.081 2.94813 -4.88305 0
M  V30 3651 O 342.015 1.28515 -5.8802 0
M  V30 3652 H 345.841 -0.366064 -3.01486 0
M  V30 3653 H 343.426 -0.24514 -1.47375 0
M  V30 3654 H 345.308 1.98385 -3.71781 0
M  V30 3655 H 343.983 2.02828 -2.52275 0
M  V30 3656 H 342.89 0.0567539 -3.74057 0
M  V30 3657 H 344.223 0.0943557 -4.9211 0
M  V30 3658 N 345.875 1.56104 -0.216619 0
M  V30 3659 C 347.121 1.98466 0.417033 0
M  V30 3660 C 347.454 1.10403 1.59765 0
M  V30 3661 O 346.729 0.160632 1.93836 0
M  V30 3662 C 347.012 3.49769 0.85637 0
M  V30 3663 C 346.865 4.48606 -0.327546 0
M  V30 3664 C 348.184 4.05339 1.7143 0
M  V30 3665 H 345.303 0.721551 0.150112 0
M  V30 3666 H 347.945 1.87423 -0.311864 0
M  V30 3667 H 346.095 3.5931 1.47745 0
M  V30 3668 H 347.767 4.5108 -0.965618 0
M  V30 3669 H 346.01 4.22682 -0.975805 0
M  V30 3670 H 346.681 5.51995 0.0227149 0
M  V30 3671 H 349.157 3.98712 1.19031 0
M  V30 3672 H 348.033 5.11533 1.99061 0
M  V30 3673 H 348.294 3.51918 2.67593 0
M  V30 3674 N 347.353 -0.0568162 1.57498 0
M  V30 3675 C 348.285 -1.09292 2.01464 0
M  V30 3676 C 349.298 -1.34112 0.922913 0
M  V30 3677 O 350.487 -1.32089 1.20062 0
M  V30 3678 C 347.587 -2.44068 2.35125 0
M  V30 3679 C 346.76 -2.38995 3.66333 0
M  V30 3680 C 345.819 -3.55997 3.87495 0
M  V30 3681 O 344.845 -3.36746 4.58901 0
M  V30 3682 N 346.047 -4.76888 3.30996 0
M  V30 3683 H 348.812 -0.718386 2.90963 0
M  V30 3684 H 346.373 -0.245235 1.60032 0
M  V30 3685 H 348.365 -3.21011 2.46443 0
M  V30 3686 H 346.935 -2.73468 1.5144 0
M  V30 3687 H 346.155 -1.47336 3.65631 0
M  V30 3688 H 347.443 -2.3272 4.52458 0
M  V30 3689 H 346.841 -4.95431 2.73065 0
M  V30 3690 H 345.398 -5.51291 3.47738 0
M  V30 3691 N 348.832 -1.54138 -0.328536 0
M  V30 3692 C 350.06 -1.76062 -1.08673 0
M  V30 3693 C 350.475 -0.506852 -1.81869 0
M  V30 3694 O 349.832 0.522223 -1.74869 0
M  V30 3695 C 349.883 -2.95054 -2.08866 0
M  V30 3696 O 349.604 -4.15583 -1.38644 0
M  V30 3697 C 351.105 -3.2915 -2.96943 0
M  V30 3698 H 348.325 -0.587889 -0.323461 0
M  V30 3699 H 350.869 -2.0101 -0.376175 0
M  V30 3700 H 349.024 -2.72394 -2.75464 0
M  V30 3701 H 349.438 -4.82481 -2.05699 0
M  V30 3702 H 350.912 -4.15723 -3.63151 0
M  V30 3703 H 351.389 -2.461 -3.63774 0
M  V30 3704 H 351.995 -3.53871 -2.35914 0
M  V30 3705 N 350.31 0.590341 -1.46126 0
M  V30 3706 C 351.558 1.34616 -1.50742 0
M  V30 3707 C 351.879 1.94363 -0.157486 0
M  V30 3708 O 351.149 1.78136 0.815136 0
M  V30 3709 H 349.729 0.499789 -0.555175 0
M  V30 3710 H 352.391 0.691953 -1.82203 0
M  V30 3711 H 351.487 2.15678 -2.25587 0
M  V30 3712 N 351.788 1.33704 0.83433 0
M  V30 3713 C 352.718 1.26967 1.95963 0
M  V30 3714 C 353.699 0.149337 1.69443 0
M  V30 3715 O 354.884 0.339852 1.91203 0
M  V30 3716 C 352.014 1.01275 3.32206 0
M  V30 3717 C 350.968 2.09652 3.73136 0
M  V30 3718 C 350.294 1.69166 5.07235 0
M  V30 3719 C 351.594 3.51372 3.86439 0
M  V30 3720 H 353.288 2.2112 2.01857 0
M  V30 3721 H 350.834 1.06447 0.969793 0
M  V30 3722 H 352.787 0.952106 4.10503 0
M  V30 3723 H 351.511 0.0356203 3.26581 0
M  V30 3724 H 350.17 2.14766 2.97104 0
M  V30 3725 H 349.818 0.701437 4.98085 0
M  V30 3726 H 349.518 2.41694 5.35591 0
M  V30 3727 H 351.042 1.64576 5.88003 0
M  V30 3728 H 352.456 3.48734 4.55036 0
M  V30 3729 H 350.853 4.22425 4.26236 0
M  V30 3730 H 351.923 3.89546 2.88759 0
M  V30 3731 N 353.266 -1.05314 1.17247 0
M  V30 3732 C 354.514 -1.77941 0.958194 0
M  V30 3733 C 354.835 -1.88089 -0.514556 0
M  V30 3734 O 354.105 -1.39676 -1.37359 0
M  V30 3735 H 352.685 -0.659116 0.351533 0
M  V30 3736 H 355.347 -1.27166 1.47699 0
M  V30 3737 H 354.443 -2.79663 1.38546 0
M  V30 3738 N 354.744 -0.972509 -1.24016 0
M  V30 3739 C 356.16 -0.679827 -1.44397 0
M  V30 3740 C 356.36 0.756716 -1.86751 0
M  V30 3741 O 355.416 1.53007 -2.00861 0
M  V30 3742 C 356.729 -1.66803 -2.50195 0
M  V30 3743 C 358.277 -1.68119 -2.64017 0
M  V30 3744 C 358.752 -2.65748 -3.73017 0
M  V30 3745 N 360.243 -2.64219 -3.8045 0
M  V30 3746 C 360.978 -3.36433 -4.64328 0
M  V30 3747 N 360.474 -4.1818 -5.52356 0
M  V30 3748 N 362.267 -3.25235 -4.58453 0
M  V30 3749 H 354.418 -1.90059 -0.948228 0
M  V30 3750 H 356.681 -0.818527 -0.478245 0
M  V30 3751 H 356.387 -2.69498 -2.25973 0
M  V30 3752 H 356.261 -1.4446 -3.48441 0
M  V30 3753 H 358.648 -0.661319 -2.87594 0
M  V30 3754 H 358.729 -1.94525 -1.66113 0
M  V30 3755 H 358.373 -3.67872 -3.50189 0
M  V30 3756 H 358.303 -2.36619 -4.70446 0
M  V30 3757 H 360.794 -2.04887 -3.17537 0
M  V30 3758 H 361.107 -4.70157 -6.13329 0
M  V30 3759 H 359.452 -4.22273 -5.52006 0
M  V30 3760 H 362.643 -2.60829 -3.88698 0
M  V30 3761 H 362.816 -3.81776 -5.23594 0
M  V30 3762 N 356.222 1.38976 -0.743202 0
M  V30 3763 C 357.45 2.04636 -0.30525 0
M  V30 3764 C 357.865 1.56044 1.06281 0
M  V30 3765 O 357.222 0.728921 1.67311 0
M  V30 3766 C 357.273 3.60193 -0.307177 0
M  V30 3767 O 356.994 4.06998 -1.62124 0
M  V30 3768 C 358.495 4.4306 0.145928 0
M  V30 3769 H 355.715 0.65788 -0.132041 0
M  V30 3770 H 358.259 1.77866 -1.00915 0
M  V30 3771 H 356.414 3.85835 0.347898 0
M  V30 3772 H 356.828 5.01371 -1.54036 0
M  V30 3773 H 358.302 5.51921 0.0934183 0
M  V30 3774 H 358.779 4.22706 1.19231 0
M  V30 3775 H 359.385 4.22584 -0.479886 0
M  V30 3776 N 357.7 0.491464 1.49741 0
M  V30 3777 C 358.948 -0.0563141 2.02022 0
M  V30 3778 C 359.269 -1.38363 1.37407 0
M  V30 3779 O 358.539 -1.88702 0.526166 0
M  V30 3780 H 357.119 -0.0238014 0.746621 0
M  V30 3781 H 359.781 0.646533 1.83864 0
M  V30 3782 H 358.877 -0.192967 3.11503 0
M  V30 3783 N 359.178 -1.55987 0.224894 0
M  V30 3784 C 360.125 -2.20436 -0.68385 0
M  V30 3785 C 361.095 -1.16102 -1.18783 0
M  V30 3786 O 362.28 -1.4447 -1.24632 0
M  V30 3787 C 359.42 -2.89076 -1.88491 0
M  V30 3788 C 358.533 -4.08012 -1.41951 0
M  V30 3789 C 357.668 -4.64426 -2.5784 0
M  V30 3790 C 356.707 -5.75656 -2.08053 0
M  V30 3791 N 355.844 -6.26347 -3.17227 0
M  V30 3792 H 360.684 -2.97727 -0.12754 0
M  V30 3793 H 358.221 -1.47011 -0.0511978 0
M  V30 3794 H 360.179 -3.27059 -2.59014 0
M  V30 3795 H 358.809 -2.14298 -2.41405 0
M  V30 3796 H 357.861 -3.75492 -0.609095 0
M  V30 3797 H 359.173 -4.88375 -1.01447 0
M  V30 3798 H 358.327 -5.04869 -3.3644 0
M  V30 3799 H 357.066 -3.83233 -3.01635 0
M  V30 3800 H 356.071 -5.34712 -1.27916 0
M  V30 3801 H 357.296 -6.58686 -1.65255 0
M  V30 3802 H 355.242 -5.48067 -3.60497 0
M  V30 3803 H 355.159 -7.01843 -2.80986 0
M  V30 3804 H 356.427 -6.71447 -3.95953 0
M  V30 3805 N 360.656 0.0484629 -1.57525 0
M  V30 3806 C 361.586 1.0549 -2.08313 0
M  V30 3807 C 362.567 1.38929 -0.981463 0
M  V30 3808 O 363.752 1.48151 -1.25558 0
M  V30 3809 C 360.882 2.36162 -2.54646 0
M  V30 3810 C 359.836 2.17016 -3.68901 0
M  V30 3811 C 359.162 3.53278 -4.01371 0
M  V30 3812 C 360.462 1.57219 -4.98076 0
M  V30 3813 H 362.156 0.632195 -2.92649 0
M  V30 3814 H 359.702 0.302654 -1.40784 0
M  V30 3815 H 361.655 3.06882 -2.88793 0
M  V30 3816 H 360.379 2.80456 -1.67368 0
M  V30 3817 H 359.038 1.48733 -3.35073 0
M  V30 3818 H 358.686 3.95185 -3.11188 0
M  V30 3819 H 358.386 3.41299 -4.78318 0
M  V30 3820 H 359.91 4.25391 -4.38035 0
M  V30 3821 H 361.324 2.17832 -5.30304 0
M  V30 3822 H 359.721 1.55871 -5.79503 0
M  V30 3823 H 360.791 0.535956 -4.81929 0
M  V30 3824 N 362.134 1.5431 0.320358 0
M  V30 3825 C 363.064 1.86912 1.3995 0
M  V30 3826 C 364.045 0.726211 1.53819 0
M  V30 3827 O 365.23 0.980233 1.67646 0
M  V30 3828 C 362.36 2.09932 2.7667 0
M  V30 3829 C 361.314 3.25776 2.77586 0
M  V30 3830 C 360.64 3.34173 4.17412 0
M  V30 3831 C 361.94 4.6335 2.41048 0
M  V30 3832 H 363.634 2.77292 1.12914 0
M  V30 3833 H 361.18 1.33421 0.541738 0
M  V30 3834 H 363.133 2.31324 3.52232 0
M  V30 3835 H 361.857 1.16304 3.0519 0
M  V30 3836 H 360.516 3.04276 2.04479 0
M  V30 3837 H 360.164 2.38098 4.43078 0
M  V30 3838 H 359.864 4.12033 4.18931 0
M  V30 3839 H 361.388 3.57803 4.94782 0
M  V30 3840 H 362.802 4.84602 3.06324 0
M  V30 3841 H 361.199 5.43782 2.53813 0
M  V30 3842 H 362.269 4.65381 1.36193 0
M  V30 3843 N 363.613 -0.582584 1.46437 0
M  V30 3844 C 364.853 -1.35184 1.53312 0
M  V30 3845 C 365.217 -1.9115 0.180508 0
M  V30 3846 O 366.418 -2.68514 0.124017 0
M  V30 3847 C 364.689 -2.45089 2.60127 0
M  V30 3848 S 366.248 -3.32439 2.86408 0
M  V30 3849 H 363.066 -0.460559 0.54167 0
M  V30 3850 H 365.668 -0.669709 1.83671 0
M  V30 3851 H 364.372 -2.02366 3.57038 0
M  V30 3852 H 363.903 -3.18074 2.315 0
M  V30 3853 H 365.918 -4.43924 2.21688 0
M  V30 3854 N 365.091 -1.34144 -0.827227 0
M  V30 3855 C 366.319 -1.29325 -1.61501 0
M  V30 3856 C 366.734 0.13354 -1.88327 0
M  V30 3857 O 366.091 1.0793 -1.47164 0
M  V30 3858 C 366.142 -2.07746 -2.95844 0
M  V30 3859 O 365.863 -3.4486 -2.70191 0
M  V30 3860 C 367.364 -2.10273 -3.90256 0
M  V30 3861 H 364.584 -0.445069 -0.50215 0
M  V30 3862 H 367.128 -1.76693 -1.02955 0
M  V30 3863 H 365.283 -1.6403 -3.5096 0
M  V30 3864 H 365.697 -3.85345 -3.55822 0
M  V30 3865 H 367.171 -2.69575 -4.81698 0
M  V30 3866 H 367.648 -1.096 -4.25305 0
M  V30 3867 H 368.254 -2.54059 -3.41078 0
M  V30 3868 N 366.569 1.04691 -1.17803 0
M  V30 3869 C 367.519 2.10856 -0.867391 0
M  V30 3870 C 368.503 1.601 0.160206 0
M  V30 3871 O 369.695 1.76948 -0.042947 0
M  V30 3872 C 366.824 3.411 -0.388012 0
M  V30 3873 C 365.91 3.9864 -1.44732 0
M  V30 3874 N 366.301 4.30075 -2.66212 0
M  V30 3875 C 364.599 4.26439 -1.30637 0
M  V30 3876 C 365.3 4.76033 -3.34317 0
M  V30 3877 N 364.276 4.76462 -2.61696 0
M  V30 3878 H 368.078 2.33029 -1.79094 0
M  V30 3879 H 365.592 1.22386 -1.0675 0
M  V30 3880 H 367.589 4.16641 -0.146994 0
M  V30 3881 H 366.249 3.20357 0.529271 0
M  V30 3882 H 367.26 4.19917 -3.03134 0
M  V30 3883 H 363.937 4.15056 -0.451129 0
M  V30 3884 H 365.327 5.09427 -4.38103 0
M  V30 3885 N 368.047 0.979072 1.23499 0
M  V30 3886 C 368.997 0.489378 2.22686 0
M  V30 3887 C 369.981 -0.434871 1.54912 0
M  V30 3888 O 371.173 -0.263941 1.75021 0
M  V30 3889 C 368.302 -0.208178 3.42668 0
M  V30 3890 C 367.388 0.735563 4.17672 0
M  V30 3891 N 367.779 1.87763 4.69658 0
M  V30 3892 C 366.077 0.548625 4.42613 0
M  V30 3893 C 366.778 2.46886 5.26709 0
M  V30 3894 N 365.754 1.75287 5.14563 0
M  V30 3895 H 369.556 1.36062 2.60508 0
M  V30 3896 H 367.07 0.83958 1.39014 0
M  V30 3897 H 369.067 -0.576295 4.12898 0
M  V30 3898 H 367.727 -1.07572 3.06363 0
M  V30 3899 H 368.738 2.25885 4.66043 0
M  V30 3900 H 365.415 -0.274006 4.166 0
M  V30 3901 H 366.805 3.43326 5.77561 0
M  V30 3902 N 369.525 -1.3858 0.750561 0
M  V30 3903 C 370.755 -2.04175 0.31564 0
M  V30 3904 C 371.163 -1.56726 -1.05989 0
M  V30 3905 O 370.506 -0.734225 -1.68389 0
M  V30 3906 C 370.568 -3.58585 0.256389 0
M  V30 3907 C 370.232 -4.29077 1.57296 0
M  V30 3908 C 371.229 -4.54656 2.52159 0
M  V30 3909 C 368.914 -4.67324 1.84156 0
M  V30 3910 C 370.908 -5.17512 3.72103 0
M  V30 3911 C 368.595 -5.29905 3.04374 0
M  V30 3912 C 369.593 -5.54933 3.98168 0
M  V30 3913 O 369.281 -6.16212 5.16273 0
M  V30 3914 H 369.013 -0.662742 0.133226 0
M  V30 3915 H 371.567 -1.78313 1.01948 0
M  V30 3916 H 369.797 -3.83406 -0.503677 0
M  V30 3917 H 371.486 -4.05628 -0.148612 0
M  V30 3918 H 372.252 -4.25539 2.32683 0
M  V30 3919 H 368.131 -4.47191 1.11988 0
M  V30 3920 H 371.675 -5.36963 4.45327 0
M  V30 3921 H 367.572 -5.58444 3.23745 0
M  V30 3922 H 368.34 -6.34701 5.16815 0
M  V30 3923 N 371.003 -0.499398 -1.49478 0
M  V30 3924 C 372.251 0.0455996 -2.02049 0
M  V30 3925 C 372.572 1.37633 -1.38138 0
M  V30 3926 O 371.842 1.8842 -0.536166 0
M  V30 3927 H 370.422 0.0198416 -0.746736 0
M  V30 3928 H 373.084 -0.656274 -1.83519 0
M  V30 3929 H 372.18 0.176445 -3.11601 0
M  V30 3930 N 372.481 1.55866 -0.233164 0
M  V30 3931 C 373.727 1.98897 0.395959 0
M  V30 3932 C 374.06 1.12091 1.58585 0
M  V30 3933 O 373.335 0.181182 1.93654 0
M  V30 3934 C 373.618 3.50658 0.819224 0
M  V30 3935 C 373.471 4.48233 -0.375109 0
M  V30 3936 C 374.79 4.07135 1.67121 0
M  V30 3937 H 371.909 0.723102 0.142451 0
M  V30 3938 H 374.551 1.87082 -0.331725 0
M  V30 3939 H 372.701 3.60857 1.43925 0
M  V30 3940 H 374.373 4.50031 -1.01341 0
M  V30 3941 H 372.616 4.21624 -1.02058 0
M  V30 3942 H 373.287 5.51988 -0.0358328 0
M  V30 3943 H 375.763 3.99952 1.14795 0
M  V30 3944 H 374.639 5.13615 1.93625 0
M  V30 3945 H 374.9 3.54736 2.63846 0
M  V30 3946 N 373.959 -0.0401083 1.57549 0
M  V30 3947 C 374.906 -1.04413 2.05831 0
M  V30 3948 C 375.876 -1.36585 0.945184 0
M  V30 3949 O 377.061 -1.47112 1.21502 0
M  V30 3950 C 374.201 -2.34336 2.53339 0
M  V30 3951 C 373.314 -2.08419 3.78398 0
M  V30 3952 C 372.449 -3.32133 4.14561 0
M  V30 3953 C 371.488 -3.01721 5.3257 0
M  V30 3954 N 370.625 -4.17855 5.64218 0
M  V30 3955 H 375.465 -0.625442 2.91363 0
M  V30 3956 H 373.002 -0.297218 1.44066 0
M  V30 3957 H 374.96 -3.10234 2.78946 0
M  V30 3958 H 373.59 -2.73948 1.7074 0
M  V30 3959 H 372.642 -1.23069 3.59942 0
M  V30 3960 H 373.954 -1.81978 4.64419 0
M  V30 3961 H 373.108 -4.16406 4.41238 0
M  V30 3962 H 371.847 -3.61678 3.2717 0
M  V30 3963 H 370.852 -2.15849 5.05657 0
M  V30 3964 H 372.077 -2.73466 6.21605 0
M  V30 3965 H 370.023 -4.47372 4.79786 0
M  V30 3966 H 369.94 -3.94798 6.44725 0
M  V30 3967 H 371.208 -5.03033 5.95465 0
M  V30 3968 N 375.437 -1.54477 -0.31217 0
M  V30 3969 C 376.848 -1.64344 -0.885891 0
M  V30 3970 C 377.199 -0.54485 -1.88483 0
M  V30 3971 O 376.324 0.320387 -2.14015 0
M  V30 3972 C 376.919 -2.97908 -1.61357 0
M  V30 3973 C 375.478 -3.09933 -2.13585 0
M  V30 3974 C 374.625 -2.59971 -0.964897 0
M  V30 3975 H 377.576 -1.58448 -0.0894528 0
M  V30 3976 H 377.597 -2.88706 -2.47848 0
M  V30 3977 H 377.109 -3.77845 -0.886277 0
M  V30 3978 H 375.21 -2.34694 -2.89395 0
M  V30 3979 H 375.323 -4.15916 -2.37804 0
M  V30 3980 H 373.687 -2.16147 -1.34731 0
M  V30 3981 H 374.47 -3.42376 -0.251742 0
M  V30 3982 N 376.915 0.57481 -1.46744 0
M  V30 3983 C 378.192 1.3352 -1.4294 0
M  V30 3984 C 378.572 2.10775 -0.117009 0
M  V30 3985 O 377.92 2.09966 0.901474 0
M  V30 3986 C 378.13 2.25456 -2.66403 0
M  V30 3987 C 379.478 2.87035 -3.12883 0
M  V30 3988 O 380.502 2.35766 -2.67007 0
M  V30 3989 O 379.361 3.80179 -3.92589 0
M  V30 3990 H 376.455 0.600318 -0.568812 0
M  V30 3991 H 379.001 0.595171 -1.58921 0
M  V30 3992 H 377.773 1.67851 -3.53471 0
M  V30 3993 H 377.396 3.06785 -2.52921 0
M  V30 3994 N 378.394 1.34581 0.820102 0
M  V30 3995 C 379.64 1.27285 1.57881 0
M  V30 3996 C 379.973 -0.156137 1.93571 0
M  V30 3997 O 379.248 -1.10222 1.60254 0
M  V30 3998 C 379.531 2.16639 2.87645 0
M  V30 3999 C 379.384 3.68088 2.58517 0
M  V30 4000 C 380.703 2.05378 3.8924 0
M  V30 4001 H 377.822 0.463714 0.572833 0
M  V30 4002 H 380.464 1.64859 0.944539 0
M  V30 4003 H 378.614 1.84725 3.41773 0
M  V30 4004 H 380.286 4.10382 2.10676 0
M  V30 4005 H 378.529 3.89038 1.91917 0
M  V30 4006 H 379.2 4.2598 3.51063 0
M  V30 4007 H 381.676 2.33404 3.44473 0
M  V30 4008 H 380.552 2.7012 4.77835 0
M  V30 4009 H 380.813 1.0316 4.29896 0
M  V30 4010 N 379.872 -1.04064 1.18357 0
M  V30 4011 C 381.121 -1.76662 0.973313 0
M  V30 4012 C 381.434 -1.89154 -0.497991 0
M  V30 4013 O 382.64 -2.58606 -0.826762 0
M  V30 4014 C 381.096 -3.17624 1.69242 0
M  V30 4015 C 380.704 -3.13225 3.20303 0
M  V30 4016 C 382.448 -3.946 1.56497 0
M  V30 4017 C 380.355 -4.49046 3.84853 0
M  V30 4018 H 379.285 -0.662214 0.36054 0
M  V30 4019 H 381.936 -1.16553 1.41731 0
M  V30 4020 H 380.318 -3.78129 1.1762 0
M  V30 4021 H 381.492 -2.62172 3.78949 0
M  V30 4022 H 379.807 -2.49749 3.33189 0
M  V30 4023 H 382.404 -4.95042 2.02084 0
M  V30 4024 H 382.747 -4.13074 0.517243 0
M  V30 4025 H 383.28 -3.4067 2.05399 0
M  V30 4026 H 380.019 -4.35777 4.89672 0
M  V30 4027 H 379.539 -5.00203 3.30994 0
M  V30 4028 H 381.218 -5.17961 3.87718 0
M  V30 4029 N 381.35 -0.985608 -1.22978 0
M  V30 4030 C 382.28 -0.549649 -2.26939 0
M  V30 4031 C 383.261 0.419803 -1.64838 0
M  V30 4032 O 384.446 0.31203 -1.91677 0
M  V30 4033 C 381.576 0.143652 -3.47003 0
M  V30 4034 C 380.53 -0.743606 -4.21491 0
M  V30 4035 C 379.856 0.0822027 -5.34637 0
M  V30 4036 C 381.156 -2.03694 -4.80943 0
M  V30 4037 H 382.85 -1.41862 -2.63658 0
M  V30 4038 H 380.396 -0.683571 -1.26741 0
M  V30 4039 H 382.349 0.459985 -4.18882 0
M  V30 4040 H 381.073 1.04711 -3.09359 0
M  V30 4041 H 379.732 -1.04347 -3.51436 0
M  V30 4042 H 379.38 0.986359 -4.93234 0
M  V30 4043 H 379.08 -0.508377 -5.85397 0
M  V30 4044 H 380.604 0.392797 -6.09335 0
M  V30 4045 H 382.018 -1.78504 -5.44802 0
M  V30 4046 H 380.415 -2.57573 -5.42011 0
M  V30 4047 H 381.485 -2.72042 -4.01399 0
M  V30 4048 N 382.828 1.3818 -0.7579 0
M  V30 4049 C 383.758 2.33027 -0.148597 0
M  V30 4050 C 384.739 1.55085 0.69875 0
M  V30 4051 O 385.924 1.83384 0.639053 0
M  V30 4052 C 383.054 3.3928 0.742034 0
M  V30 4053 C 382.008 4.28 -0.00291946 0
M  V30 4054 C 381.334 5.25146 1.00625 0
M  V30 4055 C 382.634 5.08938 -1.17385 0
M  V30 4056 H 384.328 2.84231 -0.940909 0
M  V30 4057 H 381.874 1.36659 -0.453908 0
M  V30 4058 H 383.827 4.046 1.17799 0
M  V30 4059 H 382.551 2.86569 1.56671 0
M  V30 4060 H 381.21 3.64192 -0.419504 0
M  V30 4061 H 380.858 4.68721 1.8251 0
M  V30 4062 H 380.558 5.85361 0.512428 0
M  V30 4063 H 382.082 5.93342 1.44143 0
M  V30 4064 H 383.496 5.67474 -0.815224 0
M  V30 4065 H 381.893 5.7841 -1.59882 0
M  V30 4066 H 382.963 4.42424 -1.98468 0
M  V30 4067 N 384.306 0.507319 1.49211 0
M  V30 4068 C 385.554 -0.0348839 2.0207 0
M  V30 4069 C 385.875 -1.36898 1.38866 0
M  V30 4070 O 385.145 -1.88133 0.546151 0
M  V30 4071 H 383.725 -0.0158812 0.746831 0
M  V30 4072 H 386.387 0.665998 1.83168 0
M  V30 4073 H 385.483 -0.159917 3.1169 0
M  V30 4074 N 385.784 -1.5574 0.241426 0
M  V30 4075 C 386.731 -2.21149 -0.660432 0
M  V30 4076 C 387.701 -1.17356 -1.17545 0
M  V30 4077 O 388.886 -1.45784 -1.23093 0
M  V30 4078 C 386.026 -2.91059 -1.85414 0
M  V30 4079 C 385.139 -4.09495 -1.37616 0
M  V30 4080 C 384.274 -4.67135 -2.529 0
M  V30 4081 C 383.313 -5.77831 -2.01936 0
M  V30 4082 N 382.45 -6.29677 -3.10566 0
M  V30 4083 H 387.29 -2.97845 -0.095955 0
M  V30 4084 H 384.827 -1.47057 -0.0356024 0
M  V30 4085 H 386.785 -3.29788 -2.5553 0
M  V30 4086 H 385.415 -2.16846 -2.39118 0
M  V30 4087 H 384.467 -3.76117 -0.569235 0
M  V30 4088 H 385.779 -4.89423 -0.962618 0
M  V30 4089 H 384.933 -5.08409 -3.31067 0
M  V30 4090 H 383.672 -3.86411 -2.97553 0
M  V30 4091 H 382.677 -5.36039 -1.22238 0
M  V30 4092 H 383.902 -6.60402 -1.58259 0
M  V30 4093 H 381.848 -5.5186 -3.54664 0
M  V30 4094 H 381.765 -7.04783 -2.73526 0
M  V30 4095 H 383.033 -6.75609 -3.88809 0
M  V30 4096 N 387.262 0.0317525 -1.57568 0
M  V30 4097 C 388.225 1.01783 -2.0536 0
M  V30 4098 C 389.225 1.29203 -0.957253 0
M  V30 4099 O 390.415 1.24251 -1.22095 0
M  V30 4100 C 387.547 2.35137 -2.46827 0
M  V30 4101 H 388.74 0.605062 -2.93733 0
M  V30 4102 H 386.293 0.278514 -1.53799 0
M  V30 4103 H 387.028 2.81168 -1.61602 0
M  V30 4104 H 386.813 2.16566 -3.26866 0
M  V30 4105 H 388.303 3.05938 -2.84239 0
M  V30 4106 N 388.74 1.54641 0.303973 0
M  V30 4107 C 389.67 1.88386 1.3796 0
M  V30 4108 C 390.651 0.742485 1.5304 0
M  V30 4109 O 391.836 0.997959 1.66597 0
M  V30 4110 C 388.966 2.12854 2.74427 0
M  V30 4111 C 387.92 3.28702 2.74115 0
M  V30 4112 C 387.246 3.38582 4.13844 0
M  V30 4113 C 388.546 4.65881 2.3612 0
M  V30 4114 H 390.24 2.78474 1.09966 0
M  V30 4115 H 387.786 1.33988 0.527556 0
M  V30 4116 H 389.739 2.35047 3.49758 0
M  V30 4117 H 388.463 1.19535 3.03939 0
M  V30 4118 H 387.122 3.06428 2.0124 0
M  V30 4119 H 386.77 2.42784 4.40528 0
M  V30 4120 H 386.47 4.16453 4.14537 0
M  V30 4121 H 387.994 3.63031 4.90959 0
M  V30 4122 H 389.408 4.87823 3.01167 0
M  V30 4123 H 387.805 5.46444 2.48031 0
M  V30 4124 H 388.875 4.66799 1.3125 0
M  V30 4125 N 390.218 -0.567019 1.47046 0
M  V30 4126 C 391.443 -1.3551 1.57009 0
M  V30 4127 C 391.868 -1.86841 0.217259 0
M  V30 4128 O 391.226 -1.62435 -0.805268 0
M  V30 4129 C 391.274 -2.50777 2.5912 0
M  V30 4130 O 390.378 -3.52706 2.13711 0
M  V30 4131 H 389.719 -0.402919 0.52778 0
M  V30 4132 H 392.249 -0.686241 1.92748 0
M  V30 4133 H 392.259 -2.97481 2.79229 0
M  V30 4134 H 390.934 -2.12771 3.57353 0
M  V30 4135 H 389.511 -3.12374 2.03659 0
M  V30 4136 N 391.696 -1.35014 -0.812953 0
M  V30 4137 C 392.944 -1.27678 -1.56661 0
M  V30 4138 C 393.265 0.150359 -1.94419 0
M  V30 4139 O 392.535 1.08532 -1.63088 0
M  V30 4140 H 391.115 -0.469602 -0.580933 0
M  V30 4141 H 393.777 -1.69043 -0.970076 0
M  V30 4142 H 392.873 -1.88833 -2.48492 0
M  V30 4143 N 393.175 1.03435 -1.18907 0
M  V30 4144 C 394.423 1.76394 -0.986382 0
M  V30 4145 C 394.744 1.88883 0.484567 0
M  V30 4146 O 394.014 1.41843 1.3512 0
M  V30 4147 H 392.594 0.65344 -0.361975 0
M  V30 4148 H 395.256 1.248 -1.49703 0
M  V30 4149 H 394.352 2.77424 -1.42978 0
M  V30 4150 N 394.653 0.992116 1.22453 0
M  V30 4151 C 395.603 0.512969 2.22155 0
M  V30 4152 C 396.587 -0.418416 1.55364 0
M  V30 4153 O 397.779 -0.245363 1.75291 0
M  V30 4154 C 394.908 -0.171822 3.4287 0
M  V30 4155 C 393.994 0.779822 4.16869 0
M  V30 4156 N 394.385 1.92734 4.6764 0
M  V30 4157 C 392.683 0.59554 4.42006 0
M  V30 4158 C 393.384 2.52458 5.24061 0
M  V30 4159 N 392.36 1.80735 5.12675 0
M  V30 4160 H 396.162 1.38817 2.5905 0
M  V30 4161 H 393.676 0.854277 1.38115 0
M  V30 4162 H 395.673 -0.532469 4.13486 0
M  V30 4163 H 394.333 -1.04317 3.07487 0
M  V30 4164 H 395.344 2.30816 4.63621 0
M  V30 4165 H 392.021 -0.229805 4.16867 0
M  V30 4166 H 393.411 3.49433 5.73887 0
M  V30 4167 N 396.131 -1.37776 0.765217 0
M  V30 4168 C 397.361 -2.03828 0.337277 0
M  V30 4169 C 397.769 -1.57841 -1.04321 0
M  V30 4170 O 397.112 -0.752043 -1.67601 0
M  V30 4171 C 397.174 -3.58292 0.294407 0
M  V30 4172 C 396.838 -4.27384 1.61838 0
M  V30 4173 C 397.835 -4.51956 2.56967 0
M  V30 4174 C 395.52 -4.65345 1.89102 0
M  V30 4175 C 397.514 -5.13536 3.77571 0
M  V30 4176 C 395.201 -5.26647 3.09978 0
M  V30 4177 C 396.199 -5.50679 4.04032 0
M  V30 4178 O 395.887 -6.10702 5.2278 0
M  V30 4179 H 395.619 -0.661292 0.140248 0
M  V30 4180 H 398.173 -1.77222 1.03834 0
M  V30 4181 H 396.403 -3.83918 -0.462983 0
M  V30 4182 H 398.092 -4.05763 -0.105581 0
M  V30 4183 H 398.858 -4.23048 2.37183 0
M  V30 4184 H 394.737 -4.45978 1.16725 0
M  V30 4185 H 398.281 -5.3221 4.50997 0
M  V30 4186 H 394.178 -5.54979 3.29649 0
M  V30 4187 H 394.946 -6.29183 5.23517 0
M  V30 4188 N 397.609 -0.515225 -1.4894 0
M  V30 4189 C 399.02 -0.0710067 -1.86565 0
M  V30 4190 C 399.371 1.34733 -1.42623 0
M  V30 4191 O 398.496 2.00653 -0.810379 0
M  V30 4192 C 399.091 -0.122083 -3.3858 0
M  V30 4193 C 397.65 0.266863 -3.75453 0
M  V30 4194 C 396.797 -0.488376 -2.72966 0
M  V30 4195 H 399.748 -0.727266 -1.41055 0
M  V30 4196 H 399.769 0.669818 -3.74558 0
M  V30 4197 H 399.281 -1.15448 -3.70531 0
M  V30 4198 H 397.382 1.30196 -3.49113 0
M  V30 4199 H 397.495 -0.0624811 -4.79059 0
M  V30 4200 H 395.859 0.0635622 -2.54621 0
M  V30 4201 H 396.642 -1.52113 -3.07761 0
M  V30 4202 N 399.087 1.5561 -0.249682 0
M  V30 4203 C 400.336 1.98187 0.37479 0
M  V30 4204 C 400.649 1.14111 1.58865 0
M  V30 4205 O 401.855 1.46714 2.28445 0
M  V30 4206 C 400.311 3.52661 0.718192 0
M  V30 4207 C 399.919 4.45481 -0.474428 0
M  V30 4208 C 401.663 4.03888 1.3067 0
M  V30 4209 C 399.57 5.91303 -0.107026 0
M  V30 4210 H 398.5 0.740159 0.143808 0
M  V30 4211 H 401.151 1.80125 -0.350336 0
M  V30 4212 H 399.533 3.66429 1.50152 0
M  V30 4213 H 400.707 4.43473 -1.25172 0
M  V30 4214 H 399.022 4.04751 -0.978052 0
M  V30 4215 H 401.619 5.10358 1.59496 0
M  V30 4216 H 401.962 3.51401 2.23211 0
M  V30 4217 H 402.495 3.93457 0.586211 0
M  V30 4218 H 399.234 6.47833 -0.999642 0
M  V30 4219 H 398.754 5.9644 0.634013 0
M  V30 4220 H 400.433 6.46258 0.309807 0
M  V30 4221 N 400.565 -0.0233959 1.57583 0
M  V30 4222 C 401.79 -0.728376 1.94189 0
M  V30 4223 C 402.215 -1.67793 0.850119 0
M  V30 4224 O 401.573 -1.80262 -0.19371 0
M  V30 4225 C 401.621 -1.45669 3.29868 0
M  V30 4226 O 400.725 -2.57013 3.22518 0
M  V30 4227 H 400.066 -0.195493 0.63457 0
M  V30 4228 H 402.596 0.0228214 2.04587 0
M  V30 4229 H 402.606 -1.82535 3.6489 0
M  V30 4230 H 401.281 -0.760314 4.08891 0
M  V30 4231 H 399.858 -2.22648 2.99136 0
M  V30 4232 N 402.043 -1.548 -0.295768 0
M  V30 4233 C 403.006 -1.85363 -1.34808 0
M  V30 4234 C 404.006 -0.726817 -1.43436 0
M  V30 4235 O 405.196 -0.995088 -1.42981 0
M  V30 4236 C 402.328 -2.03859 -2.73229 0
M  V30 4237 H 403.521 -2.7941 -1.08949 0
M  V30 4238 H 401.074 -1.46942 -0.532702 0
M  V30 4239 H 401.809 -1.12117 -3.04303 0
M  V30 4240 H 401.594 -2.8588 -2.68356 0
M  V30 4241 H 403.084 -2.28857 -3.49305 0
M  V30 4242 N 403.521 0.559213 -1.47345 0
M  V30 4243 C 404.77 1.31281 -1.53128 0
M  V30 4244 C 405.083 1.94602 -0.197344 0
M  V30 4245 O 406.289 2.71173 -0.133154 0
M  V30 4246 C 404.745 2.38051 -2.69925 0
M  V30 4247 C 404.353 1.8093 -4.0984 0
M  V30 4248 C 406.097 3.14604 -2.84999 0
M  V30 4249 C 404.004 2.85468 -5.1794 0
M  V30 4250 H 402.934 0.493614 -0.569966 0
M  V30 4251 H 405.585 0.594155 -1.73615 0
M  V30 4252 H 403.967 3.12822 -2.42814 0
M  V30 4253 H 405.141 1.12544 -4.46845 0
M  V30 4254 H 403.456 1.16967 -3.99634 0
M  V30 4255 H 406.053 3.92666 -3.62929 0
M  V30 4256 H 406.396 3.68665 -1.93369 0
M  V30 4257 H 406.929 2.46945 -3.1187 0
M  V30 4258 H 403.668 2.36264 -6.1144 0
M  V30 4259 H 403.188 3.52269 -4.85455 0
M  V30 4260 H 404.867 3.48996 -5.44803 0
M  V30 4261 N 404.999 1.35443 0.805782 0
M  V30 4262 C 405.929 1.31095 1.93226 0
M  V30 4263 C 406.91 0.185244 1.69088 0
M  V30 4264 O 408.095 0.380332 1.90439 0
M  V30 4265 C 405.225 1.08299 3.29983 0
M  V30 4266 C 404.179 2.17519 3.68605 0
M  V30 4267 C 403.505 1.79887 5.03532 0
M  V30 4268 C 404.805 3.5949 3.78898 0
M  V30 4269 H 406.499 2.25352 1.97122 0
M  V30 4270 H 404.045 1.0848 0.946996 0
M  V30 4271 H 405.998 1.03897 4.08391 0
M  V30 4272 H 404.722 0.104885 3.26432 0
M  V30 4273 H 403.381 2.2102 2.92482 0
M  V30 4274 H 403.029 0.80693 4.96485 0
M  V30 4275 H 402.729 2.53001 5.30344 0
M  V30 4276 H 404.253 1.77011 5.84379 0
M  V30 4277 H 405.667 3.58307 4.47536 0
M  V30 4278 H 404.064 4.31371 4.1718 0
M  V30 4279 H 405.134 3.95584 2.80431 0
M  V30 4280 N 406.477 -1.02803 1.19454 0
M  V30 4281 C 407.44 -2.09264 0.934955 0
M  V30 4282 C 408.44 -1.60576 -0.0849015 0
M  V30 4283 O 409.63 -1.73554 0.149933 0
M  V30 4284 C 406.762 -3.38482 0.40531 0
M  V30 4285 H 407.955 -2.33726 1.87916 0
M  V30 4286 H 405.508 -1.19426 1.00832 0
M  V30 4287 H 406.243 -3.19689 -0.544899 0
M  V30 4288 H 406.028 -3.75142 1.14065 0
M  V30 4289 H 407.518 -4.16894 0.242806 0
M  V30 4290 N 407.956 -0.998596 -1.21925 0
M  V30 4291 C 408.904 -0.546641 -2.26085 0
M  V30 4292 C 409.898 0.405576 -1.64473 0
M  V30 4293 O 411.104 0.277471 -1.77849 0
M  V30 4294 H 407.479 -0.158403 -0.735127 0
M  V30 4295 H 409.45 -1.43645 -2.61551 0
M  V30 4296 C 408.199 0.117388 -3.47502 0
M  V30 4297 H 407.522 -0.606277 -3.95176 0
M  V30 4298 H 408.962 0.396993 -4.22137 0
M  V30 4299 C 407.421 1.35455 -3.0847 0
M  V30 4300 O 407.951 2.44944 -3.18379 0
M  V30 4301 N 406.157 1.23191 -2.63196 0
M  V30 4302 H 405.704 0.341006 -2.55333 0
M  V30 4303 H 405.662 2.06071 -2.37449 0
M  V30 4304 N 409.434 1.37368 -0.772513 0
M  V30 4305 C 410.711 1.93839 -0.26188 0
M  V30 4306 C 411.091 1.7061 1.24319 0
M  V30 4307 O 410.439 1.05534 2.02669 0
M  V30 4308 C 410.649 3.43154 -0.636102 0
M  V30 4309 C 411.997 4.20249 -0.606324 0
M  V30 4310 O 413.021 3.5152 -0.575538 0
M  V30 4311 O 411.88 5.42809 -0.634086 0
M  V30 4312 H 408.974 0.82478 -0.0605555 0
M  V30 4313 H 411.52 1.4665 -0.853917 0
M  V30 4314 H 410.292 3.53647 -1.6748 0
M  V30 4315 H 409.915 3.97596 -0.0170516 0
M  V30 4316 N 410.912 0.523116 1.48665 0
M  V30 4317 C 412.189 -0.0775449 1.95446 0
M  V30 4318 C 412.569 -1.5197 1.4652 0
M  V30 4319 O 411.917 -2.17876 0.688657 0
M  V30 4320 C 412.127 0.0326135 3.48985 0
M  V30 4321 C 413.475 -0.130141 4.24401 0
M  V30 4322 O 414.499 -0.0415142 3.56176 0
M  V30 4323 O 413.358 -0.31491 5.45592 0
M  V30 4324 H 410.452 -0.0831012 0.822814 0
M  V30 4325 H 412.998 0.587227 1.59216 0
M  V30 4326 H 411.77 1.03748 3.77296 0
M  V30 4327 H 411.393 -0.671317 3.91892 0
M  V30 4328 N 412.39 -1.55475 0.257931 0
M  V30 4329 C 413.636 -1.99502 -0.364266 0
M  V30 4330 C 413.969 -1.146 -1.56782 0
M  V30 4331 O 413.244 -0.211968 -1.93342 0
M  V30 4332 C 413.527 -3.51917 -0.763333 0
M  V30 4333 C 413.38 -4.4758 0.446371 0
M  V30 4334 C 414.699 -4.09742 -1.60623 0
M  V30 4335 H 411.818 -0.725277 -0.130929 0
M  V30 4336 H 414.46 -1.8653 0.361446 0
M  V30 4337 H 412.61 -3.63101 -1.38166 0
M  V30 4338 H 414.282 -4.48362 1.08487 0
M  V30 4339 H 412.525 -4.19947 1.08753 0
M  V30 4340 H 413.196 -5.51862 0.123645 0
M  V30 4341 H 415.672 -4.01727 -1.08418 0
M  V30 4342 H 414.548 -5.16631 -1.85429 0
M  V30 4343 H 414.809 -3.58889 -2.58169 0
M  V30 4344 N 413.868 0.0150385 -1.57593 0
M  V30 4345 C 414.801 1.04475 -2.0288 0
M  V30 4346 C 415.779 1.3436 -0.915764 0
M  V30 4347 O 416.963 1.46779 -1.18271 0
M  V30 4348 C 414.09 2.37608 -2.41371 0
M  V30 4349 C 413.136 2.23487 -3.63257 0
M  V30 4350 S 413.969 1.57505 -5.11813 0
M  V30 4351 C 415.125 2.921 -5.5356 0
M  V30 4352 H 415.358 0.65907 -2.89903 0
M  V30 4353 H 412.891 0.225452 -1.52745 0
M  V30 4354 H 414.849 3.14165 -2.64217 0
M  V30 4355 H 413.51 2.7332 -1.54775 0
M  V30 4356 H 412.703 3.21802 -3.87891 0
M  V30 4357 H 412.305 1.55074 -3.40335 0
M  V30 4358 H 414.597 3.88419 -5.55101 0
M  V30 4359 H 415.54 2.72184 -6.53698 0
M  V30 4360 H 415.948 2.95318 -4.8109 0
M  V30 4361 N 415.346 1.54954 0.287554 0
M  V30 4362 C 416.276 1.89839 1.35954 0
M  V30 4363 C 417.257 0.758675 1.52244 0
M  V30 4364 O 418.442 1.01557 1.65529 0
M  V30 4365 C 415.572 2.15753 2.72154 0
M  V30 4366 C 414.526 3.3159 2.70614 0
M  V30 4367 C 413.852 3.42952 4.10229 0
M  V30 4368 C 415.152 4.68359 2.31165 0
M  V30 4369 H 416.846 2.79625 1.07007 0
M  V30 4370 H 414.392 1.3454 0.513316 0
M  V30 4371 H 416.345 2.38743 3.47246 0
M  V30 4372 H 415.069 1.22752 3.02654 0
M  V30 4373 H 413.728 3.08545 1.97979 0
M  V30 4374 H 413.376 2.47443 4.37928 0
M  V30 4375 H 413.076 4.20826 4.10097 0
M  V30 4376 H 414.6 3.68218 4.87081 0
M  V30 4377 H 416.014 4.9099 2.95976 0
M  V30 4378 H 414.411 5.49044 2.42221 0
M  V30 4379 H 415.481 4.68165 1.26291 0
M  V30 4380 N 416.824 -0.551391 1.4764 0
M  V30 4381 C 418.07 -1.31024 1.54792 0
M  V30 4382 C 418.403 -1.9304 0.211967 0
M  V30 4383 O 417.678 -1.78175 -0.77999 0
M  V30 4384 C 417.961 -2.41593 2.67029 0
M  V30 4385 C 417.814 -1.84408 4.10261 0
M  V30 4386 C 419.133 -3.43488 2.75143 0
M  V30 4387 H 416.252 -0.475031 0.563485 0
M  V30 4388 H 418.894 -0.616454 1.79722 0
M  V30 4389 H 417.044 -3.00772 2.45904 0
M  V30 4390 H 418.716 -1.29445 4.42766 0
M  V30 4391 H 416.959 -1.15051 4.18265 0
M  V30 4392 H 417.63 -2.64367 4.84576 0
M  V30 4393 H 420.106 -2.94236 2.94218 0
M  V30 4394 H 418.982 -4.18274 3.55441 0
M  V30 4395 H 419.243 -4.02703 1.82435 0
M  V30 4396 N 418.302 -1.35869 -0.798587 0
M  V30 4397 C 419.232 -1.32118 -1.92528 0
M  V30 4398 C 420.213 -0.194209 -1.68988 0
M  V30 4399 O 421.398 -0.390426 -1.90235 0
M  V30 4400 C 418.528 -1.10047 -3.29404 0
M  V30 4401 C 417.482 -2.19471 -3.67446 0
M  V30 4402 C 416.808 -1.82555 -5.02571 0
M  V30 4403 C 418.108 -3.61495 -3.76987 0
M  V30 4404 H 419.802 -2.26394 -1.95924 0
M  V30 4405 H 417.348 -1.08981 -0.94123 0
M  V30 4406 H 419.301 -1.06061 -4.07835 0
M  V30 4407 H 418.025 -0.122195 -3.26371 0
M  V30 4408 H 416.684 -2.22568 -2.91306 0
M  V30 4409 H 416.332 -0.833249 -4.9605 0
M  V30 4410 H 416.032 -2.5581 -5.28995 0
M  V30 4411 H 417.556 -1.80108 -5.83432 0
M  V30 4412 H 418.97 -3.60676 -4.4563 0
M  V30 4413 H 417.367 -4.33577 -4.14887 0
M  V30 4414 H 418.437 -3.97065 -2.78329 0
M  V30 4415 N 419.78 1.02168 -1.19998 0
M  V30 4416 C 420.727 2.10601 -0.944228 0
M  V30 4417 C 421.697 1.65639 0.123664 0
M  V30 4418 O 422.882 1.9079 -0.0199941 0
M  V30 4419 C 420.022 3.41504 -0.496865 0
M  V30 4420 C 419.135 3.99973 -1.63234 0
M  V30 4421 C 418.27 5.18915 -1.13579 0
M  V30 4422 C 417.309 5.69456 -2.24468 0
M  V30 4423 N 416.446 6.79665 -1.76068 0
M  V30 4424 H 421.286 2.31814 -1.8726 0
M  V30 4425 H 418.823 1.13686 -0.933483 0
M  V30 4426 H 420.781 4.16626 -0.218843 0
M  V30 4427 H 419.411 3.2038 0.394508 0
M  V30 4428 H 418.463 3.21997 -2.0254 0
M  V30 4429 H 419.775 4.33492 -2.46752 0
M  V30 4430 H 418.929 6.01222 -0.813429 0
M  V30 4431 H 417.668 4.8695 -0.270434 0
M  V30 4432 H 416.673 4.85757 -2.57526 0
M  V30 4433 H 417.898 6.03459 -3.11472 0
M  V30 4434 H 415.844 6.49538 -0.918516 0
M  V30 4435 H 415.761 7.12349 -2.5317 0
M  V30 4436 H 417.029 7.65549 -1.46817 0
M  V30 4437 N 421.258 1.00505 1.21394 0
M  V30 4438 C 422.669 0.721082 1.72213 0
M  V30 4439 C 423.02 -0.761263 1.80829 0
M  V30 4440 O 422.145 -1.59464 1.46288 0
M  V30 4441 C 422.74 1.30228 3.12772 0
M  V30 4442 C 421.299 1.06743 3.60947 0
M  V30 4443 C 420.446 1.41507 2.38477 0
M  V30 4444 H 423.397 1.17594 1.06571 0
M  V30 4445 H 423.418 0.686955 3.74247 0
M  V30 4446 H 422.93 2.38115 3.06468 0
M  V30 4447 H 421.031 0.00572162 3.726 0
M  V30 4448 H 421.144 1.73936 4.46411 0
M  V30 4449 H 419.508 0.833852 2.40664 0
M  V30 4450 H 420.291 2.50424 2.34824 0
M  V30 4451 N 422.737 -1.36956 0.779787 0
M  V30 4452 C 423.985 -1.99097 0.347079 0
M  V30 4453 C 424.306 -1.62206 -1.08232 0
M  V30 4454 O 423.576 -0.891373 -1.74446 0
M  V30 4455 H 422.156 -0.736409 0.125342 0
M  V30 4456 H 424.818 -1.67308 0.999696 0
M  V30 4457 H 423.914 -3.09107 0.431162 0
M  V30 4458 N 424.215 -0.530993 -1.48385 0
M  V30 4459 C 425.125 0.23503 -2.3342 0
M  V30 4460 C 426.141 0.93801 -1.46552 0
M  V30 4461 O 427.317 0.912745 -1.7953 0
M  V30 4462 C 424.382 1.26778 -3.22689 0
M  V30 4463 C 423.443 0.575038 -4.25431 0
M  V30 4464 C 422.676 1.55858 -5.10435 0
M  V30 4465 O 422.899 2.79129 -4.97437 0
M  V30 4466 O 421.833 1.09742 -5.91811 0
M  V30 4467 H 425.659 -0.461794 -3.00169 0
M  V30 4468 H 423.244 -0.291903 -1.46521 0
M  V30 4469 H 425.126 1.86457 -3.77904 0
M  V30 4470 H 423.801 1.94699 -2.586 0
M  V30 4471 H 422.708 -0.0622782 -3.74048 0
M  V30 4472 H 424.041 -0.062253 -4.92161 0
M  V30 4473 N 425.693 1.55336 -0.266172 0
M  V30 4474 C 426.643 2.18848 0.639497 0
M  V30 4475 C 427.627 1.1503 1.12503 0
M  V30 4476 O 428.819 1.40875 1.0716 0
M  V30 4477 C 425.948 2.90626 1.82733 0
M  V30 4478 C 425.034 4.01723 1.35939 0
M  V30 4479 N 425.425 5.02145 0.606988 0
M  V30 4480 C 423.723 4.1463 1.6431 0
M  V30 4481 C 424.424 5.80572 0.362138 0
M  V30 4482 N 423.4 5.35551 0.931971 0
M  V30 4483 H 427.202 2.93845 0.0567057 0
M  V30 4484 H 424.716 1.62252 -0.0693312 0
M  V30 4485 H 426.713 3.34569 2.48735 0
M  V30 4486 H 425.373 2.17137 2.41416 0
M  V30 4487 H 426.384 5.17271 0.255198 0
M  V30 4488 H 423.061 3.52326 2.23993 0
M  V30 4489 H 424.451 6.71472 -0.239848 0
M  V30 4490 N 427.171 -0.0066808 1.57599 0
M  V30 4491 C 428.419 -0.691552 1.899 0
M  V30 4492 C 428.74 -1.74682 0.866672 0
M  V30 4493 O 428.01 -1.95661 -0.0968189 0
M  V30 4494 H 426.59 -0.258416 0.700878 0
M  V30 4495 H 429.252 0.0326655 1.94873 0
M  V30 4496 H 428.348 -1.16702 2.8946 0
M  V30 4497 N 428.649 -1.55105 -0.279332 0
M  V30 4498 C 429.874 -1.7976 -1.03446 0
M  V30 4499 C 430.299 -0.565952 -1.79384 0
M  V30 4500 O 429.657 0.484259 -1.74713 0
M  V30 4501 C 429.705 -3.0179 -1.97371 0
M  V30 4502 O 428.809 -2.76432 -3.06038 0
M  V30 4503 H 428.15 -0.594334 -0.29608 0
M  V30 4504 H 430.68 -2.02235 -0.310165 0
M  V30 4505 H 430.69 -3.30351 -2.39441 0
M  V30 4506 H 429.365 -3.91085 -1.4151 0
M  V30 4507 H 427.942 -2.58949 -2.68328 0
M  V30 4508 N 430.127 0.543554 -1.4793 0
M  V30 4509 C 431.355 1.32516 -1.58894 0
M  V30 4510 C 431.77 1.87215 -0.244131 0
M  V30 4511 O 431.127 1.65709 0.764652 0
M  V30 4512 C 431.178 2.48554 -2.62494 0
M  V30 4513 O 430.899 1.96112 -3.91755 0
M  V30 4514 C 432.4 3.40572 -2.8377 0
M  V30 4515 H 429.62 0.403472 -0.536145 0
M  V30 4516 H 432.164 0.657106 -1.93655 0
M  V30 4517 H 430.319 3.1127 -2.30629 0
M  V30 4518 H 430.733 2.71967 -4.4848 0
M  V30 4519 H 432.207 4.18375 -3.60093 0
M  V30 4520 H 432.684 3.94965 -1.92092 0
M  V30 4521 H 433.29 2.8366 -3.16887 0
M  V30 4522 N 431.605 1.3629 0.791371 0
M  V30 4523 C 432.835 1.33368 1.57786 0
M  V30 4524 C 433.243 -0.0875188 1.88997 0
M  V30 4525 O 432.586 -1.05427 1.50435 0
M  V30 4526 C 432.648 2.08802 2.92646 0
M  V30 4527 C 432.312 3.57903 2.84174 0
M  V30 4528 C 433.309 4.52191 2.56553 0
M  V30 4529 C 430.994 4.00762 3.02812 0
M  V30 4530 C 432.988 5.87315 2.47669 0
M  V30 4531 C 430.675 5.35977 2.93551 0
M  V30 4532 C 431.673 6.29066 2.66017 0
M  V30 4533 O 431.361 7.61798 2.56746 0
M  V30 4534 H 431.093 0.459166 0.496128 0
M  V30 4535 H 433.647 1.79952 0.990269 0
M  V30 4536 H 431.877 1.56878 3.53449 0
M  V30 4537 H 433.566 1.98762 3.53904 0
M  V30 4538 H 434.332 4.20393 2.41858 0
M  V30 4539 H 430.211 3.2868 3.2325 0
M  V30 4540 H 433.755 6.59943 2.26099 0
M  V30 4541 H 429.652 5.67384 3.07808 0
M  V30 4542 H 430.42 7.71898 2.72242 0
M  V30 4543 N 433.083 -1.0153 1.20538 0
M  V30 4544 C 434.331 -1.74803 1.01432 0
M  V30 4545 C 434.652 -1.8963 -0.454456 0
M  V30 4546 O 433.922 -1.43975 -1.32846 0
M  V30 4547 H 432.502 -0.647598 0.372324 0
M  V30 4548 H 435.164 -1.22402 1.5167 0
M  V30 4549 H 434.26 -2.75114 1.47373 0
M  V30 4550 N 434.561 -1.01147 -1.20859 0
M  V30 4551 C 435.809 -0.696486 -1.89719 0
M  V30 4552 C 436.13 0.775788 -1.78904 0
M  V30 4553 O 435.4 1.55759 -1.18811 0
M  V30 4554 H 433.98 -0.254628 -0.702263 0
M  V30 4555 H 436.642 -1.28197 -1.46804 0
M  V30 4556 H 435.738 -0.975357 -2.96468 0
M  V30 4557 N 436.039 1.36541 -0.78704 0
M  V30 4558 C 436.987 2.31965 -0.171724 0
M  V30 4559 C 437.981 1.55689 0.667631 0
M  V30 4560 O 439.187 1.70969 0.562981 0
M  V30 4561 H 435.562 0.751101 -0.0367545 0
M  V30 4562 H 437.533 2.81428 -0.992017 0
M  V30 4563 C 436.282 3.40968 0.680904 0
M  V30 4564 H 435.605 3.99775 0.0443961 0
M  V30 4565 H 437.045 4.10063 1.07815 0
M  V30 4566 C 435.504 2.82338 1.83813 0
M  V30 4567 O 436.034 2.74311 2.93456 0
M  V30 4568 N 434.24 2.39661 1.6435 0
M  V30 4569 H 433.787 2.46389 0.751668 0
M  V30 4570 H 433.745 2.00779 2.4194 0
M  V30 4571 N 437.518 0.538854 1.48102 0
M  V30 4572 C 438.929 0.100679 1.86428 0
M  V30 4573 C 439.28 -1.32447 1.44749 0
M  V30 4574 O 438.405 -1.99339 0.842199 0
M  V30 4575 C 439 0.175933 3.38343 0
M  V30 4576 C 437.559 -0.207098 3.7583 0
M  V30 4577 C 436.706 0.531741 2.72154 0
M  V30 4578 H 439.657 0.749614 1.3988 0
M  V30 4579 H 439.678 -0.610144 3.75576 0
M  V30 4580 H 439.19 1.21328 3.68648 0
M  V30 4581 H 437.291 -1.24626 3.5114 0
M  V30 4582 H 437.404 0.138687 4.78899 0
M  V30 4583 H 435.768 -0.0230462 2.5469 0
M  V30 4584 H 436.551 1.56989 3.05302 0
M  V30 4585 N 438.996 -1.55193 0.274407 0
M  V30 4586 C 439.926 -2.25471 -0.607032 0
M  V30 4587 C 440.907 -1.24461 -1.15946 0
M  V30 4588 O 442.092 -1.53179 -1.19373 0
M  V30 4589 C 439.222 -2.97526 -1.79153 0
M  V30 4590 C 438.176 -4.05459 -1.37067 0
M  V30 4591 C 437.502 -4.65084 -2.6382 0
M  V30 4592 C 438.802 -5.19691 -0.521389 0
M  V30 4593 H 440.496 -2.99393 -0.0209343 0
M  V30 4594 H 438.042 -1.43997 -0.00862866 0
M  V30 4595 H 439.995 -3.45402 -2.41404 0
M  V30 4596 H 438.719 -2.21138 -2.40344 0
M  V30 4597 H 437.378 -3.58393 -0.771355 0
M  V30 4598 H 437.026 -3.85365 -3.23268 0
M  V30 4599 H 436.726 -5.37961 -2.36372 0
M  V30 4600 H 438.25 -5.15708 -3.26921 0
M  V30 4601 H 439.664 -5.63623 -1.04889 0
M  V30 4602 H 438.061 -5.99126 -0.341825 0
M  V30 4603 H 439.131 -4.82713 0.46 0
M  V30 4604 N 440.474 -0.00167713 -1.576 0
M  V30 4605 C 441.437 0.974046 -2.07473 0
M  V30 4606 C 442.437 1.27143 -0.984444 0
M  V30 4607 O 443.627 1.21633 -1.24703 0
M  V30 4608 C 440.759 2.29849 -2.51759 0
M  V30 4609 H 441.952 0.54262 -2.9495 0
M  V30 4610 H 439.505 0.245829 -1.54355 0
M  V30 4611 H 440.24 2.77677 -1.67529 0
M  V30 4612 H 440.025 2.09584 -3.31386 0
M  V30 4613 H 441.515 2.9984 -2.90664 0
M  V30 4614 N 441.952 1.55251 0.271103 0
M  V30 4615 C 442.915 1.87484 1.31842 0
M  V30 4616 C 443.915 0.749545 1.42262 0
M  V30 4617 O 445.105 1.01771 1.4138 0
M  V30 4618 C 442.237 2.0818 2.69951 0
M  V30 4619 H 443.43 2.81108 1.0449 0
M  V30 4620 H 440.983 1.47771 0.509258 0
M  V30 4621 H 441.718 1.16944 3.02481 0
M  V30 4622 H 441.503 2.90114 2.63774 0
M  V30 4623 H 442.993 2.34385 3.4562 0
M  V30 4624 N 443.43 -0.535701 1.48216 0
M  V30 4625 C 444.393 -1.623 1.61838 0
M  V30 4626 C 445.393 -1.53087 0.492024 0
M  V30 4627 O 446.583 -1.5686 0.757668 0
M  V30 4628 C 443.715 -3.01907 1.58319 0
M  V30 4629 H 444.908 -1.51564 2.58783 0
M  V30 4630 H 442.461 -0.757317 1.36727 0
M  V30 4631 H 443.196 -3.18155 0.628299 0
M  V30 4632 H 442.981 -3.10003 2.40085 0
M  V30 4633 H 444.471 -3.80969 1.71033 0
M  V30 4634 N 444.908 -1.36708 -0.784132 0
M  V30 4635 C 446.157 -1.30559 -1.53744 0
M  V30 4636 C 446.47 0.111374 -1.95283 0
M  V30 4637 O 447.676 0.29527 -2.6989 0
M  V30 4638 C 446.132 -2.29098 -2.77565 0
M  V30 4639 C 445.74 -3.76258 -2.43174 0
M  V30 4640 C 447.484 -2.31936 -3.55536 0
M  V30 4641 C 445.391 -4.6656 -3.63422 0
M  V30 4642 H 444.321 -0.48518 -0.577162 0
M  V30 4643 H 446.972 -1.62101 -0.859981 0
M  V30 4644 H 445.354 -1.90557 -3.47137 0
M  V30 4645 H 446.528 -4.23565 -1.81465 0
M  V30 4646 H 444.843 -3.76246 -1.78403 0
M  V30 4647 H 447.44 -2.9661 -4.44889 0
M  V30 4648 H 447.783 -1.3294 -3.94503 0
M  V30 4649 H 448.316 -2.6912 -2.92949 0
M  V30 4650 H 445.055 -5.66638 -3.29547 0
M  V30 4651 H 444.575 -4.23966 -4.24279 0
M  V30 4652 H 446.254 -4.8309 -4.30387 0
M  V30 4653 N 446.386 1.0089 -1.21074 0
M  V30 4654 C 447.626 1.76142 -1.03699 0
M  V30 4655 C 447.99 1.87292 0.422587 0
M  V30 4656 O 449.191 2.59068 0.716752 0
M  V30 4657 C 447.462 3.13805 -1.7106 0
M  V30 4658 S 449.021 4.04996 -1.68889 0
M  V30 4659 H 445.839 0.606113 -0.371683 0
M  V30 4660 H 448.441 1.20744 -1.53756 0
M  V30 4661 H 447.145 3.0332 -2.76451 0
M  V30 4662 H 446.676 3.74276 -1.21166 0
M  V30 4663 H 448.691 4.90842 -0.727211 0
M  V30 4664 N 447.864 1.01787 1.20321 0
M  V30 4665 C 449.11 0.708985 1.90003 0
M  V30 4666 C 449.443 -0.759572 1.78729 0
M  V30 4667 O 448.718 -1.55198 1.17234 0
M  V30 4668 C 449.001 1.1469 3.41348 0
M  V30 4669 C 448.854 2.67586 3.61549 0
M  V30 4670 C 450.173 0.71915 4.34185 0
M  V30 4671 H 447.292 0.259034 0.689978 0
M  V30 4672 H 449.934 1.26584 1.41692 0
M  V30 4673 H 448.084 0.673128 3.82624 0
M  V30 4674 H 449.756 3.22826 3.29517 0
M  V30 4675 H 447.999 3.085 3.04976 0
M  V30 4676 H 448.67 2.93281 4.67643 0
M  V30 4677 H 451.146 1.12647 4.00562 0
M  V30 4678 H 450.022 1.05358 5.38694 0
M  V30 4679 H 450.283 -0.379111 4.40472 0
M  V30 4680 N 449.342 -1.36122 0.79427 0
M  V30 4681 C 450.252 -2.33769 0.197296 0
M  V30 4682 C 451.268 -1.61276 -0.653153 0
M  V30 4683 O 452.444 -1.9323 -0.5678 0
M  V30 4684 C 449.509 -3.40474 -0.654098 0
M  V30 4685 C 448.57 -4.28759 0.215411 0
M  V30 4686 C 447.803 -5.30368 -0.595443 0
M  V30 4687 O 448.026 -5.40211 -1.83107 0
M  V30 4688 O 446.96 -6.019 0.00721351 0
M  V30 4689 H 450.786 -2.86597 1.00478 0
M  V30 4690 H 448.371 -1.38676 0.555818 0
M  V30 4691 H 450.253 -4.05703 -1.13944 0
M  V30 4692 H 448.928 -2.89937 -1.43938 0
M  V30 4693 H 447.835 -3.66554 0.747615 0
M  V30 4694 H 449.168 -4.82661 0.964332 0
M  V30 4695 N 450.82 -0.546701 -1.47814 0
M  V30 4696 C 451.783 0.196287 -2.28358 0
M  V30 4697 C 452.783 0.852437 -1.36346 0
M  V30 4698 O 453.973 0.709913 -1.59078 0
M  V30 4699 C 451.105 1.28579 -3.15722 0
M  V30 4700 H 452.298 -0.511086 -2.95513 0
M  V30 4701 H 449.851 -0.303248 -1.5333 0
M  V30 4702 H 450.586 2.0259 -2.53235 0
M  V30 4703 H 450.371 0.820229 -3.83425 0
M  V30 4704 H 451.861 1.80793 -3.76435 0
M  V30 4705 N 452.299 1.55045 -0.282633 0
M  V30 4706 C 453.229 2.2579 0.595066 0
M  V30 4707 C 454.21 1.25074 1.15284 0
M  V30 4708 O 455.395 1.5381 1.18559 0
M  V30 4709 C 452.525 2.98472 1.77572 0
M  V30 4710 C 451.479 4.0618 1.34914 0
M  V30 4711 C 450.805 4.66477 2.6135 0
M  V30 4712 C 452.105 5.1996 0.493821 0
M  V30 4713 H 453.799 2.994 0.00505653 0
M  V30 4714 H 451.345 1.44 0.000992001 0
M  V30 4715 H 453.298 3.46677 2.39568 0
M  V30 4716 H 452.022 2.2241 2.39168 0
M  V30 4717 H 450.681 3.58797 0.752338 0
M  V30 4718 H 450.329 3.87074 3.2122 0
M  V30 4719 H 450.029 5.39207 2.33516 0
M  V30 4720 H 451.553 5.17435 3.24181 0
M  V30 4721 H 452.967 5.64172 1.01898 0
M  V30 4722 H 451.364 5.99299 0.310047 0
M  V30 4723 H 452.434 4.82462 -0.485593 0
M  V30 4724 N 453.777 0.010035 1.57597 0
M  V30 4725 C 454.724 -0.978122 2.09049 0
M  V30 4726 C 455.694 -1.33509 0.988159 0
M  V30 4727 O 456.879 -1.43172 1.26121 0
M  V30 4728 C 454.019 -2.26158 2.60666 0
M  V30 4729 C 453.132 -1.96275 3.84838 0
M  V30 4730 C 452.267 -3.18776 4.24918 0
M  V30 4731 C 451.306 -2.84625 5.41899 0
M  V30 4732 N 450.443 -3.99693 5.77226 0
M  V30 4733 H 455.283 -0.532431 2.93205 0
M  V30 4734 H 452.82 -0.251234 1.44939 0
M  V30 4735 H 454.778 -3.01202 2.88675 0
M  V30 4736 H 453.408 -2.68378 1.79369 0
M  V30 4737 H 452.46 -1.11555 3.63675 0
M  V30 4738 H 453.772 -1.67111 4.69974 0
M  V30 4739 H 452.926 -4.02157 4.54262 0
M  V30 4740 H 451.665 -3.51087 3.38511 0
M  V30 4741 H 450.67 -1.99653 5.12268 0
M  V30 4742 H 451.895 -2.53551 6.29991 0
M  V30 4743 H 449.841 -4.31882 4.93776 0
M  V30 4744 H 449.758 -3.74087 6.56959 0
M  V30 4745 H 451.026 -4.83834 6.11167 0
M  V30 4746 N 455.255 -1.55392 -0.262866 0
M  V30 4747 C 456.501 -1.76737 -0.99458 0
M  V30 4748 C 456.834 -0.572453 -1.85571 0
M  V30 4749 O 456.109 0.429732 -1.89693 0
M  V30 4750 C 456.392 -3.07824 -1.8686 0
M  V30 4751 C 456.245 -4.3769 -1.03672 0
M  V30 4752 C 457.564 -3.35021 -2.85393 0
M  V30 4753 H 454.683 -0.643005 -0.360157 0
M  V30 4754 H 457.325 -1.88126 -0.266216 0
M  V30 4755 H 455.475 -2.98245 -2.48962 0
M  V30 4756 H 457.147 -4.59238 -0.43563 0
M  V30 4757 H 455.39 -4.32461 -0.340513 0
M  V30 4758 H 456.061 -5.25759 -1.6817 0
M  V30 4759 H 458.537 -3.44458 -2.33426 0
M  V30 4760 H 457.413 -4.27989 -3.43681 0
M  V30 4761 H 457.674 -2.55153 -3.61039 0
M  V30 4762 N 456.733 0.527833 -1.48498 0
M  V30 4763 C 457.663 1.64136 -1.66077 0
M  V30 4764 C 458.644 1.62286 -0.509625 0
M  V30 4765 O 459.829 1.79449 -0.742413 0
M  V30 4766 C 456.959 3.02717 -1.70234 0
M  V30 4767 C 455.913 3.19426 -2.8487 0
M  V30 4768 C 455.239 4.5909 -2.74118 0
M  V30 4769 C 456.539 3.01993 -4.26142 0
M  V30 4770 H 458.233 1.4968 -2.593 0
M  V30 4771 H 455.779 0.718654 -1.24785 0
M  V30 4772 H 457.732 3.80491 -1.8112 0
M  V30 4773 H 456.456 3.18201 -0.735911 0
M  V30 4774 H 455.115 2.4407 -2.73542 0
M  V30 4775 H 454.763 4.71413 -1.7544 0
M  V30 4776 H 454.463 4.71214 -3.51042 0
M  V30 4777 H 455.987 5.3896 -2.86974 0
M  V30 4778 H 457.401 3.69558 -4.38292 0
M  V30 4779 H 455.798 3.2561 -5.04082 0
M  V30 4780 H 456.868 1.98396 -4.42456 0
M  V30 4781 N 458.211 1.37122 0.776871 0
M  V30 4782 C 459.46 1.31373 1.53049 0
M  V30 4783 C 459.773 -0.101016 1.95339 0
M  V30 4784 O 460.979 -0.280953 2.70042 0
M  V30 4785 C 459.435 2.30567 2.76346 0
M  V30 4786 C 459.043 3.77543 2.41175 0
M  V30 4787 C 460.787 2.33818 3.54301 0
M  V30 4788 C 458.694 4.68481 3.60943 0
M  V30 4789 H 457.624 0.488234 0.574581 0
M  V30 4790 H 460.275 1.62554 0.851372 0
M  V30 4791 H 458.657 1.92396 3.46121 0
M  V30 4792 H 459.831 4.24521 1.79216 0
M  V30 4793 H 458.146 3.77187 1.76405 0
M  V30 4794 H 460.743 2.98965 4.4331 0
M  V30 4795 H 461.086 1.3503 3.93793 0
M  V30 4796 H 461.619 2.7067 2.91518 0
M  V30 4797 H 458.358 5.68378 3.26537 0
M  V30 4798 H 457.878 4.2621 4.22025 0
M  V30 4799 H 459.557 4.85366 4.27819 0
M  V30 4800 N 459.689 -1.00246 1.21608 0
M  V30 4801 C 460.637 -2.11193 0.97469 0
M  V30 4802 C 461.631 -1.69216 -0.0789303 0
M  V30 4803 O 462.837 -1.79853 0.0726806 0
M  V30 4804 H 459.212 -0.690455 0.297953 0
M  V30 4805 H 461.183 -2.2873 1.91638 0
M  V30 4806 C 459.932 -3.43182 0.558717 0
M  V30 4807 H 459.255 -3.75918 1.3611 0
M  V30 4808 H 460.695 -4.21823 0.429154 0
M  V30 4809 C 459.154 -3.28882 -0.730648 0
M  V30 4810 O 459.684 -3.59835 -1.78554 0
M  V30 4811 N 457.89 -2.8209 -0.698131 0
M  V30 4812 H 457.437 -2.57099 0.16061 0
M  V30 4813 H 457.395 -2.72903 -1.56113 0
M  V30 4814 N 461.167 -1.02423 -1.1978 0
M  V30 4815 C 462.077 -0.610919 -2.26506 0
M  V30 4816 C 463.093 0.355152 -1.70337 0
M  V30 4817 O 464.269 0.214195 -2.00258 0
M  V30 4818 C 461.334 0.0365921 -3.46681 0
M  V30 4819 C 460.395 -0.976389 -4.18049 0
M  V30 4820 C 459.628 -0.359683 -5.32487 0
M  V30 4821 O 459.851 0.838601 -5.64202 0
M  V30 4822 O 458.785 -1.08022 -5.92127 0
M  V30 4823 H 462.611 -1.49965 -2.64091 0
M  V30 4824 H 460.196 -0.794156 -1.26545 0
M  V30 4825 H 462.078 0.39786 -4.19518 0
M  V30 4826 H 460.753 0.899398 -3.10954 0
M  V30 4827 H 459.66 -1.38916 -3.47352 0
M  V30 4828 H 460.993 -1.80941 -4.57735 0
M  V30 4829 N 462.645 1.35699 -0.801477 0
M  V30 4830 C 463.592 2.29876 -0.206294 0
M  V30 4831 C 464.562 1.52565 0.656752 0
M  V30 4832 O 465.747 1.81024 0.602906 0
M  V30 4833 C 462.887 3.39052 0.643272 0
M  V30 4834 C 462 4.31335 -0.239644 0
M  V30 4835 C 461.135 5.27599 0.61744 0
M  V30 4836 C 460.174 6.11521 -0.26619 0
M  V30 4837 N 459.311 6.99938 0.550571 0
M  V30 4838 H 464.151 2.80187 -1.01484 0
M  V30 4839 H 461.688 1.37902 -0.511997 0
M  V30 4840 H 463.646 4.0101 1.15094 0
M  V30 4841 H 462.276 2.9003 1.41713 0
M  V30 4842 H 461.328 3.70426 -0.865381 0
M  V30 4843 H 462.64 4.90243 -0.919985 0
M  V30 4844 H 461.794 5.94906 1.19045 0
M  V30 4845 H 460.533 4.69176 1.33137 0
M  V30 4846 H 459.538 5.43166 -0.851507 0
M  V30 4847 H 460.763 6.72022 -0.9779 0
M  V30 4848 H 458.709 6.44008 1.24856 0
M  V30 4849 H 458.626 7.55966 -0.071832 0
M  V30 4850 H 459.894 7.71599 1.10702 0
M  V30 4851 N 464.123 0.554532 1.47522 0
M  V30 4852 C 465.053 -0.182974 2.32782 0
M  V30 4853 C 466.034 -0.911377 1.43624 0
M  V30 4854 O 467.219 -0.892366 1.72483 0
M  V30 4855 C 464.349 -1.21513 3.25349 0
M  V30 4856 C 463.303 -0.603355 4.23726 0
M  V30 4857 C 462.629 -1.73995 5.05598 0
M  V30 4858 C 463.929 0.441121 5.20434 0
M  V30 4859 H 465.623 0.52882 2.94693 0
M  V30 4860 H 463.169 0.255759 1.41711 0
M  V30 4861 H 465.122 -1.73922 3.83835 0
M  V30 4862 H 463.846 -1.95683 2.61487 0
M  V30 4863 H 462.505 -0.10059 3.66462 0
M  V30 4864 H 462.153 -2.47063 4.38143 0
M  V30 4865 H 461.853 -1.3364 5.72201 0
M  V30 4866 H 463.377 -2.26735 5.66942 0
M  V30 4867 H 464.791 0.00319931 5.733 0
M  V30 4868 H 463.188 0.763402 5.95224 0
M  V30 4869 H 464.258 1.33799 4.66075 0
M  V30 4870 N 465.601 -1.54893 0.290851 0
M  V30 4871 C 466.841 -2.01842 -0.322388 0
M  V30 4872 C 467.205 -1.17477 -1.51865 0
M  V30 4873 O 468.406 -1.54077 -2.20258 0
M  V30 4874 C 466.677 -3.50874 -0.679844 0
M  V30 4875 S 468.236 -4.19796 -1.27739 0
M  V30 4876 H 465.054 -0.704005 -0.0994866 0
M  V30 4877 H 467.656 -1.91015 0.416358 0
M  V30 4878 H 466.36 -4.09915 0.199435 0
M  V30 4879 H 465.891 -3.65717 -1.44964 0
M  V30 4880 H 467.906 -4.24729 -2.56554 0
M  V30 4881 N 467.08 -0.0183926 -1.57589 0
M  V30 4882 C 467.99 0.982943 -2.13015 0
M  V30 4883 C 469.006 1.36443 -1.07979 0
M  V30 4884 O 470.182 1.44802 -1.3998 0
M  V30 4885 C 467.247 2.25024 -2.63752 0
M  V30 4886 C 466.308 1.93018 -3.83461 0
M  V30 4887 C 465.541 3.13706 -4.31769 0
M  V30 4888 O 465.764 4.2601 -3.79305 0
M  V30 4889 O 464.698 2.96629 -5.23732 0
M  V30 4890 H 468.524 0.541709 -2.9883 0
M  V30 4891 H 466.109 0.201565 -1.48034 0
M  V30 4892 H 467.991 2.99441 -2.96502 0
M  V30 4893 H 466.666 2.68349 -1.81026 0
M  V30 4894 H 465.573 1.16019 -3.55655 0
M  V30 4895 H 466.906 1.54516 -4.67317 0
M  V30 4896 N 468.558 1.5553 0.254621 0
M  V30 4897 C 469.506 1.9048 1.33492 0
M  V30 4898 C 470.5 0.78304 1.50216 0
M  V30 4899 O 471.706 0.967582 1.51782 0
M  V30 4900 H 468.081 0.604846 0.44684 0
M  V30 4901 H 470.052 2.80688 1.01275 0
M  V30 4902 C 468.801 2.20928 2.68489 0
M  V30 4903 H 468.124 3.06742 2.56417 0
M  V30 4904 H 469.564 2.49291 3.42972 0
M  V30 4905 C 468.023 1.023 3.20993 0
M  V30 4906 O 468.553 0.267027 4.00811 0
M  V30 4907 N 466.759 0.815714 2.78917 0
M  V30 4908 H 466.306 1.43217 2.14119 0
M  V30 4909 H 466.264 0.0236532 3.14391 0
M  V30 4910 N 470.036 -0.519951 1.48776 0
M  V30 4911 C 470.999 -1.60574 1.6355 0
M  V30 4912 C 471.999 -1.52557 0.508234 0
M  V30 4913 O 473.189 -1.56047 0.774262 0
M  V30 4914 C 470.321 -3.00211 1.61512 0
M  V30 4915 H 471.514 -1.4881 2.60376 0
M  V30 4916 H 469.067 -0.742772 1.37523 0
M  V30 4917 H 469.802 -3.17471 0.662009 0
M  V30 4918 H 469.587 -3.07439 2.43359 0
M  V30 4919 H 471.077 -3.79134 1.75064 0
M  V30 4920 N 471.514 -1.37532 -0.769588 0
M  V30 4921 C 472.791 -1.23392 -1.51768 0
M  V30 4922 C 473.171 0.17157 -2.10402 0
M  V30 4923 O 472.519 1.17943 -1.95708 0
M  V30 4924 C 472.729 -2.33163 -2.59685 0
M  V30 4925 C 474.077 -2.70809 -3.27028 0
M  V30 4926 O 475.101 -2.32355 -2.69981 0
M  V30 4927 O 473.96 -3.37066 -4.30173 0
M  V30 4928 H 471.054 -0.481617 -0.67229 0
M  V30 4929 H 473.6 -1.49318 -0.806368 0
M  V30 4930 H 472.372 -3.27273 -2.14494 0
M  V30 4931 H 471.995 -2.08713 -3.38415 0
M  V30 4932 N 472.992 0.995999 -1.22138 0
M  V30 4933 C 473.939 2.08551 -0.988687 0
M  V30 4934 C 474.909 1.65864 0.0885021 0
M  V30 4935 O 476.094 1.90704 -0.0604589 0
M  V30 4936 C 473.234 3.40374 -0.569191 0
M  V30 4937 C 472.347 3.96421 -1.71681 0
M  V30 4938 C 471.482 5.1639 -1.2456 0
M  V30 4939 C 470.521 5.64567 -2.36497 0
M  V30 4940 N 469.658 6.75777 -1.90445 0
M  V30 4941 H 474.498 2.2779 -1.92135 0
M  V30 4942 H 472.035 1.1168 -0.957388 0
M  V30 4943 H 473.993 4.16068 -0.307166 0
M  V30 4944 H 472.623 3.21145 0.326462 0
M  V30 4945 H 471.675 3.17628 -2.09324 0
M  V30 4946 H 472.987 4.2816 -2.55891 0
M  V30 4947 H 472.141 5.99362 -0.940774 0
M  V30 4948 H 470.88 4.86266 -0.373662 0
M  V30 4949 H 469.885 4.80185 -2.67772 0
M  V30 4950 H 471.11 5.96716 -3.24202 0
M  V30 4951 H 469.056 6.47443 -1.05609 0
M  V30 4952 H 468.973 7.06818 -2.68223 0
M  V30 4953 H 470.241 7.62262 -1.63022 0
M  V30 4954 N 474.47 1.03057 1.19235 0
M  V30 4955 C 475.4 0.633497 2.24742 0
M  V30 4956 C 476.381 -0.358335 1.66283 0
M  V30 4957 O 477.566 -0.240676 1.92703 0
M  V30 4958 C 474.696 -0.0147648 3.47297 0
M  V30 4959 C 473.65 0.899527 4.18441 0
M  V30 4960 C 472.976 0.116281 5.34574 0
M  V30 4961 C 474.276 2.21404 4.73051 0
M  V30 4962 H 475.97 1.5155 2.58211 0
M  V30 4963 H 473.516 0.73014 1.24117 0
M  V30 4964 H 475.469 -0.304202 4.20301 0
M  V30 4965 H 474.193 -0.931577 3.13032 0
M  V30 4966 H 472.852 1.17319 3.47321 0
M  V30 4967 H 472.5 -0.802619 4.96555 0
M  V30 4968 H 472.2 0.725293 5.83107 0
M  V30 4969 H 473.724 -0.166376 6.10373 0
M  V30 4970 H 475.138 1.98601 5.37802 0
M  V30 4971 H 473.535 2.77512 5.32078 0
M  V30 4972 H 474.605 2.86752 3.91026 0
M  V30 4973 N 475.948 -1.35272 0.808662 0
M  V30 4974 C 477.196 -1.98316 0.389233 0
M  V30 4975 C 477.517 -1.64465 -1.04767 0
M  V30 4976 O 476.787 -0.928175 -1.72516 0
M  V30 4977 H 475.367 -0.733585 0.140935 0
M  V30 4978 H 478.029 -1.6515 1.03496 0
M  V30 4979 H 477.125 -3.08123 0.496631 0
M  V30 4980 N 477.426 -0.562348 -1.47226 0
M  V30 4981 C 478.389 0.172056 -2.28553 0
M  V30 4982 C 479.389 0.837928 -1.37242 0
M  V30 4983 O 480.579 0.693001 -1.59822 0
M  V30 4984 C 477.711 1.25223 -3.17068 0
M  V30 4985 H 478.904 -0.542401 -2.94954 0
M  V30 4986 H 476.457 -0.319493 -1.53 0
M  V30 4987 H 477.192 1.99892 -2.55369 0
M  V30 4988 H 476.977 0.779515 -3.84273 0
M  V30 4989 H 478.467 1.76791 -3.78332 0
M  V30 4990 N 478.904 1.54736 -0.299062 0
M  V30 4991 C 480.315 1.8569 0.193971 0
M  V30 4992 C 480.666 1.22101 1.53577 0
M  V30 4993 O 479.791 0.51799 2.10109 0
M  V30 4994 C 480.386 3.36895 0.358733 0
M  V30 4995 C 478.945 3.67887 0.795986 0
M  V30 4996 C 478.092 2.77131 -0.096807 0
M  V30 4997 H 481.043 1.49934 -0.520134 0
M  V30 4998 H 481.064 3.61294 1.19361 0
M  V30 4999 H 480.576 3.83148 -0.617998 0
M  V30 5000 H 478.677 3.27151 1.78334 0
M  V30 5001 H 478.79 4.75114 0.616718 0
M  V30 5002 H 477.154 2.51153 0.423581 0
M  V30 5003 H 477.937 3.26204 -1.06986 0
M  V30 5004 N 480.382 0.0267497 1.57577 0
M  V30 5005 C 481.629 -0.652404 1.91703 0
M  V30 5006 C 481.957 -1.72271 0.902936 0
M  V30 5007 O 481.212 -1.955 -0.0884843 0
M  V30 5008 C 481.511 -1.30914 3.3256 0
M  V30 5009 C 481.177 -0.369441 4.49384 0
M  V30 5010 C 479.839 -0.110791 4.81072 0
M  V30 5011 C 482.191 0.275971 5.20469 0
M  V30 5012 C 479.519 0.801116 5.81205 0
M  V30 5013 C 481.871 1.17592 6.21575 0
M  V30 5014 C 480.535 1.44348 6.51705 0
M  V30 5015 H 479.805 -0.238732 0.70149 0
M  V30 5016 H 482.452 0.0880091 1.91298 0
M  V30 5017 H 480.757 -2.12425 3.29216 0
M  V30 5018 H 482.454 -1.84115 3.56234 0
M  V30 5019 H 479.044 -0.581211 4.24641 0
M  V30 5020 H 483.228 0.0892 4.9622 0
M  V30 5021 H 478.484 1.01614 6.02897 0
M  V30 5022 H 482.658 1.68223 6.75777 0
M  V30 5023 H 480.285 2.15176 7.29111 0
M  V30 5024 N 481.861 -1.55662 -0.24637 0
M  V30 5025 C 482.791 -1.93377 -1.30873 0
M  V30 5026 C 483.772 -0.798773 -1.50179 0
M  V30 5027 O 484.957 -1.0591 -1.62778 0
M  V30 5028 C 482.087 -2.22893 -2.66338 0
M  V30 5029 C 481.041 -3.38649 -2.61727 0
M  V30 5030 C 480.367 -3.53708 -4.00992 0
M  V30 5031 C 481.667 -4.74323 -2.18666 0
M  V30 5032 H 483.361 -2.82363 -0.995552 0
M  V30 5033 H 480.907 -1.35854 -0.477464 0
M  V30 5034 H 482.86 -2.47866 -3.40794 0
M  V30 5035 H 481.584 -1.30733 -2.99293 0
M  V30 5036 H 480.243 -3.13685 -1.89729 0
M  V30 5037 H 479.891 -2.58967 -4.31214 0
M  V30 5038 H 479.591 -4.31551 -3.98795 0
M  V30 5039 H 481.115 -3.81003 -4.77147 0
M  V30 5040 H 482.529 -4.98665 -2.82854 0
M  V30 5041 H 480.926 -5.55273 -2.27579 0
M  V30 5042 H 481.996 -4.71349 -1.13834 0
M  V30 5043 N 483.339 0.512053 -1.4905 0
M  V30 5044 C 484.271 1.63121 -1.6101 0
M  V30 5045 C 485.284 1.55145 -0.493352 0
M  V30 5046 O 486.473 1.61278 -0.764955 0
M  V30 5047 C 483.573 3.01863 -1.54052 0
M  V30 5048 C 482.746 3.35138 -2.81072 0
M  V30 5049 C 481.805 4.5324 -2.67319 0
M  V30 5050 O 480.831 4.55571 -3.41238 0
M  V30 5051 N 482.033 5.52495 -1.78127 0
M  V30 5052 H 484.798 1.53292 -2.5753 0
M  V30 5053 H 482.359 0.699706 -1.45999 0
M  V30 5054 H 484.351 3.78774 -1.42521 0
M  V30 5055 H 482.921 3.05675 -0.654345 0
M  V30 5056 H 482.141 2.4723 -3.07036 0
M  V30 5057 H 483.429 3.54162 -3.65304 0
M  V30 5058 H 482.827 5.53403 -1.17308 0
M  V30 5059 H 481.384 6.28553 -1.72525 0
M  V30 5060 N 484.817 1.37938 0.762283 0
M  V30 5061 C 485.765 1.34569 1.89721 0
M  V30 5062 C 486.759 0.232929 1.67791 0
M  V30 5063 O 487.965 0.401485 1.75465 0
M  V30 5064 H 484.34 0.419594 0.624055 0
M  V30 5065 H 486.311 2.30357 1.8968 0
M  V30 5066 C 485.06 1.17898 3.27101 0
M  V30 5067 H 484.383 2.02781 3.44558 0
M  V30 5068 H 485.823 1.19593 4.06784 0
M  V30 5069 C 484.282 -0.114728 3.36705 0
M  V30 5070 O 484.812 -1.0949 3.8649 0
M  V30 5071 N 483.018 -0.16863 2.9011 0
M  V30 5072 H 482.565 0.62967 2.49786 0
M  V30 5073 H 482.523 -1.03383 2.96916 0
M  V30 5074 N 486.295 -0.989507 1.22664 0
M  V30 5075 C 487.225 -2.09847 1.02404 0
M  V30 5076 C 488.206 -1.70007 -0.0561303 0
M  V30 5077 O 489.391 -1.93906 0.106748 0
M  V30 5078 C 486.521 -3.41996 0.604663 0
M  V30 5079 C 485.475 -3.95699 1.63115 0
M  V30 5080 C 484.801 -5.23936 1.0675 0
M  V30 5081 C 486.101 -4.25999 3.02196 0
M  V30 5082 H 487.795 -2.27054 1.95158 0
M  V30 5083 H 485.341 -1.09111 0.939727 0
M  V30 5084 H 487.294 -4.1899 0.45002 0
M  V30 5085 H 486.018 -3.24626 -0.35855 0
M  V30 5086 H 484.677 -3.2084 1.77362 0
M  V30 5087 H 484.325 -5.02909 0.0955422 0
M  V30 5088 H 484.025 -5.60833 1.75328 0
M  V30 5089 H 485.549 -6.0356 0.924516 0
M  V30 5090 H 486.963 -4.93777 2.91303 0
M  V30 5091 H 485.36 -4.74076 3.67929 0
M  V30 5092 H 486.43 -3.33636 3.51873 0
M  V30 5093 N 487.773 -1.03688 -1.18687 0
M  V30 5094 C 488.72 -0.624624 -2.22187 0
M  V30 5095 C 489.69 0.365636 -1.62026 0
M  V30 5096 O 490.875 0.260481 -1.89014 0
M  V30 5097 C 488.015 0.0101738 -3.45099 0
M  V30 5098 C 487.128 -1.02709 -4.19613 0
M  V30 5099 C 486.263 -0.361213 -5.2997 0
M  V30 5100 C 485.302 -1.38384 -5.96252 0
M  V30 5101 N 484.439 -0.743196 -6.98155 0
M  V30 5102 H 489.279 -1.51176 -2.56807 0
M  V30 5103 H 486.816 -0.75636 -1.26165 0
M  V30 5104 H 488.774 0.395528 -4.15321 0
M  V30 5105 H 487.404 0.860848 -3.1111 0
M  V30 5106 H 486.456 -1.53043 -3.48256 0
M  V30 5107 H 487.768 -1.80398 -4.65036 0
M  V30 5108 H 486.922 0.0785537 -6.06649 0
M  V30 5109 H 485.661 0.447799 -4.8564 0
M  V30 5110 H 484.666 -1.83378 -5.18317 0
M  V30 5111 H 485.891 -2.19448 -6.42666 0
M  V30 5112 H 483.837 0.0455789 -6.55984 0
M  V30 5113 H 483.754 -1.45784 -7.41811 0
M  V30 5114 H 485.022 -0.327698 -7.78811 0
M  V30 5115 N 489.251 1.34841 -0.815825 0
M  V30 5116 C 490.161 2.33425 -0.234462 0
M  V30 5117 C 491.177 1.62295 0.627413 0
M  V30 5118 O 492.353 1.94109 0.536987 0
M  V30 5119 C 489.418 3.41471 0.599849 0
M  V30 5120 C 488.479 4.28362 -0.283596 0
M  V30 5121 C 487.712 5.31248 0.51099 0
M  V30 5122 O 487.935 5.43056 1.7449 0
M  V30 5123 O 486.869 6.01812 -0.10297 0
M  V30 5124 H 490.695 2.84962 -1.05024 0
M  V30 5125 H 488.28 1.37774 -0.577809 0
M  V30 5126 H 490.162 4.07464 1.07475 0
M  V30 5127 H 488.837 2.9219 1.39308 0
M  V30 5128 H 487.744 3.65318 -0.805836 0
M  V30 5129 H 489.077 4.81066 -1.041 0
M  V30 5130 N 490.729 0.570148 1.46925 0
M  V30 5131 C 491.661 -0.207909 2.28255 0
M  V30 5132 C 492.674 -0.867301 1.37774 0
M  V30 5133 O 493.863 -0.738976 1.62485 0
M  V30 5134 C 490.963 -1.31298 3.12433 0
M  V30 5135 C 490.136 -0.747915 4.30958 0
M  V30 5136 C 489.195 -1.7391 4.9663 0
M  V30 5137 O 488.221 -1.2801 5.54619 0
M  V30 5138 N 489.423 -3.07288 4.92498 0
M  V30 5139 H 492.188 0.489794 2.95671 0
M  V30 5140 H 489.749 0.407076 1.56699 0
M  V30 5141 H 491.741 -1.97507 3.53232 0
M  V30 5142 H 490.311 -1.91373 2.47175 0
M  V30 5143 H 489.531 0.0913066 3.94094 0
M  V30 5144 H 490.819 -0.349958 5.07595 0
M  V30 5145 H 490.217 -3.47213 4.46609 0
M  V30 5146 H 488.774 -3.69021 5.37277 0
M  V30 5147 N 492.207 -1.54576 0.307264 0
M  V30 5148 C 493.137 -2.26708 -0.55907 0
M  V30 5149 C 494.118 -1.26893 -1.1328 0
M  V30 5150 O 495.303 -1.55677 -1.16097 0
M  V30 5151 C 492.433 -3.01259 -1.72801 0
M  V30 5152 C 491.387 -4.08275 -1.28435 0
M  V30 5153 C 490.713 -4.70575 -2.53895 0
M  V30 5154 C 492.013 -5.2068 -0.411038 0
M  V30 5155 H 493.707 -2.9937 0.042576 0
M  V30 5156 H 491.253 -1.43983 0.0219173 0
M  V30 5157 H 493.206 -3.50444 -2.34023 0
M  V30 5158 H 491.93 -2.26187 -2.356 0
M  V30 5159 H 490.589 -3.59949 -0.695161 0
M  V30 5160 H 490.237 -3.92136 -3.15021 0
M  V30 5161 H 489.937 -5.42854 -2.24908 0
M  V30 5162 H 491.461 -5.22527 -3.15908 0
M  V30 5163 H 492.875 -5.65721 -0.929097 0
M  V30 5164 H 491.272 -5.99716 -0.214664 0
M  V30 5165 H 492.342 -4.81629 0.562287 0
M  V30 5166 N 493.685 -0.035106 -1.57561 0
M  V30 5167 C 494.632 0.94474 -2.10578 0
M  V30 5168 C 495.602 1.3192 -1.00927 0
M  V30 5169 O 496.787 1.41147 -1.28382 0
M  V30 5170 C 493.927 2.21982 -2.64231 0
M  V30 5171 C 493.04 1.90128 -3.87911 0
M  V30 5172 C 492.175 3.11975 -4.29936 0
M  V30 5173 C 491.214 2.75968 -5.46359 0
M  V30 5174 N 490.351 3.90459 -5.83512 0
M  V30 5175 H 495.191 0.485717 -2.94015 0
M  V30 5176 H 492.728 0.228143 -1.4532 0
M  V30 5177 H 494.686 2.96572 -2.9343 0
M  V30 5178 H 493.316 2.6549 -1.83616 0
M  V30 5179 H 492.368 1.05755 -3.65404 0
M  V30 5180 H 493.68 1.59613 -4.72573 0
M  V30 5181 H 492.834 3.9488 -4.60603 0
M  V30 5182 H 491.573 3.45657 -3.44053 0
M  V30 5183 H 490.578 1.91478 -5.1538 0
M  V30 5184 H 491.803 2.43497 -6.33945 0
M  V30 5185 H 489.749 4.23971 -5.00584 0
M  V30 5186 H 489.666 3.63588 -6.62827 0
M  V30 5187 H 490.934 4.7405 -6.18787 0
M  V30 5188 N 495.163 1.55791 0.238111 0
M  V30 5189 C 496.44 1.68798 0.98826 0
M  V30 5190 C 496.82 0.577562 2.03045 0
M  V30 5191 O 496.168 -0.41778 2.24648 0
M  V30 5192 C 496.378 3.09454 1.61367 0
M  V30 5193 C 497.726 3.68335 2.11221 0
M  V30 5194 O 498.75 3.1231 1.71292 0
M  V30 5195 O 497.609 4.6657 2.84561 0
M  V30 5196 H 494.703 0.686881 0.460568 0
M  V30 5197 H 497.249 1.68118 0.231202 0
M  V30 5198 H 496.021 3.81726 0.860295 0
M  V30 5199 H 495.644 3.14182 2.4367 0
M  V30 5200 N 496.642 -0.504142 1.49319 0
M  V30 5201 C 497.867 -1.28729 1.62615 0
M  V30 5202 C 498.292 -1.85752 0.296309 0
M  V30 5203 O 497.65 -1.65704 -0.735649 0
M  V30 5204 C 497.698 -2.39561 2.69524 0
M  V30 5205 O 496.802 -3.43324 2.28478 0
M  V30 5206 H 496.143 -0.380172 0.544395 0
M  V30 5207 H 498.673 -0.603872 1.95485 0
M  V30 5208 H 498.683 -2.8537 2.91595 0
M  V30 5209 H 497.358 -1.97423 3.66056 0
M  V30 5210 H 495.935 -3.03455 2.16725 0
M  V30 5211 N 498.12 -1.38341 -0.754957 0
M  V30 5212 C 499.067 -1.3546 -1.86867 0
M  V30 5213 C 500.037 -0.217369 -1.64672 0
M  V30 5214 O 501.222 -0.409383 -1.86356 0
M  V30 5215 C 498.362 -1.18413 -3.24149 0
M  V30 5216 C 497.475 -2.41511 -3.58185 0
M  V30 5217 C 496.61 -2.17205 -4.84763 0
M  V30 5218 C 495.649 -3.36081 -5.11582 0
M  V30 5219 N 494.786 -3.11219 -6.29354 0
M  V30 5220 H 499.626 -2.30672 -1.88664 0
M  V30 5221 H 497.163 -1.14607 -0.922154 0
M  V30 5222 H 499.121 -1.06545 -4.03366 0
M  V30 5223 H 497.751 -0.268397 -3.21682 0
M  V30 5224 H 496.803 -2.64056 -2.73822 0
M  V30 5225 H 498.115 -3.30115 -3.73932 0
M  V30 5226 H 497.269 -2.02465 -5.7192 0
M  V30 5227 H 496.008 -1.25964 -4.71152 0
M  V30 5228 H 495.013 -3.51341 -4.22894 0
M  V30 5229 H 496.238 -4.28196 -5.27091 0
M  V30 5230 H 494.184 -2.22624 -6.17069 0
M  V30 5231 H 494.101 -3.93373 -6.45596 0
M  V30 5232 H 495.369 -3.00132 -7.19403 0
M  V30 5233 N 499.598 0.982988 -1.23187 0
M  V30 5234 C 500.844 1.72648 -1.06398 0
M  V30 5235 C 501.177 1.90066 0.398561 0
M  V30 5236 O 500.452 1.45105 1.29518 0
M  V30 5237 C 500.735 3.12627 -1.78707 0
M  V30 5238 C 500.588 3.02795 -3.32618 0
M  V30 5239 C 501.907 4.11997 -1.54747 0
M  V30 5240 H 499.026 0.626649 -0.387918 0
M  V30 5241 H 501.668 1.14455 -1.51658 0
M  V30 5242 H 499.818 3.62308 -1.40234 0
M  V30 5243 H 501.49 2.60659 -3.80598 0
M  V30 5244 H 499.733 2.39362 -3.61785 0
M  V30 5245 H 500.404 4.01893 -3.78399 0
M  V30 5246 H 502.88 3.71114 -1.88186 0
M  V30 5247 H 501.756 5.08037 -2.07821 0
M  V30 5248 H 502.017 4.39462 -0.482249 0
M  V30 5249 N 501.076 1.04316 1.18135 0
M  V30 5250 C 502.322 0.749128 1.88457 0
M  V30 5251 C 502.655 -0.72149 1.803 0
M  V30 5252 O 501.93 -1.52676 1.205 0
M  V30 5253 C 502.213 1.21905 3.38838 0
M  V30 5254 C 502.066 2.75195 3.55792 0
M  V30 5255 C 503.385 0.811085 4.32561 0
M  V30 5256 H 500.504 0.273611 0.684329 0
M  V30 5257 H 503.146 1.29561 1.38975 0
M  V30 5258 H 501.296 0.754137 3.8111 0
M  V30 5259 H 502.968 3.29743 3.22595 0
M  V30 5260 H 501.211 3.14899 2.98364 0
M  V30 5261 H 501.882 3.03135 4.61317 0
M  V30 5262 H 504.358 1.21118 3.98082 0
M  V30 5263 H 503.234 1.16761 5.36338 0
M  V30 5264 H 503.495 -0.285596 4.41177 0
M  V30 5265 N 502.554 -1.34406 0.822964 0
M  V30 5266 C 503.97 -1.51275 0.508727 0
M  V30 5267 C 504.17 -1.76776 -0.967083 0
M  V30 5268 O 503.226 -1.81871 -1.75155 0
M  V30 5269 C 504.539 -2.67765 1.36829 0
M  V30 5270 C 506.087 -2.81647 1.36542 0
M  V30 5271 C 506.562 -4.01181 2.20947 0
M  V30 5272 N 508.053 -4.08388 2.18571 0
M  V30 5273 C 508.788 -5.00036 2.80627 0
M  V30 5274 N 508.284 -5.96906 3.51674 0
M  V30 5275 N 510.077 -4.92908 2.70181 0
M  V30 5276 H 502.228 -1.16113 1.77852 0
M  V30 5277 H 504.491 -0.56947 0.757897 0
M  V30 5278 H 504.197 -2.55551 2.41633 0
M  V30 5279 H 504.071 -3.62779 1.03303 0
M  V30 5280 H 506.458 -2.93303 0.325163 0
M  V30 5281 H 506.539 -1.87443 1.74066 0
M  V30 5282 H 506.183 -3.90286 3.25022 0
M  V30 5283 H 506.113 -4.94599 1.80774 0
M  V30 5284 H 508.604 -3.39051 1.66891 0
M  V30 5285 H 508.917 -6.63468 3.96271 0
M  V30 5286 H 507.262 -5.9703 3.5578 0
M  V30 5287 H 510.453 -4.1619 2.14251 0
M  V30 5288 H 510.626 -5.64137 3.18831 0
M  V30 5289 N 504.032 -0.577932 -1.46621 0
M  V30 5290 C 504.942 0.160651 -2.34049 0
M  V30 5291 C 505.958 0.890911 -1.49462 0
M  V30 5292 O 507.134 0.855166 -1.82343 0
M  V30 5293 C 504.199 1.16447 -3.26559 0
M  V30 5294 C 503.26 0.4394 -4.27045 0
M  V30 5295 C 502.493 1.3954 -5.15135 0
M  V30 5296 O 502.716 2.63162 -5.06065 0
M  V30 5297 O 501.65 0.908585 -5.95003 0
M  V30 5298 H 505.476 -0.557057 -2.98547 0
M  V30 5299 H 503.061 -0.338369 -1.45518 0
M  V30 5300 H 504.943 1.7434 -3.83645 0
M  V30 5301 H 503.618 1.86373 -2.64663 0
M  V30 5302 H 502.525 -0.181247 -3.73661 0
M  V30 5303 H 503.858 -0.218799 -4.91713 0
M  V30 5304 N 505.51 1.54411 -0.315457 0
M  V30 5305 C 506.756 2.00716 0.289972 0
M  V30 5306 C 507.089 1.2034 1.5242 0
M  V30 5307 O 506.364 0.283579 1.92422 0
M  V30 5308 C 506.647 3.54507 0.632196 0
M  V30 5309 C 506.5 4.45615 -0.61218 0
M  V30 5310 C 507.819 4.15421 1.45305 0
M  V30 5311 H 504.938 0.729637 0.10392 0
M  V30 5312 H 507.58 1.8506 -0.430427 0
M  V30 5313 H 505.73 3.67979 1.24595 0
M  V30 5314 H 507.402 4.44026 -1.25053 0
M  V30 5315 H 505.645 4.15621 -1.24264 0
M  V30 5316 H 506.316 5.51022 -0.328379 0
M  V30 5317 H 508.792 4.05474 0.934331 0
M  V30 5318 H 507.668 5.23157 1.66127 0
M  V30 5319 H 507.929 3.68223 2.44671 0
M  V30 5320 N 506.988 0.0434614 1.5754 0
M  V30 5321 C 508.404 -0.313039 1.565 0
M  V30 5322 C 508.604 -1.71954 1.05043 0
M  V30 5323 O 507.66 -2.425 0.703564 0
M  V30 5324 C 508.973 -0.148544 3.00333 0
M  V30 5325 C 510.521 -0.220231 3.12224 0
M  V30 5326 C 510.996 -0.0843565 4.57922 0
M  V30 5327 N 512.487 -0.140881 4.62986 0
M  V30 5328 C 513.222 -0.0597443 5.73369 0
M  V30 5329 N 512.718 0.0733004 6.92761 0
M  V30 5330 N 514.511 -0.11477 5.61983 0
M  V30 5331 H 506.662 0.96303 1.89313 0
M  V30 5332 H 508.925 0.373164 0.871466 0
M  V30 5333 H 508.631 0.820894 3.41986 0
M  V30 5334 H 508.505 -0.912798 3.65989 0
M  V30 5335 H 510.892 -1.18014 2.70475 0
M  V30 5336 H 510.973 0.574646 2.49262 0
M  V30 5337 H 510.617 0.872192 5.00355 0
M  V30 5338 H 510.547 -0.898281 5.18882 0
M  V30 5339 H 513.038 -0.243273 3.77116 0
M  V30 5340 H 513.351 0.128128 7.72694 0
M  V30 5341 H 511.696 0.10828 6.94916 0
M  V30 5342 H 514.887 -0.217212 4.67596 0
M  V30 5343 H 515.06 -0.0480779 6.47982 0
M  V30 5344 N 508.466 -1.55915 -0.229846 0
M  V30 5345 C 509.714 -1.7819 -0.953565 0
M  V30 5346 C 510.035 -0.610504 -1.85197 0
M  V30 5347 O 509.305 0.372988 -1.92316 0
M  V30 5348 H 507.885 -0.657208 -0.355087 0
M  V30 5349 H 510.547 -1.9337 -0.243693 0
M  V30 5350 H 509.643 -2.70011 -1.56527 0
M  V30 5351 N 509.944 0.496216 -1.49584 0
M  V30 5352 C 510.891 1.59722 -1.66606 0
M  V30 5353 C 511.861 1.58158 -0.507477 0
M  V30 5354 O 513.046 1.76072 -0.735076 0
M  V30 5355 C 510.186 2.97844 -1.74308 0
M  V30 5356 C 509.299 3.09388 -3.01502 0
M  V30 5357 C 508.434 4.38271 -3.00153 0
M  V30 5358 C 507.473 4.43466 -4.21906 0
M  V30 5359 N 506.61 5.63784 -4.1844 0
M  V30 5360 H 511.45 1.44515 -2.60613 0
M  V30 5361 H 508.987 0.703048 -1.29212 0
M  V30 5362 H 510.945 3.77907 -1.76754 0
M  V30 5363 H 509.575 3.11743 -0.837619 0
M  V30 5364 H 508.627 2.22357 -3.08645 0
M  V30 5365 H 509.939 3.09085 -3.91494 0
M  V30 5366 H 509.093 5.2666 -3.01188 0
M  V30 5367 H 507.832 4.41146 -2.07947 0
M  V30 5368 H 506.837 3.53478 -4.21109 0
M  V30 5369 H 508.062 4.42303 -5.1531 0
M  V30 5370 H 506.008 5.67491 -3.29074 0
M  V30 5371 H 505.925 5.65118 -5.02173 0
M  V30 5372 H 507.193 6.54367 -4.23585 0
M  V30 5373 N 511.423 1.38739 0.74761 0
M  V30 5374 C 512.671 1.35007 1.50391 0
M  V30 5375 C 512.992 -0.0574274 1.94915 0
M  V30 5376 O 512.262 -1.00628 1.6808 0
M  V30 5377 H 510.842 0.496784 0.557866 0
M  V30 5378 H 513.504 1.73479 0.888319 0
M  V30 5379 H 512.6 2.00474 2.392 0
M  V30 5380 N 512.901 -0.976442 1.23707 0
M  V30 5381 C 513.831 -2.08749 1.04624 0
M  V30 5382 C 514.812 -1.70057 -0.0380956 0
M  V30 5383 O 515.997 -1.93782 0.127308 0
M  V30 5384 C 513.127 -3.41335 0.640902 0
M  V30 5385 C 512.081 -3.93947 1.67302 0
M  V30 5386 C 511.407 -5.22774 1.12301 0
M  V30 5387 C 512.707 -4.22769 3.06697 0
M  V30 5388 H 514.401 -2.24972 1.97555 0
M  V30 5389 H 511.947 -1.08108 0.951247 0
M  V30 5390 H 513.9 -4.18489 0.494434 0
M  V30 5391 H 512.624 -3.24988 -0.324099 0
M  V30 5392 H 511.283 -3.18941 1.80755 0
M  V30 5393 H 510.931 -5.0278 0.148877 0
M  V30 5394 H 510.631 -5.58942 1.81267 0
M  V30 5395 H 512.155 -6.02546 0.988479 0
M  V30 5396 H 513.569 -4.90659 2.96524 0
M  V30 5397 H 511.966 -4.70147 3.72937 0
M  V30 5398 H 513.036 -3.29885 3.55392 0
M  V30 5399 N 514.379 -1.04941 -1.1758 0
M  V30 5400 C 515.309 -0.669172 -2.23706 0
M  V30 5401 C 516.29 0.331835 -1.66832 0
M  V30 5402 O 517.475 0.209988 -1.93061 0
M  V30 5403 C 514.605 -0.0404889 -3.47276 0
M  V30 5404 C 513.559 -0.965983 -4.16957 0
M  V30 5405 C 512.885 -0.201312 -5.34321 0
M  V30 5406 C 514.185 -2.28902 -4.69469 0
M  V30 5407 H 515.879 -1.55639 -2.55767 0
M  V30 5408 H 513.425 -0.749793 -1.22939 0
M  V30 5409 H 515.378 0.237298 -4.20731 0
M  V30 5410 H 514.102 0.881658 -3.14475 0
M  V30 5411 H 512.761 -1.22829 -3.45411 0
M  V30 5412 H 512.409 0.723519 -4.97769 0
M  V30 5413 H 512.109 -0.817968 -5.81879 0
M  V30 5414 H 513.633 0.0692499 -6.10561 0
M  V30 5415 H 515.047 -2.07132 -5.34574 0
M  V30 5416 H 513.444 -2.85942 -5.27596 0
M  V30 5417 H 514.514 -2.92937 -3.86414 0
M  V30 5418 N 515.857 1.33968 -0.830081 0
M  V30 5419 C 517.097 1.99879 -0.427521 0
M  V30 5420 C 517.461 1.64355 0.992546 0
M  V30 5421 O 518.662 2.23164 1.49837 0
M  V30 5422 C 516.933 3.51771 -0.631815 0
M  V30 5423 S 518.492 4.37608 -0.323168 0
M  V30 5424 H 515.31 0.692485 -0.161202 0
M  V30 5425 H 517.912 1.63129 -1.07745 0
M  V30 5426 H 516.616 3.75113 -1.66488 0
M  V30 5427 H 516.147 3.93386 0.0325936 0
M  V30 5428 H 518.162 4.88683 0.860432 0
M  V30 5429 N 517.335 0.585699 1.46312 0
M  V30 5430 C 518.298 -0.135673 2.28798 0
M  V30 5431 C 519.298 -0.815988 1.38558 0
M  V30 5432 O 520.488 -0.667487 1.60904 0
M  V30 5433 C 517.62 -1.20163 3.1902 0
M  V30 5434 H 518.813 0.589257 2.94054 0
M  V30 5435 H 516.366 0.343794 1.52472 0
M  V30 5436 H 517.101 -1.95804 2.58517 0
M  V30 5437 H 516.886 -0.718282 3.85465 0
M  V30 5438 H 518.376 -1.70749 3.81096 0
M  V30 5439 N 518.813 -1.54241 0.323641 0
M  V30 5440 C 520.062 -1.9975 -0.279806 0
M  V30 5441 C 520.375 -1.2156 -1.5324 0
M  V30 5442 O 521.581 -1.57447 -2.21185 0
M  V30 5443 C 520.037 -3.55686 -0.549115 0
M  V30 5444 C 519.645 -4.4271 0.686432 0
M  V30 5445 C 521.389 -4.09663 -1.11251 0
M  V30 5446 C 519.296 -5.90119 0.389022 0
M  V30 5447 H 518.226 -0.746177 -0.10833 0
M  V30 5448 H 520.877 -1.78248 0.435877 0
M  V30 5449 H 519.259 -3.73176 -1.32499 0
M  V30 5450 H 520.433 -4.36996 1.46188 0
M  V30 5451 H 518.748 -3.99623 1.17005 0
M  V30 5452 H 521.345 -5.17386 -1.34965 0
M  V30 5453 H 521.688 -3.61651 -2.06191 0
M  V30 5454 H 522.221 -3.95806 -0.39782 0
M  V30 5455 H 518.96 -6.42326 1.30759 0
M  V30 5456 H 518.48 -5.98785 -0.348722 0
M  V30 5457 H 520.159 -6.47 -0.0011164 0
M  V30 5458 N 520.291 -0.0518155 -1.57515 0
M  V30 5459 C 521.201 0.937539 -2.15052 0
M  V30 5460 C 522.217 1.34121 -1.10849 0
M  V30 5461 O 523.393 1.418 -1.4302 0
M  V30 5462 C 520.458 2.19379 -2.68466 0
M  V30 5463 C 519.519 1.84841 -3.87469 0
M  V30 5464 C 518.752 3.04477 -4.38326 0
M  V30 5465 O 518.975 4.17868 -3.88256 0
M  V30 5466 O 517.909 2.85453 -5.29906 0
M  V30 5467 H 521.735 0.478201 -2.99912 0
M  V30 5468 H 519.32 0.17012 -1.48428 0
M  V30 5469 H 521.202 2.93084 -3.02787 0
M  V30 5470 H 519.877 2.64449 -1.86677 0
M  V30 5471 H 518.784 1.08449 -3.58036 0
M  V30 5472 H 520.117 1.44569 -4.7049 0
M  V30 5473 N 521.769 1.56035 0.221574 0
M  V30 5474 C 523.016 1.79047 0.94597 0
M  V30 5475 C 523.344 0.62057 1.84334 0
M  V30 5476 O 522.599 -0.395053 1.91671 0
M  V30 5477 C 522.898 3.07813 1.8162 0
M  V30 5478 C 522.564 4.3797 1.07206 0
M  V30 5479 C 521.226 4.73334 0.866508 0
M  V30 5480 C 523.578 5.18326 0.546565 0
M  V30 5481 C 520.906 5.8657 0.123549 0
M  V30 5482 C 523.258 6.32335 -0.18305 0
M  V30 5483 C 521.922 6.66301 -0.399861 0
M  V30 5484 H 521.192 0.655178 0.346155 0
M  V30 5485 H 523.839 1.90299 0.214146 0
M  V30 5486 H 522.144 2.91682 2.61589 0
M  V30 5487 H 523.841 3.2282 2.37884 0
M  V30 5488 H 520.431 4.10202 1.24226 0
M  V30 5489 H 524.615 4.9144 0.692847 0
M  V30 5490 H 519.871 6.11376 -0.0546591 0
M  V30 5491 H 524.045 6.9383 -0.59775 0
M  V30 5492 H 521.672 7.53889 -0.977489 0
M  V30 5493 N 523.247 -0.488276 1.49845 0
M  V30 5494 C 524.194 -1.58836 1.67451 0
M  V30 5495 C 525.164 -1.57886 0.515857 0
M  V30 5496 O 526.349 -1.75679 0.744403 0
M  V30 5497 C 523.489 -2.96915 1.75885 0
M  V30 5498 C 522.602 -3.07784 3.03138 0
M  V30 5499 C 521.737 -4.36673 3.02473 0
M  V30 5500 C 520.776 -4.41222 4.24252 0
M  V30 5501 N 519.913 -5.61557 4.21424 0
M  V30 5502 H 524.753 -1.43131 2.61376 0
M  V30 5503 H 522.29 -0.696186 1.29583 0
M  V30 5504 H 524.248 -3.76965 1.78755 0
M  V30 5505 H 522.878 -3.11295 0.85414 0
M  V30 5506 H 521.93 -2.20717 3.09819 0
M  V30 5507 H 523.242 -3.07005 3.93128 0
M  V30 5508 H 522.396 -5.25055 3.03977 0
M  V30 5509 H 521.135 -4.40037 2.10283 0
M  V30 5510 H 520.14 -3.5124 4.22978 0
M  V30 5511 H 521.365 -4.39564 5.17649 0
M  V30 5512 H 519.311 -5.65738 3.32078 0
M  V30 5513 H 519.228 -5.62447 5.05163 0
M  V30 5514 H 520.496 -6.52111 4.2705 0
M  V30 5515 N 524.725 -1.39134 -0.740242 0
M  V30 5516 C 525.673 -1.3757 -1.87556 0
M  V30 5517 C 526.667 -0.259593 -1.67399 0
M  V30 5518 O 527.873 -0.429349 -1.74804 0
M  V30 5519 H 524.248 -0.42947 -0.6173 0
M  V30 5520 H 526.219 -2.33345 -1.85991 0
M  V30 5521 C 524.968 -1.23087 -3.25184 0
M  V30 5522 H 524.291 -2.08237 -3.41288 0
M  V30 5523 H 525.731 -1.26049 -4.0483 0
M  V30 5524 C 524.19 0.0611471 -3.36845 0
M  V30 5525 O 524.72 1.03328 -3.88183 0
M  V30 5526 N 522.926 0.122454 -2.90342 0
M  V30 5527 H 522.473 -0.669329 -2.48752 0
M  V30 5528 H 522.431 0.986463 -2.98523 0
M  V30 5529 N 526.204 0.969867 -1.24223 0
M  V30 5530 C 527.481 1.68774 -0.988664 0
M  V30 5531 C 527.861 2.05342 0.489673 0
M  V30 5532 O 527.209 1.75486 1.46345 0
M  V30 5533 C 527.419 2.92135 -1.90941 0
M  V30 5534 C 528.767 3.64422 -2.17903 0
M  V30 5535 O 529.791 3.02188 -1.88576 0
M  V30 5536 O 528.65 4.76446 -2.67697 0
M  V30 5537 H 525.744 0.737736 -0.37373 0
M  V30 5538 H 528.29 1.02415 -1.35312 0
M  V30 5539 H 527.062 2.61788 -2.90831 0
M  V30 5540 H 526.685 3.66228 -1.54798 0
M  V30 5541 N 527.682 1.05563 1.17022 0
M  V30 5542 C 528.612 0.681026 2.23348 0
M  V30 5543 C 529.593 -0.322983 1.67005 0
M  V30 5544 O 530.778 -0.199746 1.9317 0
M  V30 5545 C 527.908 0.0589053 3.4725 0
M  V30 5546 C 526.862 0.988082 4.16438 0
M  V30 5547 C 526.188 0.229646 5.34207 0
M  V30 5548 C 527.488 2.31388 4.68249 0
M  V30 5549 H 529.182 1.56993 2.54938 0
M  V30 5550 H 526.728 0.756302 1.2254 0
M  V30 5551 H 528.681 -0.214982 4.20851 0
M  V30 5552 H 527.405 -0.864968 3.14938 0
M  V30 5553 H 526.064 1.24659 3.44754 0
M  V30 5554 H 525.712 -0.697111 4.98146 0
M  V30 5555 H 525.412 0.848815 5.81437 0
M  V30 5556 H 526.936 -0.0368694 6.10589 0
M  V30 5557 H 528.35 2.09964 5.33468 0
M  V30 5558 H 526.747 2.88736 5.26072 0
M  V30 5559 H 527.817 2.94982 3.84855 0
M  V30 5560 N 529.16 -1.33526 0.837174 0
M  V30 5561 C 530.406 -1.9813 0.432704 0
M  V30 5562 C 530.739 -1.66168 -1.00508 0
M  V30 5563 O 530.014 -0.94069 -1.70239 0
M  V30 5564 C 530.297 -3.54151 0.651834 0
M  V30 5565 C 530.15 -3.95806 2.13676 0
M  V30 5566 C 531.469 -4.39993 0.0968937 0
M  V30 5567 H 528.588 -0.719713 0.15869 0
M  V30 5568 H 531.23 -1.58193 1.05237 0
M  V30 5569 H 529.38 -3.88301 0.124369 0
M  V30 5570 H 531.052 -3.71921 2.72896 0
M  V30 5571 H 529.295 -3.45599 2.62191 0
M  V30 5572 H 529.966 -5.0447 2.24084 0
M  V30 5573 H 532.442 -4.12479 0.547733 0
M  V30 5574 H 531.318 -5.48186 0.279917 0
M  V30 5575 H 531.579 -4.3066 -0.9992 0
M  V30 5576 N 530.638 -0.59345 -1.46 0
M  V30 5577 C 531.586 0.146268 -2.3214 0
M  V30 5578 C 532.58 0.873743 -1.45128 0
M  V30 5579 O 533.786 0.790912 -1.61693 0
M  V30 5580 H 530.161 0.0660349 -0.749095 0
M  V30 5581 H 532.132 -0.598895 -2.92328 0
M  V30 5582 C 530.881 1.1396 -3.28494 0
M  V30 5583 H 530.204 0.589252 -3.95434 0
M  V30 5584 H 531.644 1.62738 -3.91526 0
M  V30 5585 C 530.103 2.20604 -2.54628 0
M  V30 5586 O 530.633 3.28128 -2.31722 0
M  V30 5587 N 528.839 1.95502 -2.15005 0
M  V30 5588 H 528.386 1.0807 -2.33834 0
M  V30 5589 H 528.344 2.67064 -1.65904 0
M  V30 5590 N 532.116 1.54067 -0.331816 0
M  V30 5591 C 533.362 2.01012 0.268667 0
M  V30 5592 C 533.695 1.2195 1.51136 0
M  V30 5593 O 532.97 0.303972 1.9211 0
M  V30 5594 C 533.253 3.55158 0.59456 0
M  V30 5595 C 533.106 4.4494 -0.659409 0
M  V30 5596 C 534.425 4.16939 1.4089 0
M  V30 5597 H 531.544 0.730698 0.0961756 0
M  V30 5598 H 534.186 1.84593 -0.450031 0
M  V30 5599 H 532.336 3.6928 1.20685 0
M  V30 5600 H 534.008 4.42675 -1.29756 0
M  V30 5601 H 532.251 4.1428 -1.28665 0
M  V30 5602 H 532.922 5.50643 -0.386804 0
M  V30 5603 H 535.398 4.06443 0.891272 0
M  V30 5604 H 534.274 5.24889 1.60569 0
M  V30 5605 H 534.535 3.70798 2.40752 0
M  V30 5606 N 533.594 0.0601682 1.57485 0
M  V30 5607 C 534.84 -0.606552 1.94146 0
M  V30 5608 C 535.195 -1.67918 0.939225 0
M  V30 5609 O 534.488 -1.91558 -0.0402649 0
M  V30 5610 C 534.682 -1.23831 3.35262 0
M  V30 5611 C 534.511 -0.228408 4.4912 0
M  V30 5612 C 533.281 0.182813 5.04969 0
M  V30 5613 C 535.479 0.52975 5.11564 0
M  V30 5614 N 533.461 1.18464 6.02362 0
M  V30 5615 C 534.832 1.38439 6.04346 0
M  V30 5616 C 536.887 0.587084 4.94427 0
M  V30 5617 C 535.59 2.29125 6.81832 0
M  V30 5618 C 537.616 1.4814 5.72546 0
M  V30 5619 C 536.978 2.32375 6.64967 0
M  V30 5620 H 533.077 -0.193328 0.757726 0
M  V30 5621 H 535.661 0.1346 1.94234 0
M  V30 5622 H 533.832 -1.94944 3.35933 0
M  V30 5623 H 535.564 -1.86456 3.59188 0
M  V30 5624 H 532.319 -0.197968 4.73186 0
M  V30 5625 H 532.743 1.68271 6.55754 0
M  V30 5626 H 537.385 -0.049944 4.22771 0
M  V30 5627 H 535.103 2.93868 7.52773 0
M  V30 5628 H 538.689 1.53045 5.6131 0
M  V30 5629 H 537.569 3.00454 7.2436 0
M  V30 5630 N 535.072 -1.5615 -0.213296 0
M  V30 5631 C 536.349 -1.70349 -0.961281 0
M  V30 5632 C 536.729 -0.609791 -2.02101 0
M  V30 5633 O 536.077 0.381987 -2.25285 0
M  V30 5634 C 536.287 -3.11982 -1.56424 0
M  V30 5635 C 537.635 -3.71649 -2.05334 0
M  V30 5636 O 538.659 -3.14995 -1.66302 0
M  V30 5637 O 537.518 -4.71038 -2.77102 0
M  V30 5638 H 534.612 -0.694121 -0.449582 0
M  V30 5639 H 537.158 -1.68464 -0.204426 0
M  V30 5640 H 535.93 -3.83046 -0.799457 0
M  V30 5641 H 535.553 -3.18019 -2.38641 0
M  V30 5642 N 536.55 0.480323 -1.50102 0
M  V30 5643 C 537.799 1.22979 -1.59872 0
M  V30 5644 C 538.112 1.93282 -0.30022 0
M  V30 5645 O 539.318 2.70086 -0.276709 0
M  V30 5646 C 537.774 2.23408 -2.82164 0
M  V30 5647 C 537.382 1.5895 -4.18854 0
M  V30 5648 C 539.126 2.99055 -3.01275 0
M  V30 5649 C 537.033 2.57611 -5.32344 0
M  V30 5650 H 535.963 0.462707 -0.59533 0
M  V30 5651 H 538.614 0.501291 -1.7652 0
M  V30 5652 H 536.996 2.99511 -2.59055 0
M  V30 5653 H 538.17 0.887 -4.52182 0
M  V30 5654 H 536.485 0.956191 -4.05273 0
M  V30 5655 H 539.082 3.72876 -3.83233 0
M  V30 5656 H 539.425 3.57897 -2.12639 0
M  V30 5657 H 539.958 2.30066 -3.24522 0
M  V30 5658 H 536.697 2.03521 -6.23105 0
M  V30 5659 H 536.217 3.26041 -5.03445 0
M  V30 5660 H 537.896 3.19627 -5.62537 0
M  V30 5661 N 538.028 1.39524 0.732853 0
M  V30 5662 C 539.268 1.383 1.50508 0
M  V30 5663 C 539.632 -0.0208271 1.91989 0
M  V30 5664 O 540.833 -0.158091 2.68335 0
M  V30 5665 C 539.104 2.33007 2.71003 0
M  V30 5666 S 540.663 2.49989 3.60626 0
M  V30 5667 H 537.481 0.490417 0.514794 0
M  V30 5668 H 540.083 1.75641 0.858524 0
M  V30 5669 H 538.787 3.33862 2.38672 0
M  V30 5670 H 538.318 1.96889 3.40585 0
M  V30 5671 H 540.333 1.7394 4.64714 0
M  V30 5672 N 539.506 -0.963266 1.24736 0
M  V30 5673 C 540.436 -2.07628 1.06832 0
M  V30 5674 C 541.417 -1.70088 -0.0200566 0
M  V30 5675 O 542.602 -1.93636 0.147854 0
M  V30 5676 C 539.732 -3.40636 0.677069 0
M  V30 5677 C 538.686 -3.9215 1.71471 0
M  V30 5678 C 538.012 -5.21553 1.1784 0
M  V30 5679 C 539.312 -4.19493 3.11164 0
M  V30 5680 H 541.006 -2.22864 1.9993 0
M  V30 5681 H 538.552 -1.07093 0.96266 0
M  V30 5682 H 540.505 -4.17941 0.538792 0
M  V30 5683 H 539.229 -3.25313 -0.289612 0
M  V30 5684 H 537.888 -3.17005 1.84128 0
M  V30 5685 H 537.536 -5.02593 0.202195 0
M  V30 5686 H 537.236 -5.56988 1.87185 0
M  V30 5687 H 538.76 -6.01463 1.05233 0
M  V30 5688 H 540.174 -4.87487 3.01711 0
M  V30 5689 H 538.571 -4.66165 3.77902 0
M  V30 5690 H 539.641 -3.26097 3.58871 0
M  V30 5691 N 540.985 -1.06182 -1.16461 0
M  V30 5692 C 541.932 -0.671613 -2.20812 0
M  V30 5693 C 542.902 0.331186 -1.62765 0
M  V30 5694 O 544.087 0.22033 -1.89524 0
M  V30 5695 C 541.227 -0.063029 -3.45042 0
M  V30 5696 C 540.34 -1.11587 -4.1734 0
M  V30 5697 C 539.475 -0.473546 -5.29085 0
M  V30 5698 C 538.514 -1.51 -5.93182 0
M  V30 5699 N 537.651 -0.891118 -6.96422 0
M  V30 5700 H 542.491 -1.56589 -2.53542 0
M  V30 5701 H 540.028 -0.782951 -1.24532 0
M  V30 5702 H 541.986 0.307344 -4.16066 0
M  V30 5703 H 540.616 0.794663 -3.12866 0
M  V30 5704 H 539.668 -1.60396 -3.44931 0
M  V30 5705 H 540.98 -1.90221 -4.61104 0
M  V30 5706 H 540.134 -0.0501432 -6.06679 0
M  V30 5707 H 538.873 0.344687 -4.8648 0
M  V30 5708 H 537.878 -1.94331 -5.14311 0
M  V30 5709 H 539.103 -2.33031 -6.37866 0
M  V30 5710 H 537.049 -0.0935753 -6.55933 0
M  V30 5711 H 536.966 -1.61486 -7.38551 0
M  V30 5712 H 538.234 -0.492822 -7.77941 0
M  V30 5713 N 542.463 1.3308 -0.844243 0
M  V30 5714 C 543.71 1.97605 -0.44255 0
M  V30 5715 C 544.038 1.66856 0.999458 0
M  V30 5716 O 543.293 0.943586 1.7145 0
M  V30 5717 C 543.592 3.52045 -0.616354 0
M  V30 5718 C 543.258 4.02757 -2.02726 0
M  V30 5719 C 541.92 4.16316 -2.41317 0
M  V30 5720 C 544.272 4.29776 -2.9486 0
M  V30 5721 C 541.6 4.54232 -3.71335 0
M  V30 5722 C 543.952 4.69146 -4.24364 0
M  V30 5723 C 542.616 4.80911 -4.62904 0
M  V30 5724 H 541.886 0.723088 -0.161941 0
M  V30 5725 H 544.533 1.58663 -1.0723 0
M  V30 5726 H 542.838 3.91681 0.0966812 0
M  V30 5727 H 544.535 3.99981 -0.285756 0
M  V30 5728 H 541.125 3.9268 -1.71756 0
M  V30 5729 H 545.309 4.18818 -2.6628 0
M  V30 5730 H 540.565 4.61535 -4.00993 0
M  V30 5731 H 544.739 4.89008 -4.95827 0
M  V30 5732 H 542.366 5.10048 -5.63698 0
M  V30 5733 N 543.941 0.601185 1.45683 0
M  V30 5734 C 544.888 -0.121396 2.30481 0
M  V30 5735 C 545.858 -0.866232 1.41724 0
M  V30 5736 O 547.043 -0.85324 1.70659 0
M  V30 5737 C 544.183 -1.11704 3.26521 0
M  V30 5738 C 543.296 -0.373741 4.3038 0
M  V30 5739 C 542.431 -1.35854 5.13534 0
M  V30 5740 C 541.47 -0.602689 6.09126 0
M  V30 5741 N 540.607 -1.53645 6.85082 0
M  V30 5742 H 545.447 0.607732 2.91737 0
M  V30 5743 H 542.984 0.311502 1.43764 0
M  V30 5744 H 544.942 -1.70735 3.80664 0
M  V30 5745 H 543.572 -1.81366 2.67032 0
M  V30 5746 H 542.624 0.331962 3.78949 0
M  V30 5747 H 543.936 0.2163 4.98331 0
M  V30 5748 H 543.09 -2.02111 5.72046 0
M  V30 5749 H 541.829 -1.98251 4.45587 0
M  V30 5750 H 540.834 0.0735482 5.49751 0
M  V30 5751 H 542.059 0.0161467 6.79098 0
M  V30 5752 H 540.005 -2.14819 6.1983 0
M  V30 5753 H 539.922 -0.999688 7.49361 0
M  V30 5754 H 541.19 -2.1888 7.48139 0
M  V30 5755 N 545.419 -1.53889 0.339982 0
M  V30 5756 C 546.329 -2.28604 -0.526988 0
M  V30 5757 C 547.345 -1.33578 -1.11503 0
M  V30 5758 O 548.521 -1.66612 -1.13148 0
M  V30 5759 C 545.586 -3.04164 -1.66389 0
M  V30 5760 C 544.647 -4.14809 -1.10599 0
M  V30 5761 C 543.88 -4.86756 -2.18871 0
M  V30 5762 O 544.103 -4.58343 -3.39526 0
M  V30 5763 O 543.037 -5.73289 -1.83366 0
M  V30 5764 H 546.863 -3.03594 0.0802707 0
M  V30 5765 H 544.448 -1.4903 0.105141 0
M  V30 5766 H 546.33 -3.51427 -2.32544 0
M  V30 5767 H 545.005 -2.32035 -2.25703 0
M  V30 5768 H 543.912 -3.71857 -0.409067 0
M  V30 5769 H 545.245 -4.89029 -0.557771 0
M  V30 5770 N 546.897 -0.0685191 -1.57451 0
M  V30 5771 C 547.845 0.917577 -2.13736 0
M  V30 5772 C 548.839 1.31049 -1.07344 0
M  V30 5773 O 550.045 1.28811 -1.25728 0
M  V30 5774 H 546.42 0.313835 -0.683382 0
M  V30 5775 H 548.391 0.417903 -2.95459 0
M  V30 5776 C 547.14 2.17686 -2.71123 0
M  V30 5777 H 546.463 1.88336 -3.52661 0
M  V30 5778 H 547.903 2.84803 -3.14107 0
M  V30 5779 C 546.362 2.9332 -1.65726 0
M  V30 5780 O 546.892 3.86901 -1.08031 0
M  V30 5781 N 545.098 2.56367 -1.36837 0
M  V30 5782 H 544.645 1.80341 -1.83943 0
M  V30 5783 H 544.603 3.07276 -0.665501 0
M  V30 5784 N 548.375 1.56261 0.205012 0
M  V30 5785 C 549.623 1.79684 0.925096 0
M  V30 5786 C 549.944 0.63989 1.84202 0
M  V30 5787 O 549.214 -0.342345 1.92885 0
M  V30 5788 H 547.794 0.662774 0.344587 0
M  V30 5789 H 550.456 1.93734 0.212899 0
M  V30 5790 H 549.552 2.72467 1.52211 0
M  V30 5791 N 549.853 -0.472356 1.50355 0
M  V30 5792 C 550.783 -1.57859 1.72055 0
M  V30 5793 C 551.764 -1.60283 0.569505 0
M  V30 5794 O 552.949 -1.7657 0.808503 0
M  V30 5795 C 550.079 -2.96191 1.81351 0
M  V30 5796 C 549.033 -3.08633 2.96529 0
M  V30 5797 C 548.359 -4.486 2.90968 0
M  V30 5798 C 549.659 -2.85969 4.37057 0
M  V30 5799 H 551.353 -1.39953 2.64676 0
M  V30 5800 H 548.899 -0.671846 1.27367 0
M  V30 5801 H 550.852 -3.73507 1.95117 0
M  V30 5802 H 549.576 -3.15251 0.853502 0
M  V30 5803 H 548.235 -2.33749 2.82413 0
M  V30 5804 H 547.883 -4.64577 1.92815 0
M  V30 5805 H 547.583 -4.57861 3.68289 0
M  V30 5806 H 549.107 -5.27938 3.0678 0
M  V30 5807 H 550.521 -3.53036 4.51706 0
M  V30 5808 H 548.918 -3.06677 5.15819 0
M  V30 5809 H 549.988 -1.81838 4.49514 0
M  V30 5810 N 551.331 -1.39911 -0.725443 0
M  V30 5811 C 552.58 -1.36963 -1.48068 0
M  V30 5812 C 552.893 0.0284478 -1.95579 0
M  V30 5813 O 554.099 0.180535 -2.70899 0
M  V30 5814 C 552.555 -2.40664 -2.67598 0
M  V30 5815 C 552.163 -3.86234 -2.26997 0
M  V30 5816 C 553.907 -2.46807 -3.45379 0
M  V30 5817 C 551.814 -4.81554 -3.43307 0
M  V30 5818 H 550.744 -0.509223 -0.556065 0
M  V30 5819 H 553.395 -1.65602 -0.790454 0
M  V30 5820 H 551.777 -2.05109 -3.38742 0
M  V30 5821 H 552.951 -4.3088 -1.63337 0
M  V30 5822 H 551.266 -3.83475 -1.62284 0
M  V30 5823 H 553.863 -3.15213 -4.31909 0
M  V30 5824 H 554.206 -1.49552 -3.8851 0
M  V30 5825 H 554.739 -2.81303 -2.81271 0
M  V30 5826 H 551.478 -5.80106 -3.05217 0
M  V30 5827 H 550.998 -4.4158 -4.05915 0
M  V30 5828 H 552.677 -5.0091 -4.0951 0
M  V30 5829 N 552.809 0.956637 -1.25245 0
M  V30 5830 C 554.037 1.73571 -1.12608 0
M  V30 5831 C 554.452 1.86063 0.320324 0
M  V30 5832 O 553.809 1.35691 1.22042 0
M  V30 5833 C 553.86 3.15053 -1.77268 0
M  V30 5834 O 553.581 3.03174 -3.16255 0
M  V30 5835 C 555.082 4.09248 -1.70386 0
M  V30 5836 H 552.302 0.543955 -0.392879 0
M  V30 5837 H 554.846 1.20031 -1.65568 0
M  V30 5838 H 553.001 3.65543 -1.28284 0
M  V30 5839 H 553.415 3.9241 -3.48015 0
M  V30 5840 H 554.889 5.06138 -2.20291 0
M  V30 5841 H 555.366 4.34102 -0.667239 0
M  V30 5842 H 555.972 3.64672 -2.18849 0
M  V30 5843 N 554.287 1.06798 1.15896 0
M  V30 5844 C 555.703 0.792423 1.38538 0
M  V30 5845 C 555.903 -0.60592 1.92174 0
M  V30 5846 O 554.959 -1.36561 2.12385 0
M  V30 5847 C 556.272 1.86157 2.36149 0
M  V30 5848 C 557.82 1.88567 2.49823 0
M  V30 5849 C 558.295 2.9455 3.5072 0
M  V30 5850 N 559.786 2.93616 3.58251 0
M  V30 5851 C 560.521 3.72267 4.36125 0
M  V30 5852 N 560.017 4.60751 5.17379 0
M  V30 5853 N 561.81 3.60637 4.31158 0
M  V30 5854 H 553.961 1.96993 0.794198 0
M  V30 5855 H 556.224 0.853942 0.411688 0
M  V30 5856 H 555.93 2.86603 2.03843 0
M  V30 5857 H 555.804 1.71692 3.3586 0
M  V30 5858 H 558.191 0.887765 2.8143 0
M  V30 5859 H 558.272 2.0711 1.5013 0
M  V30 5860 H 557.916 3.94537 3.19849 0
M  V30 5861 H 557.846 2.73255 4.50155 0
M  V30 5862 H 560.337 2.29472 3.00252 0
M  V30 5863 H 560.65 5.17408 5.74028 0
M  V30 5864 H 558.995 4.64803 5.16704 0
M  V30 5865 H 562.186 2.90892 3.66742 0
M  V30 5866 H 562.359 4.22176 4.91601 0
M  V30 5867 N 555.766 -1.3263 0.851289 0
M  V30 5868 C 556.991 -2.02097 0.466006 0
M  V30 5869 C 557.416 -1.63574 -0.928709 0
M  V30 5870 O 556.774 -0.834665 -1.60944 0
M  V30 5871 C 556.822 -3.55425 0.608737 0
M  V30 5872 O 555.926 -4.10827 -0.359878 0
M  V30 5873 H 555.267 -0.636911 0.187724 0
M  V30 5874 H 557.797 -1.69253 1.14955 0
M  V30 5875 H 557.807 -4.04986 0.495006 0
M  V30 5876 H 556.482 -3.82806 1.62581 0
M  V30 5877 H 555.059 -3.72349 -0.202666 0
M  V30 5878 N 557.244 -0.608902 -1.45362 0
M  V30 5879 C 558.49 -0.104762 -2.02529 0
M  V30 5880 C 558.823 1.26191 -1.47613 0
M  V30 5881 O 558.098 1.8327 -0.65134 0
M  V30 5882 C 558.381 -0.0672661 -3.60037 0
M  V30 5883 C 558.234 -1.4647 -4.25284 0
M  V30 5884 C 559.553 0.619877 -4.35713 0
M  V30 5885 H 556.672 -0.0395438 -0.735938 0
M  V30 5886 H 559.314 -0.781126 -1.73201 0
M  V30 5887 H 557.464 0.50871 -3.85155 0
M  V30 5888 H 559.136 -2.08785 -4.11347 0
M  V30 5889 H 557.379 -2.02502 -3.83634 0
M  V30 5890 H 558.05 -1.39069 -5.34195 0
M  V30 5891 H 560.526 0.130297 -4.15896 0
M  V30 5892 H 559.402 0.615224 -5.45441 0
M  V30 5893 H 559.663 1.68621 -4.0868 0
M  V30 5894 N 558.722 1.53707 -0.348139 0
M  V30 5895 C 559.672 2.2193 0.522592 0
M  V30 5896 C 560.656 1.20831 1.06248 0
M  V30 5897 O 561.848 1.46357 0.995415 0
M  V30 5898 C 558.977 2.99904 1.6707 0
M  V30 5899 C 558.063 4.08364 1.14454 0
M  V30 5900 N 558.454 5.04656 0.339958 0
M  V30 5901 C 556.752 4.22757 1.421 0
M  V30 5902 C 557.453 5.81675 0.0538806 0
M  V30 5903 N 556.429 5.39739 0.646776 0
M  V30 5904 H 560.231 2.93733 -0.099135 0
M  V30 5905 H 557.745 1.61656 -0.15524 0
M  V30 5906 H 559.742 3.47284 2.30651 0
M  V30 5907 H 558.402 2.29629 2.29566 0
M  V30 5908 H 559.413 5.17896 -0.0193552 0
M  V30 5909 H 556.09 3.63704 2.05002 0
M  V30 5910 H 557.48 6.69256 -0.595443 0
M  V30 5911 N 560.2 0.0768682 1.57412 0
M  V30 5912 C 561.477 -0.632359 1.85096 0
M  V30 5913 C 561.857 -1.87479 0.9703 0
M  V30 5914 O 561.205 -2.28469 0.0379062 0
M  V30 5915 C 561.415 -0.965174 3.35388 0
M  V30 5916 C 562.763 -1.33648 4.03018 0
M  V30 5917 O 563.787 -1.05675 3.40164 0
M  V30 5918 O 562.646 -1.85959 5.13889 0
M  V30 5919 H 559.74 -0.314574 0.764835 0
M  V30 5920 H 562.286 0.108184 1.69355 0
M  V30 5921 H 561.058 -0.0829745 3.91212 0
M  V30 5922 H 560.681 -1.76231 3.5641 0
M  V30 5923 N 561.678 -1.56367 -0.196722 0
M  V30 5924 C 562.625 -1.94417 -1.24382 0
M  V30 5925 C 563.595 -0.804543 -1.45315 0
M  V30 5926 O 564.78 -1.06256 -1.58475 0
M  V30 5927 C 561.92 -2.28757 -2.58388 0
M  V30 5928 C 561.033 -3.55775 -2.45047 0
M  V30 5929 C 560.168 -3.79445 -3.71746 0
M  V30 5930 C 559.207 -4.99894 -3.53231 0
M  V30 5931 N 558.344 -5.19826 -4.71938 0
M  V30 5932 H 563.184 -2.83691 -0.912338 0
M  V30 5933 H 560.721 -1.40392 -0.439135 0
M  V30 5934 H 562.679 -2.46682 -3.36457 0
M  V30 5935 H 561.309 -1.42625 -2.89582 0
M  V30 5936 H 560.361 -3.45905 -1.58284 0
M  V30 5937 H 561.673 -4.44 -2.27299 0
M  V30 5938 H 560.827 -3.97601 -4.58256 0
M  V30 5939 H 559.566 -2.89546 -3.92446 0
M  V30 5940 H 558.571 -4.81662 -2.65107 0
M  V30 5941 H 559.796 -5.913 -3.33978 0
M  V30 5942 H 557.742 -4.32875 -4.92905 0
M  V30 5943 H 557.659 -6.02228 -4.57009 0
M  V30 5944 H 558.927 -5.42439 -5.59803 0
M  V30 5945 N 563.156 0.464375 -1.50603 0
M  V30 5946 C 564.384 1.23907 -1.65695 0
M  V30 5947 C 564.799 1.85658 -0.343027 0
M  V30 5948 O 564.156 1.69529 0.675739 0
M  V30 5949 C 564.207 2.3429 -2.75301 0
M  V30 5950 O 563.928 1.7507 -4.01599 0
M  V30 5951 C 565.429 3.25051 -3.01424 0
M  V30 5952 H 562.649 0.374485 -0.556778 0
M  V30 5953 H 565.193 0.55353 -1.96866 0
M  V30 5954 H 563.348 2.98607 -2.46804 0
M  V30 5955 H 563.762 2.47812 -4.62266 0
M  V30 5956 H 565.236 3.98699 -3.81763 0
M  V30 5957 H 565.713 3.84227 -2.12758 0
M  V30 5958 H 566.319 2.66463 -3.31477 0
M  V30 5959 N 564.634 1.40294 0.718013 0
M  V30 5960 C 565.88 1.38645 1.48005 0
M  V30 5961 C 566.213 -0.0121202 1.94196 0
M  V30 5962 O 565.488 -0.980309 1.67989 0
M  V30 5963 C 565.771 2.37379 2.70782 0
M  V30 5964 C 565.624 3.8625 2.30501 0
M  V30 5965 C 566.943 2.33685 3.72933 0
M  V30 5966 H 564.062 0.504928 0.536858 0
M  V30 5967 H 566.704 1.71411 0.819649 0
M  V30 5968 H 564.854 2.09568 3.27129 0
M  V30 5969 H 566.526 4.24879 1.79655 0
M  V30 5970 H 564.769 4.02202 1.6253 0
M  V30 5971 H 565.44 4.50847 3.18498 0
M  V30 5972 H 567.916 2.58314 3.2621 0
M  V30 5973 H 566.792 3.0482 4.56482 0
M  V30 5974 H 567.053 1.34765 4.21059 0
M  V30 5975 N 566.112 -0.949982 1.2575 0
M  V30 5976 C 567.528 -1.22191 1.02672 0
M  V30 5977 C 567.728 -1.99898 -0.253588 0
M  V30 5978 O 566.784 -2.33329 -0.965076 0
M  V30 5979 C 568.097 -1.99175 2.25277 0
M  V30 5980 C 569.645 -2.12201 2.30087 0
M  V30 5981 C 570.12 -2.92586 3.5236 0
M  V30 5982 N 571.611 -3.00163 3.52784 0
M  V30 5983 C 572.346 -3.62766 4.44059 0
M  V30 5984 N 571.842 -4.26943 5.45611 0
M  V30 5985 N 573.635 -3.59953 4.3173 0
M  V30 5986 H 565.786 -0.430258 2.07996 0
M  V30 5987 H 568.049 -0.252844 0.91366 0
M  V30 5988 H 567.755 -1.49479 3.18354 0
M  V30 5989 H 567.629 -2.99868 2.28821 0
M  V30 5990 H 570.016 -2.61093 1.3753 0
M  V30 5991 H 570.097 -1.10799 2.30559 0
M  V30 5992 H 569.741 -2.44383 4.45241 0
M  V30 5993 H 569.671 -3.94224 3.49134 0
M  V30 5994 H 572.162 -2.54529 2.79327 0
M  V30 5995 H 572.475 -4.72583 6.11461 0
M  V30 5996 H 570.82 -4.25557 5.49478 0
M  V30 5997 H 574.011 -3.09003 3.51617 0
M  V30 5998 H 574.184 -4.08455 5.03059 0
M  V30 5999 N 567.59 -1.07411 -1.15328 0
M  V30 6000 C 568.52 -0.716472 -2.22236 0
M  V30 6001 C 569.501 0.296373 -1.67498 0
M  V30 6002 O 570.686 0.168989 -1.93463 0
M  V30 6003 C 567.816 -0.114142 -3.47112 0
M  V30 6004 C 566.77 -1.05421 -4.14814 0
M  V30 6005 C 566.096 -0.314604 -5.33774 0
M  V30 6006 C 567.396 -2.38808 -4.64508 0
M  V30 6007 H 569.09 -1.61029 -2.52408 0
M  V30 6008 H 566.636 -0.775702 -1.21321 0
M  V30 6009 H 568.589 0.148001 -4.2114 0
M  V30 6010 H 567.313 0.814755 -3.16274 0
M  V30 6011 H 565.972 -1.30128 -3.42728 0
M  V30 6012 H 565.62 0.617772 -4.99192 0
M  V30 6013 H 565.32 -0.941209 -5.80013 0
M  V30 6014 H 566.844 -0.0602747 -6.1057 0
M  V30 6015 H 568.258 -2.18424 -5.3006 0
M  V30 6016 H 566.655 -2.97069 -5.21412 0
M  V30 6017 H 567.725 -3.01067 -3.80114 0
M  V30 6018 N 569.068 1.32177 -0.85831 0
M  V30 6019 C 570.296 2.01313 -0.477582 0
M  V30 6020 C 570.711 1.6449 0.926736 0
M  V30 6021 O 570.068 0.868096 1.60531 0
M  V30 6022 C 570.119 3.56293 -0.611337 0
M  V30 6023 O 569.84 3.91794 -1.96034 0
M  V30 6024 C 571.341 4.42702 -0.230093 0
M  V30 6025 H 568.561 0.644323 -0.187322 0
M  V30 6026 H 571.105 1.68674 -1.15626 0
M  V30 6027 H 569.26 3.87395 0.0196494 0
M  V30 6028 H 569.674 4.86513 -1.95973 0
M  V30 6029 H 571.148 5.50727 -0.374674 0
M  V30 6030 H 571.625 4.3129 0.829779 0
M  V30 6031 H 572.231 4.16997 -0.836302 0
M  V30 6032 N 570.547 0.616602 1.45037 0
M  V30 6033 C 571.958 0.199359 1.85633 0
M  V30 6034 C 572.309 -1.24588 1.51566 0
M  V30 6035 O 571.434 -1.94594 0.94668 0
M  V30 6036 C 572.029 0.355033 3.36935 0
M  V30 6037 C 570.588 -0.00758748 3.76399 0
M  V30 6038 C 569.735 0.675256 2.68953 0
M  V30 6039 H 572.686 0.822708 1.3571 0
M  V30 6040 H 572.707 -0.410201 3.78282 0
M  V30 6041 H 572.219 1.40699 3.61698 0
M  V30 6042 H 570.32 -1.05837 3.57252 0
M  V30 6043 H 570.433 0.392346 4.77491 0
M  V30 6044 H 568.797 0.111992 2.54454 0
M  V30 6045 H 569.58 1.72952 2.96551 0
M  V30 6046 N 572.025 -1.5352 0.356285 0
M  V30 6047 C 573.436 -1.86282 -0.12492 0
M  V30 6048 C 573.787 -1.27717 -1.48939 0
M  V30 6049 O 572.912 -0.595614 -2.08042 0
M  V30 6050 C 573.507 -3.37995 -0.23345 0
M  V30 6051 C 572.066 -3.70588 -0.658899 0
M  V30 6052 C 571.213 -2.76581 0.199596 0
M  V30 6053 H 574.164 -1.47901 0.575423 0
M  V30 6054 H 574.185 -3.65475 -1.0587 0
M  V30 6055 H 573.697 -3.8059 0.759776 0
M  V30 6056 H 571.798 -3.33544 -1.66069 0
M  V30 6057 H 571.911 -4.77076 -0.439957 0
M  V30 6058 H 570.275 -2.52552 -0.330076 0
M  V30 6059 H 571.058 -3.22008 1.19019 0
M  V30 6060 N 573.503 -0.0852151 -1.57369 0
M  V30 6061 C 574.433 0.874556 -2.16503 0
M  V30 6062 C 575.414 1.30111 -1.09568 0
M  V30 6063 O 576.599 1.36977 -1.37662 0
M  V30 6064 C 573.729 2.13731 -2.73745 0
M  V30 6065 C 572.683 1.84971 -3.85966 0
M  V30 6066 C 572.009 3.17991 -4.29867 0
M  V30 6067 C 573.309 1.14442 -5.09608 0
M  V30 6068 H 575.003 0.381899 -2.96954 0
M  V30 6069 H 572.549 0.18225 -1.42842 0
M  V30 6070 H 574.502 2.81302 -3.13763 0
M  V30 6071 H 573.226 2.65263 -1.90534 0
M  V30 6072 H 571.885 1.19801 -3.46473 0
M  V30 6073 H 571.533 3.6739 -3.4356 0
M  V30 6074 H 571.233 2.99534 -5.05523 0
M  V30 6075 H 572.757 3.86737 -4.72511 0
M  V30 6076 H 574.171 1.72105 -5.46857 0
M  V30 6077 H 572.568 1.06197 -5.90629 0
M  V30 6078 H 573.638 0.12559 -4.84737 0
M  V30 6079 N 574.981 1.5647 0.188427 0
M  V30 6080 C 576.221 1.82803 0.914469 0
M  V30 6081 C 576.585 0.663681 1.80165 0
M  V30 6082 O 577.786 0.807059 2.56398 0
M  V30 6083 C 576.057 3.14187 1.70357 0
M  V30 6084 S 577.616 3.61947 2.48072 0
M  V30 6085 H 574.434 0.641497 0.306599 0
M  V30 6086 H 577.036 1.94694 0.177361 0
M  V30 6087 H 575.74 3.96937 1.04255 0
M  V30 6088 H 575.271 3.05192 2.48237 0
M  V30 6089 H 577.286 3.27913 3.72407 0
M  V30 6090 N 576.459 -0.456382 1.50847 0
M  V30 6091 C 577.708 -1.2042 1.61808 0
M  V30 6092 C 578.021 -1.9278 0.330932 0
M  V30 6093 O 579.227 -2.69612 0.319643 0
M  V30 6094 C 577.683 -2.18891 2.85683 0
M  V30 6095 C 577.291 -1.52267 4.2133 0
M  V30 6096 C 579.035 -2.94224 3.05994 0
M  V30 6097 C 576.942 -2.4911 5.36375 0
M  V30 6098 H 575.872 -0.453177 0.602616 0
M  V30 6099 H 578.523 -0.473144 1.77295 0
M  V30 6100 H 576.905 -2.95351 2.63787 0
M  V30 6101 H 578.079 -0.814949 4.53536 0
M  V30 6102 H 576.394 -0.891594 4.06743 0
M  V30 6103 H 578.991 -3.66732 3.89117 0
M  V30 6104 H 579.334 -3.54469 2.18306 0
M  V30 6105 H 579.867 -2.24874 3.28141 0
M  V30 6106 H 576.606 -1.93582 6.26264 0
M  V30 6107 H 576.126 -3.17991 5.08569 0
M  V30 6108 H 577.805 -3.10637 5.67551 0
M  V30 6109 N 577.937 -1.40673 -0.710563 0
M  V30 6110 C 579.165 -1.42547 -1.4996 0
M  V30 6111 C 579.58 -0.0265485 -1.88781 0
M  V30 6112 O 578.937 0.950694 -1.55782 0
M  V30 6113 C 578.988 -2.32071 -2.77173 0
M  V30 6114 O 578.709 -3.66518 -2.39992 0
M  V30 6115 C 580.21 -2.42591 -3.71032 0
M  V30 6116 H 577.43 -0.486025 -0.462623 0
M  V30 6117 H 579.974 -1.84783 -0.876102 0
M  V30 6118 H 578.129 -1.93184 -3.35795 0
M  V30 6119 H 578.543 -4.14115 -3.21884 0
M  V30 6120 H 580.017 -3.09429 -4.57119 0
M  V30 6121 H 580.494 -1.4525 -4.14486 0
M  V30 6122 H 581.1 -2.82051 -3.18319 0
M  V30 6123 N 579.415 0.9433 -1.26252 0
M  V30 6124 C 580.362 2.0417 -1.07625 0
M  V30 6125 C 581.332 1.6609 0.0180738 0
M  V30 6126 O 582.517 1.90276 -0.141289 0
M  V30 6127 C 579.657 3.37653 -0.713043 0
M  V30 6128 C 578.77 3.88783 -1.8834 0
M  V30 6129 C 577.905 5.10642 -1.4635 0
M  V30 6130 C 576.944 5.54028 -2.60229 0
M  V30 6131 N 576.081 6.67092 -2.18936 0
M  V30 6132 H 580.921 2.19436 -2.01623 0
M  V30 6133 H 578.458 1.07519 -1.00389 0
M  V30 6134 H 580.416 4.14391 -0.483358 0
M  V30 6135 H 579.046 3.22241 0.18996 0
M  V30 6136 H 578.098 3.08464 -2.22608 0
M  V30 6137 H 579.41 4.16922 -2.73821 0
M  V30 6138 H 578.564 5.94832 -1.19414 0
M  V30 6139 H 577.303 4.84244 -0.579568 0
M  V30 6140 H 576.308 4.68396 -2.87898 0
M  V30 6141 H 577.533 5.82429 -3.49219 0
M  V30 6142 H 575.479 6.42381 -1.32974 0
M  V30 6143 H 575.396 6.94806 -2.97961 0
M  V30 6144 H 576.664 7.54662 -1.95206 0
M  V30 6145 N 580.893 1.08022 1.14757 0
M  V30 6146 C 581.803 0.718292 2.23333 0
M  V30 6147 C 582.819 -0.273477 1.71837 0
M  V30 6148 O 583.995 -0.118406 2.01052 0
M  V30 6149 C 581.06 0.128855 3.4646 0
M  V30 6150 C 580.121 1.17473 4.12915 0
M  V30 6151 C 579.354 0.61333 5.30164 0
M  V30 6152 O 579.577 -0.568458 5.6756 0
M  V30 6153 O 578.511 1.3615 5.86299 0
M  V30 6154 H 582.337 1.62394 2.56636 0
M  V30 6155 H 579.922 0.853628 1.22611 0
M  V30 6156 H 581.804 -0.197249 4.20938 0
M  V30 6157 H 580.479 -0.750014 3.14891 0
M  V30 6158 H 579.386 1.5533 3.40328 0
M  V30 6159 H 580.719 2.02574 4.48581 0
M  V30 6160 N 582.371 -1.3172 0.865308 0
M  V30 6161 C 583.303 -2.27545 0.274906 0
M  V30 6162 C 584.316 -1.52887 -0.559413 0
M  V30 6163 O 585.505 -1.74361 -0.382166 0
M  V30 6164 C 582.605 -3.33006 -0.629286 0
M  V30 6165 C 581.778 -4.37063 0.171553 0
M  V30 6166 C 580.837 -5.22044 -0.660052 0
M  V30 6167 O 579.863 -5.69129 -0.0897527 0
M  V30 6168 N 581.065 -5.45946 -1.97289 0
M  V30 6169 H 583.83 -2.78848 1.09836 0
M  V30 6170 H 581.391 -1.44693 0.726331 0
M  V30 6171 H 583.383 -3.86772 -1.19121 0
M  V30 6172 H 581.953 -2.81782 -1.35342 0
M  V30 6173 H 581.173 -3.83436 0.914919 0
M  V30 6174 H 582.461 -5.03662 0.721235 0
M  V30 6175 H 581.859 -5.0944 -2.45942 0
M  V30 6176 H 580.416 -6.02665 -2.4827 0
M  V30 6177 N 583.85 -0.624285 -1.44708 0
M  V30 6178 C 584.779 0.0717025 -2.3339 0
M  V30 6179 C 585.76 0.841814 -1.47809 0
M  V30 6180 O 586.946 0.809056 -1.76544 0
M  V30 6181 C 584.076 1.05852 -3.30776 0
M  V30 6182 C 583.029 0.400503 -4.26122 0
M  V30 6183 C 582.356 1.49674 -5.13324 0
M  V30 6184 C 583.656 -0.688924 -5.17737 0
M  V30 6185 H 585.35 -0.668819 -2.91834 0
M  V30 6186 H 582.896 -0.32308 -1.40329 0
M  V30 6187 H 584.849 1.5541 -3.91696 0
M  V30 6188 H 583.572 1.82984 -2.70526 0
M  V30 6189 H 582.231 -0.0743687 -3.66525 0
M  V30 6190 H 581.88 2.25877 -4.49431 0
M  V30 6191 H 581.58 1.06188 -5.77926 0
M  V30 6192 H 583.104 1.99427 -5.77115 0
M  V30 6193 H 584.518 -0.276724 -5.72632 0
M  V30 6194 H 582.915 -1.04652 -5.90904 0
M  V30 6195 H 583.985 -1.55884 -4.5916 0
M  V30 6196 N 585.328 1.53329 -0.364422 0
M  V30 6197 C 586.605 1.93557 0.281962 0
M  V30 6198 C 586.985 1.29786 1.6649 0
M  V30 6199 O 586.333 0.456512 2.23893 0
M  V30 6200 C 586.543 3.47405 0.333331 0
M  V30 6201 C 587.891 4.20699 0.574231 0
M  V30 6202 O 588.915 3.53779 0.414588 0
M  V30 6203 O 587.774 5.39287 0.885002 0
M  V30 6204 H 584.868 0.809573 0.168881 0
M  V30 6205 H 587.414 1.64494 -0.417121 0
M  V30 6206 H 586.186 3.86091 -0.636326 0
M  V30 6207 H 585.809 3.82697 1.07836 0
M  V30 6208 N 586.806 0.0935595 1.57322 0
M  V30 6209 C 587.716 -0.880192 2.17462 0
M  V30 6210 C 588.732 -1.31135 1.14366 0
M  V30 6211 O 589.908 -1.37958 1.46729 0
M  V30 6212 C 586.973 -2.12184 2.74188 0
M  V30 6213 C 586.034 -1.74503 3.92234 0
M  V30 6214 C 585.267 -2.92748 4.46245 0
M  V30 6215 O 585.49 -4.07427 3.99198 0
M  V30 6216 O 584.424 -2.71303 5.37288 0
M  V30 6217 H 588.25 -0.398516 3.01074 0
M  V30 6218 H 585.835 -0.130707 1.48827 0
M  V30 6219 H 587.717 -2.84953 3.10451 0
M  V30 6220 H 586.392 -2.59407 1.93623 0
M  V30 6221 H 585.299 -0.989186 3.60785 0
M  V30 6222 H 586.632 -1.32044 4.74157 0
M  V30 6223 N 588.284 -1.56567 -0.180126 0
M  V30 6224 C 589.524 -1.83285 -0.904761 0
M  V30 6225 C 589.888 -0.673226 -1.7981 0
M  V30 6226 O 591.089 -0.820645 -2.55967 0
M  V30 6227 C 589.36 -3.15086 -1.68688 0
M  V30 6228 S 590.919 -3.63258 -2.46149 0
M  V30 6229 H 587.737 -0.643114 -0.303193 0
M  V30 6230 H 590.339 -1.94785 -0.167034 0
M  V30 6231 H 589.043 -3.97484 -1.02148 0
M  V30 6232 H 588.574 -3.06504 -2.46615 0
M  V30 6233 H 590.589 -3.29884 -3.70663 0
M  V30 6234 N 589.762 0.448376 -1.51087 0
M  V30 6235 C 590.99 1.22143 -1.66999 0
M  V30 6236 C 591.405 1.85283 -0.362699 0
M  V30 6237 O 590.762 1.70236 0.65772 0
M  V30 6238 C 590.813 2.31357 -2.7777 0
M  V30 6239 O 590.534 1.70801 -4.03434 0
M  V30 6240 C 592.035 3.21836 -3.04855 0
M  V30 6241 H 589.255 0.368558 -0.560719 0
M  V30 6242 H 591.799 0.532618 -1.97442 0
M  V30 6243 H 589.954 2.95973 -2.49958 0
M  V30 6244 H 590.368 2.42895 -4.64868 0
M  V30 6245 H 591.842 3.94627 -3.85971 0
M  V30 6246 H 592.319 3.81949 -2.16821 0
M  V30 6247 H 592.925 2.62933 -3.34285 0
M  V30 6248 N 591.24 1.41047 0.703093 0
M  V30 6249 C 592.15 1.44645 1.84703 0
M  V30 6250 C 593.166 0.337778 1.7069 0
M  V30 6251 O 594.342 0.584327 1.92737 0
M  V30 6252 C 591.407 1.31928 3.20618 0
M  V30 6253 C 590.468 2.53047 3.46794 0
M  V30 6254 C 589.701 2.40927 4.76224 0
M  V30 6255 O 589.924 1.42978 5.5219 0
M  V30 6256 O 588.858 3.30543 5.03016 0
M  V30 6257 H 592.684 2.41139 1.84624 0
M  V30 6258 H 590.269 1.22504 0.855167 0
M  V30 6259 H 592.151 1.27092 4.01778 0
M  V30 6260 H 590.826 0.385469 3.21397 0
M  V30 6261 H 589.733 2.6346 2.65593 0
M  V30 6262 H 591.066 3.45231 3.50822 0
M  V30 6263 N 592.718 -0.936591 1.26751 0
M  V30 6264 C 593.967 -1.67778 1.11953 0
M  V30 6265 C 594.28 -1.92694 -0.33589 0
M  V30 6266 O 595.486 -2.64682 -0.604618 0
M  V30 6267 C 593.942 -3.02138 1.95551 0
M  V30 6268 C 593.55 -2.84953 3.45696 0
M  V30 6269 C 595.294 -3.79917 1.89377 0
M  V30 6270 C 593.201 -4.14814 4.21525 0
M  V30 6271 H 592.131 -0.629275 0.415366 0
M  V30 6272 H 594.782 -1.04122 1.51099 0
M  V30 6273 H 593.164 -3.668 1.49243 0
M  V30 6274 H 594.338 -2.29112 3.99805 0
M  V30 6275 H 592.653 -2.20612 3.53156 0
M  V30 6276 H 595.25 -4.76134 2.43312 0
M  V30 6277 H 595.593 -4.07204 0.865464 0
M  V30 6278 H 596.126 -3.22037 2.33532 0
M  V30 6279 H 592.865 -3.92709 5.24843 0
M  V30 6280 H 592.385 -4.70352 3.72195 0
M  V30 6281 H 594.064 -4.83239 4.3022 0
M  V30 6282 N 594.196 -1.08629 -1.14182 0
M  V30 6283 C 595.445 -0.812271 -1.84621 0
M  V30 6284 C 595.758 0.664313 -1.83973 0
M  V30 6285 O 596.964 1.05357 -2.50224 0
M  V30 6286 C 595.42 -1.4031 -3.31423 0
M  V30 6287 C 595.028 -2.91164 -3.40481 0
M  V30 6288 C 596.772 -1.20767 -4.06959 0
M  V30 6289 C 594.679 -3.43373 -4.81507 0
M  V30 6290 H 593.609 -0.30019 -0.691666 0
M  V30 6291 H 596.26 -1.30798 -1.28701 0
M  V30 6292 H 594.642 -0.835096 -3.87094 0
M  V30 6293 H 595.816 -3.5412 -2.94848 0
M  V30 6294 H 594.131 -3.09646 -2.78403 0
M  V30 6295 H 596.728 -1.57237 -5.11058 0
M  V30 6296 H 597.071 -0.147664 -4.16038 0
M  V30 6297 H 597.604 -1.74274 -3.57594 0
M  V30 6298 H 594.343 -4.48958 -4.77616 0
M  V30 6299 H 593.863 -2.85176 -5.27669 0
M  V30 6300 H 595.542 -3.40095 -5.50404 0
M  V30 6301 N 595.674 1.31259 -0.872281 0
M  V30 6302 C 596.92 1.96913 -0.485083 0
M  V30 6303 C 597.253 1.68774 0.960667 0
M  V30 6304 O 596.528 0.985495 1.67685 0
M  V30 6305 C 596.811 3.52299 -0.745502 0
M  V30 6306 C 596.664 3.90002 -2.24095 0
M  V30 6307 C 597.983 4.39582 -0.213516 0
M  V30 6308 H 595.102 0.715252 -0.177716 0
M  V30 6309 H 597.744 1.55347 -1.09395 0
M  V30 6310 H 595.894 3.87835 -0.227276 0
M  V30 6311 H 597.566 3.64555 -2.82661 0
M  V30 6312 H 595.809 3.38526 -2.71261 0
M  V30 6313 H 596.48 4.98352 -2.37381 0
M  V30 6314 H 598.956 4.10882 -0.656902 0
M  V30 6315 H 597.832 5.47251 -0.42516 0
M  V30 6316 H 598.093 4.33158 0.884666 0
M  V30 6317 N 597.152 0.631951 1.44375 0
M  V30 6318 C 598.099 -0.0724807 2.30686 0
M  V30 6319 C 599.069 -0.835975 1.43529 0
M  V30 6320 O 600.254 -0.816849 1.7243 0
M  V30 6321 C 597.394 -1.04753 3.28817 0
M  V30 6322 C 596.507 -0.282367 4.31076 0
M  V30 6323 C 595.642 -1.2493 5.163 0
M  V30 6324 C 594.681 -0.473349 6.10267 0
M  V30 6325 N 593.818 -1.39079 6.88187 0
M  V30 6326 H 598.658 0.669477 2.90383 0
M  V30 6327 H 596.195 0.341927 1.43071 0
M  V30 6328 H 598.153 -1.62623 3.842 0
M  V30 6329 H 596.783 -1.75661 2.70819 0
M  V30 6330 H 595.835 0.412268 3.78159 0
M  V30 6331 H 597.147 0.321955 4.9776 0
M  V30 6332 H 596.301 -1.89931 5.76204 0
M  V30 6333 H 595.04 -1.88755 4.49692 0
M  V30 6334 H 594.045 0.190142 5.49471 0
M  V30 6335 H 595.27 0.16019 6.78911 0
M  V30 6336 H 593.216 -2.01623 6.24247 0
M  V30 6337 H 593.133 -0.840513 7.51313 0
M  V30 6338 H 594.401 -2.02961 7.52613 0
M  V30 6339 N 598.631 -1.53133 0.372548 0
M  V30 6340 C 599.859 -2.05774 -0.215515 0
M  V30 6341 C 600.274 -1.24555 -1.41886 0
M  V30 6342 O 599.631 -0.287951 -1.80214 0
M  V30 6343 C 599.682 -3.5645 -0.602161 0
M  V30 6344 O 599.403 -4.34591 0.553359 0
M  V30 6345 C 600.904 -4.25374 -1.24787 0
M  V30 6346 H 598.124 -0.670009 -0.0364529 0
M  V30 6347 H 600.668 -1.97434 0.532934 0
M  V30 6348 H 598.823 -3.64918 -1.30052 0
M  V30 6349 H 599.237 -5.23954 0.239336 0
M  V30 6350 H 600.711 -5.32097 -1.46891 0
M  V30 6351 H 601.188 -3.79531 -2.21026 0
M  V30 6352 H 601.794 -4.21177 -0.590752 0
M  V30 6353 N 600.109 -0.101901 -1.5727 0
M  V30 6354 C 601.355 0.561027 -1.94885 0
M  V30 6355 C 601.688 1.6741 -0.984258 0
M  V30 6356 O 600.963 1.94491 -0.0184767 0
M  V30 6357 C 601.246 1.10982 -3.42571 0
M  V30 6358 C 601.099 0.00133418 -4.498 0
M  V30 6359 C 602.418 2.00608 -3.9172 0
M  V30 6360 H 599.537 0.202467 -0.708644 0
M  V30 6361 H 602.179 -0.173992 -1.89202 0
M  V30 6362 H 600.329 1.73621 -3.47546 0
M  V30 6363 H 602.001 -0.63322 -4.56933 0
M  V30 6364 H 600.244 -0.664143 -4.28686 0
M  V30 6365 H 600.915 0.426253 -5.50352 0
M  V30 6366 H 603.391 1.47864 -3.88941 0
M  V30 6367 H 602.267 2.3593 -4.95609 0
M  V30 6368 H 602.528 2.92608 -3.3141 0
M  V30 6369 N 601.587 1.56661 0.17182 0
M  V30 6370 C 602.534 1.96371 1.21273 0
M  V30 6371 C 603.504 0.82756 1.44016 0
M  V30 6372 O 604.689 1.08764 1.56764 0
M  V30 6373 C 601.829 2.32838 2.54716 0
M  V30 6374 C 600.942 3.59628 2.39356 0
M  V30 6375 C 600.077 3.85311 3.65662 0
M  V30 6376 C 599.116 5.0545 3.45234 0
M  V30 6377 N 598.253 5.27268 4.63608 0
M  V30 6378 H 603.093 2.85106 0.86709 0
M  V30 6379 H 600.63 1.41073 0.416744 0
M  V30 6380 H 602.588 2.52004 3.3249 0
M  V30 6381 H 601.218 1.47214 2.87277 0
M  V30 6382 H 600.27 3.4838 1.52761 0
M  V30 6383 H 601.582 4.4756 2.20207 0
M  V30 6384 H 600.736 4.04841 4.51872 0
M  V30 6385 H 599.475 2.95753 3.8779 0
M  V30 6386 H 598.48 4.85819 2.5741 0
M  V30 6387 H 599.705 5.96538 3.24529 0
M  V30 6388 H 597.651 4.40662 4.85956 0
M  V30 6389 H 597.568 6.09422 4.4737 0
M  V30 6390 H 598.836 5.51277 5.51103 0
M  V30 6391 N 603.065 -0.440357 1.51323 0
M  V30 6392 C 604.312 -1.19004 1.63842 0
M  V30 6393 C 604.64 -1.91266 0.35321 0
M  V30 6394 O 603.895 -1.84143 -0.662565 0
M  V30 6395 C 604.194 -2.2339 2.78984 0
M  V30 6396 C 603.86 -1.68162 4.18369 0
M  V30 6397 C 602.522 -1.52823 4.56288 0
M  V30 6398 C 604.874 -1.27524 5.05358 0
M  V30 6399 C 602.202 -0.953157 5.78906 0
M  V30 6400 C 604.554 -0.714474 6.28552 0
M  V30 6401 C 603.218 -0.547961 6.65247 0
M  V30 6402 H 602.488 -0.435468 0.59954 0
M  V30 6403 H 605.135 -0.481538 1.85347 0
M  V30 6404 H 603.44 -3.00267 2.51688 0
M  V30 6405 H 605.137 -2.81211 2.85869 0
M  V30 6406 H 601.727 -1.81077 3.8847 0
M  V30 6407 H 605.911 -1.38197 4.76671 0
M  V30 6408 H 601.167 -0.811882 6.05986 0
M  V30 6409 H 605.341 -0.391059 6.95301 0
M  V30 6410 H 602.968 -0.100222 7.60134 0
M  V30 6411 N 604.543 -1.41418 -0.695603 0
M  V30 6412 C 605.79 -1.40774 -1.45564 0
M  V30 6413 C 606.118 -0.0168604 -1.94493 0
M  V30 6414 O 605.373 0.971259 -1.69897 0
M  V30 6415 C 605.672 -2.36112 -2.68302 0
M  V30 6416 C 605.338 -3.82952 -2.38031 0
M  V30 6417 C 604 -4.22954 -2.29486 0
M  V30 6418 C 606.352 -4.75662 -2.13061 0
M  V30 6419 C 603.68 -5.53674 -1.94067 0
M  V30 6420 C 606.032 -6.06702 -1.79151 0
M  V30 6421 C 604.696 -6.45725 -1.69102 0
M  V30 6422 H 603.966 -0.515128 -0.532658 0
M  V30 6423 H 606.613 -1.74216 -0.795047 0
M  V30 6424 H 604.918 -1.95924 -3.39295 0
M  V30 6425 H 606.615 -2.32887 -3.26442 0
M  V30 6426 H 603.205 -3.5127 -2.45576 0
M  V30 6427 H 607.389 -4.45561 -2.18608 0
M  V30 6428 H 602.645 -5.8279 -1.8484 0
M  V30 6429 H 606.819 -6.78041 -1.5885 0
M  V30 6430 H 604.446 -7.46929 -1.41426 0
M  V30 6431 N 606.021 0.929856 -1.27246 0
M  V30 6432 C 607.298 1.65544 -1.04186 0
M  V30 6433 C 607.678 2.06796 0.424097 0
M  V30 6434 O 607.026 1.80053 1.40688 0
M  V30 6435 C 607.236 2.85912 -2.00138 0
M  V30 6436 C 608.584 3.57305 -2.29387 0
M  V30 6437 O 609.608 2.96036 -1.98094 0
M  V30 6438 O 608.467 4.67688 -2.82719 0
M  V30 6439 H 605.561 0.725473 -0.397011 0
M  V30 6440 H 608.107 0.980583 -1.38501 0
M  V30 6441 H 606.879 2.52403 -2.99013 0
M  V30 6442 H 606.502 3.61118 -1.66371 0
M  V30 6443 N 607.499 1.09233 1.13605 0
M  V30 6444 C 608.776 0.739633 1.81077 0
M  V30 6445 C 609.156 -0.775595 1.96336 0
M  V30 6446 O 608.504 -1.69726 1.52988 0
M  V30 6447 C 608.714 1.47636 3.16235 0
M  V30 6448 C 610.062 1.64087 3.91613 0
M  V30 6449 O 611.086 1.43871 3.25852 0
M  V30 6450 O 609.945 1.97511 5.0956 0
M  V30 6451 H 607.039 0.265464 0.783236 0
M  V30 6452 H 609.585 1.19441 1.20549 0
M  V30 6453 H 608.357 2.50818 3.00344 0
M  V30 6454 H 607.98 1.01362 3.84462 0
M  V30 6455 N 608.977 -1.30795 0.87923 0
M  V30 6456 C 609.925 -2.30231 0.331112 0
M  V30 6457 C 610.919 -1.59918 -0.558794 0
M  V30 6458 O 612.125 -1.74441 -0.443866 0
M  V30 6459 H 608.5 -0.746785 0.088409 0
M  V30 6460 H 610.471 -2.73925 1.18353 0
M  V30 6461 C 609.22 -3.44848 -0.444401 0
M  V30 6462 H 608.543 -3.99131 0.231106 0
M  V30 6463 H 609.983 -4.16516 -0.793109 0
M  V30 6464 C 608.442 -2.94329 -1.63926 0
M  V30 6465 O 608.972 -2.93875 -2.73862 0
M  V30 6466 N 607.178 -2.50413 -1.4745 0
M  V30 6467 H 606.725 -2.50982 -0.58015 0
M  V30 6468 H 606.683 -2.16969 -2.27534 0
M  V30 6469 N 610.455 -0.639598 -1.44038 0
M  V30 6470 C 611.385 0.0469443 -2.33453 0
M  V30 6471 C 612.366 0.82609 -1.48694 0
M  V30 6472 O 613.551 0.790285 -1.77393 0
M  V30 6473 C 610.681 1.02338 -3.3188 0
M  V30 6474 C 609.635 0.355284 -4.26523 0
M  V30 6475 C 608.961 1.44221 -5.14883 0
M  V30 6476 C 610.261 -0.743798 -5.16977 0
M  V30 6477 H 611.955 -0.699735 -2.91108 0
M  V30 6478 H 609.501 -0.337946 -1.39978 0
M  V30 6479 H 611.454 1.51247 -3.93322 0
M  V30 6480 H 610.178 1.80105 -2.72451 0
M  V30 6481 H 608.837 -0.113239 -3.66425 0
M  V30 6482 H 608.485 2.21097 -4.51802 0
M  V30 6483 H 608.185 1.00052 -5.79019 0
M  V30 6484 H 609.709 1.93295 -5.79197 0
M  V30 6485 H 611.123 -0.337444 -5.72306 0
M  V30 6486 H 609.52 -1.10914 -5.89761 0
M  V30 6487 H 610.59 -1.60745 -4.57481 0
M  V30 6488 O 611.972 1.52802 -0.522856 0
M  V30 6489 H 612.663 1.93697 -0.0110221 0
M  V30 END ATOM
M  V30 BEGIN BOND
M  V30 END BOND
M  V30 END CTAB
M  END
$$$$
