drugbank_target|Q6MZM0 Hephaestin-like protein 1 (DB09130)
 OpenBabel12092121033D

  0  0  0     0  0            999 V3000
M  V30 BEGIN CTAB
M  V30 COUNTS 18314 18578 0 0 0
M  V30 BEGIN ATOM
M  V30 1 H -0.908 1.98254 -0.117106 0
M  V30 2 N 0 1.576 0 0
M  V30 3 C 0.933 2.03868 1.02534 0
M  V30 4 C 1.911 0.928543 1.3348 0
M  V30 5 O 3.095 1.19667 1.45644 0
M  V30 6 C 0.222 2.43627 2.35294 0
M  V30 7 C -0.732 3.65373 2.2001 0
M  V30 8 S 0.101 5.13292 1.52614 0
M  V30 9 C 1.257 5.56322 2.86805 0
M  V30 10 H 1.49 2.90518 0.631377 0
M  V30 11 H -0.977 1.52953 0.210867 0
M  V30 12 H 0.981 2.67203 3.11629 0
M  V30 13 H -0.358 1.57376 2.7183 0
M  V30 14 H -1.165 3.90944 3.18086 0
M  V30 15 H -1.563 3.418 1.51819 0
M  V30 16 H 0.729 5.58782 3.83104 0
M  V30 17 H 1.672 6.56266 2.65933 0
M  V30 18 H 2.08 4.83886 2.90714 0
M  V30 19 N 1.4781 -0.272755 1.55222 0
M  V30 20 C 2.8891 -0.84378 1.66545 0
M  V30 21 C 3.2401 -1.87035 0.592641 0
M  V30 22 O 2.3651 -2.14761 -0.265818 0
M  V30 23 C 2.9601 -1.53723 3.01918 0
M  V30 24 C 1.5191 -2.05628 3.15268 0
M  V30 25 C 0.6661 -0.898424 2.62343 0
M  V30 26 H 3.6171 -0.0490998 1.58624 0
M  V30 27 H 3.6381 -2.40421 2.94921 0
M  V30 28 H 3.1501 -0.78983 3.79978 0
M  V30 29 H 1.2511 -2.83329 2.41983 0
M  V30 30 H 1.3641 -2.27142 4.21833 0
M  V30 31 H -0.2719 -1.29186 2.19506 0
M  V30 32 H 0.5111 -0.164528 3.42906 0
M  V30 33 N 2.9562 -1.48159 -0.537278 0
M  V30 34 C 4.3722 -1.34118 -0.865129 0
M  V30 35 C 4.5722 -0.346678 -1.98495 0
M  V30 36 O 3.6282 0.234715 -2.51407 0
M  V30 37 C 4.9412 -2.73963 -1.23954 0
M  V30 38 C 6.4892 -2.82397 -1.34984 0
M  V30 39 C 6.9642 -4.22928 -1.75772 0
M  V30 40 N 8.4552 -4.25566 -1.82887 0
M  V30 41 C 9.1902 -5.31235 -2.15817 0
M  V30 42 N 8.6862 -6.47189 -2.47222 0
M  V30 43 N 10.4792 -5.18624 -2.16761 0
M  V30 44 H 2.6302 -2.1144 0.201715 0
M  V30 45 H 4.8932 -0.947598 0.0275949 0
M  V30 46 H 4.5992 -3.48264 -0.490381 0
M  V30 47 H 4.4732 -3.0702 -2.19132 0
M  V30 48 H 6.8602 -2.08356 -2.08978 0
M  V30 49 H 6.9412 -2.5297 -0.379448 0
M  V30 50 H 6.5852 -4.97482 -1.02341 0
M  V30 51 H 6.5152 -4.49794 -2.73848 0
M  V30 52 H 9.0062 -3.41924 -1.60924 0
M  V30 53 H 9.3192 -7.23564 -2.71433 0
M  V30 54 H 7.6642 -6.50476 -2.44757 0
M  V30 55 H 10.8552 -4.27056 -1.91679 0
M  V30 56 H 11.0282 -6.01078 -2.42093 0
M  V30 57 N 4.4343 0.785586 -1.36625 0
M  V30 58 C 5.3813 1.89838 -1.31264 0
M  V30 59 C 6.3513 1.65115 -0.180633 0
M  V30 60 O 7.5363 1.87222 -0.36777 0
M  V30 61 C 4.6763 3.26706 -1.11163 0
M  V30 62 C 3.7893 3.63476 -2.33472 0
M  V30 63 C 2.9243 4.89481 -2.06353 0
M  V30 64 C 1.9633 5.18941 -3.24602 0
M  V30 65 N 1.1003 6.36131 -2.97123 0
M  V30 66 H 5.9403 1.93756 -2.26413 0
M  V30 67 H 3.4773 0.947454 -1.12524 0
M  V30 68 H 5.4353 4.05639 -0.975337 0
M  V30 69 H 4.0653 3.222 -0.196674 0
M  V30 70 H 3.1173 2.79636 -2.57891 0
M  V30 71 H 4.4293 3.81193 -3.21704 0
M  V30 72 H 3.5833 5.76288 -1.89675 0
M  V30 73 H 2.3223 4.73841 -1.15437 0
M  V30 74 H 1.3273 4.30615 -3.41834 0
M  V30 75 H 2.5523 5.36498 -4.16349 0
M  V30 76 H 0.4983 6.21875 -2.08823 0
M  V30 77 H 0.4153 6.54198 -3.78894 0
M  V30 78 H 1.6833 7.2591 -2.84033 0
M  V30 79 N 5.9124 1.20967 1.01018 0
M  V30 80 C 6.8444 0.922059 2.09835 0
M  V30 81 C 7.8574 -0.0927106 1.62536 0
M  V30 82 O 9.0464 0.139127 1.77957 0
M  V30 83 C 6.1464 0.362004 3.36961 0
M  V30 84 C 5.3194 1.42986 4.13369 0
M  V30 85 C 4.3784 0.879976 5.1879 0
M  V30 86 O 3.4044 1.56219 5.47343 0
M  V30 87 N 4.6064 -0.307396 5.79686 0
M  V30 88 H 7.3714 1.8588 2.35093 0
M  V30 89 H 4.9324 1.11422 1.1746 0
M  V30 90 H 6.9244 -0.0201474 4.04695 0
M  V30 91 H 5.4944 -0.479437 3.08902 0
M  V30 92 H 4.7144 1.98608 3.40512 0
M  V30 93 H 6.0024 2.14885 4.61196 0
M  V30 94 H 5.4004 -0.878796 5.58832 0
M  V30 95 H 3.9574 -0.631115 6.48737 0
M  V30 96 N 7.3905 -1.2043 1.01659 0
M  V30 97 C 8.8015 -1.71517 0.737482 0
M  V30 98 C 9.1525 -1.81547 -0.743973 0
M  V30 99 O 8.2775 -1.47803 -1.58061 0
M  V30 100 C 8.8725 -3.11515 1.33206 0
M  V30 101 C 7.4315 -3.59912 1.10183 0
M  V30 102 C 6.5785 -2.37116 1.43776 0
M  V30 103 H 9.5295 -1.05444 1.18606 0
M  V30 104 H 9.5505 -3.73575 0.722636 0
M  V30 105 H 9.0625 -3.04182 2.41028 0
M  V30 106 H 7.1635 -3.72577 0.0412756 0
M  V30 107 H 7.2765 -4.44731 1.78188 0
M  V30 108 H 5.6405 -2.39857 0.856778 0
M  V30 109 H 6.4235 -2.32424 2.52654 0
M  V30 110 N 8.8686 -0.792821 -1.36206 0
M  V30 111 C 9.8316 -0.199459 -2.2833 0
M  V30 112 C 10.8316 0.605189 -1.48977 0
M  V30 113 O 12.0216 0.425685 -1.68919 0
M  V30 114 C 9.1536 0.723523 -3.33134 0
M  V30 115 H 10.3466 -1.01181 -2.82316 0
M  V30 116 H 7.8996 -0.562485 -1.45828 0
M  V30 117 H 8.6346 1.56008 -2.84309 0
M  V30 118 H 8.4196 0.148436 -3.91819 0
M  V30 119 H 9.9096 1.13344 -4.01924 0
M  V30 120 N 10.3467 1.47872 -0.545128 0
M  V30 121 C 11.5947 2.02093 -0.016553 0
M  V30 122 C 11.9157 1.42305 1.3332 0
M  V30 123 O 11.1857 0.593853 1.86682 0
M  V30 124 H 9.7657 0.746993 -0.00313038 0
M  V30 125 H 12.4277 1.81414 -0.712397 0
M  V30 126 H 11.5237 3.11996 0.0805422 0
M  V30 127 N 11.8248 0.280983 1.55075 0
M  V30 128 C 13.0648 -0.335234 2.01632 0
M  V30 129 C 13.4288 -1.5261 1.16508 0
M  V30 130 O 14.6298 -2.21235 1.52672 0
M  V30 131 C 12.9008 -0.702172 3.50434 0
M  V30 132 S 14.4598 -1.30409 4.18974 0
M  V30 133 H 11.2778 -0.103967 0.703358 0
M  V30 134 H 13.8798 0.404187 1.91276 0
M  V30 135 H 12.5838 0.17333 4.10034 0
M  V30 136 H 12.1148 -1.4729 3.64786 0
M  V30 137 H 14.1298 -2.59253 4.23087 0
M  V30 138 N 13.3029 -1.57598 0.00835791 0
M  V30 139 C 14.5519 -1.90107 -0.673968 0
M  V30 140 C 14.8649 -0.884275 -1.7447 0
M  V30 141 O 16.0709 -1.09987 -2.48224 0
M  V30 142 C 14.5269 -3.37497 -1.24995 0
M  V30 143 C 14.1349 -4.47491 -0.2136 0
M  V30 144 C 15.8789 -3.79104 -1.90999 0
M  V30 145 C 13.7859 -5.85963 -0.80005 0
M  V30 146 H 12.7159 -0.709393 -0.255495 0
M  V30 147 H 15.3669 -1.83365 0.0702693 0
M  V30 148 H 13.7489 -3.39102 -2.04513 0
M  V30 149 H 14.9229 -4.57414 0.557596 0
M  V30 150 H 13.2379 -4.14956 0.346474 0
M  V30 151 H 15.8349 -4.79901 -2.35795 0
M  V30 152 H 16.1779 -3.1306 -2.74407 0
M  V30 153 H 16.7109 -3.79833 -1.18203 0
M  V30 154 H 13.4499 -6.555 -0.00456708 0
M  V30 155 H 12.9699 -5.79687 -1.54021 0
M  V30 156 H 14.6489 -6.33884 -1.29615 0
M  V30 157 N 14.781 0.264519 -1.55364 0
M  V30 158 C 16.028 0.994986 -1.7637 0
M  V30 159 C 16.356 1.85976 -0.5695 0
M  V30 160 O 15.611 1.90509 0.44776 0
M  V30 161 C 15.91 1.9004 -3.02687 0
M  V30 162 C 15.576 1.19243 -4.34847 0
M  V30 163 C 14.238 0.996709 -4.70764 0
M  V30 164 C 16.59 0.689296 -5.16622 0
M  V30 165 C 13.918 0.285261 -5.86006 0
M  V30 166 C 16.27 -0.00860079 -6.32599 0
M  V30 167 C 14.934 -0.215963 -6.67151 0
M  V30 168 H 14.204 0.364091 -0.645383 0
M  V30 169 H 16.851 0.266543 -1.89636 0
M  V30 170 H 15.156 2.69533 -2.84357 0
M  V30 171 H 16.853 2.46695 -3.16137 0
M  V30 172 H 13.443 1.3549 -4.06621 0
M  V30 173 H 17.627 0.828108 -4.89342 0
M  V30 174 H 12.883 0.113961 -6.11294 0
M  V30 175 H 17.057 -0.406186 -6.95214 0
M  V30 176 H 14.684 -0.769217 -7.56298 0
M  V30 177 N 16.2591 1.48442 0.529413 0
M  V30 178 C 17.1891 1.65902 1.64313 0
M  V30 179 C 18.1701 0.507897 1.6234 0
M  V30 180 O 19.3551 0.740503 1.79528 0
M  V30 181 C 16.4851 1.69911 3.02898 0
M  V30 182 C 15.4391 2.8453 3.19729 0
M  V30 183 C 14.7651 2.73629 4.59381 0
M  V30 184 C 16.0651 4.25821 3.02447 0
M  V30 185 H 17.7591 2.5914 1.49955 0
M  V30 186 H 15.3051 1.24709 0.719982 0
M  V30 187 H 17.2581 1.80715 3.80684 0
M  V30 188 H 15.9821 0.732524 3.18279 0
M  V30 189 H 14.6411 2.73283 2.44361 0
M  V30 190 H 14.2891 1.74938 4.71599 0
M  V30 191 H 13.9891 3.50541 4.71588 0
M  V30 192 H 15.5131 2.86401 5.39265 0
M  V30 193 H 16.9271 4.37898 3.70024 0
M  V30 194 H 15.3241 5.03735 3.26146 0
M  V30 195 H 16.3941 4.42244 1.98867 0
M  V30 196 N 17.7372 -0.778329 1.37039 0
M  V30 197 C 18.6672 -1.90546 1.34962 0
M  V30 198 C 19.6482 -1.68681 0.219274 0
M  V30 199 O 20.8332 -1.89634 0.418624 0
M  V30 200 C 17.9632 -3.27734 1.14925 0
M  V30 201 C 16.9172 -3.64147 2.24902 0
M  V30 202 C 16.2432 -4.99806 1.89996 0
M  V30 203 C 17.5432 -3.71579 3.67051 0
M  V30 204 H 19.2372 -1.92541 2.29277 0
M  V30 205 H 16.7832 -0.924948 1.10366 0
M  V30 206 H 18.7362 -4.06215 1.12104 0
M  V30 207 H 17.4602 -3.26154 0.170631 0
M  V30 208 H 16.1192 -2.8797 2.26868 0
M  V30 209 H 15.7672 -4.94759 0.906796 0
M  V30 210 H 15.4672 -5.25139 2.63634 0
M  V30 211 H 16.9912 -5.80694 1.88749 0
M  V30 212 H 18.4052 -4.40227 3.67251 0
M  V30 213 H 16.8022 -4.08405 4.39688 0
M  V30 214 H 17.8722 -2.72404 4.01154 0
M  V30 215 N 19.2153 -1.21501 -1.00376 0
M  V30 216 C 20.4433 -1.059 -1.77744 0
M  V30 217 C 20.8583 0.391125 -1.84704 0
M  V30 218 O 20.2153 1.27133 -1.30933 0
M  V30 219 C 20.2663 -1.65111 -3.21591 0
M  V30 220 O 19.9873 -3.0445 -3.15027 0
M  V30 221 C 21.4883 -1.54637 -4.15454 0
M  V30 222 H 18.7083 -0.371825 -0.558558 0
M  V30 223 H 21.2523 -1.60865 -1.26264 0
M  V30 224 H 19.4073 -1.14235 -3.70175 0
M  V30 225 H 19.8213 -3.3278 -4.0541 0
M  V30 226 H 21.2953 -2.00808 -5.14179 0
M  V30 227 H 21.7723 -0.501022 -4.36333 0
M  V30 228 H 22.3783 -2.04767 -3.72761 0
M  V30 229 N 20.6934 1.19889 -1.02296 0
M  V30 230 C 21.9404 1.8942 -0.715972 0
M  V30 231 C 22.2684 1.79251 0.754944 0
M  V30 232 O 21.5234 1.17526 1.56481 0
M  V30 233 C 21.8224 3.39883 -1.10518 0
M  V30 234 C 21.4884 3.70254 -2.57337 0
M  V30 235 C 20.1504 3.78254 -2.97452 0
M  V30 236 C 22.5024 3.84052 -3.52354 0
M  V30 237 C 19.8304 3.97514 -4.31509 0
M  V30 238 C 22.1824 4.04824 -4.86108 0
M  V30 239 C 20.8464 4.11054 -5.25919 0
M  V30 240 H 20.1164 0.693138 -0.261993 0
M  V30 241 H 22.7634 1.42012 -1.28472 0
M  V30 242 H 21.0684 3.8915 -0.454953 0
M  V30 243 H 22.7654 3.9199 -0.845261 0
M  V30 244 H 19.3554 3.64632 -2.25258 0
M  V30 245 H 23.5394 3.77221 -3.22518 0
M  V30 246 H 18.7954 4.00574 -4.61898 0
M  V30 247 H 22.9694 4.14442 -5.59653 0
M  V30 248 H 20.5964 4.2573 -6.29808 0
M  V30 249 N 22.1715 0.800033 1.35784 0
M  V30 250 C 23.1015 0.220184 2.3246 0
M  V30 251 C 24.0825 -0.65073 1.57161 0
M  V30 252 O 25.2675 -0.582359 1.85263 0
M  V30 253 C 22.3975 -0.637353 3.41402 0
M  V30 254 C 21.3515 0.134531 4.27789 0
M  V30 255 C 20.6775 -0.844285 5.27992 0
M  V30 256 C 21.9775 1.32979 5.05088 0
M  V30 257 H 23.6715 1.02787 2.81203 0
M  V30 258 H 21.2175 0.495717 1.35199 0
M  V30 259 H 23.1705 -1.05302 4.08031 0
M  V30 260 H 21.8945 -1.47785 2.91251 0
M  V30 261 H 20.5535 0.531296 3.6273 0
M  V30 262 H 20.2015 -1.68011 4.74111 0
M  V30 263 H 19.9015 -0.332184 5.8666 0
M  V30 264 H 21.4255 -1.2583 5.97494 0
M  V30 265 H 22.8395 0.98934 5.64699 0
M  V30 266 H 21.2365 1.77593 5.7322 0
M  V30 267 H 22.3065 2.11978 4.36111 0
M  V30 268 N 23.6496 -1.47581 0.552962 0
M  V30 269 C 24.8976 -2.02082 0.0272703 0
M  V30 270 C 25.2186 -1.4301 -1.32563 0
M  V30 271 O 24.4886 -0.603745 -1.86365 0
M  V30 272 H 23.0686 -0.746966 0.00709182 0
M  V30 273 H 25.7306 -1.81033 0.722008 0
M  V30 274 H 24.8266 -3.12034 -0.0639951 0
M  V30 275 N 25.1277 -0.289203 -1.54924 0
M  V30 276 C 26.0577 0.58549 -2.2604 0
M  V30 277 C 27.0387 1.14753 -1.25562 0
M  V30 278 O 28.2237 1.17906 -1.54311 0
M  V30 279 C 25.3537 1.76305 -2.99222 0
M  V30 280 C 24.3077 1.33191 -4.06748 0
M  V30 281 C 23.6337 2.5937 -4.6758 0
M  V30 282 C 24.9337 0.471775 -5.20165 0
M  V30 283 H 26.6277 -0.00763532 -2.99399 0
M  V30 284 H 24.1737 -0.00511229 -1.43999 0
M  V30 285 H 26.1267 2.38097 -3.47689 0
M  V30 286 H 24.8507 2.38223 -2.23422 0
M  V30 287 H 23.5097 0.737121 -3.59113 0
M  V30 288 H 23.1577 3.19576 -3.88433 0
M  V30 289 H 22.8577 2.31228 -5.40192 0
M  V30 290 H 24.3817 3.21985 -5.18804 0
M  V30 291 H 25.7957 0.995056 -5.64599 0
M  V30 292 H 24.1927 0.284639 -5.99425 0
M  V30 293 H 25.2627 -0.506041 -4.82252 0
M  V30 294 N 26.6058 1.57591 -0.0167156 0
M  V30 295 C 27.8308 1.9598 0.67872 0
M  V30 296 C 28.2558 0.892546 1.65575 0
M  V30 297 O 27.6138 -0.147772 1.80697 0
M  V30 298 C 27.6618 3.33468 1.37227 0
M  V30 299 O 26.7658 3.28954 2.48722 0
M  V30 300 H 26.1068 0.639339 0.17928 0
M  V30 301 H 28.6368 2.04463 -0.0748802 0
M  V30 302 H 28.6468 3.69417 1.7319 0
M  V30 303 H 27.3218 4.10694 0.656007 0
M  V30 304 H 25.8988 3.04705 2.14963 0
M  V30 305 N 28.0839 -0.256276 1.55502 0
M  V30 306 C 29.3319 -0.983672 1.76545 0
M  V30 307 C 29.6529 -1.86206 0.578982 0
M  V30 308 O 28.9229 -1.91656 -0.405577 0
M  V30 309 H 27.5029 -0.366191 0.651086 0
M  V30 310 H 30.1649 -0.276479 1.92929 0
M  V30 311 H 29.2609 -1.61087 2.67315 0
M  V30 312 N 29.562 -1.4872 -0.521534 0
M  V30 313 C 30.492 -1.66771 -1.63431 0
M  V30 314 C 31.473 -0.516499 -1.62069 0
M  V30 315 O 32.658 -0.750013 -1.79132 0
M  V30 316 C 29.788 -1.71515 -3.01993 0
M  V30 317 C 28.742 -2.86222 -3.18216 0
M  V30 318 C 28.068 -2.76061 -4.57924 0
M  V30 319 C 29.368 -4.27419 -3.00184 0
M  V30 320 H 31.062 -2.59932 -1.48579 0
M  V30 321 H 28.608 -1.25089 -0.713358 0
M  V30 322 H 30.561 -1.82731 -3.7972 0
M  V30 323 H 29.285 -0.749393 -3.17886 0
M  V30 324 H 27.944 -2.74575 -2.42908 0
M  V30 325 H 27.592 -1.77437 -4.70665 0
M  V30 326 H 27.292 -3.53037 -4.69722 0
M  V30 327 H 28.816 -2.89256 -5.37739 0
M  V30 328 H 30.23 -4.39855 -3.67697 0
M  V30 329 H 28.627 -5.05458 -3.2347 0
M  V30 330 H 29.697 -4.43293 -1.96518 0
M  V30 331 N 31.0401 0.771051 -1.3745 0
M  V30 332 C 32.2861 1.5319 -1.32894 0
M  V30 333 C 32.6191 1.94008 0.0862511 0
M  V30 334 O 31.8941 1.64124 1.04373 0
M  V30 335 C 32.1771 2.79648 -2.26868 0
M  V30 336 C 32.0301 2.45079 -3.77169 0
M  V30 337 C 33.3491 3.81583 -2.19277 0
M  V30 338 H 30.4681 0.555744 -0.484064 0
M  V30 339 H 33.1101 0.884492 -1.68157 0
M  V30 340 H 31.2601 3.34891 -1.96926 0
M  V30 341 H 32.9321 1.95745 -4.1771 0
M  V30 342 H 31.1751 1.77767 -3.95704 0
M  V30 343 H 31.8461 3.35478 -4.38359 0
M  V30 344 H 34.3221 3.35835 -2.45671 0
M  V30 345 H 33.1981 4.67787 -2.87171 0
M  V30 346 H 33.4591 4.25897 -1.18592 0
M  V30 347 N 32.5182 1.22032 0.997298 0
M  V30 348 C 33.7662 1.04016 1.73278 0
M  V30 349 C 34.0872 -0.426255 1.90284 0
M  V30 350 O 33.3572 -1.30694 1.45931 0
M  V30 351 H 31.9372 0.381897 0.642 0
M  V30 352 H 34.5992 1.5347 1.20137 0
M  V30 353 H 33.6952 1.51441 2.72896 0
M  V30 354 N 33.9963 -1.19345 1.0293 0
M  V30 355 C 35.2243 -1.92997 0.745644 0
M  V30 356 C 35.6393 -1.75519 -0.695589 0
M  V30 357 O 34.9963 -1.07737 -1.47306 0
M  V30 358 C 35.0473 -3.44741 1.08792 0
M  V30 359 O 34.7683 -3.61658 2.47256 0
M  V30 360 C 36.2693 -4.35515 0.827129 0
M  V30 361 H 33.4893 -0.613042 0.272801 0
M  V30 362 H 36.0333 -1.51473 1.3739 0
M  V30 363 H 34.1883 -3.84097 0.504832 0
M  V30 364 H 34.6023 -4.55514 2.60015 0
M  V30 365 H 36.0763 -5.40589 1.11658 0
M  V30 366 H 36.5533 -4.38552 -0.238436 0
M  V30 367 H 37.1593 -4.01841 1.39297 0
M  V30 368 N 35.4744 -0.807222 -1.35358 0
M  V30 369 C 36.7204 -0.388463 -1.99045 0
M  V30 370 C 37.0534 1.04184 -1.63888 0
M  V30 371 O 36.3284 1.72292 -0.902535 0
M  V30 372 C 36.6114 -0.572783 -3.55515 0
M  V30 373 C 36.4644 -2.04807 -4.00468 0
M  V30 374 C 37.7834 0.00114064 -4.401 0
M  V30 375 H 34.9024 -0.142619 -0.723069 0
M  V30 376 H 37.5444 -1.01687 -1.60498 0
M  V30 377 H 35.6944 -0.0378425 -3.88482 0
M  V30 378 H 37.3664 -2.64544 -3.77908 0
M  V30 379 H 35.6094 -2.54427 -3.51353 0
M  V30 380 H 36.2804 -2.12792 -5.09337 0
M  V30 381 H 38.7564 -0.455716 -4.13597 0
M  V30 382 H 37.6324 -0.157737 -5.48673 0
M  V30 383 H 37.8934 1.09488 -4.28328 0
M  V30 384 N 36.9525 1.47285 -0.560781 0
M  V30 385 C 38.1805 2.06855 -0.0430262 0
M  V30 386 C 38.5955 1.41291 1.25229 0
M  V30 387 O 37.9525 0.510648 1.7521 0
M  V30 388 C 38.0035 3.61178 0.152518 0
M  V30 389 O 37.7245 4.24285 -1.0915 0
M  V30 390 C 39.2255 4.37624 0.707145 0
M  V30 391 H 36.4455 0.669319 -0.0474652 0
M  V30 392 H 38.9895 1.89237 -0.77521 0
M  V30 393 H 37.1445 3.78298 0.834843 0
M  V30 394 H 37.5585 5.16868 -0.891482 0
M  V30 395 H 39.0325 5.46271 0.793244 0
M  V30 396 H 39.5095 4.04152 1.71923 0
M  V30 397 H 40.1155 4.25257 0.0604027 0
M  V30 398 N 38.4306 0.297415 1.54768 0
M  V30 399 C 39.8466 -0.0560823 1.59501 0
M  V30 400 C 40.0466 -1.52725 1.31444 0
M  V30 401 O 39.1026 -2.27947 1.08611 0
M  V30 402 C 40.4156 0.338631 2.98787 0
M  V30 403 C 41.9636 0.287097 3.11681 0
M  V30 404 C 42.4386 0.656579 4.53269 0
M  V30 405 N 43.9296 0.608977 4.59179 0
M  V30 406 C 44.6646 0.867385 5.66802 0
M  V30 407 N 44.1606 1.19157 6.82476 0
M  V30 408 N 45.9536 0.794687 5.56454 0
M  V30 409 H 38.1046 1.25624 1.71267 0
M  V30 410 H 40.3676 0.509057 0.799728 0
M  V30 411 H 40.0736 1.36263 3.2423 0
M  V30 412 H 39.9476 -0.309508 3.75928 0
M  V30 413 H 42.3346 -0.727649 2.85988 0
M  V30 414 H 42.4156 0.969809 2.36703 0
M  V30 415 H 42.0596 1.66912 4.7969 0
M  V30 416 H 41.9896 -0.0481649 5.26578 0
M  V30 417 H 44.4806 0.369198 3.76092 0
M  V30 418 H 44.7936 1.37482 7.60473 0
M  V30 419 H 43.1386 1.22958 6.84037 0
M  V30 420 H 46.3296 0.541098 4.64962 0
M  V30 421 H 46.5026 0.999445 6.40246 0
M  V30 422 N 39.9087 -1.5758 0.0250728 0
M  V30 423 C 41.1367 -1.9593 -0.664747 0
M  V30 424 C 41.5517 -0.901352 -1.65895 0
M  V30 425 O 40.9087 0.117255 -1.82123 0
M  V30 426 C 40.9597 -3.34342 -1.37468 0
M  V30 427 O 40.6807 -4.36079 -0.420324 0
M  V30 428 C 42.1817 -3.873 -2.1567 0
M  V30 429 H 39.4017 -0.645405 -0.183557 0
M  V30 430 H 41.9457 -2.04329 0.0836372 0
M  V30 431 H 40.1007 -3.27175 -2.0745 0
M  V30 432 H 40.5147 -5.16297 -0.923991 0
M  V30 433 H 41.9887 -4.86504 -2.60803 0
M  V30 434 H 42.4657 -3.21331 -2.99405 0
M  V30 435 H 43.0717 -3.97723 -1.50654 0
M  V30 436 N 41.3868 0.248026 -1.55636 0
M  V30 437 C 42.6168 0.992367 -1.81206 0
M  V30 438 C 43.0248 1.7949 -0.598324 0
M  V30 439 O 42.3678 1.78292 0.442434 0
M  V30 440 C 42.4298 1.97926 -3.00109 0
M  V30 441 C 42.0938 1.36377 -4.36177 0
M  V30 442 C 43.0908 0.76682 -5.14214 0
M  V30 443 C 40.7758 1.38347 -4.82872 0
M  V30 444 C 42.7698 0.197778 -6.37093 0
M  V30 445 C 40.4568 0.810574 -6.057 0
M  V30 446 C 41.4548 0.218754 -6.8265 0
M  V30 447 O 41.1428 -0.345298 -8.03158 0
M  V30 448 H 40.8748 0.297704 -0.606917 0
M  V30 449 H 43.4288 0.276517 -2.0353 0
M  V30 450 H 41.6588 2.73339 -2.73538 0
M  V30 451 H 43.3478 2.58694 -3.12781 0
M  V30 452 H 44.1138 0.744114 -4.79258 0
M  V30 453 H 39.9928 1.8335 -4.2297 0
M  V30 454 H 43.5368 -0.264788 -6.97097 0
M  V30 455 H 39.4338 0.830604 -6.40134 0
M  V30 456 H 40.2018 -0.237055 -8.18157 0
M  V30 457 N 42.8649 1.48995 0.513639 0
M  V30 458 C 44.0949 1.61297 1.291 0
M  V30 459 C 44.5029 0.278656 1.87137 0
M  V30 460 O 43.8459 -0.744325 1.67945 0
M  V30 461 C 43.9079 2.61326 2.46879 0
M  V30 462 C 43.5719 4.05993 2.09807 0
M  V30 463 C 44.5689 4.93183 1.64519 0
M  V30 464 C 42.2539 4.51642 2.19829 0
M  V30 465 C 44.2479 6.24056 1.2974 0
M  V30 466 C 41.9349 5.82532 1.84662 0
M  V30 467 C 42.9329 6.68562 1.3969 0
M  V30 468 O 42.6209 7.97014 1.04992 0
M  V30 469 H 42.3529 0.546236 0.39825 0
M  V30 470 H 44.9069 1.95673 0.62459 0
M  V30 471 H 43.1369 2.22104 3.16554 0
M  V30 472 H 44.8259 2.6329 3.08923 0
M  V30 473 H 45.5919 4.59147 1.56233 0
M  V30 474 H 41.4709 3.84855 2.53786 0
M  V30 475 H 45.0149 6.91161 0.945659 0
M  V30 476 H 40.9119 6.16099 1.92594 0
M  V30 477 H 41.6799 8.09913 1.18249 0
M  V30 478 N 44.343 -0.763751 1.37857 0
M  V30 479 C 45.592 -1.51789 1.32827 0
M  V30 480 C 45.905 -1.95426 -0.0823719 0
M  V30 481 O 47.111 -2.70298 -0.255172 0
M  V30 482 C 45.567 -2.74133 2.33193 0
M  V30 483 C 45.175 -2.37562 3.79827 0
M  V30 484 C 46.919 -3.52054 2.37188 0
M  V30 485 C 44.826 -3.56456 4.71904 0
M  V30 486 H 43.756 -0.569896 0.493695 0
M  V30 487 H 46.407 -0.835822 1.63359 0
M  V30 488 H 44.789 -3.4427 1.9569 0
M  V30 489 H 45.963 -1.75157 4.26212 0
M  V30 490 H 44.278 -1.72798 3.78853 0
M  V30 491 H 46.875 -4.40437 3.03182 0
M  V30 492 H 47.218 -3.92486 1.38782 0
M  V30 493 H 47.751 -2.88921 2.7344 0
M  V30 494 H 44.49 -3.21099 5.71468 0
M  V30 495 H 44.01 -4.17938 4.30218 0
M  V30 496 H 45.689 -4.23168 4.89426 0
M  V30 497 N 45.8211 -1.22559 -0.990812 0
M  V30 498 C 47.0691 -1.04933 -1.72724 0
M  V30 499 C 47.3901 0.416158 -1.90508 0
M  V30 500 O 46.6601 1.29918 -1.46622 0
M  V30 501 H 45.2401 -0.385296 -0.639965 0
M  V30 502 H 47.9021 -1.54105 -1.19322 0
M  V30 503 H 46.9981 -1.52886 -2.72089 0
M  V30 504 N 47.2992 1.18797 -1.03562 0
M  V30 505 C 48.5482 1.87978 -0.731235 0
M  V30 506 C 48.8612 1.80911 0.743671 0
M  V30 507 O 50.0672 2.45407 1.16137 0
M  V30 508 C 48.5232 3.3721 -1.25768 0
M  V30 509 C 48.1312 3.52818 -2.76085 0
M  V30 510 C 49.8752 4.11825 -1.0296 0
M  V30 511 C 47.7822 4.9598 -3.22114 0
M  V30 512 H 46.7122 0.704063 -0.269835 0
M  V30 513 H 49.3632 1.34266 -1.25079 0
M  V30 514 H 47.7452 3.90359 -0.666011 0
M  V30 515 H 48.9192 3.09965 -3.40966 0
M  V30 516 H 47.2342 2.91602 -2.97249 0
M  V30 517 H 49.8312 5.17411 -1.34869 0
M  V30 518 H 50.1742 4.16287 0.0333546 0
M  V30 519 H 50.7072 3.64833 -1.58562 0
M  V30 520 H 47.4462 4.96684 -4.27768 0
M  V30 521 H 46.9662 5.39569 -2.61965 0
M  V30 522 H 48.6452 5.6467 -3.15844 0
M  V30 523 N 48.7773 0.814389 1.34928 0
M  V30 524 C 50.0233 0.399013 1.98836 0
M  V30 525 C 50.3563 -1.03314 1.64438 0
M  V30 526 O 49.6313 -1.71811 0.911659 0
M  V30 527 C 49.9143 0.591629 3.55207 0
M  V30 528 C 49.7673 2.06928 3.99376 0
M  V30 529 C 51.0863 0.022199 4.40094 0
M  V30 530 H 48.2053 0.146451 0.722303 0
M  V30 531 H 50.8473 1.02537 1.59957 0
M  V30 532 H 48.9973 0.0584441 3.88456 0
M  V30 533 H 50.6693 2.66544 3.76499 0
M  V30 534 H 48.9123 2.56287 3.49999 0
M  V30 535 H 49.5833 2.1549 5.08201 0
M  V30 536 H 52.0593 0.477643 4.13349 0
M  V30 537 H 50.9353 0.186832 5.48582 0
M  V30 538 H 51.1963 -1.07215 4.28902 0
M  V30 539 N 50.2554 -1.46986 0.568584 0
M  V30 540 C 51.1654 -2.33942 -0.17555 0
M  V30 541 C 52.1814 -1.48891 -0.90041 0
M  V30 542 O 53.3574 -1.81794 -0.86676 0
M  V30 543 C 50.4224 -3.25811 -1.18524 0
M  V30 544 C 49.4834 -4.26757 -0.466582 0
M  V30 545 C 48.7164 -5.14236 -1.42817 0
M  V30 546 O 48.9394 -5.04379 -2.66379 0
M  V30 547 O 47.8734 -5.94412 -0.946453 0
M  V30 548 H 51.6994 -2.98896 0.538036 0
M  V30 549 H 49.2844 -1.4573 0.329097 0
M  V30 550 H 51.1664 -3.82527 -1.76779 0
M  V30 551 H 49.8414 -2.63471 -1.88055 0
M  V30 552 H 48.7484 -3.73769 0.157451 0
M  V30 553 H 50.0814 -4.91843 0.187485 0
M  V30 554 N 51.7335 -0.305618 -1.54608 0
M  V30 555 C 52.6435 0.57778 -2.27374 0
M  V30 556 C 53.6595 1.14451 -1.31061 0
M  V30 557 O 54.8355 1.16831 -1.6405 0
M  V30 558 C 51.9005 1.73123 -3.00382 0
M  V30 559 C 50.9615 1.19812 -4.12242 0
M  V30 560 C 50.1945 2.2966 -4.81759 0
M  V30 561 O 50.4175 3.49651 -4.50666 0
M  V30 562 O 49.3515 1.96091 -5.69062 0
M  V30 563 H 53.1775 -0.012624 -3.03697 0
M  V30 564 H 50.7625 -0.0719184 -1.49227 0
M  V30 565 H 52.6445 2.40315 -3.4616 0
M  V30 566 H 51.3195 2.30815 -2.26949 0
M  V30 567 H 50.2265 0.491798 -3.70853 0
M  V30 568 H 51.5595 0.666566 -4.87666 0
M  V30 569 N 53.2116 1.57565 -0.0334293 0
M  V30 570 C 54.4416 1.95996 0.653398 0
M  V30 571 C 54.8496 0.908749 1.65947 0
M  V30 572 O 54.1926 -0.117471 1.83324 0
M  V30 573 C 54.2546 3.30589 1.41249 0
M  V30 574 C 53.9186 4.53503 0.564263 0
M  V30 575 C 54.9156 5.19647 -0.16225 0
M  V30 576 C 52.6006 4.99801 0.500398 0
M  V30 577 C 54.5946 6.30412 -0.941255 0
M  V30 578 C 52.2816 6.10448 -0.282308 0
M  V30 579 C 53.2796 6.75612 -1.00184 0
M  V30 580 O 52.9676 7.84134 -1.77171 0
M  V30 581 H 52.6996 0.65027 0.184728 0
M  V30 582 H 55.2536 2.05199 -0.0907841 0
M  V30 583 H 53.4836 3.17888 2.20191 0
M  V30 584 H 55.1726 3.53892 1.98784 0
M  V30 585 H 55.9386 4.84846 -0.12227 0
M  V30 586 H 51.8176 4.48883 1.05002 0
M  V30 587 H 55.3616 6.81208 -1.50339 0
M  V30 588 H 51.2586 6.44686 -0.323989 0
M  V30 589 H 52.0266 8.00822 -1.69194 0
M  V30 590 N 54.6897 -0.239769 1.55765 0
M  V30 591 C 55.9357 -0.963942 1.79108 0
M  V30 592 C 56.2907 -1.82689 0.60352 0
M  V30 593 O 55.5837 -1.87313 -0.403033 0
M  V30 594 C 55.7777 -1.852 3.05672 0
M  V30 595 C 55.6067 -1.07651 4.36625 0
M  V30 596 C 54.3767 -0.778738 4.99263 0
M  V30 597 C 56.5747 -0.45062 5.12322 0
M  V30 598 N 54.5567 0.0200708 6.13897 0
M  V30 599 C 55.9277 0.212429 6.19636 0
M  V30 600 C 57.9827 -0.361806 4.96584 0
M  V30 601 C 56.6857 0.955772 7.12922 0
M  V30 602 C 58.7117 0.368023 5.90254 0
M  V30 603 C 58.0737 1.01968 6.96981 0
M  V30 604 H 54.1727 -0.333601 0.707272 0
M  V30 605 H 56.7567 -0.236425 1.93259 0
M  V30 606 H 54.9277 -2.55149 2.92837 0
M  V30 607 H 56.6597 -2.51228 3.1728 0
M  V30 608 H 53.4147 -1.09229 4.60832 0
M  V30 609 H 53.8387 0.407777 6.75771 0
M  V30 610 H 58.4807 -0.851286 4.14141 0
M  V30 611 H 56.1987 1.45683 7.9486 0
M  V30 612 H 59.7847 0.437504 5.80153 0
M  V30 613 H 58.6647 1.5754 7.68213 0
M  V30 614 N 56.1678 -1.49265 -0.50573 0
M  V30 615 C 57.1158 -1.66065 -1.62866 0
M  V30 616 C 58.1098 -0.526636 -1.61006 0
M  V30 617 O 59.3158 -0.706126 -1.65571 0
M  V30 618 H 55.6908 -0.52356 -0.539805 0
M  V30 619 H 57.6618 -2.60329 -1.45848 0
M  V30 620 C 56.4108 -1.74008 -3.01026 0
M  V30 621 H 55.7338 -2.6064 -3.03161 0
M  V30 622 H 57.1738 -1.89798 -3.79147 0
M  V30 623 C 55.6328 -0.483868 -3.33407 0
M  V30 624 O 56.1628 0.392548 -3.99777 0
M  V30 625 N 54.3688 -0.348236 -2.88506 0
M  V30 626 H 53.9158 -1.06242 -2.34671 0
M  V30 627 H 53.8738 0.491204 -3.10539 0
M  V30 628 N 57.6459 0.756429 -1.3826 0
M  V30 629 C 58.8759 1.54341 -1.3734 0
M  V30 630 C 59.2839 1.89159 0.0393917 0
M  V30 631 O 58.6269 1.5307 1.01565 0
M  V30 632 C 58.6889 2.87238 -2.16182 0
M  V30 633 C 58.3529 2.74973 -3.65019 0
M  V30 634 C 59.3499 2.44962 -4.58574 0
M  V30 635 C 57.0349 2.92515 -4.08338 0
M  V30 636 C 59.0289 2.32642 -5.93428 0
M  V30 637 C 56.7159 2.79815 -5.43274 0
M  V30 638 C 57.7139 2.49921 -6.35632 0
M  V30 639 O 57.4019 2.37275 -7.68086 0
M  V30 640 H 57.1339 0.484281 -0.471643 0
M  V30 641 H 59.6879 0.944152 -1.82414 0
M  V30 642 H 57.9179 3.49342 -1.65822 0
M  V30 643 H 59.6069 3.48731 -2.07705 0
M  V30 644 H 60.3729 2.31081 -4.26412 0
M  V30 645 H 56.2519 3.14781 -3.368 0
M  V30 646 H 59.7959 2.0923 -6.65484 0
M  V30 647 H 55.6929 2.93269 -5.75034 0
M  V30 648 H 56.4609 2.52509 -7.78577 0
M  V30 649 N 59.124 1.23083 0.984299 0
M  V30 650 C 60.37 1.06214 1.72761 0
M  V30 651 C 60.703 -0.400584 1.90024 0
M  V30 652 O 59.978 -1.29672 1.44967 0
M  V30 653 C 60.261 1.78375 3.12817 0
M  V30 654 C 60.114 3.32296 3.03149 0
M  V30 655 C 61.433 1.54309 4.12161 0
M  V30 656 H 58.552 0.387251 0.627061 0
M  V30 657 H 61.194 1.51536 1.14616 0
M  V30 658 H 59.344 1.39848 3.62457 0
M  V30 659 H 61.016 3.8032 2.61064 0
M  V30 660 H 59.259 3.6153 2.39747 0
M  V30 661 H 59.93 3.77972 4.02295 0
M  V30 662 H 62.406 1.87791 3.71314 0
M  V30 663 H 61.282 2.07281 5.08258 0
M  V30 664 H 61.543 0.477572 4.39513 0
M  V30 665 N 60.6021 -1.18246 1.0419 0
M  V30 666 C 62.0131 -1.69914 0.773698 0
M  V30 667 C 62.3641 -1.83085 -0.705297 0
M  V30 668 O 61.4891 -1.51123 -1.5489 0
M  V30 669 C 62.0841 -3.08619 1.39784 0
M  V30 670 C 60.6431 -3.57494 1.17792 0
M  V30 671 C 59.7901 -2.34013 1.48773 0
M  V30 672 H 62.7411 -1.02904 1.20816 0
M  V30 673 H 62.7621 -3.71958 0.801714 0
M  V30 674 H 62.2741 -2.99001 2.47426 0
M  V30 675 H 60.3751 -3.72406 0.120295 0
M  V30 676 H 60.4881 -4.40852 1.87581 0
M  V30 677 H 58.8521 -2.37986 0.907463 0
M  V30 678 H 59.6351 -2.27013 2.57527 0
M  V30 679 N 62.0802 -0.821533 -1.34494 0
M  V30 680 C 63.0122 -0.199946 -2.28326 0
M  V30 681 C 64.0252 0.609377 -1.50965 0
M  V30 682 O 65.2142 0.439285 -1.7301 0
M  V30 683 C 62.3142 0.738431 -3.30757 0
M  V30 684 C 61.4872 -0.0277632 -4.37391 0
M  V30 685 C 60.5462 0.831332 -5.19591 0
M  V30 686 O 59.5722 0.276822 -5.68526 0
M  V30 687 N 60.7742 2.15132 -5.39165 0
M  V30 688 H 63.5392 -1.00609 -2.82308 0
M  V30 689 H 61.1002 -0.678366 -1.47003 0
M  V30 690 H 63.0922 1.31773 -3.82646 0
M  V30 691 H 61.6622 1.44533 -2.7718 0
M  V30 692 H 60.8822 -0.788359 -3.86236 0
M  V30 693 H 62.1702 -0.555251 -5.05761 0
M  V30 694 H 61.5682 2.62559 -5.01078 0
M  V30 695 H 60.1252 2.6795 -5.94177 0
M  V30 696 N 63.5583 1.46682 -0.576371 0
M  V30 697 C 64.8063 2.02013 -0.0594163 0
M  V30 698 C 65.1273 1.45101 1.30271 0
M  V30 699 O 64.3973 0.633317 1.8538 0
M  V30 700 H 62.9773 0.746759 -0.0189745 0
M  V30 701 H 65.6393 1.79862 -0.750717 0
M  V30 702 H 64.7353 3.12097 0.014345 0
M  V30 703 N 65.0364 0.313813 1.54444 0
M  V30 704 C 65.9834 -0.55655 2.23989 0
M  V30 705 C 66.9534 -1.11943 1.22711 0
M  V30 706 O 68.1384 -1.16158 1.51367 0
M  V30 707 C 65.2784 -1.71635 2.99392 0
M  V30 708 C 64.3914 -1.18364 4.15468 0
M  V30 709 C 63.5264 -2.30834 4.78424 0
M  V30 710 C 62.5654 -1.74762 5.86622 0
M  V30 711 N 61.7024 -2.80855 6.43479 0
M  V30 712 H 66.5424 0.0430893 2.97969 0
M  V30 713 H 64.0794 0.0330359 1.47063 0
M  V30 714 H 66.0374 -2.39868 3.41349 0
M  V30 715 H 64.6674 -2.28742 2.27765 0
M  V30 716 H 63.7194 -0.393163 3.78363 0
M  V30 717 H 65.0314 -0.733262 4.93381 0
M  V30 718 H 64.1854 -3.0699 5.23299 0
M  V30 719 H 62.9244 -2.79204 3.99871 0
M  V30 720 H 61.9294 -0.970995 5.41158 0
M  V30 721 H 63.1544 -1.2728 6.67066 0
M  V30 722 H 61.1004 -3.28535 5.67804 0
M  V30 723 H 61.0174 -2.40351 7.16776 0
M  V30 724 H 62.2854 -3.5687 6.93011 0
M  V30 725 N 66.5145 -1.57545 0.0417849 0
M  V30 726 C 67.4625 -2.12148 -0.953723 0
M  V30 727 C 68.4565 -1.05104 -1.32852 0
M  V30 728 O 69.6625 -1.23524 -1.30927 0
M  V30 729 H 66.0375 -0.677957 -0.325389 0
M  V30 730 H 68.0085 -2.94707 -0.467991 0
M  V30 731 C 66.7575 -2.6739 -2.22257 0
M  V30 732 H 66.0805 -3.49413 -1.94295 0
M  V30 733 H 67.5205 -3.09227 -2.90094 0
M  V30 734 C 65.9795 -1.60723 -2.96091 0
M  V30 735 O 66.5095 -1.01449 -3.88679 0
M  V30 736 N 64.7155 -1.32466 -2.58652 0
M  V30 737 H 64.2625 -1.80856 -1.83437 0
M  V30 738 H 64.2205 -0.61325 -3.08361 0
M  V30 739 N 67.9926 0.231505 -1.5589 0
M  V30 740 C 69.2386 0.95877 -1.78705 0
M  V30 741 C 69.5716 1.8438 -0.609725 0
M  V30 742 O 68.8466 1.90521 0.391426 0
M  V30 743 C 69.1296 1.8062 -3.11526 0
M  V30 744 C 68.9826 0.948328 -4.39689 0
M  V30 745 C 70.3016 2.78585 -3.40703 0
M  V30 746 H 67.4206 0.347129 -0.650131 0
M  V30 747 H 70.0626 0.228259 -1.88624 0
M  V30 748 H 68.2126 2.42902 -3.03201 0
M  V30 749 H 69.8846 0.343016 -4.60023 0
M  V30 750 H 68.1276 0.253314 -4.3306 0
M  V30 751 H 68.7986 1.57543 -5.29041 0
M  V30 752 H 71.2746 2.26439 -3.49091 0
M  V30 753 H 70.1506 3.34988 -4.34826 0
M  V30 754 H 70.4116 3.55825 -2.62375 0
M  V30 755 N 69.4707 1.49531 0.497807 0
M  V30 756 C 70.7197 1.58426 1.24837 0
M  V30 757 C 71.0327 0.277643 1.93619 0
M  V30 758 O 72.2387 0.24517 2.70391 0
M  V30 759 C 70.6947 2.79538 2.26686 0
M  V30 760 C 70.3027 4.16971 1.63828 0
M  V30 761 C 72.0467 2.97764 3.0255 0
M  V30 762 C 69.9537 5.29301 2.63807 0
M  V30 763 H 68.8837 0.58989 0.469623 0
M  V30 764 H 71.5347 1.75923 0.521857 0
M  V30 765 H 69.9167 2.55542 3.02514 0
M  V30 766 H 71.0907 4.51116 0.939711 0
M  V30 767 H 69.4057 4.04129 1.00342 0
M  V30 768 H 72.0027 3.78856 3.77323 0
M  V30 769 H 72.3457 2.08448 3.60354 0
M  V30 770 H 72.8787 3.21815 2.33838 0
M  V30 771 H 69.6177 6.20687 2.10779 0
M  V30 772 H 69.1377 4.99606 3.31894 0
M  V30 773 H 70.8167 5.58768 3.2617 0
M  V30 774 N 70.9488 -0.749086 1.3866 0
M  V30 775 C 72.1768 -1.53834 1.38358 0
M  V30 776 C 72.5918 -1.88783 -0.0255219 0
M  V30 777 O 71.9488 -1.53101 -0.993292 0
M  V30 778 C 71.9998 -2.83468 2.2434 0
M  V30 779 O 71.7208 -2.50008 3.5976 0
M  V30 780 C 73.2218 -3.7758 2.32267 0
M  V30 781 H 70.4418 -0.47585 0.473083 0
M  V30 782 H 72.9858 -0.926726 1.82297 0
M  V30 783 H 71.1408 -3.40995 1.83851 0
M  V30 784 H 71.5548 -3.33182 4.05081 0
M  V30 785 H 73.0288 -4.65478 2.96706 0
M  V30 786 H 73.5058 -4.18334 1.33765 0
M  V30 787 H 74.1118 -3.25976 2.73166 0
M  V30 788 N 72.4269 -1.23603 -0.977757 0
M  V30 789 C 73.6749 -1.06759 -1.71601 0
M  V30 790 C 73.9959 0.395929 -1.90938 0
M  V30 791 O 73.2659 1.28356 -1.47992 0
M  V30 792 H 71.8459 -0.392062 -0.635843 0
M  V30 793 H 74.5079 -1.55362 -1.1768 0
M  V30 794 H 73.6039 -1.55763 -2.70452 0
M  V30 795 N 73.905 1.17692 -1.04816 0
M  V30 796 C 74.852 2.21581 -0.645797 0
M  V30 797 C 75.822 1.62367 0.350159 0
M  V30 798 O 77.007 1.89254 0.242433 0
M  V30 799 C 74.147 3.45092 -0.0227568 0
M  V30 800 C 73.26 4.18613 -1.06709 0
M  V30 801 C 72.395 5.29602 -0.411767 0
M  V30 802 C 71.434 5.94904 -1.44067 0
M  V30 803 N 70.571 6.97414 -0.809781 0
M  V30 804 H 75.411 2.55353 -1.5362 0
M  V30 805 H 72.948 1.25438 -0.768364 0
M  V30 806 H 74.906 4.15679 0.35588 0
M  V30 807 H 73.536 3.11917 0.831122 0
M  V30 808 H 72.588 3.46779 -1.5636 0
M  V30 809 H 73.9 4.63293 -1.84827 0
M  V30 810 H 73.054 6.06696 0.0206623 0
M  V30 811 H 71.793 4.86045 0.401438 0
M  V30 812 H 70.798 5.16544 -1.88316 0
M  V30 813 H 72.023 6.40542 -2.25571 0
M  V30 814 H 69.969 6.55998 -0.0170186 0
M  V30 815 H 69.886 7.40386 -1.52856 0
M  V30 816 H 71.154 7.78463 -0.401999 0
M  V30 817 N 75.3831 0.828654 1.34056 0
M  V30 818 C 76.6081 0.431637 2.02859 0
M  V30 819 C 77.0331 -0.956339 1.61975 0
M  V30 820 O 76.3911 -1.62338 0.807228 0
M  V30 821 C 76.4391 0.548323 3.56407 0
M  V30 822 O 75.5431 -0.429556 4.10157 0
M  V30 823 H 74.8841 0.176886 0.640006 0
M  V30 824 H 77.4141 1.12066 1.71179 0
M  V30 825 H 77.4241 0.426196 4.05768 0
M  V30 826 H 76.0991 1.5606 3.8551 0
M  V30 827 H 74.6761 -0.265836 3.71951 0
M  V30 828 N 76.8612 -1.46375 0.584142 0
M  V30 829 C 78.1082 -2.02378 0.0702675 0
M  V30 830 C 78.4362 -1.45545 -1.29023 0
M  V30 831 O 77.6912 -0.610967 -1.85918 0
M  V30 832 C 77.9902 -3.57373 -0.0439342 0
M  V30 833 C 77.6562 -4.33252 1.24915 0
M  V30 834 C 76.3182 -4.53701 1.60341 0
M  V30 835 C 78.6702 -4.7681 2.1048 0
M  V30 836 C 75.9982 -5.1496 2.81128 0
M  V30 837 C 78.3502 -5.39404 3.30494 0
M  V30 838 C 77.0142 -5.5808 3.66201 0
M  V30 839 H 76.2842 -0.740554 0.0257127 0
M  V30 840 H 78.9312 -1.75727 0.761065 0
M  V30 841 H 77.2362 -3.83169 -0.817869 0
M  V30 842 H 78.9332 -3.98384 -0.457318 0
M  V30 843 H 75.5232 -4.17633 0.963364 0
M  V30 844 H 79.7072 -4.60766 1.84414 0
M  V30 845 H 74.9632 -5.27611 3.08928 0
M  V30 846 H 79.1372 -5.72114 3.97063 0
M  V30 847 H 76.7642 -6.05318 4.59885 0
M  V30 848 N 78.3393 -0.321999 -1.54275 0
M  V30 849 C 79.5673 0.283052 -2.04955 0
M  V30 850 C 79.9823 1.45904 -1.19823 0
M  V30 851 O 79.3393 1.81063 -0.228545 0
M  V30 852 C 79.3903 0.719028 -3.54277 0
M  V30 853 O 79.1113 -0.410175 -4.36176 0
M  V30 854 C 80.6123 1.38705 -4.21041 0
M  V30 855 H 77.8323 0.0584616 -0.668448 0
M  V30 856 H 80.3763 -0.467734 -1.99079 0
M  V30 857 H 78.5313 1.41979 -3.60445 0
M  V30 858 H 78.9453 -0.0669416 -5.24457 0
M  V30 859 H 80.4193 1.64306 -5.2698 0
M  V30 860 H 80.8963 2.33385 -3.72059 0
M  V30 861 H 81.5023 0.728906 -4.19007 0
M  V30 862 N 79.8174 1.5752 -0.0501392 0
M  V30 863 C 80.7274 2.14952 0.939827 0
M  V30 864 C 81.7434 1.10706 1.34239 0
M  V30 865 O 82.9194 1.42869 1.41952 0
M  V30 866 C 79.9844 2.68232 2.19665 0
M  V30 867 C 79.0454 3.87272 1.85253 0
M  V30 868 C 78.2784 4.38002 3.04943 0
M  V30 869 O 78.5014 3.87811 4.18281 0
M  V30 870 O 77.4354 5.29602 2.86017 0
M  V30 871 H 81.2614 2.9986 0.481392 0
M  V30 872 H 78.8464 1.4841 0.171699 0
M  V30 873 H 80.7284 3.02475 2.93406 0
M  V30 874 H 79.4034 1.86395 2.64648 0
M  V30 875 H 78.3104 3.5792 1.0883 0
M  V30 876 H 79.6434 4.70336 1.4507 0
M  V30 877 N 81.2955 -0.223234 1.56011 0
M  V30 878 C 82.5725 -0.972108 1.69733 0
M  V30 879 C 82.9525 -2.02485 0.59691 0
M  V30 880 O 82.3005 -2.25037 -0.396324 0
M  V30 881 C 82.5105 -1.58407 3.10979 0
M  V30 882 C 83.8585 -2.07696 3.70334 0
M  V30 883 O 84.8825 -1.68304 3.1393 0
M  V30 884 O 83.7415 -2.80096 4.69264 0
M  V30 885 H 80.8355 -0.453993 0.691245 0
M  V30 886 H 83.3815 -0.215149 1.68331 0
M  V30 887 H 82.1535 -0.823831 3.82529 0
M  V30 888 H 81.7765 -2.40661 3.16493 0
M  V30 889 N 82.7736 -1.49793 -0.48987 0
M  V30 890 C 83.7206 -1.67281 -1.59014 0
M  V30 891 C 84.6906 -0.514177 -1.57941 0
M  V30 892 O 85.8756 -0.742533 -1.75759 0
M  V30 893 C 83.0156 -1.75569 -2.97102 0
M  V30 894 C 82.1286 -3.0281 -3.08107 0
M  V30 895 C 81.2636 -3.02008 -4.36995 0
M  V30 896 C 80.3026 -4.23782 -4.41673 0
M  V30 897 N 79.4396 -4.20826 -5.62005 0
M  V30 898 H 84.2796 -2.61224 -1.43409 0
M  V30 899 H 81.8166 -1.29508 -0.697565 0
M  V30 900 H 83.7746 -1.78354 -3.77155 0
M  V30 901 H 82.4046 -0.850827 -3.11385 0
M  V30 902 H 81.4566 -3.09584 -2.21047 0
M  V30 903 H 82.7686 -3.92801 -3.07423 0
M  V30 904 H 81.9226 -3.03418 -5.25378 0
M  V30 905 H 80.6616 -2.09815 -4.4026 0
M  V30 906 H 79.6666 -4.22604 -3.5169 0
M  V30 907 H 80.8916 -5.17181 -4.40115 0
M  V30 908 H 78.8376 -3.31476 -5.66091 0
M  V30 909 H 78.7546 -5.04564 -5.62984 0
M  V30 910 H 80.0226 -4.26355 -6.52565 0
M  V30 911 N 84.2517 0.741722 -1.39055 0
M  V30 912 C 85.1817 1.869 -1.39966 0
M  V30 913 C 86.1627 1.6804 -0.26392 0
M  V30 914 O 87.3477 1.88458 -0.468755 0
M  V30 915 C 84.4777 3.24572 -1.23574 0
M  V30 916 C 83.4317 3.58056 -2.34477 0
M  V30 917 C 82.7577 4.94593 -2.0318 0
M  V30 918 C 84.0577 3.61716 -3.76774 0
M  V30 919 H 85.7517 1.86395 -2.34302 0
M  V30 920 H 83.2977 0.895361 -1.1278 0
M  V30 921 H 85.2507 4.031 -1.22834 0
M  V30 922 H 83.9747 3.25587 -0.257045 0
M  V30 923 H 82.6337 2.81854 -2.34423 0
M  V30 924 H 82.2817 4.92181 -1.03765 0
M  V30 925 H 81.9817 5.17964 -2.77465 0
M  V30 926 H 83.5057 5.75486 -2.04079 0
M  V30 927 H 84.9197 4.30335 -3.78794 0
M  V30 928 H 83.3167 3.96603 -4.50362 0
M  V30 929 H 84.3867 2.61672 -4.08235 0
M  V30 930 N 85.7298 1.2412 0.971189 0
M  V30 931 C 86.6928 1.03156 2.04674 0
M  V30 932 C 87.6928 -0.00990322 1.60797 0
M  V30 933 O 88.8828 0.230729 1.72665 0
M  V30 934 C 86.0148 0.562765 3.36223 0
M  V30 935 H 87.2078 1.98614 2.24705 0
M  V30 936 H 84.7608 1.06293 1.14593 0
M  V30 937 H 85.4958 -0.395176 3.21883 0
M  V30 938 H 85.2808 1.31441 3.69413 0
M  V30 939 H 86.7708 0.437015 4.15307 0
M  V30 940 N 87.2079 -1.17134 1.05439 0
M  V30 941 C 88.4359 -1.91372 0.786414 0
M  V30 942 C 88.8509 -1.76955 -0.658202 0
M  V30 943 O 88.2079 -1.10838 -1.44987 0
M  V30 944 C 88.2589 -3.42356 1.1608 0
M  V30 945 O 87.9799 -3.56332 2.54871 0
M  V30 946 C 89.4809 -4.33663 0.919322 0
M  V30 947 H 86.7009 -0.607118 0.285743 0
M  V30 948 H 89.2449 -1.48525 1.40572 0
M  V30 949 H 87.3999 -3.82939 0.586191 0
M  V30 950 H 87.8139 -4.49896 2.69618 0
M  V30 951 H 89.2879 -5.38099 1.231 0
M  V30 952 H 89.7649 -4.38959 -0.145359 0
M  V30 953 H 90.3709 -3.98796 1.47789 0
M  V30 954 N 88.686 -0.835752 -1.33615 0
M  V30 955 C 89.616 -0.281739 -2.31794 0
M  V30 956 C 90.597 0.608833 -1.58831 0
M  V30 957 O 91.782 0.533035 -1.86741 0
M  V30 958 C 88.912 0.546612 -3.42971 0
M  V30 959 C 87.866 -0.247904 -4.27281 0
M  V30 960 C 87.192 0.704001 -5.30045 0
M  V30 961 C 88.492 -1.46324 -5.01385 0
M  V30 962 H 90.186 -1.10206 -2.78379 0
M  V30 963 H 87.732 -0.531388 -1.33837 0
M  V30 964 H 89.685 0.944467 -4.1068 0
M  V30 965 H 88.409 1.40011 -2.95067 0
M  V30 966 H 87.068 -0.627281 -3.61194 0
M  V30 967 H 86.716 1.55381 -4.78399 0
M  V30 968 H 86.416 0.176524 -5.87335 0
M  V30 969 H 87.94 1.09944 -6.0062 0
M  V30 970 H 89.354 -1.13871 -5.61877 0
M  V30 971 H 87.751 -1.92728 -5.6831 0
M  V30 972 H 88.821 -2.23467 -4.30338 0
M  V30 973 N 90.1641 1.46063 -0.591896 0
M  V30 974 C 91.4111 2.02338 -0.0809991 0
M  V30 975 C 91.7391 1.46228 1.28249 0
M  V30 976 O 90.9941 0.620818 1.85592 0
M  V30 977 C 91.2931 3.57391 0.0249813 0
M  V30 978 C 90.9591 4.32583 -1.27211 0
M  V30 979 C 89.6211 4.52844 -1.62745 0
M  V30 980 C 91.9731 4.75687 -2.13005 0
M  V30 981 C 89.3011 5.13462 -2.83855 0
M  V30 982 C 91.6531 5.37644 -3.3335 0
M  V30 983 C 90.3171 5.5613 -3.69155 0
M  V30 984 H 89.5871 0.740407 -0.0296397 0
M  V30 985 H 92.2341 1.75321 -0.770374 0
M  V30 986 H 90.5391 3.83597 0.797537 0
M  V30 987 H 92.2361 3.98621 0.436184 0
M  V30 988 H 88.8261 4.17116 -0.985499 0
M  V30 989 H 93.0101 4.59782 -1.86855 0
M  V30 990 H 88.2661 5.25965 -3.11722 0
M  V30 991 H 92.4401 5.7 -4.00092 0
M  V30 992 H 90.0671 6.0287 -4.63089 0
M  V30 993 N 91.6422 0.330177 1.54103 0
M  V30 994 C 92.5722 -0.525353 2.27513 0
M  V30 995 C 93.5532 -1.11383 1.2856 0
M  V30 996 O 94.7382 -1.13773 1.57383 0
M  V30 997 C 91.8682 -1.6831 3.03791 0
M  V30 998 C 90.8222 -1.2236 4.10137 0
M  V30 999 C 90.1482 -2.46882 4.74293 0
M  V30 1000 C 91.4482 -0.333697 5.21233 0
M  V30 1001 H 93.1422 0.087013 2.99274 0
M  V30 1002 H 90.6882 0.0432893 1.43935 0
M  V30 1003 H 92.6412 -2.28795 3.5388 0
M  V30 1004 H 91.3652 -2.32216 2.29659 0
M  V30 1005 H 90.0242 -0.64165 3.60941 0
M  V30 1006 H 89.6722 -3.09165 3.96769 0
M  V30 1007 H 89.3722 -2.16825 5.46133 0
M  V30 1008 H 90.8962 -3.08117 5.27159 0
M  V30 1009 H 92.3102 -0.845013 5.67038 0
M  V30 1010 H 90.7072 -0.125612 5.99969 0
M  V30 1011 H 91.7772 0.633724 4.80741 0
M  V30 1012 N 93.1203 -1.57491 0.0584922 0
M  V30 1013 C 94.0303 -2.15448 -0.928414 0
M  V30 1014 C 95.0463 -1.11416 -1.3365 0
M  V30 1015 O 96.2223 -1.4362 -1.41193 0
M  V30 1016 C 93.2873 -2.69393 -2.18239 0
M  V30 1017 C 92.3483 -3.88249 -1.83196 0
M  V30 1018 C 91.5813 -4.39613 -3.02616 0
M  V30 1019 O 91.8043 -3.90023 -4.16219 0
M  V30 1020 O 90.7383 -5.31111 -2.83204 0
M  V30 1021 H 94.5643 -3.00112 -0.465483 0
M  V30 1022 H 92.1493 -1.48499 -0.163826 0
M  V30 1023 H 94.0313 -3.04026 -2.91798 0
M  V30 1024 H 92.7063 -1.87796 -2.63656 0
M  V30 1025 H 91.6133 -3.58492 -1.06931 0
M  V30 1026 H 92.9463 -4.71098 -1.42573 0
M  V30 1027 N 94.5984 0.214957 -1.56127 0
M  V30 1028 C 96.0144 0.564948 -1.49267 0
M  V30 1029 C 96.2144 1.86827 -0.754838 0
M  V30 1030 O 95.2704 2.50745 -0.297198 0
M  V30 1031 C 96.5834 0.638071 -2.93852 0
M  V30 1032 C 98.1314 0.728253 -3.0441 0
M  V30 1033 C 98.6064 0.832663 -4.50367 0
M  V30 1034 N 100.097 0.896712 -4.54437 0
M  V30 1035 C 100.832 0.997324 -5.6466 0
M  V30 1036 N 100.328 1.06147 -6.8462 0
M  V30 1037 N 102.121 1.03297 -5.52527 0
M  V30 1038 H 94.2724 -0.640211 -2.02522 0
M  V30 1039 H 96.5354 -0.225507 -0.920788 0
M  V30 1040 H 96.2414 -0.250126 -3.50809 0
M  V30 1041 H 96.1154 1.49947 -3.46115 0
M  V30 1042 H 98.5024 1.60689 -2.47514 0
M  V30 1043 H 98.5834 -0.158952 -2.55306 0
M  V30 1044 H 98.2274 -0.0415417 -5.07883 0
M  V30 1045 H 98.1574 1.73538 -4.97184 0
M  V30 1046 H 100.648 0.857188 -3.6805 0
M  V30 1047 H 100.961 1.1382 -7.64372 0
M  V30 1048 H 99.3064 1.03049 -6.87318 0
M  V30 1049 H 102.497 0.979558 -4.57736 0
M  V30 1050 H 102.67 1.10793 -6.38458 0
M  V30 1051 N 96.0765 1.50051 0.48192 0
M  V30 1052 C 97.3245 1.60181 1.23234 0
M  V30 1053 C 97.6455 0.299176 1.92691 0
M  V30 1054 O 96.9155 -0.682708 1.83619 0
M  V30 1055 H 95.4955 0.590232 0.457859 0
M  V30 1056 H 98.1575 1.86775 0.556881 0
M  V30 1057 H 97.2535 2.40753 1.98607 0
M  V30 1058 N 97.5546 -0.734337 1.39446 0
M  V30 1059 C 98.9656 -1.31264 1.32766 0
M  V30 1060 C 99.3166 -1.96198 -0.00767497 0
M  V30 1061 O 98.4416 -1.96346 -0.909796 0
M  V30 1062 C 99.0366 -2.38682 2.4045 0
M  V30 1063 C 97.5956 -2.92184 2.37288 0
M  V30 1064 C 96.7426 -1.6576 2.22304 0
M  V30 1065 H 99.6936 -0.531799 1.49525 0
M  V30 1066 H 99.7146 -3.19087 2.07276 0
M  V30 1067 H 99.2266 -1.91392 3.37625 0
M  V30 1068 H 97.3276 -3.43752 1.43754 0
M  V30 1069 H 97.4406 -3.45253 3.3217 0
M  V30 1070 H 95.8046 -1.9012 1.69489 0
M  V30 1071 H 96.5876 -1.20521 3.21449 0
M  V30 1072 N 99.0327 -1.24633 -0.964593 0
M  V30 1073 C 99.9807 -1.03917 -2.08096 0
M  V30 1074 C 100.975 0.0268581 -1.69379 0
M  V30 1075 O 102.181 -0.127952 -1.79545 0
M  V30 1076 H 98.5557 -0.319044 -0.680966 0
M  V30 1077 H 100.527 -1.98581 -2.22729 0
M  V30 1078 C 99.2757 -0.663983 -3.41301 0
M  V30 1079 H 98.5987 -1.47605 -3.71555 0
M  V30 1080 H 100.039 -0.558663 -4.20303 0
M  V30 1081 C 98.4977 0.629169 -3.30973 0
M  V30 1082 O 99.0277 1.67404 -3.65156 0
M  V30 1083 N 97.2337 0.611057 -2.84103 0
M  V30 1084 H 96.7807 -0.239593 -2.56483 0
M  V30 1085 H 96.7387 1.47647 -2.77575 0
M  V30 1086 N 100.511 1.16574 -1.06058 0
M  V30 1087 C 101.927 1.3904 -0.783585 0
M  V30 1088 C 102.127 1.91784 0.618145 0
M  V30 1089 O 101.183 2.11511 1.37911 0
M  V30 1090 C 102.496 2.37329 -1.84649 0
M  V30 1091 C 104.044 2.51018 -1.86973 0
M  V30 1092 C 104.519 3.52588 -2.92311 0
M  V30 1093 N 106.01 3.60113 -2.91329 0
M  V30 1094 C 106.745 4.38486 -3.69482 0
M  V30 1095 N 106.241 5.20302 -4.57447 0
M  V30 1096 N 108.034 4.33446 -3.57885 0
M  V30 1097 H 100.185 0.806725 -1.96483 0
M  V30 1098 H 102.448 0.417117 -0.851303 0
M  V30 1099 H 102.154 2.05663 -2.85299 0
M  V30 1100 H 102.028 3.36946 -1.6955 0
M  V30 1101 H 104.415 2.81989 -0.869827 0
M  V30 1102 H 104.496 1.51445 -2.0615 0
M  V30 1103 H 104.14 3.22354 -3.92492 0
M  V30 1104 H 104.07 4.51886 -2.70383 0
M  V30 1105 H 106.561 3.01707 -2.27555 0
M  V30 1106 H 106.874 5.77311 -5.13743 0
M  V30 1107 H 105.219 5.19653 -4.61503 0
M  V30 1108 H 108.41 3.68586 -2.88551 0
M  V30 1109 H 108.583 4.94279 -4.19037 0
M  V30 1110 N 101.989 0.842826 1.3317 0
M  V30 1111 C 103.238 0.436738 1.96915 0
M  V30 1112 C 103.551 -1.01025 1.67491 0
M  V30 1113 O 104.757 -1.5212 2.24881 0
M  V30 1114 C 103.213 0.730021 3.52418 0
M  V30 1115 C 102.821 2.19195 3.90714 0
M  V30 1116 C 104.565 0.391076 4.22695 0
M  V30 1117 C 102.472 2.42907 5.39212 0
M  V30 1118 H 101.402 0.15958 0.736919 0
M  V30 1119 H 104.053 1.03196 1.51733 0
M  V30 1120 H 102.435 0.0643755 3.95948 0
M  V30 1121 H 103.609 2.8984 3.58231 0
M  V30 1122 H 101.924 2.49425 3.33431 0
M  V30 1123 H 104.521 0.545817 5.31907 0
M  V30 1124 H 104.864 -0.666294 4.10933 0
M  V30 1125 H 105.397 1.01212 3.84709 0
M  V30 1126 H 102.136 3.47224 5.55982 0
M  V30 1127 H 101.656 1.76827 5.73142 0
M  V30 1128 H 103.335 2.2626 6.06148 0
M  V30 1129 N 103.467 -1.45747 0.599634 0
M  V30 1130 C 104.715 -2.01893 0.0915472 0
M  V30 1131 C 105.036 -1.47155 -1.27946 0
M  V30 1132 O 104.306 -0.66273 -1.84349 0
M  V30 1133 H 102.886 -0.746363 0.0308524 0
M  V30 1134 H 105.548 -1.78645 0.779237 0
M  V30 1135 H 104.644 -3.1208 0.0353086 0
M  V30 1136 N 104.945 -0.338344 -1.53925 0
M  V30 1137 C 106.17 0.263987 -2.05713 0
M  V30 1138 C 106.595 1.43847 -1.21201 0
M  V30 1139 O 105.953 1.79904 -0.224535 0
M  V30 1140 C 106.001 0.662 -3.54471 0
M  V30 1141 O 105.105 1.76265 -3.72833 0
M  V30 1142 H 104.446 0.0448722 -0.662482 0
M  V30 1143 H 106.976 -0.491048 -1.9862 0
M  V30 1144 H 106.986 0.940594 -3.9701 0
M  V30 1145 H 105.661 -0.196937 -4.15433 0
M  V30 1146 H 104.238 1.48173 -3.42198 0
M  V30 1147 N 106.423 1.57458 -0.0668435 0
M  V30 1148 C 107.672 1.92477 0.602947 0
M  V30 1149 C 107.985 0.948419 1.71068 0
M  V30 1150 O 109.191 1.19124 2.43971 0
M  V30 1151 C 107.647 3.41903 1.12383 0
M  V30 1152 C 107.255 4.47975 0.04737 0
M  V30 1153 C 108.999 3.85931 1.76797 0
M  V30 1154 C 106.906 5.88529 0.582022 0
M  V30 1155 H 105.836 0.718387 0.22899 0
M  V30 1156 H 108.487 1.82978 -0.138276 0
M  V30 1157 H 106.869 3.46459 1.91787 0
M  V30 1158 H 108.043 4.55029 -0.726978 0
M  V30 1159 H 106.358 4.13384 -0.500243 0
M  V30 1160 H 108.955 4.88322 2.17821 0
M  V30 1161 H 109.298 3.23029 2.62599 0
M  V30 1162 H 109.831 3.83958 1.04024 0
M  V30 1163 H 106.57 6.55065 -0.238721 0
M  V30 1164 H 106.09 5.85004 1.324 0
M  V30 1165 H 107.769 6.38258 1.05999 0
M  V30 1166 N 107.901 -0.206675 1.56239 0
M  V30 1167 C 109.131 -0.943975 1.83773 0
M  V30 1168 C 109.539 -1.77841 0.645703 0
M  V30 1169 O 108.882 -1.79403 -0.395008 0
M  V30 1170 C 108.944 -1.899 3.05251 0
M  V30 1171 C 108.608 -1.24764 4.39639 0
M  V30 1172 C 109.605 -0.630216 5.16066 0
M  V30 1173 C 107.29 -1.25496 4.8637 0
M  V30 1174 C 109.284 -0.0287946 6.37393 0
M  V30 1175 C 106.971 -0.649698 6.07637 0
M  V30 1176 C 107.969 -0.0376845 6.8299 0
M  V30 1177 O 107.657 0.55812 8.0196 0
M  V30 1178 H 107.389 -0.281508 0.614597 0
M  V30 1179 H 109.943 -0.222458 2.04192 0
M  V30 1180 H 108.173 -2.6599 2.80689 0
M  V30 1181 H 109.862 -2.5031 3.1953 0
M  V30 1182 H 110.628 -0.616785 4.81062 0
M  V30 1183 H 106.507 -1.72072 4.27683 0
M  V30 1184 H 110.051 0.449518 6.9615 0
M  V30 1185 H 105.948 -0.660592 6.42111 0
M  V30 1186 H 106.716 0.453891 8.17241 0
M  V30 1187 N 109.379 -1.50304 -0.473955 0
M  V30 1188 C 110.326 -1.68959 -1.57231 0
M  V30 1189 C 111.296 -0.530899 -1.57387 0
M  V30 1190 O 112.481 -0.761133 -1.74961 0
M  V30 1191 C 109.621 -1.7871 -2.95223 0
M  V30 1192 C 108.734 -3.06061 -3.04878 0
M  V30 1193 C 107.869 -3.06626 -4.33767 0
M  V30 1194 C 106.908 -4.28443 -4.37154 0
M  V30 1195 N 106.045 -4.26763 -5.5751 0
M  V30 1196 H 110.885 -2.6273 -1.40631 0
M  V30 1197 H 108.422 -1.30241 -0.683789 0
M  V30 1198 H 110.38 -1.82344 -3.75242 0
M  V30 1199 H 109.01 -0.883806 -3.10465 0
M  V30 1200 H 108.062 -3.11911 -2.17751 0
M  V30 1201 H 109.374 -3.96039 -3.0324 0
M  V30 1202 H 108.528 -3.08973 -5.22131 0
M  V30 1203 H 107.267 -2.14473 -4.3801 0
M  V30 1204 H 106.272 -4.2631 -3.47188 0
M  V30 1205 H 107.497 -5.2182 -4.34605 0
M  V30 1206 H 105.443 -3.37462 -5.62544 0
M  V30 1207 H 105.36 -5.10507 -5.57601 0
M  V30 1208 H 106.628 -4.33253 -6.48006 0
M  V30 1209 N 110.857 0.726932 -1.39834 0
M  V30 1210 C 111.804 1.841 -1.39197 0
M  V30 1211 C 112.774 1.642 -0.250502 0
M  V30 1212 O 113.959 1.85494 -0.446846 0
M  V30 1213 C 111.099 3.21697 -1.24919 0
M  V30 1214 C 110.212 3.53247 -2.48678 0
M  V30 1215 C 109.347 4.80289 -2.26928 0
M  V30 1216 C 108.386 5.04707 -3.4632 0
M  V30 1217 N 107.523 6.22956 -3.23836 0
M  V30 1218 H 112.363 1.83979 -2.34427 0
M  V30 1219 H 109.9 0.898876 -1.16442 0
M  V30 1220 H 111.858 4.01137 -1.1465 0
M  V30 1221 H 110.488 3.21076 -0.333153 0
M  V30 1222 H 109.54 2.68447 -2.69519 0
M  V30 1223 H 110.852 3.67205 -3.37582 0
M  V30 1224 H 110.006 5.67725 -2.13947 0
M  V30 1225 H 108.745 4.68519 -1.35431 0
M  V30 1226 H 107.75 4.1573 -3.5979 0
M  V30 1227 H 108.975 5.18357 -4.38729 0
M  V30 1228 H 106.921 6.12459 -2.35011 0
M  V30 1229 H 106.838 6.37539 -4.063 0
M  V30 1230 H 108.106 7.1321 -3.14566 0
M  V30 1231 N 112.336 1.25143 0.95797 0
M  V30 1232 C 113.299 1.05321 2.03569 0
M  V30 1233 C 114.299 0.007152 1.60798 0
M  V30 1234 O 115.489 0.24903 1.72411 0
M  V30 1235 C 112.621 0.598394 3.35607 0
M  V30 1236 H 113.814 2.00986 2.22586 0
M  V30 1237 H 111.367 1.07502 1.13459 0
M  V30 1238 H 112.102 -0.361014 3.22284 0
M  V30 1239 H 111.887 1.35351 3.67998 0
M  V30 1240 H 113.377 0.48104 4.1482 0
M  V30 1241 N 113.814 -1.1601 1.06675 0
M  V30 1242 C 115.06 -1.86909 0.786945 0
M  V30 1243 C 115.393 -1.81717 -0.685018 0
M  V30 1244 O 114.668 -1.23551 -1.50218 0
M  V30 1245 C 114.951 -3.36313 1.28707 0
M  V30 1246 C 114.804 -3.50175 2.82308 0
M  V30 1247 C 116.123 -4.3084 0.898071 0
M  V30 1248 H 113.242 -0.678677 0.287343 0
M  V30 1249 H 115.884 -1.36336 1.32334 0
M  V30 1250 H 114.034 -3.79513 0.830768 0
M  V30 1251 H 115.706 -3.15886 3.36175 0
M  V30 1252 H 113.949 -2.91959 3.20847 0
M  V30 1253 H 114.62 -4.55116 3.12368 0
M  V30 1254 H 117.096 -3.95561 1.29114 0
M  V30 1255 H 115.972 -5.33876 1.27543 0
M  V30 1256 H 116.233 -4.41662 -0.196651 0
M  V30 1257 N 115.292 -0.849877 -1.32721 0
M  V30 1258 C 116.522 -0.46408 -2.0132 0
M  V30 1259 C 116.93 0.94246 -1.64056 0
M  V30 1260 O 116.273 1.6257 -0.855379 0
M  V30 1261 C 116.335 -0.517887 -3.5575 0
M  V30 1262 C 115.999 -1.88248 -4.16427 0
M  V30 1263 C 116.996 -2.84726 -4.35002 0
M  V30 1264 C 114.681 -2.17832 -4.52609 0
M  V30 1265 C 116.675 -4.08945 -4.8892 0
M  V30 1266 C 114.362 -3.42304 -5.06232 0
M  V30 1267 C 115.36 -4.37677 -5.24335 0
M  V30 1268 O 115.048 -5.59946 -5.76815 0
M  V30 1269 H 114.78 -0.181327 -0.651227 0
M  V30 1270 H 117.334 -1.14713 -1.70382 0
M  V30 1271 H 115.564 0.221997 -3.86062 0
M  V30 1272 H 117.253 -0.148366 -4.05629 0
M  V30 1273 H 118.019 -2.63174 -4.07388 0
M  V30 1274 H 113.898 -1.44385 -4.37806 0
M  V30 1275 H 117.442 -4.83396 -5.02966 0
M  V30 1276 H 113.339 -3.63709 -5.33278 0
M  V30 1277 H 114.107 -5.61838 -5.95214 0
M  V30 1278 N 116.77 1.45427 -0.607355 0
M  V30 1279 C 118.186 1.57283 -0.270985 0
M  V30 1280 C 118.386 1.59875 1.22647 0
M  V30 1281 O 117.442 1.52893 2.00948 0
M  V30 1282 C 118.755 2.85566 -0.941952 0
M  V30 1283 C 120.303 2.9924 -0.917849 0
M  V30 1284 C 120.778 4.30293 -1.56882 0
M  V30 1285 N 122.269 4.37051 -1.5343 0
M  V30 1286 C 123.004 5.37123 -2.00715 0
M  V30 1287 N 122.5 6.43734 -2.56084 0
M  V30 1288 N 124.293 5.28479 -1.91484 0
M  V30 1289 H 116.444 1.41988 -1.57966 0
M  V30 1290 H 118.707 0.67885 -0.661715 0
M  V30 1291 H 118.413 2.8955 -1.99633 0
M  V30 1292 H 118.287 3.74322 -0.465096 0
M  V30 1293 H 120.674 2.94822 0.127984 0
M  V30 1294 H 120.755 2.11895 -1.43297 0
M  V30 1295 H 120.399 4.35469 -2.61398 0
M  V30 1296 H 120.329 5.16454 -1.02873 0
M  V30 1297 H 122.82 3.60615 -1.12982 0
M  V30 1298 H 123.133 7.16341 -2.89958 0
M  V30 1299 H 121.478 6.44485 -2.60122 0
M  V30 1300 H 124.669 4.44098 -1.47967 0
M  V30 1301 H 124.842 6.0632 -2.28648 0
M  V30 1302 N 118.248 0.346503 1.53744 0
M  V30 1303 C 119.664 -0.00530975 1.59599 0
M  V30 1304 C 119.864 -1.48465 1.36236 0
M  V30 1305 O 118.92 -2.24376 1.15808 0
M  V30 1306 C 120.233 0.433516 2.97559 0
M  V30 1307 C 121.781 0.386111 3.10609 0
M  V30 1308 C 122.256 0.800451 4.50951 0
M  V30 1309 N 123.747 0.754753 4.5701 0
M  V30 1310 C 124.482 1.04727 5.63755 0
M  V30 1311 N 123.978 1.4081 6.7834 0
M  V30 1312 N 125.771 0.971316 5.53644 0
M  V30 1313 H 117.922 1.31009 1.67184 0
M  V30 1314 H 120.185 0.534242 0.783128 0
M  V30 1315 H 119.891 1.46509 3.19731 0
M  V30 1316 H 119.765 -0.189753 3.76722 0
M  V30 1317 H 122.152 -0.636295 2.88158 0
M  V30 1318 H 122.233 1.04462 2.33498 0
M  V30 1319 H 121.877 1.82088 4.74137 0
M  V30 1320 H 121.807 0.119386 5.26465 0
M  V30 1321 H 124.298 0.488662 3.74727 0
M  V30 1322 H 124.611 1.61607 7.55714 0
M  V30 1323 H 122.956 1.44657 6.79779 0
M  V30 1324 H 126.147 0.688748 4.63005 0
M  V30 1325 H 126.32 1.20263 6.36742 0
M  V30 1326 N 119.726 -1.57421 0.075193 0
M  V30 1327 C 120.973 -1.93618 -0.593146 0
M  V30 1328 C 121.301 -0.955484 -1.69413 0
M  V30 1329 O 120.556 0.0283251 -1.9568 0
M  V30 1330 C 120.855 -3.36428 -1.20626 0
M  V30 1331 C 120.521 -4.50307 -0.231078 0
M  V30 1332 C 119.183 -4.81186 0.0371936 0
M  V30 1333 C 121.535 -5.19374 0.435888 0
M  V30 1334 C 118.863 -5.78466 0.979461 0
M  V30 1335 C 121.215 -6.17665 1.3665 0
M  V30 1336 C 119.879 -6.46958 1.6432 0
M  V30 1337 H 119.149 -0.708499 -0.217047 0
M  V30 1338 H 121.796 -1.90937 0.146793 0
M  V30 1339 H 120.101 -3.35592 -2.02201 0
M  V30 1340 H 121.798 -3.61727 -1.73073 0
M  V30 1341 H 118.388 -4.26227 -0.450357 0
M  V30 1342 H 122.572 -4.95711 0.241748 0
M  V30 1343 H 117.828 -5.99487 1.20106 0
M  V30 1344 H 122.002 -6.70284 1.88924 0
M  V30 1345 H 119.629 -7.2215 2.37494 0
M  V30 1346 N 121.204 0.198386 -1.56346 0
M  V30 1347 C 122.432 0.935572 -1.84539 0
M  V30 1348 C 122.847 1.76989 -0.657281 0
M  V30 1349 O 122.204 1.78626 0.374043 0
M  V30 1350 C 122.255 1.8344 -3.11499 0
M  V30 1351 O 121.976 1.03377 -4.25728 0
M  V30 1352 C 123.477 2.68355 -3.52846 0
M  V30 1353 H 120.697 0.273126 -0.612897 0
M  V30 1354 H 123.241 0.20663 -2.03453 0
M  V30 1355 H 121.396 2.51701 -2.94492 0
M  V30 1356 H 121.81 1.64599 -4.98003 0
M  V30 1357 H 123.284 3.27085 -4.44657 0
M  V30 1358 H 123.761 3.41901 -2.75681 0
M  V30 1359 H 124.367 2.05471 -3.72373 0
M  V30 1360 N 122.682 1.50554 0.465978 0
M  V30 1361 C 123.959 1.5232 1.22712 0
M  V30 1362 C 124.339 0.270807 2.09356 0
M  V30 1363 O 123.687 -0.745541 2.15995 0
M  V30 1364 C 123.897 2.82175 2.05374 0
M  V30 1365 C 125.245 3.33033 2.6339 0
M  V30 1366 O 126.269 2.83531 2.15612 0
M  V30 1367 O 125.128 4.19336 3.50456 0
M  V30 1368 H 122.222 0.611183 0.557122 0
M  V30 1369 H 124.768 1.62847 0.477381 0
M  V30 1370 H 123.54 3.64797 1.41558 0
M  V30 1371 H 123.163 2.74675 2.87471 0
M  V30 1372 N 124.16 -0.719506 1.40217 0
M  V30 1373 C 125.408 -1.47641 1.3801 0
M  V30 1374 C 125.729 -1.94992 -0.018145 0
M  V30 1375 O 124.999 -1.70073 -0.972207 0
M  V30 1376 H 123.579 -0.547744 0.507923 0
M  V30 1377 H 126.241 -0.853187 1.75233 0
M  V30 1378 H 125.337 -2.35112 2.05253 0
M  V30 1379 N 125.638 -1.25649 -0.95132 0
M  V30 1380 C 126.866 -1.13343 -1.73092 0
M  V30 1381 C 127.281 0.312434 -1.86197 0
M  V30 1382 O 126.638 1.21465 -1.36207 0
M  V30 1383 C 126.689 -1.78602 -3.14299 0
M  V30 1384 O 126.41 -3.17537 -3.01831 0
M  V30 1385 C 127.911 -1.72119 -4.08522 0
M  V30 1386 H 125.131 -0.395181 -0.542285 0
M  V30 1387 H 127.675 -1.66076 -1.19328 0
M  V30 1388 H 125.83 -1.29832 -3.64996 0
M  V30 1389 H 126.244 -3.49676 -3.90931 0
M  V30 1390 H 127.718 -2.22435 -5.052 0
M  V30 1391 H 128.195 -0.685635 -4.33815 0
M  V30 1392 H 128.801 -2.20393 -3.63741 0
M  V30 1393 N 127.117 1.15442 -1.07289 0
M  V30 1394 C 128.347 1.89821 -0.815576 0
M  V30 1395 C 128.755 1.7823 0.634867 0
M  V30 1396 O 128.098 1.13152 1.44715 0
M  V30 1397 C 128.16 3.40817 -1.14385 0
M  V30 1398 C 127.824 3.76193 -2.59476 0
M  V30 1399 C 128.821 3.77269 -3.57721 0
M  V30 1400 C 126.506 4.0652 -2.95037 0
M  V30 1401 C 128.5 4.08176 -4.89562 0
M  V30 1402 C 126.187 4.37092 -4.27076 0
M  V30 1403 C 127.185 4.37902 -5.24148 0
M  V30 1404 O 126.873 4.67741 -6.53815 0
M  V30 1405 H 126.605 0.608465 -0.294528 0
M  V30 1406 H 129.159 1.472 -1.43252 0
M  V30 1407 H 127.389 3.83835 -0.469865 0
M  V30 1408 H 129.078 3.96485 -0.869179 0
M  V30 1409 H 129.844 3.5394 -3.3159 0
M  V30 1410 H 125.723 4.05049 -2.20128 0
M  V30 1411 H 129.267 4.08723 -5.65324 0
M  V30 1412 H 125.164 4.59889 -4.5296 0
M  V30 1413 H 125.932 4.85509 -6.58957 0
M  V30 1414 N 128.595 0.856903 1.32268 0
M  V30 1415 C 129.82 0.474569 2.01897 0
M  V30 1416 C 130.245 -0.921766 1.63967 0
M  V30 1417 O 129.603 -1.60589 0.84148 0
M  V30 1418 C 129.651 0.623799 3.55164 0
M  V30 1419 O 128.755 -0.342459 4.10976 0
M  V30 1420 H 128.096 0.190422 0.63611 0
M  V30 1421 H 130.626 1.15672 1.68764 0
M  V30 1422 H 130.636 0.512169 4.04773 0
M  V30 1423 H 129.311 1.64202 3.82113 0
M  V30 1424 H 127.888 -0.18688 3.72431 0
M  V30 1425 N 130.073 -1.45103 0.615059 0
M  V30 1426 C 131.322 -2.01396 0.110718 0
M  V30 1427 C 131.635 -1.48834 -1.26916 0
M  V30 1428 O 132.841 -1.97152 -1.86664 0
M  V30 1429 C 131.297 -3.59599 0.14723 0
M  V30 1430 C 130.905 -4.21158 1.52743 0
M  V30 1431 C 132.649 -4.23428 -0.30148 0
M  V30 1432 C 130.556 -5.71535 1.51992 0
M  V30 1433 H 129.486 -0.753061 0.0376241 0
M  V30 1434 H 132.137 -1.66494 0.77149 0
M  V30 1435 H 130.519 -3.91724 -0.580339 0
M  V30 1436 H 131.693 -4.00594 2.2773 0
M  V30 1437 H 130.008 -3.69552 1.91886 0
M  V30 1438 H 132.605 -5.33703 -0.326392 0
M  V30 1439 H 132.948 -3.94629 -1.32565 0
M  V30 1440 H 133.481 -3.96047 0.373065 0
M  V30 1441 H 130.22 -6.05044 2.52193 0
M  V30 1442 H 129.74 -5.94268 0.81274 0
M  V30 1443 H 131.419 -6.34873 1.24681 0
M  V30 1444 N 131.551 -0.354651 -1.53558 0
M  V30 1445 C 132.461 0.50515 -2.29097 0
M  V30 1446 C 133.477 1.10223 -1.34636 0
M  V30 1447 O 134.653 1.11553 -1.67684 0
M  V30 1448 C 131.718 1.63479 -3.05738 0
M  V30 1449 C 130.779 1.06636 -4.15845 0
M  V30 1450 C 130.012 2.14217 -4.88822 0
M  V30 1451 O 130.235 3.35137 -4.61562 0
M  V30 1452 O 129.169 1.77887 -5.75013 0
M  V30 1453 H 132.995 -0.109237 -3.03503 0
M  V30 1454 H 130.58 -0.119357 -1.48922 0
M  V30 1455 H 132.462 2.2918 -3.5363 0
M  V30 1456 H 131.137 2.23478 -2.34178 0
M  V30 1457 H 130.044 0.373565 -3.7223 0
M  V30 1458 H 131.377 0.511081 -4.89539 0
M  V30 1459 N 133.029 1.57378 -0.0835403 0
M  V30 1460 C 134.278 1.93106 0.582498 0
M  V30 1461 C 134.591 0.96651 1.70053 0
M  V30 1462 O 135.797 1.21705 2.42693 0
M  V30 1463 C 134.253 3.43076 1.08751 0
M  V30 1464 C 133.861 4.48 -0.000146404 0
M  V30 1465 C 135.605 3.87785 1.72694 0
M  V30 1466 C 133.512 5.89113 0.519568 0
M  V30 1467 H 132.442 0.720775 0.221358 0
M  V30 1468 H 135.093 1.82821 -0.157675 0
M  V30 1469 H 133.475 3.48474 1.88101 0
M  V30 1470 H 134.649 4.54233 -0.775199 0
M  V30 1471 H 132.964 4.1283 -0.54406 0
M  V30 1472 H 135.561 4.90604 2.1263 0
M  V30 1473 H 135.904 3.25796 2.59158 0
M  V30 1474 H 136.437 3.8504 0.999457 0
M  V30 1475 H 133.176 6.54775 -0.308186 0
M  V30 1476 H 132.696 5.86376 1.26188 0
M  V30 1477 H 134.375 6.39346 0.992237 0
M  V30 1478 N 134.507 -0.190092 1.56449 0
M  V30 1479 C 135.918 -0.754312 1.70784 0
M  V30 1480 C 136.269 -1.83631 0.690951 0
M  V30 1481 O 135.394 -2.15868 -0.151604 0
M  V30 1482 C 135.989 -1.37503 3.09642 0
M  V30 1483 C 134.548 -1.88628 3.25725 0
M  V30 1484 C 133.695 -0.758098 2.66736 0
M  V30 1485 H 136.646 0.0350524 1.58661 0
M  V30 1486 H 136.667 -2.2445 3.0725 0
M  V30 1487 H 136.179 -0.587302 3.83631 0
M  V30 1488 H 134.28 -2.70103 2.56661 0
M  V30 1489 H 134.393 -2.04462 4.3328 0
M  V30 1490 H 132.757 -1.17369 2.26046 0
M  V30 1491 H 133.54 0.0174705 3.43296 0
M  V30 1492 N 135.985 -1.50799 -0.457987 0
M  V30 1493 C 136.932 -1.70617 -1.5543 0
M  V30 1494 C 137.902 -0.547562 -1.56815 0
M  V30 1495 O 139.087 -0.779647 -1.74144 0
M  V30 1496 C 136.227 -1.81831 -2.93311 0
M  V30 1497 C 135.34 -3.09278 -3.01615 0
M  V30 1498 C 134.475 -3.11209 -4.30491 0
M  V30 1499 C 133.514 -4.33055 -4.32585 0
M  V30 1500 N 132.651 -4.32652 -5.52952 0
M  V30 1501 H 137.491 -2.64207 -1.37836 0
M  V30 1502 H 135.028 -1.30959 -0.669937 0
M  V30 1503 H 136.986 -1.86314 -3.73287 0
M  V30 1504 H 135.616 -0.916685 -3.0951 0
M  V30 1505 H 134.668 -3.14203 -2.1443 0
M  V30 1506 H 135.98 -3.99233 -2.99022 0
M  V30 1507 H 135.134 -3.14494 -5.18824 0
M  V30 1508 H 133.873 -2.19106 -4.35711 0
M  V30 1509 H 132.878 -4.29969 -3.42647 0
M  V30 1510 H 134.103 -5.264 -4.29046 0
M  V30 1511 H 132.049 -3.43409 -5.58933 0
M  V30 1512 H 131.966 -5.16392 -5.52155 0
M  V30 1513 H 133.234 -4.40101 -6.43375 0
M  V30 1514 N 137.463 0.71206 -1.40597 0
M  V30 1515 C 138.874 1.29135 -1.34837 0
M  V30 1516 C 139.225 1.96186 -0.0235395 0
M  V30 1517 O 138.35 1.97768 0.878444 0
M  V30 1518 C 138.945 2.34827 -2.44217 0
M  V30 1519 C 137.504 2.88371 -2.41907 0
M  V30 1520 C 136.651 1.62202 -2.24913 0
M  V30 1521 H 139.602 0.507944 -1.50352 0
M  V30 1522 H 139.623 3.15749 -2.12327 0
M  V30 1523 H 139.135 1.85996 -3.40627 0
M  V30 1524 H 137.236 3.41422 -1.49204 0
M  V30 1525 H 137.349 3.39925 -3.37621 0
M  V30 1526 H 135.713 1.874 -1.72492 0
M  V30 1527 H 136.496 1.15391 -3.23326 0
M  V30 1528 N 138.941 1.26152 0.944643 0
M  V30 1529 C 140.352 1.10454 1.50522 0
M  V30 1530 C 140.703 -0.31635 1.93633 0
M  V30 1531 O 139.828 -1.20746 1.79581 0
M  V30 1532 C 140.423 1.99891 2.73549 0
M  V30 1533 C 138.982 1.88348 3.25886 0
M  V30 1534 C 138.129 1.93447 1.9868 0
M  V30 1535 H 141.08 1.39292 0.760489 0
M  V30 1536 H 141.101 1.54477 3.47732 0
M  V30 1537 H 140.613 3.03297 2.42141 0
M  V30 1538 H 138.714 0.878636 3.62092 0
M  V30 1539 H 138.827 2.73696 3.93227 0
M  V30 1540 H 137.191 1.37456 2.14425 0
M  V30 1541 H 137.974 2.98476 1.69607 0
M  V30 1542 N 140.419 -1.14872 1.07899 0
M  V30 1543 C 141.665 -1.86289 0.81657 0
M  V30 1544 C 142.02 -1.8107 -0.65049 0
M  V30 1545 O 141.313 -1.22684 -1.47171 0
M  V30 1546 C 141.507 -3.34223 1.26609 0
M  V30 1547 C 141.336 -3.53846 2.77531 0
M  V30 1548 C 140.106 -3.68995 3.45212 0
M  V30 1549 C 142.304 -3.51201 3.75716 0
M  V30 1550 N 140.286 -3.76725 4.84718 0
M  V30 1551 C 141.657 -3.65112 5.01092 0
M  V30 1552 C 143.712 -3.34507 3.68794 0
M  V30 1553 C 142.415 -3.64056 6.20368 0
M  V30 1554 C 144.441 -3.34752 4.8754 0
M  V30 1555 C 143.803 -3.49199 6.11751 0
M  V30 1556 H 139.902 -0.698579 0.351443 0
M  V30 1557 H 142.486 -1.37713 1.37634 0
M  V30 1558 H 140.657 -3.81402 0.73395 0
M  V30 1559 H 142.389 -3.93377 0.95062 0
M  V30 1560 H 139.144 -3.70006 2.95622 0
M  V30 1561 H 139.568 -3.8432 5.5734 0
M  V30 1562 H 144.21 -3.22253 2.73702 0
M  V30 1563 H 141.928 -3.75087 7.15776 0
M  V30 1564 H 145.514 -3.23055 4.83866 0
M  V30 1565 H 144.394 -3.49328 7.02097 0
M  V30 1566 N 141.898 -0.863906 -1.31812 0
M  V30 1567 C 142.828 -0.330843 -2.31144 0
M  V30 1568 C 143.809 0.575005 -1.60087 0
M  V30 1569 O 144.994 0.493304 -1.8783 0
M  V30 1570 C 142.124 0.47374 -3.44054 0
M  V30 1571 C 141.078 -0.338481 -4.26659 0
M  V30 1572 C 140.404 0.591412 -5.31419 0
M  V30 1573 C 141.704 -1.56926 -4.98168 0
M  V30 1574 H 143.398 -1.16086 -2.75979 0
M  V30 1575 H 140.944 -0.559657 -1.32679 0
M  V30 1576 H 142.897 0.857143 -4.12591 0
M  V30 1577 H 141.621 1.33721 -2.9797 0
M  V30 1578 H 140.28 -0.703754 -3.59782 0
M  V30 1579 H 139.928 1.45199 -4.81587 0
M  V30 1580 H 139.628 0.0519022 -5.87577 0
M  V30 1581 H 141.152 0.97179 -6.02817 0
M  V30 1582 H 142.566 -1.25764 -5.59336 0
M  V30 1583 H 140.963 -2.04739 -5.64094 0
M  V30 1584 H 142.033 -2.32544 -4.25501 0
M  V30 1585 N 143.376 1.44774 -0.622745 0
M  V30 1586 C 144.624 2.01721 -0.123655 0
M  V30 1587 C 144.945 1.49172 1.25589 0
M  V30 1588 O 144.215 0.691974 1.83272 0
M  V30 1589 H 142.795 0.745777 -0.0427225 0
M  V30 1590 H 145.457 1.77382 -0.807559 0
M  V30 1591 H 144.553 3.11984 -0.0849534 0
M  V30 1592 N 144.854 0.36279 1.53368 0
M  V30 1593 C 146.101 -0.227776 2.01215 0
M  V30 1594 C 146.429 -1.49003 1.25014 0
M  V30 1595 O 145.684 -1.92876 0.331236 0
M  V30 1596 C 145.983 -0.568417 3.52851 0
M  V30 1597 C 145.649 0.59918 4.46901 0
M  V30 1598 C 144.311 0.919559 4.72332 0
M  V30 1599 C 146.663 1.38156 5.02556 0
M  V30 1600 C 143.991 2.02434 5.5067 0
M  V30 1601 C 146.343 2.47674 5.821 0
M  V30 1602 C 145.007 2.8025 6.05819 0
M  V30 1603 H 144.277 -0.083349 0.736297 0
M  V30 1604 H 146.924 0.494677 1.85001 0
M  V30 1605 H 145.229 -1.37185 3.66998 0
M  V30 1606 H 146.926 -1.03756 3.87344 0
M  V30 1607 H 143.516 0.339437 4.27254 0
M  V30 1608 H 147.7 1.14729 4.82857 0
M  V30 1609 H 142.956 2.28075 5.67267 0
M  V30 1610 H 147.13 3.08716 6.24234 0
M  V30 1611 H 144.757 3.65979 6.66306 0
M  V30 1612 N 146.332 -1.57332 0.0918853 0
M  V30 1613 C 147.262 -2.16872 -0.865371 0
M  V30 1614 C 148.243 -1.10118 -1.29646 0
M  V30 1615 O 149.428 -1.38242 -1.36392 0
M  V30 1616 C 146.558 -2.74649 -2.12569 0
M  V30 1617 C 145.512 -3.86747 -1.83333 0
M  V30 1618 C 144.838 -4.31212 -3.16166 0
M  V30 1619 C 146.138 -5.10089 -1.1228 0
M  V30 1620 H 147.832 -2.97114 -0.369307 0
M  V30 1621 H 145.378 -1.42918 -0.176194 0
M  V30 1622 H 147.331 -3.14952 -2.7997 0
M  V30 1623 H 146.055 -1.91657 -2.64452 0
M  V30 1624 H 144.714 -3.46978 -1.18331 0
M  V30 1625 H 144.362 -3.45115 -3.6593 0
M  V30 1626 H 144.062 -5.06788 -2.97388 0
M  V30 1627 H 145.586 -4.74146 -3.84731 0
M  V30 1628 H 147 -5.47582 -1.69785 0
M  V30 1629 H 145.397 -5.91073 -1.03693 0
M  V30 1630 H 146.467 -4.84786 -0.105041 0
M  V30 1631 N 147.81 0.181792 -1.56548 0
M  V30 1632 C 149.058 0.89832 -1.81038 0
M  V30 1633 C 149.379 1.83232 -0.667164 0
M  V30 1634 O 148.649 1.93372 0.313673 0
M  V30 1635 H 147.229 0.33471 -0.667816 0
M  V30 1636 H 149.891 0.184116 -1.94028 0
M  V30 1637 H 148.987 1.4815 -2.74696 0
M  V30 1638 N 149.288 1.51039 0.449983 0
M  V30 1639 C 150.699 1.557 1.03026 0
M  V30 1640 C 151.05 0.372939 1.92623 0
M  V30 1641 O 150.175 -0.511771 2.10261 0
M  V30 1642 C 150.77 2.82171 1.87523 0
M  V30 1643 C 149.329 2.89444 2.40622 0
M  V30 1644 C 148.476 2.50228 1.19504 0
M  V30 1645 H 151.427 1.56999 0.231745 0
M  V30 1646 H 151.448 2.65219 2.72835 0
M  V30 1647 H 150.96 3.68331 1.22286 0
M  V30 1648 H 149.061 2.07685 3.0935 0
M  V30 1649 H 149.174 3.92816 2.74285 0
M  V30 1650 H 147.538 2.03139 1.53644 0
M  V30 1651 H 148.321 3.38719 0.558972 0
M  V30 1652 N 150.766 -0.704594 1.40972 0
M  V30 1653 C 152.015 -1.46018 1.39146 0
M  V30 1654 C 152.328 -1.956 0.000589254 0
M  V30 1655 O 153.534 -2.71137 -0.1403 0
M  V30 1656 C 151.99 -2.63996 2.4461 0
M  V30 1657 C 151.598 -2.21238 3.89561 0
M  V30 1658 C 153.342 -3.41677 2.51907 0
M  V30 1659 C 151.249 -3.3612 4.86598 0
M  V30 1660 H 150.179 -0.548444 0.517422 0
M  V30 1661 H 152.83 -0.765784 1.66757 0
M  V30 1662 H 151.212 -3.3566 2.10115 0
M  V30 1663 H 152.386 -1.56923 4.33257 0
M  V30 1664 H 150.701 -1.56574 3.85841 0
M  V30 1665 H 153.298 -4.27182 3.2159 0
M  V30 1666 H 153.641 -3.86247 1.55303 0
M  V30 1667 H 154.174 -2.77064 2.85448 0
M  V30 1668 H 150.913 -2.96572 5.84573 0
M  V30 1669 H 150.433 -3.99315 4.47557 0
M  V30 1670 H 152.112 -4.02029 5.06934 0
M  V30 1671 N 152.244 -1.26651 -0.937939 0
M  V30 1672 C 153.174 -1.10993 -2.05433 0
M  V30 1673 C 154.155 -0.0142161 -1.70094 0
M  V30 1674 O 155.34 -0.186837 -1.93299 0
M  V30 1675 C 152.47 -0.745561 -3.39203 0
M  V30 1676 C 151.424 -1.79337 -3.88616 0
M  V30 1677 C 150.75 -1.28324 -5.19073 0
M  V30 1678 C 152.05 -3.19553 -4.13138 0
M  V30 1679 H 153.744 -2.0438 -2.1879 0
M  V30 1680 H 151.29 -0.984041 -1.05131 0
M  V30 1681 H 153.243 -0.622888 -4.16771 0
M  V30 1682 H 151.967 0.22401 -3.25831 0
M  V30 1683 H 150.626 -1.90477 -3.13231 0
M  V30 1684 H 150.274 -0.303414 -5.02084 0
M  V30 1685 H 149.974 -1.98369 -5.53103 0
M  V30 1686 H 151.498 -1.1733 -5.99221 0
M  V30 1687 H 152.912 -3.11471 -4.81309 0
M  V30 1688 H 151.309 -3.87218 -4.58457 0
M  V30 1689 H 152.379 -3.65368 -3.18801 0
M  V30 1690 N 153.722 1.14298 -1.08507 0
M  V30 1691 C 155.138 1.37347 -0.812901 0
M  V30 1692 C 155.338 1.93052 0.577325 0
M  V30 1693 O 154.394 2.14389 1.33393 0
M  V30 1694 C 155.707 2.33359 -1.89642 0
M  V30 1695 C 157.255 2.46996 -1.92255 0
M  V30 1696 C 157.73 3.46309 -2.99724 0
M  V30 1697 N 159.221 3.53853 -2.98902 0
M  V30 1698 C 159.956 4.3055 -3.787 0
M  V30 1699 N 159.452 5.10482 -4.6838 0
M  V30 1700 N 161.245 4.25757 -3.66998 0
M  V30 1701 H 153.396 0.764867 -1.9815 0
M  V30 1702 H 155.659 0.398966 -0.859959 0
M  V30 1703 H 155.365 1.99565 -2.89597 0
M  V30 1704 H 155.239 3.33274 -1.76659 0
M  V30 1705 H 157.626 2.80081 -0.929445 0
M  V30 1706 H 157.707 1.47039 -2.09316 0
M  V30 1707 H 157.351 3.13957 -3.99241 0
M  V30 1708 H 157.281 4.46049 -2.79907 0
M  V30 1709 H 159.772 2.96812 -2.33904 0
M  V30 1710 H 160.085 5.66284 -5.25873 0
M  V30 1711 H 158.43 5.09747 -4.72422 0
M  V30 1712 H 161.621 3.62383 -2.96304 0
M  V30 1713 H 161.794 4.85279 -4.29427 0
M  V30 1714 N 155.201 0.870884 1.31352 0
M  V30 1715 C 156.164 0.332243 2.26779 0
M  V30 1716 C 157.164 -0.517302 1.52252 0
M  V30 1717 O 158.354 -0.326477 1.71113 0
M  V30 1718 C 155.486 -0.528066 3.36785 0
M  V30 1719 H 156.679 1.17469 2.75937 0
M  V30 1720 H 154.232 0.64655 1.423 0
M  V30 1721 H 154.967 -1.39167 2.92922 0
M  V30 1722 H 154.752 0.0802582 3.92018 0
M  V30 1723 H 156.242 -0.897179 4.07849 0
M  V30 1724 N 156.679 -1.44442 0.630414 0
M  V30 1725 C 157.589 -2.34476 -0.0761693 0
M  V30 1726 C 158.605 -1.52576 -0.836449 0
M  V30 1727 O 159.781 -1.85307 -0.788874 0
M  V30 1728 C 156.846 -3.30545 -1.04599 0
M  V30 1729 C 155.907 -4.28352 -0.28516 0
M  V30 1730 C 155.14 -5.19831 -1.20878 0
M  V30 1731 O 155.363 -5.15223 -2.44747 0
M  V30 1732 O 154.297 -5.97892 -0.693491 0
M  V30 1733 H 158.123 -2.96345 0.664324 0
M  V30 1734 H 155.708 -1.44203 0.39061 0
M  V30 1735 H 157.59 -3.89681 -1.60396 0
M  V30 1736 H 156.265 -2.7121 -1.76711 0
M  V30 1737 H 155.172 -3.72764 0.315837 0
M  V30 1738 H 156.505 -4.90605 0.395924 0
M  V30 1739 N 158.157 -0.370918 -1.53173 0
M  V30 1740 C 159.403 0.217423 -2.01631 0
M  V30 1741 C 159.736 1.47983 -1.25756 0
M  V30 1742 O 159.011 1.91274 -0.352764 0
M  V30 1743 C 159.294 0.503982 -3.56556 0
M  V30 1744 C 159.147 -0.77243 -4.43118 0
M  V30 1745 C 160.466 1.30234 -4.20389 0
M  V30 1746 H 157.585 0.0775486 -0.732909 0
M  V30 1747 H 160.227 -0.496863 -1.83388 0
M  V30 1748 H 158.377 1.11248 -3.72231 0
M  V30 1749 H 160.049 -1.4098 -4.39229 0
M  V30 1750 H 158.292 -1.39167 -4.10871 0
M  V30 1751 H 158.963 -0.526815 -5.4948 0
M  V30 1752 H 161.439 0.787546 -4.08579 0
M  V30 1753 H 160.315 1.47158 -5.28806 0
M  V30 1754 H 160.576 2.31237 -3.76805 0
M  V30 1755 N 159.635 1.57281 -0.100228 0
M  V30 1756 C 160.883 1.94153 0.561157 0
M  V30 1757 C 161.204 0.983157 1.68401 0
M  V30 1758 O 160.474 0.0361132 1.95867 0
M  V30 1759 H 159.054 0.716791 0.210283 0
M  V30 1760 H 161.716 1.94202 -0.164765 0
M  V30 1761 H 160.812 2.96709 0.968008 0
M  V30 1762 N 161.113 -0.173488 1.56642 0
M  V30 1763 C 162.39 -0.917617 1.7274 0
M  V30 1764 C 162.77 -2.00484 0.661027 0
M  V30 1765 O 162.118 -2.26184 -0.32453 0
M  V30 1766 C 162.328 -1.48433 3.15862 0
M  V30 1767 C 163.676 -1.95809 3.76754 0
M  V30 1768 O 164.7 -1.58231 3.19126 0
M  V30 1769 O 163.559 -2.65024 4.77938 0
M  V30 1770 H 160.653 -0.431772 0.705338 0
M  V30 1771 H 163.199 -0.161487 1.6893 0
M  V30 1772 H 161.971 -0.701715 3.84957 0
M  V30 1773 H 161.594 -2.30471 3.23989 0
M  V30 1774 N 162.591 -1.51276 -0.441967 0
M  V30 1775 C 163.837 -1.63958 -1.19355 0
M  V30 1776 C 164.17 -0.352543 -1.90973 0
M  V30 1777 O 163.445 0.647627 -1.83401 0
M  V30 1778 C 163.728 -2.83979 -2.21422 0
M  V30 1779 C 163.581 -4.22646 -1.53918 0
M  V30 1780 C 164.9 -2.99521 -3.22451 0
M  V30 1781 H 162.019 -0.596709 -0.432559 0
M  V30 1782 H 164.661 -1.83748 -0.483398 0
M  V30 1783 H 162.811 -2.67237 -2.81987 0
M  V30 1784 H 164.483 -4.51045 -0.967256 0
M  V30 1785 H 162.726 -4.25558 -0.841615 0
M  V30 1786 H 163.397 -5.02609 -2.28229 0
M  V30 1787 H 165.873 -3.14944 -2.71937 0
M  V30 1788 H 164.749 -3.85072 -3.91166 0
M  V30 1789 H 165.01 -2.11391 -3.88287 0
M  V30 1790 N 164.069 0.697108 -1.41344 0
M  V30 1791 C 165.318 1.45279 -1.39918 0
M  V30 1792 C 165.631 1.95597 -0.0109624 0
M  V30 1793 O 166.837 2.71208 0.125919 0
M  V30 1794 C 165.293 2.62695 -2.46007 0
M  V30 1795 C 164.901 2.19169 -3.90729 0
M  V30 1796 C 166.645 3.40336 -2.53715 0
M  V30 1797 C 164.552 3.33535 -4.88373 0
M  V30 1798 H 163.482 0.545692 -0.520323 0
M  V30 1799 H 166.133 0.756929 -1.67161 0
M  V30 1800 H 164.515 3.34541 -2.11892 0
M  V30 1801 H 165.689 1.54623 -4.34083 0
M  V30 1802 H 164.004 1.54525 -3.86666 0
M  V30 1803 H 166.601 4.2547 -3.2385 0
M  V30 1804 H 166.944 3.85418 -1.5735 0
M  V30 1805 H 167.477 2.75546 -2.86913 0
M  V30 1806 H 164.216 2.93468 -5.86137 0
M  V30 1807 H 163.736 3.96936 -4.49668 0
M  V30 1808 H 165.415 3.99335 -5.09059 0
M  V30 1809 N 165.547 1.27147 0.931209 0
M  V30 1810 C 166.793 1.13446 1.68101 0
M  V30 1811 C 167.126 -0.319628 1.91552 0
M  V30 1812 O 166.401 -1.23407 1.50336 0
M  V30 1813 C 166.684 1.91482 3.0497 0
M  V30 1814 C 166.537 3.44855 2.88782 0
M  V30 1815 C 167.856 1.71651 4.05246 0
M  V30 1816 H 164.975 0.413498 0.610072 0
M  V30 1817 H 167.617 1.56261 1.08086 0
M  V30 1818 H 165.767 1.55095 3.56199 0
M  V30 1819 H 167.439 3.9105 2.44698 0
M  V30 1820 H 165.682 3.71373 2.24198 0
M  V30 1821 H 166.353 3.94694 3.85902 0
M  V30 1822 H 168.829 2.0337 3.63015 0
M  V30 1823 H 167.705 2.28651 4.99009 0
M  V30 1824 H 167.966 0.663555 4.37092 0
M  V30 1825 N 167.025 -1.13721 1.09112 0
M  V30 1826 C 168.274 -1.84275 0.82009 0
M  V30 1827 C 168.587 -1.84253 -0.656509 0
M  V30 1828 O 169.793 -2.50668 -1.04296 0
M  V30 1829 C 168.249 -3.30825 1.41714 0
M  V30 1830 C 167.857 -3.39244 2.92605 0
M  V30 1831 C 169.601 -4.06443 1.22492 0
M  V30 1832 C 167.508 -4.80047 3.45411 0
M  V30 1833 H 166.438 -0.690387 0.30312 0
M  V30 1834 H 169.089 -1.28146 1.31343 0
M  V30 1835 H 167.471 -3.86737 0.851498 0
M  V30 1836 H 168.645 -2.93344 3.55367 0
M  V30 1837 H 166.96 -2.77088 3.10823 0
M  V30 1838 H 169.557 -5.10387 1.59402 0
M  V30 1839 H 169.9 -4.15972 0.165299 0
M  V30 1840 H 170.433 -3.56852 1.75788 0
M  V30 1841 H 167.172 -4.75709 4.50978 0
M  V30 1842 H 166.692 -5.26455 2.87411 0
M  V30 1843 H 168.371 -5.48957 3.42425 0
M  V30 1844 N 168.503 -0.877838 -1.30888 0
M  V30 1845 C 169.453 -0.310872 -2.25871 0
M  V30 1846 C 170.437 0.556596 -1.50966 0
M  V30 1847 O 171.629 0.402187 -1.7237 0
M  V30 1848 C 168.758 0.479821 -3.3993 0
M  V30 1849 C 167.844 -0.401333 -4.22197 0
M  V30 1850 N 168.235 -1.49848 -4.83093 0
M  V30 1851 C 166.533 -0.195167 -4.45573 0
M  V30 1852 C 167.234 -2.0425 -5.44662 0
M  V30 1853 N 166.21 -1.33843 -5.26865 0
M  V30 1854 H 170.012 -1.1493 -2.70496 0
M  V30 1855 H 167.526 -0.726458 -1.45246 0
M  V30 1856 H 169.523 0.902582 -4.07012 0
M  V30 1857 H 168.183 1.31577 -2.96846 0
M  V30 1858 H 169.194 -1.88137 -4.82519 0
M  V30 1859 H 165.871 0.604192 -4.13105 0
M  V30 1860 H 167.261 -2.96345 -6.03017 0
M  V30 1861 N 169.982 1.44106 -0.638065 0
M  V30 1862 C 170.912 2.33448 0.0494287 0
M  V30 1863 C 171.893 1.48606 0.827672 0
M  V30 1864 O 173.078 1.77308 0.792173 0
M  V30 1865 C 170.208 3.31771 1.02691 0
M  V30 1866 C 169.162 4.26485 0.359823 0
M  V30 1867 C 168.488 5.14729 1.44769 0
M  V30 1868 C 169.788 5.17056 -0.738296 0
M  V30 1869 H 171.482 2.91183 -0.696636 0
M  V30 1870 H 169.028 1.40014 -0.336456 0
M  V30 1871 H 170.981 3.93161 1.51666 0
M  V30 1872 H 169.705 2.7226 1.80395 0
M  V30 1873 H 168.364 3.66437 -0.10934 0
M  V30 1874 H 168.012 4.51566 2.21578 0
M  V30 1875 H 167.712 5.78913 1.00668 0
M  V30 1876 H 169.236 5.78991 1.93911 0
M  V30 1877 H 170.65 5.72342 -0.331354 0
M  V30 1878 H 169.047 5.89879 -1.10286 0
M  V30 1879 H 170.117 4.57652 -1.60258 0
M  V30 1880 N 171.46 0.379036 1.52974 0
M  V30 1881 C 172.407 -0.461048 2.26148 0
M  V30 1882 C 173.377 -1.06637 1.27349 0
M  V30 1883 O 174.562 -1.09633 1.56157 0
M  V30 1884 C 171.702 -1.58782 3.06402 0
M  V30 1885 C 170.815 -1.00636 4.20115 0
M  V30 1886 C 169.95 -2.10334 4.87784 0
M  V30 1887 C 168.989 -1.49724 5.93506 0
M  V30 1888 N 168.126 -2.5331 6.54812 0
M  V30 1889 H 172.966 0.169429 2.97518 0
M  V30 1890 H 170.503 0.0953806 1.4679 0
M  V30 1891 H 172.461 -2.25174 3.51215 0
M  V30 1892 H 171.091 -2.18876 2.37261 0
M  V30 1893 H 170.143 -0.232332 3.7969 0
M  V30 1894 H 171.455 -0.523343 4.96047 0
M  V30 1895 H 170.609 -2.84519 5.35849 0
M  V30 1896 H 169.348 -2.61992 4.11353 0
M  V30 1897 H 168.353 -0.740598 5.44789 0
M  V30 1898 H 169.578 -0.988732 6.71864 0
M  V30 1899 H 167.524 -3.04156 5.81227 0
M  V30 1900 H 167.441 -2.09734 7.26325 0
M  V30 1901 H 168.709 -3.27155 7.07524 0
M  V30 1902 N 172.938 -1.57226 0.108567 0
M  V30 1903 C 173.886 -2.16002 -0.862885 0
M  V30 1904 C 174.88 -1.10644 -1.28274 0
M  V30 1905 O 176.086 -1.28966 -1.2557 0
M  V30 1906 H 172.461 -0.691148 -0.296342 0
M  V30 1907 H 174.432 -2.96427 -0.342575 0
M  V30 1908 C 173.181 -2.76576 -2.10716 0
M  V30 1909 H 172.504 -3.5734 -1.793 0
M  V30 1910 H 173.944 -3.21253 -2.76717 0
M  V30 1911 C 172.403 -1.73137 -2.89007 0
M  V30 1912 O 172.933 -1.17842 -3.84026 0
M  V30 1913 N 171.139 -1.43317 -2.52801 0
M  V30 1914 H 170.686 -1.88473 -1.75601 0
M  V30 1915 H 170.644 -0.743485 -3.05483 0
M  V30 1916 N 174.416 0.165178 -1.56732 0
M  V30 1917 C 175.663 0.880807 -1.8234 0
M  V30 1918 C 175.991 1.81977 -0.686621 0
M  V30 1919 O 175.246 1.92971 0.325697 0
M  V30 1920 C 175.545 1.70405 -3.1416 0
M  V30 1921 C 175.211 0.913475 -4.4155 0
M  V30 1922 C 173.873 0.695303 -4.7615 0
M  V30 1923 C 176.225 0.359349 -5.1996 0
M  V30 1924 C 173.553 -0.0879947 -5.86634 0
M  V30 1925 C 175.905 -0.410893 -6.31264 0
M  V30 1926 C 174.569 -0.639808 -6.64427 0
M  V30 1927 H 173.839 0.32231 -0.667231 0
M  V30 1928 H 176.486 0.145402 -1.90947 0
M  V30 1929 H 174.791 2.50903 -3.00923 0
M  V30 1930 H 176.488 2.26091 -3.31186 0
M  V30 1931 H 173.078 1.09357 -4.14414 0
M  V30 1932 H 177.262 0.515228 -4.93618 0
M  V30 1933 H 172.518 -0.27503 -6.10781 0
M  V30 1934 H 176.692 -0.847494 -6.91224 0
M  V30 1935 H 174.319 -1.24864 -7.49875 0
M  V30 1936 N 175.894 1.51508 0.433938 0
M  V30 1937 C 176.857 1.72473 1.50949 0
M  V30 1938 C 177.857 0.594725 1.49398 0
M  V30 1939 O 179.047 0.862315 1.5136 0
M  V30 1940 C 176.179 1.78431 2.90474 0
M  V30 1941 H 177.372 2.68467 1.33662 0
M  V30 1942 H 174.925 1.41549 0.662836 0
M  V30 1943 H 175.66 0.842645 3.13161 0
M  V30 1944 H 175.445 2.60558 2.93005 0
M  V30 1945 H 176.935 1.96479 3.68491 0
M  V30 1946 N 177.372 -0.689602 1.41712 0
M  V30 1947 C 178.597 -1.48329 1.44959 0
M  V30 1948 C 179.022 -1.8801 0.0581283 0
M  V30 1949 O 178.38 -1.55026 -0.940035 0
M  V30 1950 C 178.428 -2.71835 2.36935 0
M  V30 1951 O 177.532 -3.69549 1.8305 0
M  V30 1952 H 176.873 -0.446199 0.491734 0
M  V30 1953 H 179.403 -0.847127 1.86239 0
M  V30 1954 H 179.413 -3.20076 2.53013 0
M  V30 1955 H 178.088 -2.42291 3.38035 0
M  V30 1956 H 176.665 -3.2851 1.76452 0
M  V30 1957 N 178.85 -1.27639 -0.924453 0
M  V30 1958 C 180.266 -1.05113 -1.20097 0
M  V30 1959 C 180.466 0.213262 -2.00368 0
M  V30 1960 O 179.522 0.91787 -2.35226 0
M  V30 1961 C 180.835 -2.29244 -1.94596 0
M  V30 1962 C 182.383 -2.34315 -2.07522 0
M  V30 1963 C 182.858 -3.58183 -2.85427 0
M  V30 1964 N 184.349 -3.5876 -2.92994 0
M  V30 1965 C 185.084 -4.51277 -3.53746 0
M  V30 1966 N 184.58 -5.54102 -4.15863 0
M  V30 1967 N 186.373 -4.38894 -3.51181 0
M  V30 1968 H 178.524 -2.08821 -0.388264 0
M  V30 1969 H 180.787 -0.918568 -0.234385 0
M  V30 1970 H 180.493 -3.21301 -1.43034 0
M  V30 1971 H 180.367 -2.34816 -2.95197 0
M  V30 1972 H 182.754 -1.42762 -2.58269 0
M  V30 1973 H 182.835 -2.32744 -1.06131 0
M  V30 1974 H 182.479 -4.50074 -2.35363 0
M  V30 1975 H 182.409 -3.57006 -3.8711 0
M  V30 1976 H 184.9 -2.84398 -2.4885 0
M  V30 1977 H 185.213 -6.20859 -4.60168 0
M  V30 1978 H 183.558 -5.57941 -4.144 0
M  V30 1979 H 186.749 -3.57772 -3.01856 0
M  V30 1980 H 186.922 -5.11186 -3.98237 0
M  V30 1981 N 180.328 1.1314 -1.09713 0
M  V30 1982 C 181.739 1.66029 -0.853885 0
M  V30 1983 C 182.09 1.86241 0.617142 0
M  V30 1984 O 181.215 1.5834 1.47503 0
M  V30 1985 C 181.81 3.01599 -1.5435 0
M  V30 1986 C 180.369 3.51467 -1.34714 0
M  V30 1987 C 179.516 2.26648 -1.59769 0
M  V30 1988 H 182.467 0.970226 -1.25588 0
M  V30 1989 H 182.488 3.67709 -0.978267 0
M  V30 1990 H 182 2.86856 -2.6141 0
M  V30 1991 H 180.101 3.71408 -0.297838 0
M  V30 1992 H 180.214 4.314 -2.08401 0
M  V30 1993 H 178.578 2.33385 -1.01998 0
M  V30 1994 H 179.361 2.14467 -2.68065 0
M  V30 1995 N 181.806 0.884767 1.30421 0
M  V30 1996 C 183.036 0.517293 2.00019 0
M  V30 1997 C 183.444 -0.898632 1.66497 0
M  V30 1998 O 182.787 -1.60245 0.898181 0
M  V30 1999 C 182.849 0.612025 3.54252 0
M  V30 2000 C 182.513 1.99222 4.1129 0
M  V30 2001 C 183.51 2.9616 4.273 0
M  V30 2002 C 181.195 2.29755 4.46674 0
M  V30 2003 C 183.189 4.21764 4.77906 0
M  V30 2004 C 180.876 3.55606 4.96979 0
M  V30 2005 C 181.874 4.51425 5.12547 0
M  V30 2006 O 181.562 5.75043 5.61766 0
M  V30 2007 H 181.294 0.198529 0.64619 0
M  V30 2008 H 183.848 1.1919 1.67281 0
M  V30 2009 H 182.078 -0.119561 3.86515 0
M  V30 2010 H 183.767 0.255859 4.05093 0
M  V30 2011 H 184.533 2.73882 4.00267 0
M  V30 2012 H 180.412 1.55942 4.33824 0
M  V30 2013 H 183.956 4.96561 4.89972 0
M  V30 2014 H 179.853 3.7772 5.23448 0
M  V30 2015 H 180.621 5.77422 5.80109 0
M  V30 2016 N 183.284 -1.43765 0.645699 0
M  V30 2017 C 184.509 -2.06767 0.161883 0
M  V30 2018 C 184.934 -1.48034 -1.16049 0
M  V30 2019 O 184.292 -0.587369 -1.71522 0
M  V30 2020 C 184.34 -3.60519 0.0762003 0
M  V30 2021 O 183.444 -4.00982 -0.963721 0
M  V30 2022 H 182.785 -0.657675 0.091429 0
M  V30 2023 H 185.315 -1.84397 0.886499 0
M  V30 2024 H 185.325 -4.07853 -0.109604 0
M  V30 2025 H 184 -4.02646 1.04157 0
M  V30 2026 H 182.577 -3.65253 -0.751312 0
M  V30 2027 N 184.763 -0.387143 -1.52771 0
M  V30 2028 C 185.693 0.440551 -2.29306 0
M  V30 2029 C 186.674 1.06535 -1.32606 0
M  V30 2030 O 187.859 1.07853 -1.61497 0
M  V30 2031 C 184.989 1.56919 -3.09829 0
M  V30 2032 C 183.943 1.07054 -4.14395 0
M  V30 2033 C 183.269 2.29109 -4.83129 0
M  V30 2034 C 184.569 0.140015 -5.22112 0
M  V30 2035 H 186.263 -0.198026 -2.98744 0
M  V30 2036 H 183.809 -0.09668 -1.43675 0
M  V30 2037 H 185.762 2.15503 -3.62128 0
M  V30 2038 H 184.486 2.23532 -2.3812 0
M  V30 2039 H 183.145 0.507247 -3.63074 0
M  V30 2040 H 182.793 2.94227 -4.0797 0
M  V30 2041 H 182.493 1.96406 -5.53804 0
M  V30 2042 H 184.017 2.88339 -5.38231 0
M  V30 2043 H 185.431 0.633978 -5.69784 0
M  V30 2044 H 183.828 -0.0971485 -6.00021 0
M  V30 2045 H 184.898 -0.811711 -4.78058 0
M  V30 2046 N 186.241 1.57166 -0.116904 0
M  V30 2047 C 187.191 2.11756 0.845178 0
M  V30 2048 C 188.175 1.03783 1.22955 0
M  V30 2049 O 189.367 1.3002 1.20099 0
M  V30 2050 C 186.496 2.71886 2.09602 0
M  V30 2051 C 185.582 3.86937 1.7361 0
M  V30 2052 N 185.973 4.94073 1.08284 0
M  V30 2053 C 184.271 3.97082 2.03082 0
M  V30 2054 C 184.972 5.74477 0.913855 0
M  V30 2055 N 183.948 5.2423 1.43818 0
M  V30 2056 H 187.75 2.91967 0.336523 0
M  V30 2057 H 185.264 1.62174 0.0856332 0
M  V30 2058 H 187.261 3.09338 2.79492 0
M  V30 2059 H 185.921 1.93138 2.61013 0
M  V30 2060 H 186.932 5.12483 0.747067 0
M  V30 2061 H 183.609 3.29372 2.56554 0
M  V30 2062 H 184.999 6.70701 0.40125 0
M  V30 2063 N 187.719 -0.156864 1.56817 0
M  V30 2064 C 189.13 -0.717916 1.72345 0
M  V30 2065 C 189.481 -1.82124 0.729747 0
M  V30 2066 O 188.606 -2.16141 -0.105781 0
M  V30 2067 C 189.201 -1.30904 3.12489 0
M  V30 2068 C 187.76 -1.81676 3.29653 0
M  V30 2069 C 186.907 -0.701349 2.68284 0
M  V30 2070 H 189.858 0.0686989 1.58551 0
M  V30 2071 H 189.879 -2.17882 3.11942 0
M  V30 2072 H 189.391 -0.505796 3.8479 0
M  V30 2073 H 187.492 -2.64598 2.62333 0
M  V30 2074 H 187.605 -1.95226 4.3752 0
M  V30 2075 H 185.969 -1.12548 2.28484 0
M  V30 2076 H 186.752 0.0902846 3.43181 0
M  V30 2077 N 189.197 -1.51736 -0.425897 0
M  V30 2078 C 190.147 -1.70258 -1.51645 0
M  V30 2079 C 191.131 -0.556488 -1.5097 0
M  V30 2080 O 192.323 -0.812879 -1.5723 0
M  V30 2081 C 189.452 -1.84143 -2.89735 0
M  V30 2082 C 188.538 -3.04572 -2.95122 0
M  V30 2083 N 188.929 -4.2756 -2.70233 0
M  V30 2084 C 187.227 -3.04061 -3.26286 0
M  V30 2085 C 187.928 -5.08908 -2.81757 0
M  V30 2086 N 186.904 -4.43797 -3.13919 0
M  V30 2087 H 190.706 -2.63004 -1.31172 0
M  V30 2088 H 188.22 -1.4954 -0.633375 0
M  V30 2089 H 190.217 -1.95525 -3.68206 0
M  V30 2090 H 188.877 -0.925857 -3.1122 0
M  V30 2091 H 189.888 -4.56315 -2.44943 0
M  V30 2092 H 186.565 -2.22179 -3.53473 0
M  V30 2093 H 187.955 -6.16843 -2.66372 0
M  V30 2094 N 190.675 0.682077 -1.42076 0
M  V30 2095 C 191.923 1.4393 -1.41876 0
M  V30 2096 C 192.244 1.94971 -0.0335599 0
M  V30 2097 O 191.514 1.72591 0.926773 0
M  V30 2098 H 190.094 0.534085 -0.522267 0
M  V30 2099 H 192.756 0.806427 -1.77434 0
M  V30 2100 H 191.852 2.29588 -2.11414 0
M  V30 2101 N 192.153 1.28127 0.917671 0
M  V30 2102 C 193.399 1.15223 1.66888 0
M  V30 2103 C 193.732 -0.299293 1.9188 0
M  V30 2104 O 193.007 -1.21805 1.51637 0
M  V30 2105 C 193.29 1.94706 3.02922 0
M  V30 2106 C 193.143 3.47898 2.85109 0
M  V30 2107 C 194.462 1.75939 4.03402 0
M  V30 2108 H 191.581 0.419946 0.605652 0
M  V30 2109 H 194.223 1.57398 1.06423 0
M  V30 2110 H 192.373 1.58864 3.54534 0
M  V30 2111 H 194.045 3.93624 2.40537 0
M  V30 2112 H 192.288 3.7373 2.20246 0
M  V30 2113 H 192.959 3.98765 3.81694 0
M  V30 2114 H 195.435 2.07209 3.60837 0
M  V30 2115 H 194.311 2.33931 4.96556 0
M  V30 2116 H 194.572 0.709877 4.36364 0
M  V30 2117 N 193.631 -1.12557 1.10312 0
M  V30 2118 C 194.878 -1.84038 0.844759 0
M  V30 2119 C 195.206 -1.84026 -0.629668 0
M  V30 2120 O 194.461 -1.28026 -1.48013 0
M  V30 2121 C 194.76 -3.31462 1.33669 0
M  V30 2122 C 194.426 -3.51647 2.82232 0
M  V30 2123 C 193.088 -3.56864 3.22802 0
M  V30 2124 C 195.44 -3.58867 3.77974 0
M  V30 2125 C 192.768 -3.66844 4.57867 0
M  V30 2126 C 195.12 -3.70375 5.1284 0
M  V30 2127 C 193.784 -3.73848 5.52986 0
M  V30 2128 H 193.054 -0.673444 0.309119 0
M  V30 2129 H 195.701 -1.32824 1.37949 0
M  V30 2130 H 194.006 -3.85091 0.721949 0
M  V30 2131 H 195.703 -3.85236 1.11329 0
M  V30 2132 H 192.293 -3.48249 2.49842 0
M  V30 2133 H 196.477 -3.54107 3.47738 0
M  V30 2134 H 191.733 -3.67804 4.88396 0
M  V30 2135 H 195.907 -3.74904 5.86873 0
M  V30 2136 H 193.534 -3.81333 6.57639 0
M  V30 2137 N 195.109 -0.891671 -1.2995 0
M  V30 2138 C 196.339 -0.527893 -1.99742 0
M  V30 2139 C 196.747 0.88979 -1.66971 0
M  V30 2140 O 196.09 1.59766 -0.906667 0
M  V30 2141 C 196.152 -0.630804 -3.53922 0
M  V30 2142 C 195.816 -2.01401 -4.10228 0
M  V30 2143 C 196.813 -2.98422 -4.25724 0
M  V30 2144 C 194.498 -2.32121 -4.45449 0
M  V30 2145 C 196.492 -4.24293 -4.75662 0
M  V30 2146 C 194.179 -3.58237 -4.95086 0
M  V30 2147 C 195.177 -4.54137 -5.10146 0
M  V30 2148 O 194.865 -5.78014 -5.58708 0
M  V30 2149 H 194.597 -0.201953 -0.645129 0
M  V30 2150 H 197.151 -1.20076 -1.66646 0
M  V30 2151 H 195.381 0.0990616 -3.86573 0
M  V30 2152 H 197.07 -0.277338 -4.04951 0
M  V30 2153 H 197.836 -2.76001 -3.98809 0
M  V30 2154 H 193.715 -1.5824 -4.32991 0
M  V30 2155 H 197.259 -4.99153 -4.87332 0
M  V30 2156 H 193.156 -3.80491 -5.21437 0
M  V30 2157 H 193.924 -5.8049 -5.77039 0
M  V30 2158 N 196.587 1.43421 -0.653314 0
M  V30 2159 C 197.535 2.32546 0.0501531 0
M  V30 2160 C 198.529 1.48617 0.812985 0
M  V30 2161 O 199.735 1.64825 0.723375 0
M  V30 2162 H 196.11 0.751185 0.0350032 0
M  V30 2163 H 198.081 2.89602 -0.719261 0
M  V30 2164 C 196.83 3.32925 1.00279 0
M  V30 2165 H 196.153 3.97532 0.425236 0
M  V30 2166 H 197.593 3.9792 1.46409 0
M  V30 2167 C 196.052 2.63532 2.09886 0
M  V30 2168 O 196.582 2.45092 3.18265 0
M  V30 2169 N 194.788 2.22905 1.86445 0
M  V30 2170 H 194.335 2.38103 0.98309 0
M  V30 2171 H 194.293 1.76805 2.59976 0
M  V30 2172 N 198.065 0.39524 1.52563 0
M  V30 2173 C 199.012 -0.437036 2.26624 0
M  V30 2174 C 199.982 -1.05281 1.28472 0
M  V30 2175 O 201.167 -1.07971 1.57311 0
M  V30 2176 C 198.307 -1.55524 3.08069 0
M  V30 2177 C 197.42 -0.961745 4.21158 0
M  V30 2178 C 196.555 -2.05149 4.89987 0
M  V30 2179 C 195.594 -1.4342 5.95061 0
M  V30 2180 N 194.731 -2.46351 6.57462 0
M  V30 2181 H 199.571 0.200976 2.97322 0
M  V30 2182 H 197.108 0.110944 1.46681 0
M  V30 2183 H 199.066 -2.21437 3.53584 0
M  V30 2184 H 197.696 -2.16348 2.3957 0
M  V30 2185 H 196.748 -0.192048 3.79915 0
M  V30 2186 H 198.06 -0.470701 4.96574 0
M  V30 2187 H 197.214 -2.78819 5.38837 0
M  V30 2188 H 195.953 -2.57615 4.14109 0
M  V30 2189 H 194.958 -0.682774 5.45544 0
M  V30 2190 H 196.183 -0.917416 6.72875 0
M  V30 2191 H 194.129 -2.97975 5.8442 0
M  V30 2192 H 194.046 -2.02019 7.28508 0
M  V30 2193 H 195.314 -3.19633 7.10954 0
M  V30 2194 N 199.544 -1.57102 0.125237 0
M  V30 2195 C 200.821 -1.86953 -0.575142 0
M  V30 2196 C 201.201 -1.02749 -1.84407 0
M  V30 2197 O 200.549 -0.108144 -2.28244 0
M  V30 2198 C 200.759 -3.38198 -0.861583 0
M  V30 2199 C 202.107 -4.06937 -1.21192 0
M  V30 2200 O 203.131 -3.43252 -0.951645 0
M  V30 2201 O 201.99 -5.19364 -1.70068 0
M  V30 2202 H 199.084 -0.774147 -0.290906 0
M  V30 2203 H 201.63 -1.68942 0.160211 0
M  V30 2204 H 200.402 -3.91282 0.0373647 0
M  V30 2205 H 200.025 -3.61661 -1.65188 0
M  V30 2206 N 201.022 0.148545 -1.56898 0
M  V30 2207 C 202.247 0.880385 -1.87787 0
M  V30 2208 C 202.672 1.74018 -0.714093 0
M  V30 2209 O 202.03 1.78153 0.336343 0
M  V30 2210 C 202.078 1.71422 -3.17249 0
M  V30 2211 O 201.182 2.8183 -3.01074 0
M  V30 2212 H 200.523 0.245301 -0.617028 0
M  V30 2213 H 203.053 0.139826 -2.04122 0
M  V30 2214 H 203.063 2.10954 -3.49231 0
M  V30 2215 H 201.738 1.08284 -4.01556 0
M  V30 2216 H 200.315 2.45715 -2.80497 0
M  V30 2217 N 202.5 1.5196 0.417844 0
M  V30 2218 C 203.41 1.77554 1.53336 0
M  V30 2219 C 204.426 0.660655 1.6097 0
M  V30 2220 O 205.602 0.945099 1.77848 0
M  V30 2221 C 202.667 1.91291 2.89152 0
M  V30 2222 C 201.728 3.15183 2.91475 0
M  V30 2223 C 200.961 3.28256 4.20813 0
M  V30 2224 O 201.184 2.46798 5.14244 0
M  V30 2225 O 200.118 4.21356 4.29817 0
M  V30 2226 H 203.944 2.7222 1.34647 0
M  V30 2227 H 201.529 1.36698 0.602828 0
M  V30 2228 H 203.411 2.02199 3.69721 0
M  V30 2229 H 202.086 0.998129 3.07927 0
M  V30 2230 H 200.993 3.09739 2.09791 0
M  V30 2231 H 202.326 4.06414 2.77648 0
M  V30 2232 N 203.978 -0.674533 1.42435 0
M  V30 2233 C 205.226 -1.43175 1.42637 0
M  V30 2234 C 205.547 -1.94951 0.0438992 0
M  V30 2235 O 204.817 -1.7308 -0.917607 0
M  V30 2236 H 203.397 -0.531307 0.525092 0
M  V30 2237 H 206.059 -0.797006 1.77859 0
M  V30 2238 H 205.155 -2.28463 2.12629 0
M  V30 2239 N 205.456 -1.28612 -0.910864 0
M  V30 2240 C 206.419 -1.12803 -1.9952 0
M  V30 2241 C 207.419 -0.0668264 -1.60661 0
M  V30 2242 O 208.609 -0.312847 -1.71368 0
M  V30 2243 C 205.741 -0.72254 -3.33155 0
M  V30 2244 H 206.934 -2.09109 -2.14973 0
M  V30 2245 H 204.487 -1.11639 -1.09391 0
M  V30 2246 H 205.222 0.241152 -3.23402 0
M  V30 2247 H 205.007 -1.48916 -3.62721 0
M  V30 2248 H 206.497 -0.634666 -4.12749 0
M  V30 2249 N 206.934 1.1197 -1.10907 0
M  V30 2250 C 207.864 2.19928 -0.784473 0
M  V30 2251 C 208.845 1.6833 0.244726 0
M  V30 2252 O 210.03 1.93892 0.109418 0
M  V30 2253 C 207.16 3.46597 -0.220827 0
M  V30 2254 C 206.114 4.11376 -1.18127 0
M  V30 2255 C 205.44 5.32554 -0.478594 0
M  V30 2256 C 206.74 4.56945 -2.52979 0
M  V30 2257 H 208.434 2.47337 -1.68715 0
M  V30 2258 H 205.98 1.18879 -0.812642 0
M  V30 2259 H 207.933 4.21396 0.0184278 0
M  V30 2260 H 206.657 3.1863 0.717113 0
M  V30 2261 H 205.316 3.38564 -1.40606 0
M  V30 2262 H 204.964 5.00856 0.463976 0
M  V30 2263 H 204.664 5.76844 -1.11912 0
M  V30 2264 H 206.188 6.10096 -0.248 0
M  V30 2265 H 207.602 5.23093 -2.3462 0
M  V30 2266 H 205.999 5.1203 -3.12962 0
M  V30 2267 H 207.069 3.70676 -3.12614 0
M  V30 2268 N 208.412 0.89855 1.29475 0
M  V30 2269 C 209.642 0.538479 1.99459 0
M  V30 2270 C 210.05 -0.880922 1.67441 0
M  V30 2271 O 209.393 -1.59283 0.915127 0
M  V30 2272 C 209.455 0.649564 3.53583 0
M  V30 2273 C 209.119 2.03573 4.09154 0
M  V30 2274 C 210.116 3.00675 4.24135 0
M  V30 2275 C 207.801 2.3448 4.44212 0
M  V30 2276 C 209.795 4.26809 4.73405 0
M  V30 2277 C 207.482 3.60857 4.93179 0
M  V30 2278 C 208.48 4.56836 5.0773 0
M  V30 2279 O 208.168 5.80969 5.55635 0
M  V30 2280 H 207.9 0.205372 0.644048 0
M  V30 2281 H 210.454 1.20958 1.66007 0
M  V30 2282 H 208.684 -0.0785592 3.8662 0
M  V30 2283 H 210.373 0.29881 4.04799 0
M  V30 2284 H 211.139 2.78112 3.97339 0
M  V30 2285 H 207.018 1.60534 4.32145 0
M  V30 2286 H 210.562 5.0173 4.84678 0
M  V30 2287 H 206.459 3.83251 5.19412 0
M  V30 2288 H 207.227 5.83542 5.73952 0
M  V30 2289 N 209.89 -1.43072 0.660911 0
M  V30 2290 C 211.301 -1.84932 0.256348 0
M  V30 2291 C 211.652 -1.55325 -1.19868 0
M  V30 2292 O 210.777 -1.00607 -1.91591 0
M  V30 2293 C 211.372 -3.35684 0.458475 0
M  V30 2294 C 209.931 -3.76245 0.108161 0
M  V30 2295 C 209.078 -2.66749 0.757641 0
M  V30 2296 H 212.029 -1.33116 0.864051 0
M  V30 2297 H 212.05 -3.79365 -0.293683 0
M  V30 2298 H 211.562 -3.572 1.51755 0
M  V30 2299 H 209.663 -3.60338 -0.948014 0
M  V30 2300 H 209.776 -4.76058 0.538992 0
M  V30 2301 H 208.14 -2.53989 0.190185 0
M  V30 2302 H 208.923 -2.91092 1.81989 0
M  V30 2303 N 211.368 -0.403325 -1.52352 0
M  V30 2304 C 212.645 0.232611 -1.94212 0
M  V30 2305 C 213.025 1.63133 -1.33981 0
M  V30 2306 O 212.373 2.22659 -0.513344 0
M  V30 2307 C 212.583 0.244811 -3.4814 0
M  V30 2308 C 213.931 0.46698 -4.22024 0
M  V30 2309 O 214.955 0.324419 -3.5472 0
M  V30 2310 O 213.814 0.74747 -5.41364 0
M  V30 2311 H 210.908 0.148223 -0.813609 0
M  V30 2312 H 213.454 -0.458848 -1.63379 0
M  V30 2313 H 212.226 -0.734378 -3.84347 0
M  V30 2314 H 211.849 0.980611 -3.85318 0
M  V30 2315 N 212.846 1.57033 -0.133567 0
M  V30 2316 C 214.094 1.953 0.519848 0
M  V30 2317 C 214.415 1.01866 1.66278 0
M  V30 2318 O 213.685 0.0776513 1.95746 0
M  V30 2319 H 212.265 0.721091 0.195032 0
M  V30 2320 H 214.927 1.93809 -0.205921 0
M  V30 2321 H 214.023 2.98695 0.904854 0
M  V30 2322 N 214.325 -0.140222 1.56975 0
M  V30 2323 C 215.553 -0.866437 1.87884 0
M  V30 2324 C 215.968 -1.74428 0.722517 0
M  V30 2325 O 215.325 -1.79891 -0.30749 0
M  V30 2326 C 215.376 -1.71753 3.18093 0
M  V30 2327 O 215.097 -0.875056 4.29272 0
M  V30 2328 C 216.598 -2.55074 3.62563 0
M  V30 2329 H 213.818 -0.25019 0.622612 0
M  V30 2330 H 216.362 -0.130977 2.0408 0
M  V30 2331 H 214.517 -2.40598 3.03631 0
M  V30 2332 H 214.931 -1.46002 5.03769 0
M  V30 2333 H 216.405 -3.10356 4.5649 0
M  V30 2334 H 216.882 -3.31434 2.88181 0
M  V30 2335 H 217.488 -1.91509 3.79743 0
M  V30 2336 N 215.803 -1.52179 -0.40978 0
M  V30 2337 C 217.028 -1.70347 -1.18308 0
M  V30 2338 C 217.453 -0.411887 -1.83535 0
M  V30 2339 O 216.811 0.630587 -1.6998 0
M  V30 2340 C 216.859 -2.83977 -2.22238 0
M  V30 2341 O 215.963 -2.495 -3.28365 0
M  V30 2342 H 215.304 -0.567103 -0.345384 0
M  V30 2343 H 217.834 -1.98879 -0.480445 0
M  V30 2344 H 217.844 -3.0887 -2.66577 0
M  V30 2345 H 216.519 -3.77685 -1.74146 0
M  V30 2346 H 215.096 -2.35277 -2.89308 0
M  V30 2347 N 217.281 0.66697 -1.42791 0
M  V30 2348 C 218.529 1.42417 -1.43394 0
M  V30 2349 C 218.85 1.94925 -0.0542373 0
M  V30 2350 O 218.12 1.73564 0.908415 0
M  V30 2351 H 216.7 0.528515 -0.527902 0
M  V30 2352 H 219.362 0.787562 -1.78279 0
M  V30 2353 H 218.458 2.27333 -2.13837 0
M  V30 2354 N 218.759 1.29093 0.90403 0
M  V30 2355 C 220.175 1.07011 1.1841 0
M  V30 2356 C 220.375 -0.181358 2.00682 0
M  V30 2357 O 219.431 -0.880331 2.36657 0
M  V30 2358 C 220.744 2.32311 1.90924 0
M  V30 2359 C 222.292 2.37587 2.03768 0
M  V30 2360 C 222.767 3.62679 2.79693 0
M  V30 2361 N 224.258 3.63376 2.87249 0
M  V30 2362 C 224.993 4.56848 3.46522 0
M  V30 2363 N 224.489 5.60648 4.06996 0
M  V30 2364 N 226.282 4.44426 3.44154 0
M  V30 2365 H 218.433 2.09412 0.354993 0
M  V30 2366 H 220.696 0.922181 0.219742 0
M  V30 2367 H 220.402 3.23536 1.37905 0
M  V30 2368 H 220.276 2.39483 2.91424 0
M  V30 2369 H 222.663 1.46853 2.55965 0
M  V30 2370 H 222.744 2.34403 1.02415 0
M  V30 2371 H 222.388 4.53762 2.28173 0
M  V30 2372 H 222.318 3.63119 3.81381 0
M  V30 2373 H 224.809 2.88321 2.44293 0
M  V30 2374 H 225.122 6.28101 4.50232 0
M  V30 2375 H 223.467 5.64463 4.05471 0
M  V30 2376 H 226.658 3.62529 2.96126 0
M  V30 2377 H 226.831 5.17457 3.90054 0
M  V30 2378 N 220.237 -1.11381 1.11499 0
M  V30 2379 C 221.185 -2.19522 0.768956 0
M  V30 2380 C 222.179 -1.67693 -0.239857 0
M  V30 2381 O 223.385 -1.79727 -0.0990755 0
M  V30 2382 H 219.76 -0.715711 0.230786 0
M  V30 2383 H 221.731 -2.45954 1.68964 0
M  V30 2384 C 220.48 -3.46945 0.229073 0
M  V30 2385 H 219.803 -3.8718 0.996596 0
M  V30 2386 H 221.243 -4.23993 0.0251441 0
M  V30 2387 C 219.702 -3.2042 -1.04079 0
M  V30 2388 O 220.232 -3.41178 -2.12038 0
M  V30 2389 N 218.438 -2.74151 -0.963823 0
M  V30 2390 H 217.985 -2.57459 -0.0851722 0
M  V30 2391 H 217.943 -2.56781 -1.81414 0
M  V30 2392 N 221.715 -0.905404 -1.28997 0
M  V30 2393 C 222.662 -0.385892 -2.27551 0
M  V30 2394 C 223.632 0.535113 -1.57244 0
M  V30 2395 O 224.817 0.459119 -1.85194 0
M  V30 2396 C 221.957 0.375461 -3.43051 0
M  V30 2397 C 221.07 -0.577092 -4.28128 0
M  V30 2398 C 220.205 0.201879 -5.30816 0
M  V30 2399 C 219.244 -0.744829 -6.07551 0
M  V30 2400 N 218.381 9.42587e-05 -7.021 0
M  V30 2401 H 223.221 -1.23139 -2.71368 0
M  V30 2402 H 220.758 -0.618542 -1.33463 0
M  V30 2403 H 222.716 0.832992 -4.088 0
M  V30 2404 H 221.346 1.18537 -3.00248 0
M  V30 2405 H 220.398 -1.15315 -3.62501 0
M  V30 2406 H 221.71 -1.30152 -4.8152 0
M  V30 2407 H 220.864 0.720351 -6.02408 0
M  V30 2408 H 219.603 0.959413 -4.7817 0
M  V30 2409 H 218.608 -1.27475 -5.34818 0
M  V30 2410 H 219.833 -1.50178 -6.62286 0
M  V30 2411 H 217.779 0.739791 -6.51815 0
M  V30 2412 H 217.696 -0.664321 -7.53076 0
M  V30 2413 H 218.964 0.498644 -7.77903 0
M  V30 2414 N 223.193 1.4272 -0.668489 0
M  V30 2415 C 224.141 2.32586 0.0254857 0
M  V30 2416 C 225.135 1.49471 0.797176 0
M  V30 2417 O 226.341 1.65583 0.705853 0
M  V30 2418 H 222.716 0.751514 0.0270339 0
M  V30 2419 H 224.687 2.88823 -0.749936 0
M  V30 2420 C 223.436 3.3397 0.967427 0
M  V30 2421 H 222.759 3.97961 0.383048 0
M  V30 2422 H 224.199 3.9945 1.42181 0
M  V30 2423 C 222.658 2.65744 2.0708 0
M  V30 2424 O 223.188 2.48454 3.15648 0
M  V30 2425 N 221.394 2.2487 1.8407 0
M  V30 2426 H 220.941 2.39132 0.95778 0
M  V30 2427 H 220.899 1.79552 2.58086 0
M  V30 2428 N 224.671 0.411399 1.52136 0
M  V30 2429 C 225.948 -0.222308 1.94333 0
M  V30 2430 C 226.328 -1.6242 1.34844 0
M  V30 2431 O 225.676 -2.22384 0.525145 0
M  V30 2432 C 225.886 -0.226345 3.48265 0
M  V30 2433 C 227.234 -0.444592 4.22266 0
M  V30 2434 O 228.258 -0.305602 3.54887 0
M  V30 2435 O 227.117 -0.718749 5.41753 0
M  V30 2436 H 224.211 -0.143907 0.814383 0
M  V30 2437 H 226.757 0.467506 1.63133 0
M  V30 2438 H 225.529 0.75475 3.83952 0
M  V30 2439 H 225.152 -0.960163 3.85832 0
M  V30 2440 N 226.149 -1.5696 0.141893 0
M  V30 2441 C 227.426 -1.87553 -0.555281 0
M  V30 2442 C 227.806 -1.04699 -1.83306 0
M  V30 2443 O 227.154 -0.132346 -2.28116 0
M  V30 2444 C 227.364 -3.39093 -0.825664 0
M  V30 2445 C 228.712 -4.08199 -1.16869 0
M  V30 2446 O 229.736 -3.44242 -0.915185 0
M  V30 2447 O 228.595 -5.21139 -1.6455 0
M  V30 2448 H 225.689 -0.777188 -0.282679 0
M  V30 2449 H 228.235 -1.68763 0.17812 0
M  V30 2450 H 227.007 -3.91221 0.0788633 0
M  V30 2451 H 226.63 -3.63393 -1.61343 0
M  V30 2452 N 227.627 0.131896 -1.57047 0
M  V30 2453 C 228.56 1.19236 -1.94571 0
M  V30 2454 C 229.538 1.40782 -0.813576 0
M  V30 2455 O 230.722 1.55148 -1.07058 0
M  V30 2456 C 227.849 2.54858 -2.23081 0
M  V30 2457 C 226.895 2.49817 -3.45679 0
M  V30 2458 S 227.728 1.95036 -4.98719 0
M  V30 2459 C 228.884 3.32357 -5.30367 0
M  V30 2460 H 229.117 0.872297 -2.84215 0
M  V30 2461 H 226.65 0.338134 -1.50652 0
M  V30 2462 H 228.608 3.32898 -2.40185 0
M  V30 2463 H 227.269 2.84047 -1.34074 0
M  V30 2464 H 226.462 3.49688 -3.62952 0
M  V30 2465 H 226.064 1.79892 -3.27895 0
M  V30 2466 H 228.356 4.28525 -5.2476 0
M  V30 2467 H 229.299 3.19923 -6.31708 0
M  V30 2468 H 229.707 3.3019 -4.57859 0
M  V30 2469 N 229.106 1.52395 0.401703 0
M  V30 2470 C 230.352 1.67065 1.14966 0
M  V30 2471 C 230.685 0.403052 1.89971 0
M  V30 2472 O 229.96 -0.598774 1.85054 0
M  V30 2473 C 230.243 2.8975 2.13815 0
M  V30 2474 C 230.096 4.26578 1.42658 0
M  V30 2475 C 231.415 3.07965 3.14397 0
M  V30 2476 H 228.534 0.607968 0.416587 0
M  V30 2477 H 231.176 1.84965 0.434511 0
M  V30 2478 H 229.326 2.74619 2.74803 0
M  V30 2479 H 230.998 4.53451 0.847329 0
M  V30 2480 H 229.241 4.27639 0.72849 0
M  V30 2481 H 229.912 5.08483 2.14823 0
M  V30 2482 H 232.388 3.22043 2.63491 0
M  V30 2483 H 231.264 3.95308 3.80819 0
M  V30 2484 H 231.525 2.21611 3.82545 0
M  V30 2485 N 230.584 -0.659388 1.43143 0
M  V30 2486 C 231.995 -1.24041 1.39537 0
M  V30 2487 C 232.346 -1.95963 0.0963364 0
M  V30 2488 O 231.471 -2.00892 -0.804438 0
M  V30 2489 C 232.066 -2.25601 2.52764 0
M  V30 2490 C 230.625 -2.79195 2.52443 0
M  V30 2491 C 229.772 -1.53743 2.30778 0
M  V30 2492 H 232.723 -0.451792 1.52133 0
M  V30 2493 H 232.744 -3.07651 2.23899 0
M  V30 2494 H 232.256 -1.73226 3.47296 0
M  V30 2495 H 230.357 -3.35649 1.61773 0
M  V30 2496 H 230.47 -3.2716 3.50004 0
M  V30 2497 H 228.834 -1.80869 1.79328 0
M  V30 2498 H 229.617 -1.03312 3.27386 0
M  V30 2499 N 232.062 -1.29571 -0.897171 0
M  V30 2500 C 233.473 -1.15964 -1.46319 0
M  V30 2501 C 233.824 0.244267 -1.94674 0
M  V30 2502 O 232.949 1.13998 -1.83939 0
M  V30 2503 C 233.544 -2.09906 -2.65942 0
M  V30 2504 C 232.103 -2.00314 -3.18671 0
M  V30 2505 C 231.25 -2.00687 -1.91363 0
M  V30 2506 H 234.201 -1.42019 -0.708268 0
M  V30 2507 H 234.222 -1.67276 -3.41759 0
M  V30 2508 H 233.734 -3.12075 -2.30718 0
M  V30 2509 H 231.835 -1.01242 -3.58582 0
M  V30 2510 H 231.948 -2.88102 -3.82798 0
M  V30 2511 H 230.312 -1.45319 -2.09175 0
M  V30 2512 H 231.095 -3.04566 -1.58413 0
M  V30 2513 N 233.54 1.10788 -1.12088 0
M  V30 2514 C 234.788 1.8231 -0.872205 0
M  V30 2515 C 235.109 1.85419 0.603709 0
M  V30 2516 O 234.379 1.32963 1.43867 0
M  V30 2517 H 232.959 0.675137 -0.319686 0
M  V30 2518 H 235.621 1.34068 -1.41463 0
M  V30 2519 H 234.717 2.85955 -1.25045 0
M  V30 2520 N 235.018 0.912232 1.28515 0
M  V30 2521 C 235.965 0.397954 2.27343 0
M  V30 2522 C 236.935 -0.526766 1.57526 0
M  V30 2523 O 238.12 -0.449292 1.85435 0
M  V30 2524 C 235.26 -0.357263 3.43246 0
M  V30 2525 C 234.373 0.599788 4.27816 0
M  V30 2526 C 233.508 -0.173725 5.30916 0
M  V30 2527 C 232.547 0.777039 6.07148 0
M  V30 2528 N 231.684 0.0371398 7.0209 0
M  V30 2529 H 236.524 1.24577 2.70711 0
M  V30 2530 H 234.061 0.625612 1.33133 0
M  V30 2531 H 236.019 -0.8113 4.09236 0
M  V30 2532 H 234.649 -1.16943 3.00872 0
M  V30 2533 H 233.701 1.17235 3.61884 0
M  V30 2534 H 235.013 1.32704 4.80823 0
M  V30 2535 H 234.167 -0.688394 6.02782 0
M  V30 2536 H 232.906 -0.934041 4.78672 0
M  V30 2537 H 231.911 1.3031 5.34134 0
M  V30 2538 H 233.136 1.53689 6.61481 0
M  V30 2539 H 231.082 -0.705213 6.52198 0
M  V30 2540 H 230.999 0.704249 7.52713 0
M  V30 2541 H 232.267 -0.457383 7.78157 0
M  V30 2542 N 236.496 -1.42363 0.676048 0
M  V30 2543 C 237.444 -2.32596 -0.0131507 0
M  V30 2544 C 238.438 -1.49891 -0.789238 0
M  V30 2545 O 239.644 -1.65955 -0.697061 0
M  V30 2546 H 236.019 -0.751647 -0.0230481 0
M  V30 2547 H 237.99 -2.88421 0.765243 0
M  V30 2548 C 236.739 -3.34479 -0.949702 0
M  V30 2549 H 236.062 -3.98158 -0.361938 0
M  V30 2550 H 237.502 -4.00199 -1.4006 0
M  V30 2551 C 235.961 -2.66838 -2.05667 0
M  V30 2552 O 236.491 -2.50124 -3.14326 0
M  V30 2553 N 234.697 -2.25843 -1.82875 0
M  V30 2554 H 234.244 -2.39637 -0.945085 0
M  V30 2555 H 234.202 -1.80918 -2.5713 0
M  V30 2556 N 237.974 -0.419461 -1.51915 0
M  V30 2557 C 239.204 0.151915 -2.06041 0
M  V30 2558 C 239.612 1.38539 -1.28855 0
M  V30 2559 O 238.955 1.80592 -0.336463 0
M  V30 2560 C 239.017 0.557119 -3.55157 0
M  V30 2561 C 238.681 -0.567054 -4.53468 0
M  V30 2562 C 239.678 -1.43379 -4.99738 0
M  V30 2563 C 237.363 -0.742693 -4.96779 0
M  V30 2564 C 239.357 -2.46102 -5.87973 0
M  V30 2565 C 237.044 -1.77322 -5.84808 0
M  V30 2566 C 238.042 -2.63078 -6.30301 0
M  V30 2567 O 237.73 -3.64364 -7.16585 0
M  V30 2568 H 237.462 0.0193293 -0.675724 0
M  V30 2569 H 240.016 -0.592073 -1.96682 0
M  V30 2570 H 238.246 1.35355 -3.62238 0
M  V30 2571 H 239.935 1.05759 -3.9188 0
M  V30 2572 H 240.701 -1.30954 -4.66986 0
M  V30 2573 H 236.58 -0.0848307 -4.60922 0
M  V30 2574 H 240.124 -3.13071 -6.23404 0
M  V30 2575 H 236.021 -1.89773 -6.16974 0
M  V30 2576 H 236.789 -3.60731 -7.34721 0
M  V30 2577 N 239.452 1.56882 -0.150215 0
M  V30 2578 C 240.68 2.00593 0.506948 0
M  V30 2579 C 241.095 1.03033 1.58208 0
M  V30 2580 O 240.452 0.0278396 1.82479 0
M  V30 2581 C 240.503 3.44209 1.10465 0
M  V30 2582 O 240.224 4.3804 0.0724636 0
M  V30 2583 C 241.725 4.03214 1.84211 0
M  V30 2584 H 238.945 0.65795 0.13169 0
M  V30 2585 H 241.489 2.03018 -0.245743 0
M  V30 2586 H 239.644 3.42625 1.80795 0
M  V30 2587 H 240.058 5.22007 0.510793 0
M  V30 2588 H 241.532 5.0569 2.21318 0
M  V30 2589 H 242.009 3.44107 2.72923 0
M  V30 2590 H 242.615 4.08437 1.18572 0
M  V30 2591 N 240.93 -0.123565 1.57115 0
M  V30 2592 C 242.16 -0.845233 1.88519 0
M  V30 2593 C 242.568 -1.74168 0.739064 0
M  V30 2594 O 241.911 -1.81244 -0.299355 0
M  V30 2595 C 241.973 -1.73452 3.14888 0
M  V30 2596 C 241.637 -1.01285 4.45635 0
M  V30 2597 C 242.634 -0.355774 5.18681 0
M  V30 2598 C 240.319 -0.99538 4.92339 0
M  V30 2599 C 242.313 0.309114 6.3665 0
M  V30 2600 C 240 -0.32669 6.10226 0
M  V30 2601 C 240.998 0.324406 6.82229 0
M  V30 2602 O 240.686 0.982437 7.97874 0
M  V30 2603 H 240.418 -0.248534 0.628655 0
M  V30 2604 H 242.972 -0.113907 2.05084 0
M  V30 2605 H 241.202 -2.50737 2.94394 0
M  V30 2606 H 242.891 -2.33021 3.32349 0
M  V30 2607 H 243.657 -0.360918 4.83655 0
M  V30 2608 H 239.536 -1.49159 4.36202 0
M  V30 2609 H 243.08 0.8179 6.92789 0
M  V30 2610 H 238.977 -0.319294 6.4471 0
M  V30 2611 H 239.745 0.886454 8.13686 0
M  V30 2612 N 242.408 -1.52605 -0.393616 0
M  V30 2613 C 243.654 -1.67672 -1.14079 0
M  V30 2614 C 243.987 -0.413121 -1.89755 0
M  V30 2615 O 243.262 0.588952 -1.85369 0
M  V30 2616 C 243.545 -2.9088 -2.12276 0
M  V30 2617 C 243.398 -4.27329 -1.40394 0
M  V30 2618 C 244.717 -3.09628 -3.12759 0
M  V30 2619 H 241.836 -0.610168 -0.413356 0
M  V30 2620 H 244.478 -1.85193 -0.424696 0
M  V30 2621 H 242.628 -2.76073 -2.73342 0
M  V30 2622 H 244.3 -4.53894 -0.82327 0
M  V30 2623 H 242.543 -4.2802 -0.705801 0
M  V30 2624 H 243.214 -5.09615 -2.12123 0
M  V30 2625 H 245.69 -3.23436 -2.61779 0
M  V30 2626 H 244.566 -3.97322 -3.78717 0
M  V30 2627 H 244.827 -2.23637 -3.81365 0
M  V30 2628 N 243.887 0.651787 -1.4349 0
M  V30 2629 C 245.133 1.4121 -1.46395 0
M  V30 2630 C 245.488 1.92202 -0.087366 0
M  V30 2631 O 244.781 1.69452 0.894231 0
M  V30 2632 C 244.975 2.60914 -2.44251 0
M  V30 2633 C 244.804 2.21639 -3.91288 0
M  V30 2634 C 243.574 2.09897 -4.59643 0
M  V30 2635 C 245.772 1.81835 -4.81083 0
M  V30 2636 N 243.754 1.63967 -5.91598 0
M  V30 2637 C 245.125 1.46998 -6.02322 0
M  V30 2638 C 247.18 1.69031 -4.6833 0
M  V30 2639 C 245.883 1.00638 -7.12225 0
M  V30 2640 C 247.909 1.24077 -5.78238 0
M  V30 2641 C 247.271 0.901772 -6.98604 0
M  V30 2642 H 243.37 0.512322 -0.590805 0
M  V30 2643 H 245.954 0.74989 -1.7968 0
M  V30 2644 H 244.125 3.24792 -2.1299 0
M  V30 2645 H 245.857 3.27622 -2.37584 0
M  V30 2646 H 242.612 2.297 -4.14168 0
M  V30 2647 H 243.036 1.43359 -6.61647 0
M  V30 2648 H 247.678 1.93878 -3.75727 0
M  V30 2649 H 245.396 0.745399 -8.04655 0
M  V30 2650 H 248.982 1.14657 -5.7039 0
M  V30 2651 H 247.862 0.559226 -7.82203 0
M  V30 2652 N 245.365 1.30045 0.890287 0
M  V30 2653 C 246.776 1.16738 1.45702 0
M  V30 2654 C 247.127 -0.233939 1.948 0
M  V30 2655 O 246.252 -1.13021 1.84541 0
M  V30 2656 C 246.847 2.11313 2.64825 0
M  V30 2657 C 245.406 2.02001 3.17604 0
M  V30 2658 C 244.553 2.01699 1.90296 0
M  V30 2659 H 247.504 1.42392 0.700726 0
M  V30 2660 H 247.525 1.69086 3.40867 0
M  V30 2661 H 247.037 3.13294 2.2906 0
M  V30 2662 H 245.138 1.03142 3.5804 0
M  V30 2663 H 245.251 2.90128 3.81264 0
M  V30 2664 H 243.615 1.46427 2.08402 0
M  V30 2665 H 244.398 3.05402 1.56795 0
M  V30 2666 N 246.843 -1.10192 1.12674 0
M  V30 2667 C 248.089 -1.82475 0.884915 0
M  V30 2668 C 248.422 -1.85093 -0.58773 0
M  V30 2669 O 247.697 -1.3134 -1.43457 0
M  V30 2670 C 247.98 -3.29018 1.46353 0
M  V30 2671 C 247.833 -3.34718 3.00473 0
M  V30 2672 C 249.152 -4.25473 1.12519 0
M  V30 2673 H 246.271 -0.662492 0.322915 0
M  V30 2674 H 248.913 -1.2913 1.39375 0
M  V30 2675 H 247.063 -3.74576 1.03077 0
M  V30 2676 H 248.735 -2.97622 3.52447 0
M  V30 2677 H 246.978 -2.74541 3.35872 0
M  V30 2678 H 247.649 -4.37918 3.36053 0
M  V30 2679 H 250.125 -3.88161 1.499 0
M  V30 2680 H 249.001 -5.26365 1.55663 0
M  V30 2681 H 249.262 -4.42084 0.0377407 0
M  V30 2682 N 248.321 -0.919034 -1.28029 0
M  V30 2683 C 249.737 -0.617972 -1.4715 0
M  V30 2684 C 249.937 0.835242 -1.83374 0
M  V30 2685 O 248.993 1.61388 -1.94191 0
M  V30 2686 C 250.306 -1.56041 -2.57044 0
M  V30 2687 C 251.854 -1.56769 -2.7091 0
M  V30 2688 C 252.329 -2.49688 -3.83953 0
M  V30 2689 N 253.82 -2.47845 -3.91314 0
M  V30 2690 C 254.555 -3.16437 -4.78179 0
M  V30 2691 N 254.051 -3.94376 -5.69596 0
M  V30 2692 N 255.844 -3.05498 -4.71834 0
M  V30 2693 H 247.995 -1.85866 -1.02798 0
M  V30 2694 H 250.258 -0.797506 -0.512531 0
M  V30 2695 H 249.964 -2.59671 -2.372 0
M  V30 2696 H 249.838 -1.29551 -3.54255 0
M  V30 2697 H 252.225 -0.538745 -2.90141 0
M  V30 2698 H 252.306 -1.87305 -1.74214 0
M  V30 2699 H 251.95 -3.52688 -3.65477 0
M  V30 2700 H 251.88 -2.16453 -4.80058 0
M  V30 2701 H 254.371 -1.91234 -3.25941 0
M  V30 2702 H 254.684 -4.43721 -6.32718 0
M  V30 2703 H 253.029 -3.98481 -5.69419 0
M  V30 2704 H 256.22 -2.44108 -3.99411 0
M  V30 2705 H 256.393 -3.59225 -5.39316 0
M  V30 2706 N 249.799 1.42003 -0.683588 0
M  V30 2707 C 250.709 2.34597 -0.0109075 0
M  V30 2708 C 251.725 1.55576 0.779245 0
M  V30 2709 O 252.901 1.88107 0.719555 0
M  V30 2710 C 249.966 3.34199 0.922588 0
M  V30 2711 C 249.027 4.29115 0.125984 0
M  V30 2712 C 248.26 5.23959 1.01502 0
M  V30 2713 O 248.483 5.23952 2.25456 0
M  V30 2714 O 247.417 6.00053 0.47111 0
M  V30 2715 H 251.243 2.93675 -0.773853 0
M  V30 2716 H 248.828 1.42654 -0.443861 0
M  V30 2717 H 250.71 3.95365 1.45823 0
M  V30 2718 H 249.385 2.77582 1.66523 0
M  V30 2719 H 248.292 3.71335 -0.453969 0
M  V30 2720 H 249.625 4.88798 -0.577736 0
M  V30 2721 N 251.277 0.427512 1.51691 0
M  V30 2722 C 252.187 -0.39527 2.31246 0
M  V30 2723 C 253.203 -1.03674 1.39742 0
M  V30 2724 O 254.379 -1.03425 1.72816 0
M  V30 2725 C 251.444 -1.48706 3.13189 0
M  V30 2726 C 250.505 -0.866743 4.20459 0
M  V30 2727 C 249.738 -1.90651 4.98486 0
M  V30 2728 O 249.961 -3.12733 4.77026 0
M  V30 2729 O 248.895 -1.5025 5.82845 0
M  V30 2730 H 252.721 0.253918 3.02637 0
M  V30 2731 H 250.306 0.190274 1.48183 0
M  V30 2732 H 252.188 -2.12047 3.64162 0
M  V30 2733 H 250.863 -2.12051 2.44573 0
M  V30 2734 H 249.77 -0.195544 3.73589 0
M  V30 2735 H 251.103 -0.276934 4.9142 0
M  V30 2736 N 252.755 -1.56801 0.158532 0
M  V30 2737 C 253.985 -2.00568 -0.495583 0
M  V30 2738 C 254.393 -1.03774 -1.58201 0
M  V30 2739 O 253.736 -0.0285797 -1.83678 0
M  V30 2740 C 253.798 -3.40768 -1.14532 0
M  V30 2741 C 253.462 -4.56553 -0.202101 0
M  V30 2742 C 254.459 -5.16714 0.574675 0
M  V30 2743 C 252.144 -5.02197 -0.101648 0
M  V30 2744 C 254.138 -6.20939 1.43924 0
M  V30 2745 C 251.825 -6.06274 0.766508 0
M  V30 2746 C 252.823 -6.65515 1.53555 0
M  V30 2747 O 252.511 -7.67575 2.38922 0
M  V30 2748 H 252.243 -0.662893 -0.13247 0
M  V30 2749 H 254.797 -2.03829 0.253559 0
M  V30 2750 H 253.027 -3.34381 -1.94233 0
M  V30 2751 H 254.716 -3.6857 -1.70033 0
M  V30 2752 H 255.482 -4.82341 0.507167 0
M  V30 2753 H 251.361 -4.55807 -0.689994 0
M  V30 2754 H 254.905 -6.67107 2.03996 0
M  V30 2755 H 250.802 -6.40073 0.835266 0
M  V30 2756 H 251.57 -7.84844 2.32296 0
M  V30 2757 N 254.233 0.115231 -1.57178 0
M  V30 2758 C 255.196 1.12526 -1.99676 0
M  V30 2759 C 256.196 1.34095 -0.88742 0
M  V30 2760 O 257.386 1.30548 -1.15337 0
M  V30 2761 C 254.518 2.4789 -2.34015 0
M  V30 2762 H 255.711 0.759912 -2.90113 0
M  V30 2763 H 253.264 0.359648 -1.52106 0
M  V30 2764 H 253.999 2.89339 -1.4647 0
M  V30 2765 H 253.784 2.33588 -3.14927 0
M  V30 2766 H 255.274 3.20575 -2.67622 0
M  V30 2767 N 255.711 1.52812 0.385517 0
M  V30 2768 C 257.122 1.5993 0.963293 0
M  V30 2769 C 257.473 0.454302 1.90868 0
M  V30 2770 O 256.598 -0.422132 2.12243 0
M  V30 2771 C 257.193 2.89871 1.75387 0
M  V30 2772 C 255.752 2.99389 2.28129 0
M  V30 2773 C 254.899 2.55071 1.08783 0
M  V30 2774 H 257.85 1.5784 0.164948 0
M  V30 2775 H 257.871 2.76553 2.61341 0
M  V30 2776 H 257.383 3.73186 1.06554 0
M  V30 2777 H 255.484 2.20619 3.00263 0
M  V30 2778 H 255.597 4.04096 2.57377 0
M  V30 2779 H 253.961 2.09473 1.4489 0
M  V30 2780 H 254.744 3.40785 0.414807 0
M  V30 2781 N 257.189 -0.644168 1.43834 0
M  V30 2782 C 258.417 -1.43147 1.49387 0
M  V30 2783 C 258.832 -1.88452 0.114583 0
M  V30 2784 O 258.189 -1.60047 -0.876989 0
M  V30 2785 C 258.24 -2.66046 2.44748 0
M  V30 2786 O 257.961 -2.22633 3.77314 0
M  V30 2787 C 259.462 -3.59311 2.59635 0
M  V30 2788 H 256.682 -0.439447 0.507077 0
M  V30 2789 H 259.226 -0.78895 1.88669 0
M  V30 2790 H 257.381 -3.26418 2.08638 0
M  V30 2791 H 257.795 -3.02216 4.28679 0
M  V30 2792 H 259.269 -4.42187 3.30416 0
M  V30 2793 H 259.746 -4.07259 1.64427 0
M  V30 2794 H 260.352 -3.04816 2.96593 0
M  V30 2795 N 258.668 -1.30515 -0.883378 0
M  V30 2796 C 260.079 -1.17509 -1.45081 0
M  V30 2797 C 260.43 0.223605 -1.94922 0
M  V30 2798 O 259.555 1.12041 -1.85137 0
M  V30 2799 C 260.15 -2.12715 -2.63701 0
M  V30 2800 C 258.709 -2.03682 -3.16529 0
M  V30 2801 C 257.856 -2.02706 -1.89224 0
M  V30 2802 H 260.807 -1.42762 -0.693165 0
M  V30 2803 H 260.828 -1.70891 -3.39965 0
M  V30 2804 H 260.34 -3.14505 -2.27395 0
M  V30 2805 H 258.441 -1.05039 -3.57488 0
M  V30 2806 H 258.554 -2.92146 -3.7972 0
M  V30 2807 H 256.918 -1.4753 -2.07622 0
M  V30 2808 H 257.701 -3.06229 -1.55174 0
M  V30 2809 N 260.146 1.09593 -1.13257 0
M  V30 2810 C 261.109 2.14359 -0.811358 0
M  V30 2811 C 262.109 1.59808 0.178377 0
M  V30 2812 O 263.299 1.74132 -0.0484911 0
M  V30 2813 C 260.431 3.40269 -0.207276 0
M  V30 2814 H 261.624 2.44284 -1.73969 0
M  V30 2815 H 259.177 1.25102 -0.936973 0
M  V30 2816 H 259.912 3.15969 0.73036 0
M  V30 2817 H 259.697 3.81154 -0.919992 0
M  V30 2818 H 261.187 4.176 0.000667944 0
M  V30 2819 N 261.624 0.925811 1.2754 0
M  V30 2820 C 262.901 0.483726 1.89524 0
M  V30 2821 C 263.281 -1.03809 1.83812 0
M  V30 2822 O 262.629 -1.89143 1.28207 0
M  V30 2823 C 262.839 1.02769 3.33526 0
M  V30 2824 C 264.187 1.08703 4.10449 0
M  V30 2825 O 265.211 0.977175 3.42534 0
M  V30 2826 O 264.07 1.25599 5.31871 0
M  V30 2827 H 261.164 0.15529 0.812289 0
M  V30 2828 H 263.71 1.01738 1.35822 0
M  V30 2829 H 262.482 2.07155 3.31967 0
M  V30 2830 H 262.105 0.475567 3.94746 0
M  V30 2831 N 263.102 -1.41638 0.69111 0
M  V30 2832 C 264.065 -2.29178 0.0319786 0
M  V30 2833 C 265.065 -1.44153 -0.712496 0
M  V30 2834 O 266.255 -1.65354 -0.548053 0
M  V30 2835 C 263.387 -3.26952 -0.965161 0
M  V30 2836 H 264.58 -2.88959 0.802681 0
M  V30 2837 H 262.133 -1.4955 0.454356 0
M  V30 2838 H 262.868 -2.72142 -1.76378 0
M  V30 2839 H 262.653 -3.89685 -0.434522 0
M  V30 2840 H 264.143 -3.92561 -1.42428 0
M  V30 2841 N 264.58 -0.43555 -1.51462 0
M  V30 2842 C 265.528 0.391205 -2.29287 0
M  V30 2843 C 266.522 1.02247 -1.35062 0
M  V30 2844 O 267.728 0.957646 -1.52411 0
M  V30 2845 H 264.103 0.144968 -0.737895 0
M  V30 2846 H 266.074 -0.286051 -2.97026 0
M  V30 2847 C 264.823 1.48096 -3.14583 0
M  V30 2848 H 264.146 1.00457 -3.86973 0
M  V30 2849 H 265.586 2.03273 -3.72097 0
M  V30 2850 C 264.045 2.46321 -2.29843 0
M  V30 2851 O 264.575 3.50815 -1.95682 0
M  V30 2852 N 262.781 2.17166 -1.931 0
M  V30 2853 H 262.328 1.32218 -2.21079 0
M  V30 2854 H 262.286 2.83127 -1.36698 0
M  V30 2855 N 266.058 1.56714 -0.166846 0
M  V30 2856 C 267.298 1.98641 0.481763 0
M  V30 2857 C 267.662 1.05038 1.6072 0
M  V30 2858 O 268.863 1.36087 2.31805 0
M  V30 2859 C 267.134 3.44362 0.956517 0
M  V30 2860 S 268.693 4.08317 1.60694 0
M  V30 2861 H 265.511 0.693873 0.155116 0
M  V30 2862 H 268.113 1.93719 -0.263251 0
M  V30 2863 H 266.817 4.10204 0.126936 0
M  V30 2864 H 266.348 3.53041 1.73568 0
M  V30 2865 H 268.363 4.02999 2.89494 0
M  V30 2866 N 267.536 -0.106894 1.57237 0
M  V30 2867 C 268.466 -1.13148 2.04254 0
M  V30 2868 C 269.447 -1.42476 0.929224 0
M  V30 2869 O 270.632 -1.52709 1.19973 0
M  V30 2870 C 267.762 -2.4545 2.45706 0
M  V30 2871 C 266.716 -2.30558 3.60592 0
M  V30 2872 C 266.042 -3.67931 3.87983 0
M  V30 2873 C 267.342 -1.75597 4.91897 0
M  V30 2874 H 269.036 -0.740374 2.90101 0
M  V30 2875 H 266.582 -0.354696 1.39563 0
M  V30 2876 H 268.535 -3.17389 2.77205 0
M  V30 2877 H 267.259 -2.86475 1.56843 0
M  V30 2878 H 265.918 -1.61067 3.29322 0
M  V30 2879 H 265.566 -4.06462 2.96306 0
M  V30 2880 H 265.266 -3.58817 4.65322 0
M  V30 2881 H 266.79 -4.41356 4.21945 0
M  V30 2882 H 268.204 -2.37364 5.21854 0
M  V30 2883 H 266.601 -1.77272 5.73319 0
M  V30 2884 H 267.671 -0.714451 4.79608 0
M  V30 2885 N 269.014 -1.53014 -0.377408 0
M  V30 2886 C 270.242 -1.72515 -1.14219 0
M  V30 2887 C 270.657 -0.448735 -1.8339 0
M  V30 2888 O 270.014 0.577592 -1.73119 0
M  V30 2889 C 270.065 -2.8826 -2.18148 0
M  V30 2890 O 269.786 -4.10962 -1.51795 0
M  V30 2891 C 271.287 -3.19536 -3.07264 0
M  V30 2892 H 268.507 -0.577301 -0.342001 0
M  V30 2893 H 271.051 -1.99712 -0.439935 0
M  V30 2894 H 269.206 -2.63492 -2.83991 0
M  V30 2895 H 269.62 -4.75693 -2.20945 0
M  V30 2896 H 271.094 -4.03959 -3.76193 0
M  V30 2897 H 271.571 -2.34403 -3.71419 0
M  V30 2898 H 272.177 -3.46186 -2.47053 0
M  V30 2899 N 270.492 0.636531 -1.44174 0
M  V30 2900 C 271.738 1.39649 -1.47884 0
M  V30 2901 C 272.093 1.92098 -0.107747 0
M  V30 2902 O 271.386 1.70391 0.876208 0
M  V30 2903 C 271.58 2.58309 -2.47005 0
M  V30 2904 C 271.409 2.17476 -3.93617 0
M  V30 2905 C 270.179 2.0501 -4.61843 0
M  V30 2906 C 272.377 1.76722 -4.82984 0
M  V30 2907 N 270.359 1.57683 -5.93304 0
M  V30 2908 C 271.73 1.40601 -6.03847 0
M  V30 2909 C 273.785 1.64054 -4.70096 0
M  V30 2910 C 272.488 0.930787 -7.13252 0
M  V30 2911 C 274.514 1.17937 -5.79521 0
M  V30 2912 C 273.876 0.827625 -6.99521 0
M  V30 2913 H 269.975 0.506027 -0.596205 0
M  V30 2914 H 272.559 0.730791 -1.80465 0
M  V30 2915 H 270.73 3.22514 -2.16423 0
M  V30 2916 H 272.462 3.25083 -2.41045 0
M  V30 2917 H 269.217 2.25294 -4.16581 0
M  V30 2918 H 269.641 1.36334 -6.63131 0
M  V30 2919 H 274.283 1.89882 -3.77762 0
M  V30 2920 H 272.001 0.660012 -8.054 0
M  V30 2921 H 275.587 1.08601 -5.71574 0
M  V30 2922 H 274.467 0.476231 -7.82753 0
M  V30 2923 N 271.97 1.30982 0.876444 0
M  V30 2924 C 273.216 1.20474 1.63138 0
M  V30 2925 C 273.549 -0.238096 1.92735 0
M  V30 2926 O 272.824 -1.1692 1.55435 0
M  V30 2927 C 273.107 2.04244 2.96574 0
M  V30 2928 C 272.96 3.56793 2.73896 0
M  V30 2929 C 274.279 1.88684 3.97601 0
M  V30 2930 H 271.398 0.439001 0.591985 0
M  V30 2931 H 274.04 1.60704 1.01361 0
M  V30 2932 H 272.19 1.70063 3.493 0
M  V30 2933 H 273.862 4.01077 2.27892 0
M  V30 2934 H 272.105 3.80548 2.08245 0
M  V30 2935 H 272.776 4.10706 3.68815 0
M  V30 2936 H 275.252 2.18584 3.54062 0
M  V30 2937 H 274.128 2.4961 4.88862 0
M  V30 2938 H 274.389 0.848343 4.33884 0
M  V30 2939 N 273.449 -1.08991 1.13837 0
M  V30 2940 C 274.679 -1.84743 0.924859 0
M  V30 2941 C 275.087 -1.81629 -0.529874 0
M  V30 2942 O 274.43 -1.21397 -1.37872 0
M  V30 2943 C 274.492 -3.33568 1.34061 0
M  V30 2944 C 274.156 -3.60425 2.80968 0
M  V30 2945 C 275.153 -3.55771 3.79108 0
M  V30 2946 C 272.838 -3.88627 3.18236 0
M  V30 2947 C 274.832 -3.78939 5.12527 0
M  V30 2948 C 272.519 -4.11449 4.51833 0
M  V30 2949 C 273.517 -4.06598 5.48787 0
M  V30 2950 O 273.205 -4.28826 6.79973 0
M  V30 2951 H 272.937 -0.590258 0.329502 0
M  V30 2952 H 275.491 -1.38598 1.51591 0
M  V30 2953 H 273.721 -3.80442 0.692853 0
M  V30 2954 H 275.41 -3.90743 1.09886 0
M  V30 2955 H 276.176 -3.34005 3.51661 0
M  V30 2956 H 272.055 -3.91526 2.43369 0
M  V30 2957 H 275.599 -3.75068 5.88192 0
M  V30 2958 H 271.496 -4.32698 4.79002 0
M  V30 2959 H 272.264 -4.46264 6.86142 0
M  V30 2960 N 274.927 -0.932562 -1.27047 0
M  V30 2961 C 275.877 -0.406392 -2.24349 0
M  V30 2962 C 276.861 0.492066 -1.53191 0
M  V30 2963 O 278.053 0.328717 -1.73921 0
M  V30 2964 C 275.182 0.335214 -3.41659 0
M  V30 2965 C 274.268 -0.58004 -4.20115 0
M  V30 2966 N 274.659 -1.70203 -4.76303 0
M  V30 2967 C 272.957 -0.383974 -4.44344 0
M  V30 2968 C 273.658 -2.27167 -5.35509 0
M  V30 2969 N 272.634 -1.56068 -5.20715 0
M  V30 2970 H 276.436 -1.26299 -2.65378 0
M  V30 2971 H 273.95 -0.787408 -1.42034 0
M  V30 2972 H 275.947 0.729142 -4.10474 0
M  V30 2973 H 274.607 1.18868 -3.0216 0
M  V30 2974 H 275.618 -2.08433 -4.74106 0
M  V30 2975 H 272.295 0.428436 -4.15296 0
M  V30 2976 H 273.685 -3.21654 -5.89905 0
M  V30 2977 N 276.405 1.4127 -0.698611 0
M  V30 2978 C 277.63 2.06024 -0.238512 0
M  V30 2979 C 278.055 1.5224 1.10475 0
M  V30 2980 O 277.413 0.650623 1.69223 0
M  V30 2981 C 277.461 3.59988 -0.209952 0
M  V30 2982 O 276.565 4.04282 0.814235 0
M  V30 2983 H 275.906 0.653829 -0.115775 0
M  V30 2984 H 278.436 1.8098 -0.954326 0
M  V30 2985 H 278.446 4.07979 -0.0418436 0
M  V30 2986 H 277.121 3.98503 -1.1903 0
M  V30 2987 H 275.698 3.6779 0.615234 0
M  V30 2988 N 277.883 0.443576 1.51229 0
M  V30 2989 C 278.833 -0.382787 2.24764 0
M  V30 2990 C 279.817 -0.984836 1.27239 0
M  V30 2991 O 281.009 -0.901943 1.52296 0
M  V30 2992 C 278.138 -1.47989 3.09765 0
M  V30 2993 C 277.224 -0.886931 4.14722 0
M  V30 2994 N 277.615 -0.0237103 5.05794 0
M  V30 2995 C 275.913 -1.15385 4.30816 0
M  V30 2996 C 276.614 0.309971 5.80874 0
M  V30 2997 N 275.59 -0.307989 5.42727 0
M  V30 2998 H 279.392 0.282624 2.92538 0
M  V30 2999 H 276.906 0.256027 1.60369 0
M  V30 3000 H 278.903 -2.08482 3.61027 0
M  V30 3001 H 277.563 -2.14758 2.43535 0
M  V30 3002 H 278.574 0.34318 5.16762 0
M  V30 3003 H 275.251 -1.81857 3.75812 0
M  V30 3004 H 276.641 1.01279 6.64223 0
M  V30 3005 N 279.361 -1.56624 0.175154 0
M  V30 3006 C 280.61 -1.96173 -0.468921 0
M  V30 3007 C 280.923 -1.06401 -1.64128 0
M  V30 3008 O 282.129 -1.35648 -2.35185 0
M  V30 3009 C 280.585 -3.48833 -0.885633 0
M  V30 3010 C 280.193 -4.47237 0.261343 0
M  V30 3011 C 281.937 -3.97194 -1.49791 0
M  V30 3012 C 279.844 -5.9114 -0.175214 0
M  V30 3013 H 278.774 -0.732455 -0.178958 0
M  V30 3014 H 281.425 -1.81591 0.263997 0
M  V30 3015 H 279.807 -3.58848 -1.67464 0
M  V30 3016 H 280.981 -4.4894 1.03871 0
M  V30 3017 H 279.296 -4.08956 0.783827 0
M  V30 3018 H 281.893 -5.02167 -1.83665 0
M  V30 3019 H 282.236 -3.40351 -2.39722 0
M  V30 3020 H 282.769 -3.90212 -0.773267 0
M  V30 3021 H 279.508 -6.51865 0.689414 0
M  V30 3022 H 279.028 -5.92735 -0.91786 0
M  V30 3023 H 280.707 -6.44044 -0.617792 0
M  V30 3024 N 280.839 0.0985539 -1.57292 0
M  V30 3025 C 282.116 0.834155 -1.76921 0
M  V30 3026 C 282.496 1.97101 -0.755928 0
M  V30 3027 O 281.844 2.27474 0.216245 0
M  V30 3028 C 282.054 1.33194 -3.22584 0
M  V30 3029 C 283.402 1.77611 -3.85668 0
M  V30 3030 O 284.426 1.42825 -3.26312 0
M  V30 3031 O 283.285 2.4192 -4.90038 0
M  V30 3032 H 280.379 0.397628 -0.725135 0
M  V30 3033 H 282.925 0.0807044 -1.69508 0
M  V30 3034 H 281.697 0.517248 -3.87866 0
M  V30 3035 H 281.32 2.1475 -3.34616 0
M  V30 3036 N 282.317 1.53212 0.369288 0
M  V30 3037 C 283.28 1.7872 1.43498 0
M  V30 3038 C 284.28 0.657554 1.46741 0
M  V30 3039 O 285.47 0.925736 1.47566 0
M  V30 3040 C 282.602 1.90591 2.82645 0
M  V30 3041 H 283.795 2.73894 1.22156 0
M  V30 3042 H 281.348 1.44233 0.602203 0
M  V30 3043 H 282.083 0.974709 3.09306 0
M  V30 3044 H 281.868 2.72751 2.8169 0
M  V30 3045 H 283.358 2.11931 3.59826 0
M  V30 3046 N 283.795 -0.628877 1.44509 0
M  V30 3047 C 285.206 -1.21054 1.42137 0
M  V30 3048 C 285.557 -1.95715 0.137881 0
M  V30 3049 O 284.682 -2.02554 -0.761645 0
M  V30 3050 C 285.277 -2.20189 2.57493 0
M  V30 3051 C 283.836 -2.73777 2.58308 0
M  V30 3052 C 282.983 -1.48813 2.33987 0
M  V30 3053 H 285.934 -0.41942 1.53057 0
M  V30 3054 H 285.955 -3.02833 2.30375 0
M  V30 3055 H 285.467 -1.6582 3.50892 0
M  V30 3056 H 283.568 -3.32142 1.68856 0
M  V30 3057 H 283.681 -3.19662 3.56865 0
M  V30 3058 H 282.045 -1.77024 1.83124 0
M  V30 3059 H 282.828 -0.963442 3.29504 0
M  V30 3060 N 285.273 -1.31445 -0.869486 0
M  V30 3061 C 286.22 -1.19135 -1.97675 0
M  V30 3062 C 287.19 -0.0770266 -1.65921 0
M  V30 3063 O 288.375 -0.249972 -1.89155 0
M  V30 3064 C 285.515 -0.905149 -3.33018 0
M  V30 3065 C 284.628 -2.10285 -3.77365 0
M  V30 3066 C 283.763 -1.75339 -5.01427 0
M  V30 3067 C 282.802 -2.91515 -5.38224 0
M  V30 3068 N 281.939 -2.56762 -6.53466 0
M  V30 3069 H 286.779 -2.13853 -2.07535 0
M  V30 3070 H 284.316 -1.06379 -1.01597 0
M  V30 3071 H 286.274 -0.719765 -4.10944 0
M  V30 3072 H 284.904 0.00519624 -3.228 0
M  V30 3073 H 283.956 -2.39899 -2.95216 0
M  V30 3074 H 285.268 -2.97237 -4.00564 0
M  V30 3075 H 284.422 -1.53266 -5.87022 0
M  V30 3076 H 283.161 -0.855801 -4.80133 0
M  V30 3077 H 282.166 -3.14237 -4.51149 0
M  V30 3078 H 283.391 -3.81985 -5.61484 0
M  V30 3079 H 281.337 -1.69526 -6.33717 0
M  V30 3080 H 281.254 -3.37243 -6.76612 0
M  V30 3081 H 282.522 -2.38083 -7.42251 0
M  V30 3082 N 286.751 1.08385 -1.14413 0
M  V30 3083 C 288.028 1.77429 -0.823297 0
M  V30 3084 C 288.408 1.9974 0.683163 0
M  V30 3085 O 287.756 1.60739 1.62405 0
M  V30 3086 C 287.966 3.09004 -1.62227 0
M  V30 3087 C 289.314 3.83532 -1.82177 0
M  V30 3088 O 290.338 3.18786 -1.58915 0
M  V30 3089 O 289.197 4.99792 -2.21067 0
M  V30 3090 H 286.291 0.769999 -0.301712 0
M  V30 3091 H 288.837 1.14846 -1.24934 0
M  V30 3092 H 287.609 2.88316 -2.64555 0
M  V30 3093 H 287.232 3.79316 -1.19187 0
M  V30 3094 N 288.23 0.939286 1.26551 0
M  V30 3095 C 289.479 0.581601 1.93133 0
M  V30 3096 C 289.792 -0.883224 1.74524 0
M  V30 3097 O 290.998 -1.3502 2.35546 0
M  V30 3098 C 289.454 0.989425 3.46032 0
M  V30 3099 C 289.062 2.47573 3.73379 0
M  V30 3100 C 290.806 0.703544 4.18629 0
M  V30 3101 C 288.713 2.82235 5.19709 0
M  V30 3102 H 287.643 0.213803 0.723052 0
M  V30 3103 H 290.294 1.14167 1.4366 0
M  V30 3104 H 288.676 0.357902 3.94379 0
M  V30 3105 H 289.85 3.15614 3.35744 0
M  V30 3106 H 288.165 2.73471 3.1401 0
M  V30 3107 H 290.762 0.938869 5.26393 0
M  V30 3108 H 291.105 -0.359639 4.14744 0
M  V30 3109 H 291.638 1.2947 3.76141 0
M  V30 3110 H 288.377 3.87509 5.28694 0
M  V30 3111 H 287.897 2.18854 5.58447 0
M  V30 3112 H 289.576 2.70599 5.87695 0
M  V30 3113 N 289.708 -1.40897 0.706093 0
M  V30 3114 C 290.948 -2.02916 0.245827 0
M  V30 3115 C 291.312 -1.54751 -1.13649 0
M  V30 3116 O 292.513 -2.08768 -1.69321 0
M  V30 3117 C 290.784 -3.56031 0.312537 0
M  V30 3118 S 292.343 -4.38741 -0.0721388 0
M  V30 3119 H 289.161 -0.704186 0.0982007 0
M  V30 3120 H 291.763 -1.72168 0.926207 0
M  V30 3121 H 290.467 -3.88579 1.32039 0
M  V30 3122 H 289.998 -3.91495 -0.386641 0
M  V30 3123 H 292.013 -4.78952 -1.29692 0
M  V30 3124 N 291.186 -0.45159 -1.50991 0
M  V30 3125 C 292.411 0.110667 -2.07105 0
M  V30 3126 C 292.836 1.3446 -1.31538 0
M  V30 3127 O 292.194 1.77743 -0.357365 0
M  V30 3128 C 292.242 0.397238 -3.58405 0
M  V30 3129 O 291.346 1.48124 -3.84881 0
M  V30 3130 H 290.687 -0.00439271 -0.663985 0
M  V30 3131 H 293.217 -0.637026 -1.9443 0
M  V30 3132 H 293.227 0.64351 -4.02893 0
M  V30 3133 H 291.902 -0.504553 -4.12828 0
M  V30 3134 H 290.479 1.22381 -3.52246 0
M  V30 3135 N 292.664 1.56529 -0.183458 0
M  V30 3136 C 293.912 1.96855 0.457452 0
M  V30 3137 C 294.233 1.07104 1.62953 0
M  V30 3138 O 293.503 0.139887 1.954 0
M  V30 3139 H 292.083 0.72693 0.171992 0
M  V30 3140 H 294.745 1.93056 -0.267476 0
M  V30 3141 H 293.841 3.01423 0.809368 0
M  V30 3142 N 294.142 -0.090211 1.57342 0
M  V30 3143 C 295.072 -1.10976 2.05443 0
M  V30 3144 C 296.053 -1.41482 0.944284 0
M  V30 3145 O 297.238 -1.51428 1.21586 0
M  V30 3146 C 294.368 -2.42831 2.48295 0
M  V30 3147 C 293.322 -2.26721 3.63018 0
M  V30 3148 C 292.648 -3.63796 3.91863 0
M  V30 3149 C 293.948 -1.7037 4.93732 0
M  V30 3150 H 295.642 -0.709564 2.9087 0
M  V30 3151 H 293.188 -0.339874 1.39932 0
M  V30 3152 H 295.141 -3.14431 2.80555 0
M  V30 3153 H 293.865 -2.84795 1.59873 0
M  V30 3154 H 292.524 -1.57565 3.31012 0
M  V30 3155 H 292.172 -4.03297 3.00601 0
M  V30 3156 H 291.872 -3.53861 4.69101 0
M  V30 3157 H 293.396 -4.36855 4.26603 0
M  V30 3158 H 294.81 -2.31816 5.24342 0
M  V30 3159 H 293.207 -1.71181 5.75167 0
M  V30 3160 H 294.277 -0.663542 4.80339 0
M  V30 3161 N 295.62 -1.53406 -0.361157 0
M  V30 3162 C 296.869 -1.69022 -1.10066 0
M  V30 3163 C 297.182 -0.450838 -1.90333 0
M  V30 3164 O 298.388 -0.487617 -2.67085 0
M  V30 3165 C 296.844 -2.98812 -2.00598 0
M  V30 3166 C 296.452 -4.30027 -1.25621 0
M  V30 3167 C 298.196 -3.23795 -2.74513 0
M  V30 3168 C 296.103 -5.50903 -2.1508 0
M  V30 3169 H 295.033 -0.629776 -0.414606 0
M  V30 3170 H 297.684 -1.79907 -0.361348 0
M  V30 3171 H 296.066 -2.8174 -2.78278 0
M  V30 3172 H 297.24 -4.57745 -0.529739 0
M  V30 3173 H 295.555 -4.11522 -0.635496 0
M  V30 3174 H 298.152 -4.11289 -3.41681 0
M  V30 3175 H 298.495 -2.40045 -3.40123 0
M  V30 3176 H 299.028 -3.41561 -2.03914 0
M  V30 3177 H 295.767 -6.37143 -1.54041 0
M  V30 3178 H 295.287 -5.27459 -2.85565 0
M  V30 3179 H 296.966 -5.85865 -2.74538 0
M  V30 3180 N 297.098 0.621204 -1.44841 0
M  V30 3181 C 298.346 1.37783 -1.47852 0
M  V30 3182 C 298.667 1.94653 -0.116224 0
M  V30 3183 O 297.937 1.76367 0.852737 0
M  V30 3184 H 296.517 0.511453 -0.544449 0
M  V30 3185 H 299.179 0.730446 -1.80694 0
M  V30 3186 H 298.275 2.20414 -2.20961 0
M  V30 3187 N 298.576 1.31904 0.862503 0
M  V30 3188 C 299.987 1.19803 1.43193 0
M  V30 3189 C 300.338 -0.192567 1.95253 0
M  V30 3190 O 299.463 -1.09081 1.86896 0
M  V30 3191 C 300.058 2.16883 2.60283 0
M  V30 3192 C 298.617 2.08692 3.13248 0
M  V30 3193 C 297.764 2.05691 1.85975 0
M  V30 3194 H 300.715 1.43846 0.670365 0
M  V30 3195 H 300.736 1.76278 3.37204 0
M  V30 3196 H 300.248 3.18083 2.22363 0
M  V30 3197 H 298.349 1.10713 3.55771 0
M  V30 3198 H 298.462 2.9815 3.75025 0
M  V30 3199 H 296.826 1.50814 2.05249 0
M  V30 3200 H 297.609 3.08659 1.50282 0
M  V30 3201 N 300.054 -1.07777 1.14986 0
M  V30 3202 C 300.984 -2.16865 0.865557 0
M  V30 3203 C 301.965 -1.69123 -0.182083 0
M  V30 3204 O 303.15 -1.94164 -0.0373815 0
M  V30 3205 C 300.28 -3.45539 0.349313 0
M  V30 3206 C 299.234 -4.06708 1.33313 0
M  V30 3207 C 298.56 -5.30411 0.675918 0
M  V30 3208 C 299.86 -4.47241 2.69764 0
M  V30 3209 H 301.554 -2.40905 1.77778 0
M  V30 3210 H 299.1 -1.15781 0.856203 0
M  V30 3211 H 301.053 -4.21174 0.137983 0
M  V30 3212 H 299.777 -3.21072 -0.598362 0
M  V30 3213 H 298.436 -3.33112 1.53075 0
M  V30 3214 H 298.084 -5.02232 -0.277767 0
M  V30 3215 H 297.784 -5.72293 1.33244 0
M  V30 3216 H 299.308 -6.08755 0.474262 0
M  V30 3217 H 300.722 -5.14025 2.53873 0
M  V30 3218 H 299.119 -5.00062 3.3175 0
M  V30 3219 H 300.189 -3.58818 3.26156 0
M  V30 3220 N 301.532 -0.945985 -1.26051 0
M  V30 3221 C 302.462 -0.477172 -2.28572 0
M  V30 3222 C 303.443 0.472032 -1.63419 0
M  V30 3223 O 304.628 0.372853 -1.90587 0
M  V30 3224 C 301.758 0.253975 -3.4637 0
M  V30 3225 C 300.712 -0.609135 -4.23643 0
M  V30 3226 C 300.038 0.252252 -5.34105 0
M  V30 3227 C 301.338 -1.8829 -4.8718 0
M  V30 3228 H 303.032 -1.33402 -2.68038 0
M  V30 3229 H 300.578 -0.642904 -1.28852 0
M  V30 3230 H 302.531 0.593016 -4.17207 0
M  V30 3231 H 301.255 1.145 -3.05871 0
M  V30 3232 H 299.914 -0.931138 -3.54578 0
M  V30 3233 H 299.562 1.14278 -4.89846 0
M  V30 3234 H 299.262 -0.32188 -5.86718 0
M  V30 3235 H 300.786 0.586454 -6.07777 0
M  V30 3236 H 302.2 -1.61081 -5.50205 0
M  V30 3237 H 300.597 -2.40199 -5.49931 0
M  V30 3238 H 301.667 -2.59134 -4.09851 0
M  V30 3239 N 303.011 1.40521 -0.713556 0
M  V30 3240 C 304.257 2.01221 -0.252564 0
M  V30 3241 C 304.59 1.56444 1.1506 0
M  V30 3242 O 303.865 0.783597 1.78017 0
M  V30 3243 C 304.148 3.58582 -0.330332 0
M  V30 3244 C 304.001 4.13437 -1.77173 0
M  V30 3245 C 305.32 4.39079 0.299641 0
M  V30 3246 H 302.439 0.731077 -0.0932471 0
M  V30 3247 H 305.081 1.67026 -0.905673 0
M  V30 3248 H 303.231 3.87844 0.225737 0
M  V30 3249 H 304.903 3.9498 -2.38303 0
M  V30 3250 H 303.146 3.67801 -2.3001 0
M  V30 3251 H 303.817 5.22597 -1.77755 0
M  V30 3252 H 306.293 4.15735 -0.174139 0
M  V30 3253 H 305.169 5.4848 0.214771 0
M  V30 3254 H 305.43 4.19915 1.38288 0
M  V30 3255 N 304.489 0.459591 1.5075 0
M  V30 3256 C 305.729 -0.09824 2.04164 0
M  V30 3257 C 306.093 -1.3801 1.33481 0
M  V30 3258 O 307.294 -2.01959 1.77387 0
M  V30 3259 C 305.565 -0.289467 3.56226 0
M  V30 3260 S 307.124 -0.807507 4.31306 0
M  V30 3261 H 303.942 -0.0213845 0.710678 0
M  V30 3262 H 306.544 0.624098 1.85271 0
M  V30 3263 H 305.248 0.649461 4.05229 0
M  V30 3264 H 304.779 -1.03825 3.79452 0
M  V30 3265 H 306.794 -2.0824 4.50389 0
M  V30 3266 N 305.967 -1.56429 0.191757 0
M  V30 3267 C 306.914 -2.18936 -0.730454 0
M  V30 3268 C 307.884 -1.13557 -1.21219 0
M  V30 3269 O 309.069 -1.41794 -1.27668 0
M  V30 3270 C 306.209 -2.85013 -1.9458 0
M  V30 3271 C 305.322 -4.04909 -1.50574 0
M  V30 3272 C 304.457 -4.58853 -2.67634 0
M  V30 3273 C 303.496 -5.71114 -2.20217 0
M  V30 3274 N 302.633 -6.19478 -3.30442 0
M  V30 3275 H 307.473 -2.97389 -0.190664 0
M  V30 3276 H 305.01 -1.46869 -0.0823694 0
M  V30 3277 H 306.968 -3.21492 -2.65893 0
M  V30 3278 H 305.598 -2.09129 -2.45896 0
M  V30 3279 H 304.65 -3.74115 -0.688605 0
M  V30 3280 H 305.962 -4.86113 -1.11784 0
M  V30 3281 H 305.116 -4.97619 -3.47074 0
M  V30 3282 H 303.855 -3.76749 -3.09696 0
M  V30 3283 H 302.86 -5.31879 -1.3923 0
M  V30 3284 H 304.085 -6.55033 -1.79189 0
M  V30 3285 H 302.031 -5.40297 -3.72041 0
M  V30 3286 H 301.948 -6.95725 -2.9581 0
M  V30 3287 H 303.216 -6.62898 -4.10106 0
M  V30 3288 N 307.445 0.0818655 -1.57387 0
M  V30 3289 C 308.355 1.11642 -2.06333 0
M  V30 3290 C 309.371 1.43033 -0.99083 0
M  V30 3291 O 310.547 1.53411 -1.30488 0
M  V30 3292 C 307.612 2.41342 -2.48907 0
M  V30 3293 C 306.673 2.17014 -3.7041 0
M  V30 3294 C 305.906 3.4053 -4.10944 0
M  V30 3295 O 306.129 4.4927 -3.51444 0
M  V30 3296 O 305.063 3.29336 -5.03807 0
M  V30 3297 H 308.889 0.730657 -2.9478 0
M  V30 3298 H 306.474 0.295301 -1.46452 0
M  V30 3299 H 308.356 3.17691 -2.76858 0
M  V30 3300 H 307.031 2.79319 -1.63593 0
M  V30 3301 H 305.938 1.38403 -3.47556 0
M  V30 3302 H 307.271 1.83923 -4.56545 0
M  V30 3303 N 308.923 1.53595 0.353017 0
M  V30 3304 C 310.171 1.70049 1.09215 0
M  V30 3305 C 310.492 0.461406 1.89463 0
M  V30 3306 O 309.762 -0.524633 1.88744 0
M  V30 3307 H 308.342 0.626912 0.40619 0
M  V30 3308 H 311.004 1.90822 0.396585 0
M  V30 3309 H 310.1 2.56718 1.77488 0
M  V30 3310 N 310.401 -0.613514 1.45168 0
M  V30 3311 C 311.65 -1.36874 1.4815 0
M  V30 3312 C 311.963 -1.952 0.124982 0
M  V30 3313 O 313.169 -2.71481 0.0324176 0
M  V30 3314 C 311.625 -2.47905 2.60904 0
M  V30 3315 C 311.233 -1.96016 4.02842 0
M  V30 3316 C 312.977 -3.24965 2.73126 0
M  V30 3317 C 310.884 -3.04494 5.06988 0
M  V30 3318 H 309.814 -0.514428 0.551253 0
M  V30 3319 H 312.465 -0.658182 1.7129 0
M  V30 3320 H 310.847 -3.21618 2.31037 0
M  V30 3321 H 312.021 -1.29051 4.4236 0
M  V30 3322 H 310.336 -1.31719 3.95018 0
M  V30 3323 H 312.933 -4.05865 3.48106 0
M  V30 3324 H 313.276 -3.75588 1.79553 0
M  V30 3325 H 313.809 -2.5835 3.0249 0
M  V30 3326 H 310.548 -2.58795 6.0225 0
M  V30 3327 H 310.068 -3.70044 4.72046 0
M  V30 3328 H 311.747 -3.68976 5.31475 0
M  V30 3329 N 311.879 -1.3236 -0.855495 0
M  V30 3330 C 312.809 -1.23833 -1.97958 0
M  V30 3331 C 313.79 -0.122361 -1.69659 0
M  V30 3332 O 314.975 -0.30939 -1.9172 0
M  V30 3333 C 312.105 -0.959772 -3.33775 0
M  V30 3334 C 311.059 -2.03689 -3.76424 0
M  V30 3335 C 310.385 -1.61075 -5.09862 0
M  V30 3336 C 311.685 -3.4518 -3.9198 0
M  V30 3337 H 313.379 -2.1788 -2.0535 0
M  V30 3338 H 310.925 -1.04891 -0.986605 0
M  V30 3339 H 312.878 -0.886678 -4.11966 0
M  V30 3340 H 311.602 0.0163404 -3.26596 0
M  V30 3341 H 310.261 -2.10012 -3.00484 0
M  V30 3342 H 309.909 -0.622107 -4.99138 0
M  V30 3343 H 309.609 -2.33143 -5.39368 0
M  V30 3344 H 311.133 -1.55201 -5.90546 0
M  V30 3345 H 312.547 -3.4145 -4.60526 0
M  V30 3346 H 310.944 -4.1559 -4.32903 0
M  V30 3347 H 312.014 -3.84903 -2.94919 0
M  V30 3348 N 313.357 1.07166 -1.15556 0
M  V30 3349 C 314.305 2.16517 -0.8499 0
M  V30 3350 C 315.299 1.68468 0.177454 0
M  V30 3351 O 316.505 1.79971 0.0323026 0
M  V30 3352 H 312.88 0.706652 -0.25719 0
M  V30 3353 H 314.851 2.39514 -1.77976 0
M  V30 3354 C 313.6 3.45855 -0.357682 0
M  V30 3355 H 312.923 3.83214 -1.13961 0
M  V30 3356 H 314.363 4.23607 -0.182489 0
M  V30 3357 C 312.822 3.24062 0.921152 0
M  V30 3358 O 313.352 3.48813 1.9923 0
M  V30 3359 N 311.558 2.77539 0.86141 0
M  V30 3360 H 311.105 2.57598 -0.0104408 0
M  V30 3361 H 311.063 2.63337 1.71758 0
M  V30 3362 N 314.835 0.952656 1.25548 0
M  V30 3363 C 316.251 0.656769 1.4546 0
M  V30 3364 C 316.451 -0.78633 1.85524 0
M  V30 3365 O 315.507 -1.56183 1.98402 0
M  V30 3366 C 316.82 1.62801 2.52817 0
M  V30 3367 C 318.368 1.63897 2.66659 0
M  V30 3368 C 318.843 2.5978 3.77198 0
M  V30 3369 N 320.334 2.58133 3.84606 0
M  V30 3370 C 321.069 3.29003 4.69621 0
M  V30 3371 N 320.565 4.09339 5.58939 0
M  V30 3372 N 322.358 3.179 4.63569 0
M  V30 3373 H 314.509 1.88526 0.978344 0
M  V30 3374 H 316.772 0.810815 0.491206 0
M  V30 3375 H 316.478 2.65869 2.30232 0
M  V30 3376 H 316.352 1.38898 3.50695 0
M  V30 3377 H 318.739 0.615481 2.8861 0
M  V30 3378 H 318.82 1.91858 1.69187 0
M  V30 3379 H 318.464 3.62254 3.55997 0
M  V30 3380 H 318.394 2.29105 4.7415 0
M  V30 3381 H 320.885 1.99809 3.20757 0
M  V30 3382 H 321.198 4.6034 6.20731 0
M  V30 3383 H 319.543 4.13438 5.58654 0
M  V30 3384 H 322.734 2.54612 3.92798 0
M  V30 3385 H 322.907 3.73398 5.29602 0
M  V30 3386 N 316.313 -1.40141 0.720998 0
M  V30 3387 C 317.543 -2.04798 0.27226 0
M  V30 3388 C 317.951 -1.54442 -1.09289 0
M  V30 3389 O 317.294 -0.698342 -1.69908 0
M  V30 3390 C 317.356 -3.59048 0.18027 0
M  V30 3391 C 317.02 -4.32317 1.48159 0
M  V30 3392 C 318.017 -4.59902 2.42458 0
M  V30 3393 C 315.702 -4.71125 1.74202 0
M  V30 3394 C 317.696 -5.25288 3.61042 0
M  V30 3395 C 315.383 -5.36242 2.93066 0
M  V30 3396 C 316.381 -5.63254 3.86308 0
M  V30 3397 O 316.069 -6.27024 5.03086 0
M  V30 3398 H 315.801 -0.665419 0.119139 0
M  V30 3399 H 318.355 -1.80436 0.981432 0
M  V30 3400 H 316.585 -3.82251 -0.58489 0
M  V30 3401 H 318.274 -4.05221 -0.234618 0
M  V30 3402 H 319.04 -4.30379 2.23604 0
M  V30 3403 H 314.919 -4.49466 1.02477 0
M  V30 3404 H 318.463 -5.46289 4.33837 0
M  V30 3405 H 314.36 -5.65185 3.11826 0
M  V30 3406 H 315.128 -6.4552 5.03235 0
M  V30 3407 N 317.792 -0.46758 -1.50504 0
M  V30 3408 C 319.017 0.0886943 -2.0721 0
M  V30 3409 C 319.442 1.33057 -1.32956 0
M  V30 3410 O 318.8 1.77354 -0.376197 0
M  V30 3411 C 318.848 0.359202 -3.58806 0
M  V30 3412 O 317.952 1.44034 -3.8643 0
M  V30 3413 H 317.293 -0.0114349 -0.663902 0
M  V30 3414 H 319.823 -0.657613 -1.93744 0
M  V30 3415 H 319.833 0.600742 -4.03553 0
M  V30 3416 H 318.508 -0.548311 -4.1227 0
M  V30 3417 H 317.085 1.18638 -3.53524 0
M  V30 3418 N 319.27 1.56325 -0.20005 0
M  V30 3419 C 320.518 1.97329 0.436547 0
M  V30 3420 C 320.839 1.08826 1.61808 0
M  V30 3421 O 320.109 0.160604 1.95241 0
M  V30 3422 H 318.689 0.728714 0.164272 0
M  V30 3423 H 321.351 1.92761 -0.287937 0
M  V30 3424 H 320.447 3.02264 0.777353 0
M  V30 3425 N 320.748 -0.0735177 1.57428 0
M  V30 3426 C 321.976 -0.785969 1.9139 0
M  V30 3427 C 322.391 -1.71207 0.795847 0
M  V30 3428 O 321.748 -1.81033 -0.230915 0
M  V30 3429 C 321.799 -1.58107 3.25091 0
M  V30 3430 O 321.52 -0.6922 4.32597 0
M  V30 3431 C 323.021 -2.39467 3.73055 0
M  V30 3432 H 320.241 -0.223558 0.632663 0
M  V30 3433 H 322.785 -0.044302 2.04452 0
M  V30 3434 H 320.94 -2.27503 3.13562 0
M  V30 3435 H 321.354 -1.24504 5.09508 0
M  V30 3436 H 322.828 -2.90716 4.69242 0
M  V30 3437 H 323.305 -3.18913 3.01979 0
M  V30 3438 H 323.911 -1.7523 3.87523 0
M  V30 3439 N 322.226 -1.5378 -0.344866 0
M  V30 3440 C 323.642 -1.44015 -0.687888 0
M  V30 3441 C 323.842 -0.595834 -1.92489 0
M  V30 3442 O 322.898 -0.0863064 -2.52352 0
M  V30 3443 C 324.211 -2.87481 -0.881758 0
M  V30 3444 C 325.759 -2.97247 -0.980459 0
M  V30 3445 C 326.234 -4.41819 -1.20665 0
M  V30 3446 N 327.725 -4.45339 -1.27389 0
M  V30 3447 C 328.46 -5.54333 -1.46639 0
M  V30 3448 N 327.956 -6.73335 -1.63071 0
M  V30 3449 N 329.749 -5.41944 -1.49176 0
M  V30 3450 H 321.9 -2.07169 0.468475 0
M  V30 3451 H 324.163 -0.93643 0.147655 0
M  V30 3452 H 323.869 -3.51672 -0.0443444 0
M  V30 3453 H 323.743 -3.32352 -1.78388 0
M  V30 3454 H 326.13 -2.33197 -1.8084 0
M  V30 3455 H 326.211 -2.5574 -0.0552713 0
M  V30 3456 H 325.855 -5.06449 -0.383652 0
M  V30 3457 H 325.785 -4.80917 -2.14539 0
M  V30 3458 H 328.276 -3.59585 -1.1622 0
M  V30 3459 H 328.589 -7.52165 -1.77391 0
M  V30 3460 H 326.934 -6.76282 -1.60209 0
M  V30 3461 H 330.125 -4.47932 -1.3592 0
M  V30 3462 H 330.298 -6.26946 -1.63837 0
M  V30 3463 N 323.704 0.605807 -1.45491 0
M  V30 3464 C 324.652 1.73754 -1.54636 0
M  V30 3465 C 325.646 1.64207 -0.416219 0
M  V30 3466 O 326.852 1.69979 -0.592199 0
M  V30 3467 H 323.227 0.574073 -0.485741 0
M  V30 3468 H 325.198 1.63169 -2.49837 0
M  V30 3469 C 323.947 3.12135 -1.53189 0
M  V30 3470 H 323.27 3.20141 -2.39478 0
M  V30 3471 H 324.71 3.91147 -1.63645 0
M  V30 3472 C 323.169 3.35921 -0.256616 0
M  V30 3473 O 323.699 3.96194 0.662798 0
M  V30 3474 N 321.905 2.90204 -0.151751 0
M  V30 3475 H 321.452 2.41336 -0.90081 0
M  V30 3476 H 321.41 3.06492 0.700699 0
M  V30 3477 N 325.182 1.32811 0.848464 0
M  V30 3478 C 326.459 1.14334 1.58704 0
M  V30 3479 C 326.839 -0.293948 2.09043 0
M  V30 3480 O 326.187 -1.29153 1.88499 0
M  V30 3481 C 326.397 2.17626 2.72837 0
M  V30 3482 C 327.745 2.51282 3.42261 0
M  V30 3483 O 328.769 2.16219 2.83068 0
M  V30 3484 O 327.628 3.11413 4.49093 0
M  V30 3485 H 324.722 0.441601 0.699226 0
M  V30 3486 H 327.268 1.44362 0.892053 0
M  V30 3487 H 326.04 3.14211 2.3321 0
M  V30 3488 H 325.663 1.88628 3.50008 0
M  V30 3489 N 326.66 -1.06551 1.16123 0
M  V30 3490 C 327.906 -1.79567 0.94252 0
M  V30 3491 C 328.239 -1.86869 -0.528547 0
M  V30 3492 O 327.514 -1.35838 -1.39206 0
M  V30 3493 C 327.797 -3.24195 1.56747 0
M  V30 3494 C 327.65 -3.24989 3.10969 0
M  V30 3495 C 328.969 -4.21678 1.25998 0
M  V30 3496 H 326.088 -0.651883 0.343828 0
M  V30 3497 H 328.73 -1.2463 1.43413 0
M  V30 3498 H 326.88 -3.71107 1.14942 0
M  V30 3499 H 328.552 -2.86258 3.61737 0
M  V30 3500 H 326.795 -2.63716 3.44436 0
M  V30 3501 H 327.466 -4.27005 3.49815 0
M  V30 3502 H 329.942 -3.83196 1.62174 0
M  V30 3503 H 328.818 -5.21146 1.7233 0
M  V30 3504 H 329.079 -4.4174 0.178367 0
M  V30 3505 N 328.138 -0.959301 -1.25041 0
M  V30 3506 C 329.415 -0.533805 -1.88175 0
M  V30 3507 C 329.795 0.988994 -1.865 0
M  V30 3508 O 329.143 1.85677 -1.33177 0
M  V30 3509 C 329.353 -1.11575 -3.30684 0
M  V30 3510 C 330.701 -1.19548 -4.07423 0
M  V30 3511 O 331.725 -1.06765 -3.39823 0
M  V30 3512 O 330.584 -1.39656 -5.28354 0
M  V30 3513 H 327.678 -0.176772 -0.807887 0
M  V30 3514 H 330.224 -1.05303 -1.33076 0
M  V30 3515 H 328.996 -2.15884 -3.26358 0
M  V30 3516 H 328.619 -0.580059 -3.93346 0
M  V30 3517 N 329.616 1.39756 -0.72842 0
M  V30 3518 C 331.032 1.5442 -0.403308 0
M  V30 3519 C 331.232 1.69694 1.08656 0
M  V30 3520 O 330.288 1.69373 1.87267 0
M  V30 3521 C 331.601 2.76555 -1.18058 0
M  V30 3522 C 333.149 2.90384 -1.16815 0
M  V30 3523 C 333.624 4.15449 -1.92785 0
M  V30 3524 N 335.115 4.22475 -1.89918 0
M  V30 3525 C 335.85 5.1818 -2.45514 0
M  V30 3526 N 335.346 6.19714 -3.09719 0
M  V30 3527 N 337.139 5.1035 -2.35584 0
M  V30 3528 H 329.29 1.28089 -1.69431 0
M  V30 3529 H 331.553 0.620327 -0.716867 0
M  V30 3530 H 331.259 2.7159 -2.23455 0
M  V30 3531 H 331.133 3.69033 -0.780662 0
M  V30 3532 H 333.52 2.94846 -0.12234 0
M  V30 3533 H 333.601 1.98988 -1.6074 0
M  V30 3534 H 333.245 4.11749 -2.97364 0
M  V30 3535 H 333.175 5.05877 -1.46272 0
M  V30 3536 H 335.666 3.49743 -1.43138 0
M  V30 3537 H 335.979 6.8919 -3.49625 0
M  V30 3538 H 334.324 6.20121 -3.13807 0
M  V30 3539 H 337.515 4.2996 -1.85072 0
M  V30 3540 H 337.688 5.84761 -2.79211 0
M  V30 3541 N 331.094 0.475555 1.50254 0
M  V30 3542 C 332.004 -0.321501 2.32387 0
M  V30 3543 C 333.02 -0.991755 1.42969 0
M  V30 3544 O 334.196 -0.978747 1.76018 0
M  V30 3545 C 331.261 -1.38667 3.17762 0
M  V30 3546 C 330.322 -0.732538 4.23004 0
M  V30 3547 C 329.555 -1.74695 5.04299 0
M  V30 3548 O 329.778 -2.97399 4.86734 0
M  V30 3549 O 328.712 -1.31631 5.8733 0
M  V30 3550 H 332.538 0.350071 3.01676 0
M  V30 3551 H 330.123 0.237321 1.47503 0
M  V30 3552 H 332.005 -2.00354 3.70724 0
M  V30 3553 H 330.68 -2.04163 2.51196 0
M  V30 3554 H 329.587 -0.0765902 3.74022 0
M  V30 3555 H 330.92 -0.120452 4.92053 0
M  V30 3556 N 332.573 -1.56217 0.208337 0
M  V30 3557 C 333.82 -1.97949 -0.42692 0
M  V30 3558 C 334.148 -1.09562 -1.60706 0
M  V30 3559 O 333.403 -0.137616 -1.95216 0
M  V30 3560 C 333.702 -3.45441 -0.916797 0
M  V30 3561 C 333.368 -4.50646 0.151391 0
M  V30 3562 C 332.03 -4.79139 0.444867 0
M  V30 3563 C 334.382 -5.13811 0.874492 0
M  V30 3564 C 331.71 -5.68084 1.46619 0
M  V30 3565 C 334.062 -6.03861 1.88506 0
M  V30 3566 C 332.726 -6.30704 2.18559 0
M  V30 3567 H 331.996 -0.724345 -0.156221 0
M  V30 3568 H 334.643 -1.89006 0.308084 0
M  V30 3569 H 332.948 -3.51521 -1.73032 0
M  V30 3570 H 334.645 -3.75094 -1.41794 0
M  V30 3571 H 331.235 -4.28511 -0.0875068 0
M  V30 3572 H 335.419 -4.91879 0.660996 0
M  V30 3573 H 330.675 -5.87151 1.7048 0
M  V30 3574 H 334.849 -6.51861 2.45051 0
M  V30 3575 H 332.476 -6.99424 2.97843 0
M  V30 3576 N 334.051 0.0651679 -1.57465 0
M  V30 3577 C 335.297 0.764193 -1.87851 0
M  V30 3578 C 335.63 1.76889 -0.801495 0
M  V30 3579 O 334.905 1.93594 0.187528 0
M  V30 3580 C 335.188 1.46625 -3.28897 0
M  V30 3581 C 335.041 0.477515 -4.47258 0
M  V30 3582 C 336.36 2.4095 -3.68281 0
M  V30 3583 H 333.479 0.276351 -0.683227 0
M  V30 3584 H 336.121 0.0272868 -1.8998 0
M  V30 3585 H 334.271 2.09438 -3.27212 0
M  V30 3586 H 335.943 -0.145922 -4.61069 0
M  V30 3587 H 334.186 -0.206576 -4.33308 0
M  V30 3588 H 334.857 1.0065 -5.42746 0
M  V30 3589 H 337.333 1.88209 -3.71102 0
M  V30 3590 H 336.209 2.87072 -4.67847 0
M  V30 3591 H 336.47 3.26049 -2.98571 0
M  V30 3592 N 335.529 1.53961 0.336706 0
M  V30 3593 C 336.778 1.70751 1.07363 0
M  V30 3594 C 337.091 0.481061 1.89592 0
M  V30 3595 O 338.297 0.530046 2.66276 0
M  V30 3596 C 336.753 3.01965 1.95818 0
M  V30 3597 C 336.361 4.31971 1.18764 0
M  V30 3598 C 338.105 3.28121 2.69327 0
M  V30 3599 C 336.012 5.54255 2.06289 0
M  V30 3600 H 334.942 0.636292 0.404535 0
M  V30 3601 H 337.593 1.80459 0.332681 0
M  V30 3602 H 335.975 2.86132 2.7376 0
M  V30 3603 H 337.149 4.5853 0.456849 0
M  V30 3604 H 335.464 4.12481 0.569946 0
M  V30 3605 H 338.061 4.16673 3.35094 0
M  V30 3606 H 338.404 2.45426 3.36261 0
M  V30 3607 H 338.937 3.44762 1.98454 0
M  V30 3608 H 335.676 6.39513 1.43885 0
M  V30 3609 H 335.196 5.31935 2.77138 0
M  V30 3610 H 336.875 5.90159 2.65182 0
M  V30 3611 N 337.007 -0.598083 1.45811 0
M  V30 3612 C 337.94 -1.7223 1.49706 0
M  V30 3613 C 338.918 -1.58732 0.352535 0
M  V30 3614 O 340.102 -1.80162 0.554438 0
M  V30 3615 C 337.229 -3.10148 1.3611 0
M  V30 3616 C 336.275 -3.42209 2.54549 0
M  V30 3617 S 337.108 -3.35989 4.16979 0
M  V30 3618 C 338.264 -4.76471 4.05865 0
M  V30 3619 H 338.497 -1.68665 2.44826 0
M  V30 3620 H 336.03 -0.775541 1.33509 0
M  V30 3621 H 337.988 -3.8972 1.28953 0
M  V30 3622 H 336.649 -3.11219 0.424451 0
M  V30 3623 H 335.842 -4.42652 2.40988 0
M  V30 3624 H 335.444 -2.70173 2.58617 0
M  V30 3625 H 337.736 -5.665 3.71596 0
M  V30 3626 H 338.679 -4.95089 5.06253 0
M  V30 3627 H 339.087 -4.52599 3.37364 0
M  V30 3628 N 338.485 -1.33259 -0.841409 0
M  V30 3629 C 339.732 -1.24572 -1.5965 0
M  V30 3630 C 340.06 0.189137 -1.93578 0
M  V30 3631 O 339.315 1.14566 -1.5866 0
M  V30 3632 C 339.614 -2.06381 -2.9179 0
M  V30 3633 C 339.28 -3.556 -2.77235 0
M  V30 3634 C 337.942 -3.96282 -2.72973 0
M  V30 3635 C 340.294 -4.50433 -2.62221 0
M  V30 3636 C 337.622 -5.30017 -2.51592 0
M  V30 3637 C 339.974 -5.84327 -2.42374 0
M  V30 3638 C 338.638 -6.24194 -2.36512 0
M  V30 3639 H 337.908 -0.455842 -0.5842 0
M  V30 3640 H 340.555 -1.6482 -0.975016 0
M  V30 3641 H 338.86 -1.58903 -3.5813 0
M  V30 3642 H 340.557 -1.97019 -3.49263 0
M  V30 3643 H 337.147 -3.23298 -2.81384 0
M  V30 3644 H 341.331 -4.19914 -2.64549 0
M  V30 3645 H 336.587 -5.59947 -2.45499 0
M  V30 3646 H 340.761 -6.57414 -2.29739 0
M  V30 3647 H 338.388 -7.27759 -2.19706 0
M  V30 3648 N 339.963 1.05934 -1.16686 0
M  V30 3649 C 341.191 1.8249 -0.974929 0
M  V30 3650 C 341.606 1.82679 0.476861 0
M  V30 3651 O 340.963 1.2486 1.33103 0
M  V30 3652 C 341.014 3.28943 -1.49929 0
M  V30 3653 O 340.735 3.28886 -2.89423 0
M  V30 3654 C 342.236 4.22215 -1.35089 0
M  V30 3655 H 339.456 0.575295 -0.345365 0
M  V30 3656 H 342 1.33631 -1.548 0
M  V30 3657 H 340.155 3.751 -0.968423 0
M  V30 3658 H 340.569 4.20493 -3.13506 0
M  V30 3659 H 342.043 5.22987 -1.76603 0
M  V30 3660 H 342.52 4.38195 -0.296935 0
M  V30 3661 H 343.126 3.81907 -1.87155 0
M  V30 3662 N 341.441 0.965919 1.2453 0
M  V30 3663 C 342.371 0.513476 2.27784 0
M  V30 3664 C 343.352 -0.445974 1.6415 0
M  V30 3665 O 344.537 -0.342485 1.91156 0
M  V30 3666 C 341.667 -0.198839 3.4673 0
M  V30 3667 C 340.621 0.676456 4.2262 0
M  V30 3668 C 339.947 -0.167248 5.34438 0
M  V30 3669 C 341.247 1.96017 4.84123 0
M  V30 3670 H 342.941 1.3765 2.65881 0
M  V30 3671 H 340.487 0.663321 1.27813 0
M  V30 3672 H 342.44 -0.526567 4.18097 0
M  V30 3673 H 341.164 -1.0962 3.07654 0
M  V30 3674 H 339.823 0.98743 3.53052 0
M  V30 3675 H 339.471 -1.0647 4.91603 0
M  V30 3676 H 339.171 0.415181 5.86131 0
M  V30 3677 H 340.695 -0.489688 6.08633 0
M  V30 3678 H 342.109 1.69814 5.47573 0
M  V30 3679 H 340.506 2.48918 5.4604 0
M  V30 3680 H 341.576 2.65622 4.05676 0
M  V30 3681 N 342.919 -1.39368 0.735821 0
M  V30 3682 C 344.165 -2.00794 0.284544 0
M  V30 3683 C 344.498 -1.58255 -1.12557 0
M  V30 3684 O 343.773 -0.811819 -1.76748 0
M  V30 3685 C 344.056 -3.58011 0.387337 0
M  V30 3686 C 343.909 -4.10566 1.83728 0
M  V30 3687 C 345.228 -4.395 -0.22975 0
M  V30 3688 H 342.347 -0.729501 0.104866 0
M  V30 3689 H 344.989 -1.65564 0.93213 0
M  V30 3690 H 343.139 -3.88154 -0.164006 0
M  V30 3691 H 344.811 -3.91139 2.44556 0
M  V30 3692 H 343.054 -3.64095 2.35833 0
M  V30 3693 H 343.725 -5.19702 1.86047 0
M  V30 3694 H 346.201 -4.15406 0.240257 0
M  V30 3695 H 345.077 -5.48752 -0.127485 0
M  V30 3696 H 345.338 -4.22062 -1.3159 0
M  V30 3697 N 344.397 -0.483516 -1.5 0
M  V30 3698 C 345.674 0.129337 -1.95172 0
M  V30 3699 C 346.054 1.55802 -1.4244 0
M  V30 3700 O 345.402 2.19625 -0.630649 0
M  V30 3701 C 345.612 0.0599251 -3.48949 0
M  V30 3702 C 346.96 0.242617 -4.23906 0
M  V30 3703 O 347.984 0.135933 -3.55941 0
M  V30 3704 O 346.843 0.459454 -5.44565 0
M  V30 3705 H 343.937 0.104887 -0.820322 0
M  V30 3706 H 346.483 -0.544807 -1.60717 0
M  V30 3707 H 345.255 -0.937079 -3.79914 0
M  V30 3708 H 344.878 0.774984 -3.89974 0
M  V30 3709 N 345.875 1.56104 -0.216619 0
M  V30 3710 C 346.785 2.23694 0.706982 0
M  V30 3711 C 347.801 1.24295 1.21765 0
M  V30 3712 O 348.977 1.57094 1.2603 0
M  V30 3713 C 346.042 2.8998 1.90033 0
M  V30 3714 C 345.103 4.04708 1.43213 0
M  V30 3715 C 344.336 4.67824 2.56859 0
M  V30 3716 O 344.559 4.29913 3.74874 0
M  V30 3717 O 343.493 5.56905 2.28343 0
M  V30 3718 H 347.319 3.03272 0.161235 0
M  V30 3719 H 344.904 1.49394 0.0136177 0
M  V30 3720 H 346.786 3.31837 2.59735 0
M  V30 3721 H 345.461 2.13365 2.43428 0
M  V30 3722 H 344.368 3.6743 0.70327 0
M  V30 3723 H 345.701 4.83051 0.944615 0
M  V30 3724 N 347.353 -0.0568162 1.57498 0
M  V30 3725 C 348.301 -1.08452 2.05769 0
M  V30 3726 C 349.295 -1.39164 0.965903 0
M  V30 3727 O 350.501 -1.38395 1.15095 0
M  V30 3728 H 346.876 -0.367148 0.656282 0
M  V30 3729 H 348.847 -0.651368 2.91204 0
M  V30 3730 C 347.596 -2.38543 2.52968 0
M  V30 3731 H 346.919 -2.15765 3.36579 0
M  V30 3732 H 348.359 -3.08863 2.90481 0
M  V30 3733 C 346.818 -3.05562 1.41893 0
M  V30 3734 O 347.348 -3.94262 0.769442 0
M  V30 3735 N 345.554 -2.6643 1.16032 0
M  V30 3736 H 345.101 -1.94387 1.6903 0
M  V30 3737 H 345.059 -3.11593 0.419219 0
M  V30 3738 N 348.832 -1.54138 -0.328536 0
M  V30 3739 C 349.764 -1.79509 -1.4251 0
M  V30 3740 C 350.777 -0.67688 -1.48061 0
M  V30 3741 O 351.966 -0.953898 -1.50874 0
M  V30 3742 C 349.066 -1.89337 -2.81078 0
M  V30 3743 C 348.239 -3.19443 -2.98789 0
M  V30 3744 C 347.298 -3.20036 -4.17688 0
M  V30 3745 O 346.324 -3.93697 -4.11086 0
M  V30 3746 N 347.526 -2.43467 -5.26976 0
M  V30 3747 H 350.291 -2.74139 -1.21111 0
M  V30 3748 H 347.852 -1.53373 -0.518499 0
M  V30 3749 H 349.844 -1.87167 -3.58818 0
M  V30 3750 H 348.414 -1.01826 -2.95551 0
M  V30 3751 H 347.634 -3.34614 -2.08391 0
M  V30 3752 H 348.922 -4.05354 -3.07515 0
M  V30 3753 H 348.32 -1.83201 -5.35214 0
M  V30 3754 H 346.877 -2.4708 -6.03154 0
M  V30 3755 N 350.31 0.590341 -1.46126 0
M  V30 3756 C 351.535 1.37991 -1.54833 0
M  V30 3757 C 351.96 1.87163 -0.187506 0
M  V30 3758 O 351.318 1.61133 0.831008 0
M  V30 3759 C 351.366 2.54867 -2.55098 0
M  V30 3760 O 350.47 3.56061 -2.08073 0
M  V30 3761 H 349.811 0.411265 -0.521303 0
M  V30 3762 H 352.341 0.716819 -1.91632 0
M  V30 3763 H 352.351 3.01886 -2.74461 0
M  V30 3764 H 351.026 2.18429 -3.53923 0
M  V30 3765 H 349.603 3.15574 -1.98664 0
M  V30 3766 N 351.788 1.33704 0.83433 0
M  V30 3767 C 353.034 1.26612 1.59188 0
M  V30 3768 C 353.389 -0.165439 1.91687 0
M  V30 3769 O 352.682 -1.10873 1.56262 0
M  V30 3770 C 352.876 2.07926 2.90692 0
M  V30 3771 C 352.705 3.58844 2.71038 0
M  V30 3772 C 351.475 4.28148 2.68361 0
M  V30 3773 C 353.673 4.53082 2.43353 0
M  V30 3774 N 351.655 5.64987 2.40132 0
M  V30 3775 C 353.026 5.77843 2.24716 0
M  V30 3776 C 355.081 4.42119 2.28987 0
M  V30 3777 C 353.784 6.92877 1.9317 0
M  V30 3778 C 355.81 5.56973 1.98835 0
M  V30 3779 C 355.172 6.80745 1.81012 0
M  V30 3780 H 351.271 0.518517 0.585375 0
M  V30 3781 H 353.855 1.68294 0.979044 0
M  V30 3782 H 352.026 1.68558 3.49918 0
M  V30 3783 H 353.758 1.92568 3.55949 0
M  V30 3784 H 350.513 3.80469 2.82029 0
M  V30 3785 H 350.937 6.37133 2.28889 0
M  V30 3786 H 355.579 3.47058 2.41477 0
M  V30 3787 H 353.297 7.87931 1.79418 0
M  V30 3788 H 356.883 5.50428 1.88468 0
M  V30 3789 H 355.763 7.68115 1.58017 0
M  V30 3790 N 353.266 -1.05314 1.17247 0
M  V30 3791 C 354.496 -1.81707 0.983166 0
M  V30 3792 C 354.904 -1.83222 -0.471822 0
M  V30 3793 O 354.247 -1.25721 -1.3394 0
M  V30 3794 C 354.309 -3.29134 1.44606 0
M  V30 3795 C 353.973 -3.51304 2.92292 0
M  V30 3796 C 354.97 -3.4353 3.90235 0
M  V30 3797 C 352.655 -3.78306 3.30439 0
M  V30 3798 C 354.649 -3.62442 5.24323 0
M  V30 3799 C 352.336 -3.96866 4.64694 0
M  V30 3800 C 353.334 -3.88933 5.61445 0
M  V30 3801 O 353.022 -4.06976 6.93272 0
M  V30 3802 H 352.754 -0.579476 0.348114 0
M  V30 3803 H 355.308 -1.33705 1.55924 0
M  V30 3804 H 353.538 -3.78046 0.813537 0
M  V30 3805 H 355.227 -3.87049 1.22262 0
M  V30 3806 H 355.993 -3.22648 3.62109 0
M  V30 3807 H 351.872 -3.83585 2.55702 0
M  V30 3808 H 355.416 -3.56165 5.99827 0
M  V30 3809 H 351.313 -4.1724 4.92525 0
M  V30 3810 H 352.081 -4.24209 6.99992 0
M  V30 3811 N 354.744 -0.972509 -1.24016 0
M  V30 3812 C 355.674 -0.525548 -2.27509 0
M  V30 3813 C 356.655 0.437262 -1.64384 0
M  V30 3814 O 357.84 0.332343 -1.91335 0
M  V30 3815 C 354.97 0.180448 -3.46831 0
M  V30 3816 C 353.924 -0.698859 -4.22256 0
M  V30 3817 C 353.25 0.138903 -5.3452 0
M  V30 3818 C 354.55 -1.98582 -4.83076 0
M  V30 3819 H 356.244 -1.39058 -2.65148 0
M  V30 3820 H 353.79 -0.67009 -1.27459 0
M  V30 3821 H 355.743 0.504387 -4.18371 0
M  V30 3822 H 354.467 1.07987 -3.08231 0
M  V30 3823 H 353.126 -1.00614 -3.52523 0
M  V30 3824 H 352.774 1.03862 -4.9216 0
M  V30 3825 H 352.474 -0.446259 -5.85903 0
M  V30 3826 H 353.998 0.457404 -6.08884 0
M  V30 3827 H 355.412 -1.72715 -5.46665 0
M  V30 3828 H 353.809 -2.5181 -5.44713 0
M  V30 3829 H 354.879 -2.67769 -4.04262 0
M  V30 3830 N 356.222 1.38976 -0.743202 0
M  V30 3831 C 357.17 2.32394 -0.0978389 0
M  V30 3832 C 358.164 1.53486 0.716824 0
M  V30 3833 O 359.37 1.69092 0.617088 0
M  V30 3834 H 355.745 0.75189 -0.0128402 0
M  V30 3835 H 357.716 2.84441 -0.901981 0
M  V30 3836 C 356.465 3.38629 0.789036 0
M  V30 3837 H 355.788 3.99432 0.171559 0
M  V30 3838 H 357.228 4.06426 1.20807 0
M  V30 3839 C 355.687 2.76347 1.92702 0
M  V30 3840 O 356.217 2.64836 3.02034 0
M  V30 3841 N 354.423 2.34311 1.71891 0
M  V30 3842 H 353.97 2.43873 0.829675 0
M  V30 3843 H 353.928 1.9298 2.48205 0
M  V30 3844 N 357.7 0.491464 1.49741 0
M  V30 3845 C 358.61 -0.296835 2.32715 0
M  V30 3846 C 359.626 -0.976536 1.44013 0
M  V30 3847 O 360.802 -0.960023 1.77047 0
M  V30 3848 C 357.867 -1.35288 3.19215 0
M  V30 3849 C 356.928 -0.687632 4.23757 0
M  V30 3850 C 356.161 -1.69336 5.06123 0
M  V30 3851 O 356.384 -2.92219 4.89861 0
M  V30 3852 O 355.318 -1.25394 5.88693 0
M  V30 3853 H 359.144 0.382048 3.01287 0
M  V30 3854 H 356.729 0.252953 1.47243 0
M  V30 3855 H 358.611 -1.96411 3.72828 0
M  V30 3856 H 357.286 -2.01487 2.53347 0
M  V30 3857 H 356.193 -0.0369159 3.74082 0
M  V30 3858 H 357.526 -0.0682566 4.92153 0
M  V30 3859 N 359.178 -1.55987 0.224894 0
M  V30 3860 C 360.126 -2.21808 -0.700283 0
M  V30 3861 C 361.12 -1.19854 -1.19714 0
M  V30 3862 O 362.326 -1.37925 -1.15658 0
M  V30 3863 H 358.701 -0.711226 -0.244258 0
M  V30 3864 H 360.672 -2.98152 -0.121749 0
M  V30 3865 C 359.421 -2.91444 -1.8962 0
M  V30 3866 H 358.744 -3.69655 -1.52299 0
M  V30 3867 H 360.184 -3.40894 -2.52125 0
M  V30 3868 C 358.643 -1.94098 -2.75368 0
M  V30 3869 O 359.173 -1.46004 -3.74227 0
M  V30 3870 N 357.379 -1.61675 -2.41474 0
M  V30 3871 H 356.926 -2.00979 -1.61137 0
M  V30 3872 H 356.884 -0.968036 -2.99126 0
M  V30 3873 N 360.656 0.0484629 -1.57525 0
M  V30 3874 C 361.905 0.742065 -1.87553 0
M  V30 3875 C 362.218 1.77545 -0.820802 0
M  V30 3876 O 363.424 2.52027 -1.00967 0
M  V30 3877 C 361.88 1.37081 -3.32771 0
M  V30 3878 C 361.488 0.374786 -4.4643 0
M  V30 3879 C 363.232 2.04542 -3.71972 0
M  V30 3880 C 361.139 1.01077 -5.82698 0
M  V30 3881 H 360.069 0.280903 -0.699721 0
M  V30 3882 H 362.72 -0.00411877 -1.835 0
M  V30 3883 H 361.102 2.16605 -3.31509 0
M  V30 3884 H 362.276 -0.392331 -4.59127 0
M  V30 3885 H 360.591 -0.196653 -4.15935 0
M  V30 3886 H 363.188 2.52943 -4.71088 0
M  V30 3887 H 363.531 2.85515 -3.02964 0
M  V30 3888 H 364.064 1.31819 -3.75325 0
M  V30 3889 H 360.803 0.240878 -6.55057 0
M  V30 3890 H 360.323 1.74819 -5.73758 0
M  V30 3891 H 362.002 1.52383 -6.28799 0
M  V30 3892 N 362.134 1.5431 0.320358 0
M  V30 3893 C 363.081 1.83918 1.39438 0
M  V30 3894 C 364.051 0.686525 1.51248 0
M  V30 3895 O 365.236 0.933269 1.66417 0
M  V30 3896 C 362.376 2.075 2.75749 0
M  V30 3897 C 361.489 3.35177 2.72544 0
M  V30 3898 C 360.624 3.48704 4.00723 0
M  V30 3899 C 359.663 4.70244 3.91838 0
M  V30 3900 N 358.8 4.80679 5.11754 0
M  V30 3901 H 363.64 2.75544 1.13489 0
M  V30 3902 H 361.177 1.36459 0.549309 0
M  V30 3903 H 363.135 2.19166 3.54996 0
M  V30 3904 H 361.765 1.19163 3 0
M  V30 3905 H 360.817 3.32233 1.85271 0
M  V30 3906 H 362.129 4.24534 2.61863 0
M  V30 3907 H 361.283 3.59928 4.88402 0
M  V30 3908 H 360.022 2.57445 4.14214 0
M  V30 3909 H 359.027 4.59072 3.02544 0
M  V30 3910 H 360.252 5.6289 3.7991 0
M  V30 3911 H 358.198 3.92337 5.25745 0
M  V30 3912 H 358.115 5.64007 5.0342 0
M  V30 3913 H 359.383 4.96239 6.01138 0
M  V30 3914 N 363.613 -0.582584 1.46437 0
M  V30 3915 C 364.563 -1.68654 1.53426 0
M  V30 3916 C 365.547 -1.55971 0.395194 0
M  V30 3917 O 366.739 -1.64884 0.643612 0
M  V30 3918 C 363.868 -3.07439 1.52762 0
M  V30 3919 C 362.954 -3.25418 2.71963 0
M  V30 3920 N 363.345 -3.13556 3.96883 0
M  V30 3921 C 361.643 -3.56357 2.68189 0
M  V30 3922 C 362.344 -3.33543 4.76575 0
M  V30 3923 N 361.32 -3.58704 4.08451 0
M  V30 3924 H 365.122 -1.58014 2.47808 0
M  V30 3925 H 362.636 -0.786617 1.42078 0
M  V30 3926 H 364.633 -3.86671 1.55857 0
M  V30 3927 H 363.293 -3.1921 0.594573 0
M  V30 3928 H 364.304 -2.9142 4.28129 0
M  V30 3929 H 360.981 -3.74812 1.83908 0
M  V30 3930 H 362.371 -3.29555 5.85528 0
M  V30 3931 N 365.091 -1.34144 -0.827227 0
M  V30 3932 C 366.338 -1.26258 -1.58319 0
M  V30 3933 C 366.666 0.168595 -1.93768 0
M  V30 3934 O 365.921 1.12877 -1.59866 0
M  V30 3935 C 366.22 -2.09464 -2.89585 0
M  V30 3936 C 365.886 -3.58521 -2.73448 0
M  V30 3937 C 364.548 -3.99155 -2.68754 0
M  V30 3938 C 366.9 -4.53189 -2.57428 0
M  V30 3939 C 364.228 -5.32656 -2.45957 0
M  V30 3940 C 366.58 -5.86864 -2.36163 0
M  V30 3941 C 365.244 -6.26667 -2.29879 0
M  V30 3942 H 364.514 -0.462013 -0.579332 0
M  V30 3943 H 367.161 -1.65845 -0.95748 0
M  V30 3944 H 365.466 -1.62692 -3.56425 0
M  V30 3945 H 367.163 -2.00712 -3.47154 0
M  V30 3946 H 363.753 -3.26264 -2.77939 0
M  V30 3947 H 367.937 -4.22696 -2.60081 0
M  V30 3948 H 363.193 -5.62519 -2.39546 0
M  V30 3949 H 367.367 -6.59813 -2.22754 0
M  V30 3950 H 364.994 -7.30049 -2.11975 0
M  V30 3951 N 366.569 1.04691 -1.17803 0
M  V30 3952 C 367.809 1.79352 -0.980423 0
M  V30 3953 C 368.173 1.85853 0.481958 0
M  V30 3954 O 369.374 2.56656 0.798809 0
M  V30 3955 C 367.645 3.19088 -1.6099 0
M  V30 3956 S 369.204 4.10164 -1.55918 0
M  V30 3957 H 366.022 0.617631 -0.352211 0
M  V30 3958 H 368.624 1.25575 -1.49837 0
M  V30 3959 H 367.328 3.11962 -2.66661 0
M  V30 3960 H 366.859 3.77941 -1.09197 0
M  V30 3961 H 368.874 4.92907 -0.570685 0
M  V30 3962 N 368.047 0.979072 1.23499 0
M  V30 3963 C 369.275 0.665202 1.95915 0
M  V30 3964 C 369.69 -0.767571 1.72493 0
M  V30 3965 O 369.047 -1.51635 1.01554 0
M  V30 3966 C 369.098 0.944438 3.48945 0
M  V30 3967 O 368.819 2.3209 3.71572 0
M  V30 3968 C 370.32 0.646336 4.38563 0
M  V30 3969 H 367.54 0.247218 0.623798 0
M  V30 3970 H 370.084 1.31009 1.57025 0
M  V30 3971 H 368.239 0.345575 3.85856 0
M  V30 3972 H 368.653 2.40957 4.65876 0
M  V30 3973 H 370.127 0.892091 5.44744 0
M  V30 3974 H 370.604 -0.419575 4.37191 0
M  V30 3975 H 371.21 1.22562 4.07258 0
M  V30 3976 N 369.525 -1.3858 0.750561 0
M  V30 3977 C 370.473 -2.32339 0.110162 0
M  V30 3978 C 371.467 -1.53864 -0.708674 0
M  V30 3979 O 372.673 -1.69417 -0.608112 0
M  V30 3980 H 369.048 -0.751812 0.0168275 0
M  V30 3981 H 371.019 -2.83959 0.917053 0
M  V30 3982 C 369.768 -3.39043 -0.771067 0
M  V30 3983 H 369.091 -3.99517 -0.150374 0
M  V30 3984 H 370.531 -4.07061 -1.1865 0
M  V30 3985 C 368.99 -2.77365 -1.91234 0
M  V30 3986 O 369.52 -2.66434 -3.00626 0
M  V30 3987 N 367.726 -2.35219 -1.70646 0
M  V30 3988 H 367.273 -2.4431 -0.81673 0
M  V30 3989 H 367.231 -1.94294 -2.47178 0
M  V30 3990 N 371.003 -0.499398 -1.49478 0
M  V30 3991 C 372.414 -0.051215 -1.8663 0
M  V30 3992 C 372.765 1.36238 -1.41186 0
M  V30 3993 O 371.89 2.01502 -0.789051 0
M  V30 3994 C 372.485 -0.0861651 -3.3869 0
M  V30 3995 C 371.044 0.30667 -3.75149 0
M  V30 3996 C 370.191 -0.459397 -2.73468 0
M  V30 3997 H 373.142 -0.712264 -1.41818 0
M  V30 3998 H 373.163 0.709507 -3.73826 0
M  V30 3999 H 372.675 -1.11512 -3.71735 0
M  V30 4000 H 370.776 1.33892 -3.47712 0
M  V30 4001 H 370.889 -0.0116669 -4.79099 0
M  V30 4002 H 369.253 0.0905645 -2.54539 0
M  V30 4003 H 370.036 -1.4884 -3.09357 0
M  V30 4004 N 372.481 1.55866 -0.233164 0
M  V30 4005 C 373.758 1.90471 0.444988 0
M  V30 4006 C 374.138 1.15209 1.7689 0
M  V30 4007 O 373.486 0.265119 2.26957 0
M  V30 4008 C 373.696 3.4333 0.626559 0
M  V30 4009 C 375.044 4.14319 0.92871 0
M  V30 4010 O 376.068 3.48993 0.712926 0
M  V30 4011 O 374.927 5.29846 1.33887 0
M  V30 4012 H 372.021 0.792347 0.236885 0
M  V30 4013 H 374.567 1.67437 -0.276211 0
M  V30 4014 H 373.339 3.90095 -0.306822 0
M  V30 4015 H 372.962 3.72181 1.39881 0
M  V30 4016 N 373.959 -0.0401083 1.57549 0
M  V30 4017 C 375.184 -0.748931 1.93406 0
M  V30 4018 C 375.609 -1.68686 0.832274 0
M  V30 4019 O 374.967 -1.80047 -0.212818 0
M  V30 4020 C 375.015 -1.4916 3.28304 0
M  V30 4021 O 374.119 -2.6042 3.19774 0
M  V30 4022 H 373.46 -0.202212 0.63246 0
M  V30 4023 H 375.99 0.00112086 2.046 0
M  V30 4024 H 376 -1.86395 3.62934 0
M  V30 4025 H 374.675 -0.80364 4.08062 0
M  V30 4026 H 373.252 -2.25808 2.96758 0
M  V30 4027 N 375.437 -1.54477 -0.31217 0
M  V30 4028 C 376.683 -1.73483 -1.0503 0
M  V30 4029 C 377.016 -0.513125 -1.87298 0
M  V30 4030 O 376.291 0.489864 -1.8823 0
M  V30 4031 C 376.574 -3.01723 -1.96558 0
M  V30 4032 C 376.427 -4.3417 -1.17545 0
M  V30 4033 C 377.746 -3.25772 -2.95907 0
M  V30 4034 H 374.865 -0.631222 -0.380432 0
M  V30 4035 H 377.507 -1.87184 -0.325932 0
M  V30 4036 H 375.657 -2.90174 -2.58324 0
M  V30 4037 H 377.329 -4.5762 -0.581513 0
M  V30 4038 H 375.572 -4.31159 -0.477925 0
M  V30 4039 H 376.243 -5.20143 -1.84811 0
M  V30 4040 H 378.719 -3.36857 -2.44267 0
M  V30 4041 H 377.595 -4.16838 -3.57123 0
M  V30 4042 H 377.856 -2.43537 -3.68974 0
M  V30 4043 N 376.915 0.57481 -1.46744 0
M  V30 4044 C 378.192 1.3352 -1.4294 0
M  V30 4045 C 378.572 2.10775 -0.117009 0
M  V30 4046 O 377.92 2.09966 0.901474 0
M  V30 4047 C 378.13 2.25456 -2.66403 0
M  V30 4048 C 379.478 2.87035 -3.12883 0
M  V30 4049 O 380.502 2.35766 -2.67007 0
M  V30 4050 O 379.361 3.80179 -3.92589 0
M  V30 4051 H 376.455 0.600318 -0.568812 0
M  V30 4052 H 379.001 0.595171 -1.58921 0
M  V30 4053 H 377.773 1.67851 -3.53471 0
M  V30 4054 H 377.396 3.06785 -2.52921 0
M  V30 4055 N 378.394 1.34581 0.820102 0
M  V30 4056 C 379.341 1.2639 1.93117 0
M  V30 4057 C 380.311 0.138554 1.65521 0
M  V30 4058 O 381.496 0.320004 1.88097 0
M  V30 4059 C 378.636 1.02812 3.29429 0
M  V30 4060 C 377.749 2.24146 3.693 0
M  V30 4061 C 376.884 1.93829 4.94574 0
M  V30 4062 C 375.923 3.1129 5.27034 0
M  V30 4063 N 375.06 2.80838 6.43486 0
M  V30 4064 H 379.9 2.21408 1.99455 0
M  V30 4065 H 377.437 1.10077 0.975784 0
M  V30 4066 H 379.395 0.871788 4.0799 0
M  V30 4067 H 378.025 0.114612 3.22596 0
M  V30 4068 H 377.077 2.50691 2.86109 0
M  V30 4069 H 378.389 3.11899 3.89257 0
M  V30 4070 H 377.543 1.74948 5.80929 0
M  V30 4071 H 376.282 1.03341 4.76626 0
M  V30 4072 H 375.287 3.30764 4.39175 0
M  V30 4073 H 376.512 4.02561 5.4692 0
M  V30 4074 H 374.458 1.92929 6.26988 0
M  V30 4075 H 374.375 3.62123 6.63629 0
M  V30 4076 H 375.643 2.65467 7.32903 0
M  V30 4077 N 379.872 -1.04064 1.18357 0
M  V30 4078 C 380.819 -2.12077 0.910603 0
M  V30 4079 C 381.789 -1.65421 -0.15 0
M  V30 4080 O 382.974 -1.90797 -0.0103614 0
M  V30 4081 C 380.114 -3.42252 0.442472 0
M  V30 4082 C 379.227 -4.0252 1.5685 0
M  V30 4083 C 378.362 -5.20657 1.05309 0
M  V30 4084 C 377.401 -5.72955 2.1538 0
M  V30 4085 N 376.538 -6.8238 1.65233 0
M  V30 4086 H 381.378 -2.34764 1.83548 0
M  V30 4087 H 378.915 -1.15157 0.915279 0
M  V30 4088 H 380.873 -4.16921 0.152534 0
M  V30 4089 H 379.503 -3.19712 -0.445428 0
M  V30 4090 H 378.555 -3.25178 1.97391 0
M  V30 4091 H 379.867 -4.37362 2.39824 0
M  V30 4092 H 379.021 -6.0244 0.717677 0
M  V30 4093 H 377.76 -4.87318 0.19293 0
M  V30 4094 H 376.765 -4.89793 2.49766 0
M  V30 4095 H 377.99 -6.08337 3.01832 0
M  V30 4096 H 375.936 -6.50917 0.815064 0
M  V30 4097 H 375.853 -7.16286 2.41805 0
M  V30 4098 H 377.121 -7.67788 1.34619 0
M  V30 4099 N 381.35 -0.985608 -1.22978 0
M  V30 4100 C 382.627 -0.573599 -1.87001 0
M  V30 4101 C 383.007 0.949213 -1.88555 0
M  V30 4102 O 382.355 1.82811 -1.37086 0
M  V30 4103 C 382.565 -1.18564 -3.28243 0
M  V30 4104 C 383.913 -1.28163 -4.04796 0
M  V30 4105 O 384.937 -1.13949 -3.37482 0
M  V30 4106 O 383.796 -1.50832 -5.25273 0
M  V30 4107 H 380.89 -0.193868 -0.803955 0
M  V30 4108 H 383.436 -1.08102 -1.30813 0
M  V30 4109 H 382.208 -2.22758 -3.21706 0
M  V30 4110 H 381.831 -0.663363 -3.92027 0
M  V30 4111 N 382.828 1.3818 -0.7579 0
M  V30 4112 C 383.791 2.28764 -0.141286 0
M  V30 4113 C 384.791 1.47388 0.642907 0
M  V30 4114 O 385.981 1.67781 0.468536 0
M  V30 4115 C 383.113 3.31184 0.808069 0
M  V30 4116 H 384.306 2.848 -0.939633 0
M  V30 4117 H 381.859 1.47212 -0.525191 0
M  V30 4118 H 382.594 2.80247 1.63193 0
M  V30 4119 H 382.379 3.91314 0.248104 0
M  V30 4120 H 383.869 3.98909 1.23536 0
M  V30 4121 N 384.306 0.507319 1.49211 0
M  V30 4122 C 385.552 -0.0350047 2.0277 0
M  V30 4123 C 385.885 -1.3606 1.38569 0
M  V30 4124 O 385.16 -1.87321 0.523542 0
M  V30 4125 C 385.443 -0.180916 3.59645 0
M  V30 4126 C 385.296 1.16825 4.34364 0
M  V30 4127 C 386.615 -0.918558 4.30407 0
M  V30 4128 H 383.734 -0.0112473 0.736914 0
M  V30 4129 H 386.376 0.659956 1.7817 0
M  V30 4130 H 384.526 -0.772826 3.80736 0
M  V30 4131 H 386.198 1.79952 4.24753 0
M  V30 4132 H 384.441 1.75594 3.96673 0
M  V30 4133 H 385.112 1.01939 5.42506 0
M  V30 4134 H 387.588 -0.41649 4.1401 0
M  V30 4135 H 386.464 -0.989505 5.39907 0
M  V30 4136 H 386.725 -1.96373 3.96093 0
M  V30 4137 N 385.784 -1.5574 0.241426 0
M  V30 4138 C 387.031 -1.9881 -0.384836 0
M  V30 4139 C 387.359 -1.12947 -1.58346 0
M  V30 4140 O 386.614 -0.178993 -1.9488 0
M  V30 4141 C 386.913 -3.47308 -0.843317 0
M  V30 4142 C 386.579 -4.50223 0.246946 0
M  V30 4143 C 385.241 -4.78088 0.546399 0
M  V30 4144 C 387.593 -5.11841 0.983282 0
M  V30 4145 C 384.921 -5.64846 1.58636 0
M  V30 4146 C 387.273 -5.99727 2.01272 0
M  V30 4147 C 385.937 -6.25927 2.31888 0
M  V30 4148 H 385.207 -0.727496 -0.140821 0
M  V30 4149 H 387.854 -1.8831 0.348106 0
M  V30 4150 H 386.159 -3.55112 -1.65537 0
M  V30 4151 H 387.856 -3.78017 -1.33806 0
M  V30 4152 H 384.446 -4.286 0.00340639 0
M  V30 4153 H 388.63 -4.90366 0.765182 0
M  V30 4154 H 383.886 -5.83403 1.82896 0
M  V30 4155 H 388.06 -6.46517 2.58823 0
M  V30 4156 H 385.687 -6.92949 3.12611 0
M  V30 4157 N 387.262 0.0317525 -1.57568 0
M  V30 4158 C 388.194 1.06073 -2.03178 0
M  V30 4159 C 389.207 1.32627 -0.944132 0
M  V30 4160 O 390.396 1.30162 -1.22148 0
M  V30 4161 C 387.496 2.40297 -2.38978 0
M  V30 4162 C 386.669 2.33137 -3.70089 0
M  V30 4163 C 385.728 3.49787 -3.9311 0
M  V30 4164 O 384.754 3.29403 -4.64201 0
M  V30 4165 N 385.956 4.71562 -3.38541 0
M  V30 4166 H 388.721 0.672006 -2.92069 0
M  V30 4167 H 386.282 0.219745 -1.60402 0
M  V30 4168 H 388.274 3.1705 -2.51518 0
M  V30 4169 H 386.844 2.71024 -1.55771 0
M  V30 4170 H 386.064 1.415 -3.67928 0
M  V30 4171 H 387.352 2.25493 -4.56104 0
M  V30 4172 H 386.75 4.91024 -2.80912 0
M  V30 4173 H 385.307 5.45689 -3.56464 0
M  V30 4174 N 388.74 1.54641 0.303973 0
M  V30 4175 C 390.156 1.45788 0.649463 0
M  V30 4176 C 390.356 0.64666 1.90842 0
M  V30 4177 O 389.412 0.153183 2.52035 0
M  V30 4178 C 390.725 2.89718 0.805227 0
M  V30 4179 C 392.273 2.99742 0.901305 0
M  V30 4180 C 392.748 4.44863 1.08909 0
M  V30 4181 N 394.239 4.48559 1.15536 0
M  V30 4182 C 394.974 5.58026 1.3189 0
M  V30 4183 N 394.47 6.77422 1.45161 0
M  V30 4184 N 396.263 5.45708 1.34755 0
M  V30 4185 H 388.414 2.05854 -0.523237 0
M  V30 4186 H 390.677 0.932186 -0.172431 0
M  V30 4187 H 390.383 3.51666 -0.0489108 0
M  V30 4188 H 390.257 3.36964 1.69513 0
M  V30 4189 H 392.644 2.3791 1.74593 0
M  V30 4190 H 392.725 2.55797 -0.0125531 0
M  V30 4191 H 392.369 5.07288 0.249241 0
M  V30 4192 H 392.299 4.86436 2.01713 0
M  V30 4193 H 394.79 3.6254 1.06646 0
M  V30 4194 H 395.103 7.56604 1.57387 0
M  V30 4195 H 393.448 6.80292 1.42223 0
M  V30 4196 H 396.639 4.51378 1.23996 0
M  V30 4197 H 396.812 6.3107 1.47157 0
M  V30 4198 N 390.218 -0.567019 1.47046 0
M  V30 4199 C 391.443 -1.3551 1.57009 0
M  V30 4200 C 391.868 -1.86841 0.217259 0
M  V30 4201 O 391.226 -1.62435 -0.805268 0
M  V30 4202 C 391.274 -2.50777 2.5912 0
M  V30 4203 O 390.378 -3.52706 2.13711 0
M  V30 4204 H 389.719 -0.402919 0.52778 0
M  V30 4205 H 392.249 -0.686241 1.92748 0
M  V30 4206 H 392.259 -2.97481 2.79229 0
M  V30 4207 H 390.934 -2.12771 3.57353 0
M  V30 4208 H 389.511 -3.12374 2.03659 0
M  V30 4209 N 391.696 -1.35014 -0.812953 0
M  V30 4210 C 392.644 -1.27435 -1.94585 0
M  V30 4211 C 393.638 -0.170494 -1.6854 0
M  V30 4212 O 394.844 -0.336085 -1.76835 0
M  V30 4213 H 391.219 -0.396144 -0.639198 0
M  V30 4214 H 393.19 -2.23158 -1.98098 0
M  V30 4215 C 391.939 -1.05677 -3.31252 0
M  V30 4216 H 391.262 -1.89853 -3.51846 0
M  V30 4217 H 392.702 -1.04413 -4.10943 0
M  V30 4218 C 391.161 0.239615 -3.36047 0
M  V30 4219 O 391.691 1.23759 -3.8216 0
M  V30 4220 N 389.897 0.276186 -2.89285 0
M  V30 4221 H 389.444 -0.53653 -2.51951 0
M  V30 4222 H 389.402 1.14332 -2.92875 0
M  V30 4223 N 393.175 1.03435 -1.18907 0
M  V30 4224 C 394.122 2.11591 -0.921837 0
M  V30 4225 C 395.092 1.65499 0.141226 0
M  V30 4226 O 396.277 1.908 0.000242829 0
M  V30 4227 C 393.417 3.42012 -0.460616 0
M  V30 4228 C 392.53 4.01682 -1.58982 0
M  V30 4229 C 391.665 5.20091 -1.08069 0
M  V30 4230 C 390.704 5.71805 -2.18416 0
M  V30 4231 N 389.841 6.81494 -1.68849 0
M  V30 4232 H 394.681 2.33787 -1.8479 0
M  V30 4233 H 392.218 1.1467 -0.921373 0
M  V30 4234 H 394.176 4.16834 -0.174642 0
M  V30 4235 H 392.806 3.19944 0.428467 0
M  V30 4236 H 391.858 3.24127 -1.99113 0
M  V30 4237 H 393.17 4.36084 -2.4214 0
M  V30 4238 H 392.324 6.02051 -0.749615 0
M  V30 4239 H 391.063 4.87209 -0.218771 0
M  V30 4240 H 390.068 4.88461 -2.5236 0
M  V30 4241 H 391.293 6.06728 -3.05054 0
M  V30 4242 H 389.239 6.50475 -0.849572 0
M  V30 4243 H 389.156 7.14994 -2.45601 0
M  V30 4244 H 390.424 7.67063 -1.38689 0
M  V30 4245 N 394.653 0.992116 1.22453 0
M  V30 4246 C 395.586 0.486701 2.22949 0
M  V30 4247 C 396.564 -0.45259 1.56174 0
M  V30 4248 O 397.748 -0.378317 1.84665 0
M  V30 4249 C 394.875 -0.294537 3.37417 0
M  V30 4250 C 393.921 0.590628 4.22391 0
M  V30 4251 S 394.754 2.04546 4.94895 0
M  V30 4252 C 395.91 1.27369 6.12803 0
M  V30 4253 H 396.143 1.33828 2.65475 0
M  V30 4254 H 393.676 0.799023 1.32117 0
M  V30 4255 H 395.634 -0.739241 4.03789 0
M  V30 4256 H 394.295 -1.12139 2.934 0
M  V30 4257 H 393.488 -0.0104375 5.03999 0
M  V30 4258 H 393.09 0.972064 3.61147 0
M  V30 4259 H 395.382 0.540943 6.75337 0
M  V30 4260 H 396.325 2.06502 6.7732 0
M  V30 4261 H 396.733 0.787324 5.58983 0
M  V30 4262 N 396.131 -1.37776 0.765217 0
M  V30 4263 C 397.081 -2.2768 0.12075 0
M  V30 4264 C 398.065 -1.45778 -0.680988 0
M  V30 4265 O 399.257 -1.684 -0.545033 0
M  V30 4266 C 396.386 -3.34722 -0.762626 0
M  V30 4267 C 395.472 -4.24074 0.0465881 0
M  V30 4268 N 395.863 -4.93939 1.08892 0
M  V30 4269 C 394.161 -4.45643 -0.178418 0
M  V30 4270 C 394.862 -5.59845 1.57951 0
M  V30 4271 N 393.838 -5.36218 0.892797 0
M  V30 4272 H 397.64 -2.79166 0.918889 0
M  V30 4273 H 395.154 -1.50816 0.602353 0
M  V30 4274 H 397.151 -3.98031 -1.24005 0
M  V30 4275 H 395.811 -2.84793 -1.55959 0
M  V30 4276 H 396.822 -4.96572 1.47095 0
M  V30 4277 H 393.499 -4.06599 -0.9478 0
M  V30 4278 H 394.889 -6.25703 2.44838 0
M  V30 4279 N 397.609 -0.515225 -1.4894 0
M  V30 4280 C 398.572 0.244681 -2.2789 0
M  V30 4281 C 399.572 0.881166 -1.34507 0
M  V30 4282 O 400.762 0.743497 -1.57537 0
M  V30 4283 C 397.894 1.35247 -3.12923 0
M  V30 4284 H 399.087 -0.448289 -2.96531 0
M  V30 4285 H 396.64 -0.270656 -1.53939 0
M  V30 4286 H 397.375 2.07916 -2.48881 0
M  V30 4287 H 397.16 0.901374 -3.81599 0
M  V30 4288 H 398.65 1.88737 -3.72516 0
M  V30 4289 N 399.087 1.5561 -0.249682 0
M  V30 4290 C 400.017 2.24477 0.642826 0
M  V30 4291 C 400.998 1.22601 1.17911 0
M  V30 4292 O 402.183 1.5126 1.21795 0
M  V30 4293 C 399.313 2.94638 1.83863 0
M  V30 4294 C 398.267 4.03227 1.435 0
M  V30 4295 C 397.593 4.60828 2.71186 0
M  V30 4296 C 398.893 5.18796 0.604002 0
M  V30 4297 H 400.587 2.99321 0.0685625 0
M  V30 4298 H 398.133 1.43965 0.0315363 0
M  V30 4299 H 400.086 3.41517 2.46868 0
M  V30 4300 H 398.81 2.17287 2.43832 0
M  V30 4301 H 397.469 3.57121 0.828275 0
M  V30 4302 H 397.117 3.80174 3.29358 0
M  V30 4303 H 396.817 5.34132 2.44901 0
M  V30 4304 H 398.341 5.10442 3.35084 0
M  V30 4305 H 399.755 5.61883 1.13842 0
M  V30 4306 H 398.152 5.98506 0.437097 0
M  V30 4307 H 399.222 4.83384 -0.383147 0
M  V30 4308 N 400.565 -0.0233959 1.57583 0
M  V30 4309 C 401.513 -1.04063 2.08023 0
M  V30 4310 C 402.507 -1.37084 0.995204 0
M  V30 4311 O 403.713 -1.35923 1.18004 0
M  V30 4312 H 400.088 -0.353144 0.663922 0
M  V30 4313 H 402.059 -0.589453 2.9252 0
M  V30 4314 C 400.808 -2.33123 2.57971 0
M  V30 4315 H 400.131 -2.08577 3.4108 0
M  V30 4316 H 401.571 -3.02632 2.96967 0
M  V30 4317 C 400.03 -3.02483 1.48342 0
M  V30 4318 O 400.56 -3.92541 0.852898 0
M  V30 4319 N 398.766 -2.63909 1.21658 0
M  V30 4320 H 398.313 -1.90758 1.73116 0
M  V30 4321 H 398.271 -3.10633 0.485218 0
M  V30 4322 N 402.043 -1.548 -0.295768 0
M  V30 4323 C 403.291 -1.73985 -1.02828 0
M  V30 4324 C 403.612 -0.531406 -1.87619 0
M  V30 4325 O 402.882 0.454221 -1.90561 0
M  V30 4326 H 401.462 -0.641556 -0.382642 0
M  V30 4327 H 404.124 -1.92163 -0.325489 0
M  V30 4328 H 403.22 -2.63129 -1.67838 0
M  V30 4329 N 403.521 0.559213 -1.47345 0
M  V30 4330 C 404.751 1.33999 -1.57251 0
M  V30 4331 C 405.159 1.87905 -0.220978 0
M  V30 4332 O 404.502 1.65577 0.795617 0
M  V30 4333 C 404.564 2.54798 -2.53611 0
M  V30 4334 C 404.228 2.22192 -3.99349 0
M  V30 4335 C 405.225 1.79607 -4.87891 0
M  V30 4336 C 402.91 2.33613 -4.44669 0
M  V30 4337 C 404.904 1.48868 -6.19772 0
M  V30 4338 C 402.591 2.02487 -5.76578 0
M  V30 4339 C 403.589 1.60183 -6.63951 0
M  V30 4340 O 403.277 1.29451 -7.93409 0
M  V30 4341 H 403.009 0.414858 -0.533731 0
M  V30 4342 H 405.563 0.684465 -1.9366 0
M  V30 4343 H 403.793 3.23235 -2.12265 0
M  V30 4344 H 405.482 3.16873 -2.53666 0
M  V30 4345 H 406.248 1.70278 -4.54126 0
M  V30 4346 H 402.127 2.65501 -3.76869 0
M  V30 4347 H 405.671 1.15775 -6.87926 0
M  V30 4348 H 401.568 2.11448 -6.09885 0
M  V30 4349 H 402.336 1.43098 -8.05894 0
M  V30 4350 N 404.999 1.35443 0.805782 0
M  V30 4351 C 405.929 1.31095 1.93226 0
M  V30 4352 C 406.91 0.185244 1.69088 0
M  V30 4353 O 408.095 0.380332 1.90439 0
M  V30 4354 C 405.225 1.08299 3.29983 0
M  V30 4355 C 404.179 2.17519 3.68605 0
M  V30 4356 C 403.505 1.79887 5.03532 0
M  V30 4357 C 404.805 3.5949 3.78898 0
M  V30 4358 H 406.499 2.25352 1.97122 0
M  V30 4359 H 404.045 1.0848 0.946996 0
M  V30 4360 H 405.998 1.03897 4.08391 0
M  V30 4361 H 404.722 0.104885 3.26432 0
M  V30 4362 H 403.381 2.2102 2.92482 0
M  V30 4363 H 403.029 0.80693 4.96485 0
M  V30 4364 H 402.729 2.53001 5.30344 0
M  V30 4365 H 404.253 1.77011 5.84379 0
M  V30 4366 H 405.667 3.58307 4.47536 0
M  V30 4367 H 404.064 4.31371 4.1718 0
M  V30 4368 H 405.134 3.95584 2.80431 0
M  V30 4369 N 406.477 -1.02803 1.19454 0
M  V30 4370 C 407.724 -1.76217 0.997693 0
M  V30 4371 C 408.052 -1.887 -0.47144 0
M  V30 4372 O 407.307 -1.4011 -1.3663 0
M  V30 4373 C 407.606 -3.18941 1.6128 0
M  V30 4374 C 407.272 -3.26463 3.11019 0
M  V30 4375 C 405.934 -3.28223 3.51885 0
M  V30 4376 C 408.286 -3.25542 4.07028 0
M  V30 4377 C 405.614 -3.26719 4.8731 0
M  V30 4378 C 407.966 -3.25579 5.42385 0
M  V30 4379 C 406.63 -3.25637 5.82681 0
M  V30 4380 H 405.9 -0.644823 0.365082 0
M  V30 4381 H 408.547 -1.20655 1.4871 0
M  V30 4382 H 406.852 -3.77587 1.04572 0
M  V30 4383 H 408.549 -3.74415 1.43577 0
M  V30 4384 H 405.139 -3.25822 2.78457 0
M  V30 4385 H 409.323 -3.23362 3.76498 0
M  V30 4386 H 404.579 -3.25089 5.1781 0
M  V30 4387 H 408.753 -3.23817 6.16535 0
M  V30 4388 H 406.38 -3.24226 6.87591 0
M  V30 4389 N 407.956 -0.998596 -1.21925 0
M  V30 4390 C 409.204 -0.676325 -1.90448 0
M  V30 4391 C 409.525 0.794719 -1.78071 0
M  V30 4392 O 408.795 1.5701 -1.17152 0
M  V30 4393 H 407.375 -0.247165 -0.704925 0
M  V30 4394 H 410.037 -1.26633 -1.48156 0
M  V30 4395 H 409.133 -0.943858 -2.97486 0
M  V30 4396 N 409.434 1.37368 -0.772513 0
M  V30 4397 C 410.382 2.32134 -0.147111 0
M  V30 4398 C 411.376 1.54972 0.684106 0
M  V30 4399 O 412.582 1.70363 0.581083 0
M  V30 4400 H 408.957 0.751449 -0.028786 0
M  V30 4401 H 410.928 2.82464 -0.962112 0
M  V30 4402 C 409.677 3.40226 0.71703 0
M  V30 4403 H 409 3.99706 0.0867951 0
M  V30 4404 H 410.44 4.08897 1.12159 0
M  V30 4405 C 408.899 2.80372 1.86797 0
M  V30 4406 O 409.429 2.71183 2.96349 0
M  V30 4407 N 407.635 2.37904 1.66883 0
M  V30 4408 H 407.182 2.45578 0.777759 0
M  V30 4409 H 407.14 1.98202 2.44056 0
M  V30 4410 N 410.912 0.523116 1.48665 0
M  V30 4411 C 412.159 -0.0134763 2.02496 0
M  V30 4412 C 412.487 -1.3493 1.40086 0
M  V30 4413 O 411.742 -1.88286 0.533567 0
M  V30 4414 C 412.041 -0.191671 3.56886 0
M  V30 4415 C 411.707 1.06893 4.38046 0
M  V30 4416 C 410.369 1.41443 4.59943 0
M  V30 4417 C 412.721 1.90584 4.85106 0
M  V30 4418 C 410.049 2.59594 5.26144 0
M  V30 4419 C 412.401 3.07907 5.52609 0
M  V30 4420 C 411.065 3.42811 5.72745 0
M  V30 4421 H 410.335 -0.00493133 0.740984 0
M  V30 4422 H 412.982 0.687751 1.78724 0
M  V30 4423 H 411.287 -0.97561 3.79459 0
M  V30 4424 H 412.984 -0.621659 3.96152 0
M  V30 4425 H 409.574 0.789848 4.21259 0
M  V30 4426 H 413.758 1.65203 4.67997 0
M  V30 4427 H 409.014 2.86847 5.39934 0
M  V30 4428 H 413.188 3.73066 5.88043 0
M  V30 4429 H 410.815 4.34462 6.23816 0
M  V30 4430 N 412.39 -1.55475 0.257931 0
M  V30 4431 C 413.801 -1.8511 -0.243135 0
M  V30 4432 C 414.152 -1.17986 -1.5676 0
M  V30 4433 O 413.277 -0.462102 -2.11409 0
M  V30 4434 C 413.872 -3.35826 -0.447929 0
M  V30 4435 C 412.431 -3.65647 -0.893245 0
M  V30 4436 C 411.578 -2.7729 0.0232965 0
M  V30 4437 H 414.529 -1.51261 0.480199 0
M  V30 4438 H 414.55 -3.58002 -1.28898 0
M  V30 4439 H 414.062 -3.84652 0.516196 0
M  V30 4440 H 412.163 -3.22308 -1.86945 0
M  V30 4441 H 412.276 -4.73312 -0.742469 0
M  V30 4442 H 410.64 -2.49942 -0.490021 0
M  V30 4443 H 411.423 -3.28926 0.982994 0
M  V30 4444 N 413.868 0.0150385 -1.57593 0
M  V30 4445 C 414.778 1.02791 -2.10882 0
M  V30 4446 C 415.794 1.38702 -1.0506 0
M  V30 4447 O 416.97 1.47739 -1.36877 0
M  V30 4448 C 414.035 2.30568 -2.58919 0
M  V30 4449 C 413.096 2.01108 -3.79281 0
M  V30 4450 C 412.329 3.22794 -4.25018 0
M  V30 4451 O 412.552 4.33959 -3.70183 0
M  V30 4452 O 411.486 3.07672 -5.17322 0
M  V30 4453 H 415.312 0.604973 -2.97613 0
M  V30 4454 H 412.897 0.23292 -1.47573 0
M  V30 4455 H 414.779 3.05662 -2.90084 0
M  V30 4456 H 413.454 2.72129 -1.75293 0
M  V30 4457 H 412.361 1.23537 -3.53114 0
M  V30 4458 H 413.694 1.64394 -4.63935 0
M  V30 4459 N 415.346 1.54954 0.287554 0
M  V30 4460 C 416.757 1.65732 0.859634 0
M  V30 4461 C 417.108 0.574767 1.87592 0
M  V30 4462 O 416.233 -0.286299 2.14498 0
M  V30 4463 C 416.828 3.00438 1.56597 0
M  V30 4464 C 415.387 3.13292 2.08627 0
M  V30 4465 C 414.534 2.61473 0.923416 0
M  V30 4466 H 417.485 1.5857 0.0642338 0
M  V30 4467 H 417.506 2.92613 2.43224 0
M  V30 4468 H 417.018 3.79207 0.826053 0
M  V30 4469 H 415.119 2.39268 2.85625 0
M  V30 4470 H 415.232 4.19647 2.31157 0
M  V30 4471 H 413.596 2.18264 1.31275 0
M  V30 4472 H 414.379 3.42733 0.197241 0
M  V30 4473 N 416.824 -0.551391 1.4764 0
M  V30 4474 C 418.101 -1.31229 1.45046 0
M  V30 4475 C 418.481 -2.10563 0.150527 0
M  V30 4476 O 417.829 -2.11374 -0.867956 0
M  V30 4477 C 418.039 -2.21189 2.69956 0
M  V30 4478 C 419.387 -2.82021 3.1741 0
M  V30 4479 O 420.411 -2.31488 2.70724 0
M  V30 4480 O 419.27 -3.73885 3.98588 0
M  V30 4481 H 416.364 -0.591193 0.578291 0
M  V30 4482 H 418.91 -0.569813 1.59847 0
M  V30 4483 H 417.682 -1.62207 3.56096 0
M  V30 4484 H 417.305 -3.02722 2.57769 0
M  V30 4485 N 418.302 -1.35869 -0.798587 0
M  V30 4486 C 419.235 -1.23801 -1.91699 0
M  V30 4487 C 420.213 -0.124143 -1.62125 0
M  V30 4488 O 421.397 -0.293656 -1.86199 0
M  V30 4489 C 418.524 -0.908063 -3.263 0
M  V30 4490 C 417.57 -2.0351 -3.74815 0
M  V30 4491 S 418.403 -3.65183 -3.91665 0
M  V30 4492 C 419.559 -3.34283 -5.29156 0
M  V30 4493 H 419.792 -2.18466 -2.01643 0
M  V30 4494 H 417.325 -1.21178 -0.956833 0
M  V30 4495 H 419.283 -0.724506 -4.04056 0
M  V30 4496 H 417.944 0.0206584 -3.14093 0
M  V30 4497 H 417.137 -1.75858 -4.72324 0
M  V30 4498 H 416.739 -2.1774 -3.04081 0
M  V30 4499 H 419.031 -2.87607 -6.13424 0
M  V30 4500 H 419.974 -4.31022 -5.61806 0
M  V30 4501 H 420.382 -2.69854 -4.95822 0
M  V30 4502 N 419.78 1.02168 -1.19998 0
M  V30 4503 C 421.02 1.77232 -1.01825 0
M  V30 4504 C 421.384 1.86833 0.442428 0
M  V30 4505 O 422.585 2.58293 0.744189 0
M  V30 4506 C 420.856 3.15601 -1.67722 0
M  V30 4507 S 422.415 4.06765 -1.64584 0
M  V30 4508 H 419.233 0.610021 -0.365233 0
M  V30 4509 H 421.835 1.22368 -1.52467 0
M  V30 4510 H 420.539 3.06235 -2.73218 0
M  V30 4511 H 420.07 3.7554 -1.17189 0
M  V30 4512 H 422.085 4.91586 -0.67511 0
M  V30 4513 N 421.258 1.00505 1.21394 0
M  V30 4514 C 422.504 0.688793 1.90745 0
M  V30 4515 C 422.837 -0.778486 1.77914 0
M  V30 4516 O 422.112 -1.56433 1.15581 0
M  V30 4517 C 422.395 1.11063 3.42545 0
M  V30 4518 C 422.248 2.63737 3.64367 0
M  V30 4519 C 423.567 0.673059 4.34923 0
M  V30 4520 H 420.686 0.251702 0.692687 0
M  V30 4521 H 423.328 1.25074 1.43026 0
M  V30 4522 H 421.478 0.632508 3.83317 0
M  V30 4523 H 423.15 3.19313 3.32922 0
M  V30 4524 H 421.393 3.05248 3.08231 0
M  V30 4525 H 422.064 2.88305 4.70727 0
M  V30 4526 H 424.54 1.08392 4.01734 0
M  V30 4527 H 423.416 0.996383 5.39781 0
M  V30 4528 H 423.677 -0.425808 4.40045 0
M  V30 4529 N 422.737 -1.36956 0.779787 0
M  V30 4530 C 423.985 -1.99097 0.347079 0
M  V30 4531 C 424.306 -1.62206 -1.08232 0
M  V30 4532 O 423.576 -0.891373 -1.74446 0
M  V30 4533 H 422.156 -0.736409 0.125342 0
M  V30 4534 H 424.818 -1.67308 0.999696 0
M  V30 4535 H 423.914 -3.09107 0.431162 0
M  V30 4536 N 424.215 -0.530993 -1.48385 0
M  V30 4537 C 425.125 0.23503 -2.3342 0
M  V30 4538 C 426.141 0.93801 -1.46552 0
M  V30 4539 O 427.317 0.912745 -1.7953 0
M  V30 4540 C 424.382 1.26778 -3.22689 0
M  V30 4541 C 423.443 0.575038 -4.25431 0
M  V30 4542 C 422.676 1.55858 -5.10435 0
M  V30 4543 O 422.899 2.79129 -4.97437 0
M  V30 4544 O 421.833 1.09742 -5.91811 0
M  V30 4545 H 425.659 -0.461794 -3.00169 0
M  V30 4546 H 423.244 -0.291903 -1.46521 0
M  V30 4547 H 425.126 1.86457 -3.77904 0
M  V30 4548 H 423.801 1.94699 -2.586 0
M  V30 4549 H 422.708 -0.0622782 -3.74048 0
M  V30 4550 H 424.041 -0.062253 -4.92161 0
M  V30 4551 N 425.693 1.55336 -0.266172 0
M  V30 4552 C 426.918 2.04258 0.359661 0
M  V30 4553 C 427.343 1.14359 1.49344 0
M  V30 4554 O 426.701 0.140369 1.80756 0
M  V30 4555 C 426.749 3.50997 0.826635 0
M  V30 4556 O 425.853 3.64204 1.93466 0
M  V30 4557 H 425.194 0.659668 0.075727 0
M  V30 4558 H 427.724 2.00694 -0.39786 0
M  V30 4559 H 427.734 3.9219 1.12477 0
M  V30 4560 H 426.409 4.159 -0.00293032 0
M  V30 4561 H 424.986 3.34913 1.63974 0
M  V30 4562 N 427.171 -0.0066808 1.57599 0
M  V30 4563 C 428.417 -0.693947 1.90558 0
M  V30 4564 C 428.75 -1.73792 0.866594 0
M  V30 4565 O 428.025 -1.94156 -0.115548 0
M  V30 4566 C 428.308 -1.34317 3.34112 0
M  V30 4567 C 428.161 -0.311189 4.48722 0
M  V30 4568 C 429.48 -2.27116 3.7697 0
M  V30 4569 H 426.599 -0.250803 0.693013 0
M  V30 4570 H 429.241 0.043242 1.89951 0
M  V30 4571 H 427.391 -1.9715 3.3476 0
M  V30 4572 H 429.063 0.316944 4.6021 0
M  V30 4573 H 427.306 0.367253 4.32243 0
M  V30 4574 H 427.977 -0.804366 5.46108 0
M  V30 4575 H 430.453 -1.74306 3.77831 0
M  V30 4576 H 429.329 -2.69511 4.78179 0
M  V30 4577 H 429.59 -3.14743 3.10466 0
M  V30 4578 N 428.649 -1.55105 -0.279332 0
M  V30 4579 C 429.874 -1.7976 -1.03446 0
M  V30 4580 C 430.299 -0.565952 -1.79384 0
M  V30 4581 O 429.657 0.484259 -1.74713 0
M  V30 4582 C 429.705 -3.0179 -1.97371 0
M  V30 4583 O 428.809 -2.76432 -3.06038 0
M  V30 4584 H 428.15 -0.594334 -0.29608 0
M  V30 4585 H 430.68 -2.02235 -0.310165 0
M  V30 4586 H 430.69 -3.30351 -2.39441 0
M  V30 4587 H 429.365 -3.91085 -1.4151 0
M  V30 4588 H 427.942 -2.58949 -2.68328 0
M  V30 4589 N 430.127 0.543554 -1.4793 0
M  V30 4590 C 431.373 1.29961 -1.56466 0
M  V30 4591 C 431.728 1.91024 -0.229696 0
M  V30 4592 O 431.021 1.75619 0.766072 0
M  V30 4593 C 431.215 2.42078 -2.62932 0
M  V30 4594 C 431.044 1.92003 -4.06651 0
M  V30 4595 C 429.814 1.75223 -4.73946 0
M  V30 4596 C 432.012 1.45648 -4.93245 0
M  V30 4597 N 429.994 1.19632 -6.02131 0
M  V30 4598 C 431.365 1.01914 -6.11566 0
M  V30 4599 C 433.42 1.33826 -4.79578 0
M  V30 4600 C 432.123 0.475301 -7.17728 0
M  V30 4601 C 434.149 0.808427 -5.85848 0
M  V30 4602 C 433.511 0.381081 -7.03368 0
M  V30 4603 H 429.61 0.467086 -0.62718 0
M  V30 4604 H 432.194 0.614543 -1.84747 0
M  V30 4605 H 430.365 3.08098 -2.36496 0
M  V30 4606 H 432.097 3.09096 -2.61231 0
M  V30 4607 H 428.852 1.98345 -4.30065 0
M  V30 4608 H 429.276 0.93885 -6.70458 0
M  V30 4609 H 433.918 1.65474 -3.89074 0
M  V30 4610 H 431.636 0.146472 -8.07967 0
M  V30 4611 H 435.222 0.720315 -5.77324 0
M  V30 4612 H 434.102 -0.0225344 -7.84197 0
M  V30 4613 N 431.605 1.3629 0.791371 0
M  V30 4614 C 432.555 1.26988 1.89362 0
M  V30 4615 C 433.539 0.161795 1.60084 0
M  V30 4616 O 434.731 0.394426 1.72549 0
M  V30 4617 C 431.86 1.05944 3.26544 0
M  V30 4618 C 430.946 2.21211 3.61838 0
M  V30 4619 N 431.337 3.46518 3.68455 0
M  V30 4620 C 429.635 2.12933 3.91887 0
M  V30 4621 C 430.336 4.2241 3.99931 0
M  V30 4622 N 429.312 3.51329 4.14812 0
M  V30 4623 H 433.114 2.21908 1.92702 0
M  V30 4624 H 430.628 1.28982 0.986787 0
M  V30 4625 H 432.625 0.973666 4.05371 0
M  V30 4626 H 431.285 0.119223 3.24481 0
M  V30 4627 H 432.296 3.80677 3.51148 0
M  V30 4628 H 428.973 1.26855 3.97761 0
M  V30 4629 H 430.363 5.30767 4.1199 0
M  V30 4630 N 433.083 -1.0153 1.20538 0
M  V30 4631 C 434.013 -2.11972 0.979295 0
M  V30 4632 C 434.994 -1.6985 -0.0921787 0
M  V30 4633 O 436.179 -1.94089 0.0655932 0
M  V30 4634 C 433.309 -3.43201 0.531984 0
M  V30 4635 C 432.263 -3.9907 1.54685 0
M  V30 4636 C 431.589 -5.26082 0.956127 0
M  V30 4637 C 432.889 -4.32313 2.93092 0
M  V30 4638 H 434.583 -2.31143 1.90298 0
M  V30 4639 H 432.129 -1.11079 0.916372 0
M  V30 4640 H 434.082 -4.1985 0.361044 0
M  V30 4641 H 432.806 -3.23792 -0.427327 0
M  V30 4642 H 431.465 -3.2453 1.70517 0
M  V30 4643 H 431.113 -5.02999 -0.0111538 0
M  V30 4644 H 430.813 -5.64426 1.63393 0
M  V30 4645 H 432.337 -6.05386 0.796284 0
M  V30 4646 H 433.751 -4.99845 2.80763 0
M  V30 4647 H 432.148 -4.81774 3.57791 0
M  V30 4648 H 433.218 -3.41025 3.44717 0
M  V30 4649 N 434.561 -1.01147 -1.20859 0
M  V30 4650 C 435.808 -0.697865 -1.90095 0
M  V30 4651 C 436.136 0.772014 -1.78522 0
M  V30 4652 O 435.391 1.57595 -1.16027 0
M  V30 4653 C 435.69 -1.0727 -3.40922 0
M  V30 4654 C 435.356 -2.53792 -3.72693 0
M  V30 4655 C 434.018 -2.93829 -3.81075 0
M  V30 4656 C 436.37 -3.48674 -3.87397 0
M  V30 4657 C 433.698 -4.27696 -4.01613 0
M  V30 4658 C 436.05 -4.82223 -4.09444 0
M  V30 4659 C 434.714 -5.21973 -4.16054 0
M  V30 4660 H 433.984 -0.255367 -0.695607 0
M  V30 4661 H 436.631 -1.27111 -1.43231 0
M  V30 4662 H 434.936 -0.417799 -3.89566 0
M  V30 4663 H 436.633 -0.807818 -3.92779 0
M  V30 4664 H 433.223 -2.21768 -3.66765 0
M  V30 4665 H 437.407 -3.18904 -3.80281 0
M  V30 4666 H 432.663 -4.58055 -4.04964 0
M  V30 4667 H 436.837 -5.55672 -4.19763 0
M  V30 4668 H 434.464 -6.25717 -4.31721 0
M  V30 4669 N 436.039 1.36541 -0.78704 0
M  V30 4670 C 437.287 1.98911 -0.357633 0
M  V30 4671 C 437.608 1.62778 1.07371 0
M  V30 4672 O 436.878 0.900612 1.73971 0
M  V30 4673 H 435.458 0.735734 -0.129246 0
M  V30 4674 H 438.12 1.66776 -1.00855 0
M  V30 4675 H 437.216 3.08874 -0.447549 0
M  V30 4676 N 437.518 0.538854 1.48102 0
M  V30 4677 C 438.451 -0.266495 2.26639 0
M  V30 4678 C 439.429 -0.93687 1.32897 0
M  V30 4679 O 440.613 -0.959507 1.62252 0
M  V30 4680 C 437.74 -1.37814 3.09394 0
M  V30 4681 C 436.786 -0.818247 4.18577 0
M  V30 4682 S 437.619 0.320848 5.34538 0
M  V30 4683 C 438.775 -0.793059 6.20855 0
M  V30 4684 H 439.008 0.399994 2.94597 0
M  V30 4685 H 436.541 0.324808 1.50945 0
M  V30 4686 H 438.499 -2.01488 3.57649 0
M  V30 4687 H 437.16 -2.01639 2.40833 0
M  V30 4688 H 436.353 -1.65247 4.7614 0
M  V30 4689 H 435.955 -0.258036 3.73109 0
M  V30 4690 H 438.247 -1.68961 6.56093 0
M  V30 4691 H 439.19 -0.255204 7.0764 0
M  V30 4692 H 439.598 -1.07746 5.54122 0
M  V30 4693 N 438.996 -1.55193 0.274407 0
M  V30 4694 C 440.244 -1.99187 -0.341902 0
M  V30 4695 C 440.565 -1.16422 -1.56431 0
M  V30 4696 O 439.835 -0.253573 -1.94252 0
M  V30 4697 H 438.415 -0.735721 -0.129317 0
M  V30 4698 H 441.077 -1.91168 0.379578 0
M  V30 4699 H 440.173 -3.05629 -0.632253 0
M  V30 4700 N 440.474 -0.00167713 -1.576 0
M  V30 4701 C 441.422 1.0074 -2.09652 0
M  V30 4702 C 442.416 1.35483 -1.01689 0
M  V30 4703 O 443.622 1.34028 -1.20152 0
M  V30 4704 H 439.997 0.342537 -0.669457 0
M  V30 4705 H 441.968 0.542841 -2.93421 0
M  V30 4706 C 440.717 2.2899 -2.61647 0
M  V30 4707 H 440.04 2.03124 -3.44355 0
M  V30 4708 H 441.48 2.9787 -3.01744 0
M  V30 4709 C 439.939 3.00085 -1.53136 0
M  V30 4710 O 440.469 3.91135 -0.91524 0
M  V30 4711 N 438.675 2.6194 -1.25841 0
M  V30 4712 H 438.222 1.8798 -1.76129 0
M  V30 4713 H 438.18 3.09822 -0.534576 0
M  V30 4714 N 441.952 1.55251 0.271103 0
M  V30 4715 C 442.862 1.9136 1.35714 0
M  V30 4716 C 443.878 0.811075 1.5394 0
M  V30 4717 O 445.054 1.11031 1.6803 0
M  V30 4718 C 442.119 2.1798 2.69603 0
M  V30 4719 C 441.18 3.4153 2.60107 0
M  V30 4720 C 440.413 3.66871 3.8761 0
M  V30 4721 O 440.636 2.94689 4.8838 0
M  V30 4722 O 439.57 4.60405 3.87699 0
M  V30 4723 H 443.396 2.83815 1.08088 0
M  V30 4724 H 440.981 1.41821 0.469792 0
M  V30 4725 H 442.863 2.36518 3.48765 0
M  V30 4726 H 441.538 1.28708 2.97012 0
M  V30 4727 H 440.445 3.28325 1.79314 0
M  V30 4728 H 441.778 4.31027 2.37647 0
M  V30 4729 N 443.43 -0.535701 1.48216 0
M  V30 4730 C 444.679 -1.28828 1.55197 0
M  V30 4731 C 444.992 -1.94263 0.228278 0
M  V30 4732 O 446.198 -2.70927 0.176278 0
M  V30 4733 C 444.654 -2.33727 2.73678 0
M  V30 4734 C 444.262 -1.74386 4.12666 0
M  V30 4735 C 446.006 -3.1003 2.89968 0
M  V30 4736 C 443.913 -2.77192 5.22416 0
M  V30 4737 H 442.843 -0.484484 0.577747 0
M  V30 4738 H 445.494 -0.56646 1.74538 0
M  V30 4739 H 443.876 -3.08919 2.4776 0
M  V30 4740 H 445.05 -1.05421 4.48579 0
M  V30 4741 H 443.365 -1.10595 4.01445 0
M  V30 4742 H 445.962 -3.86842 3.6913 0
M  V30 4743 H 446.305 -3.65542 1.9921 0
M  V30 4744 H 446.838 -2.41952 3.15759 0
M  V30 4745 H 443.577 -2.26507 6.15122 0
M  V30 4746 H 443.097 -3.44502 4.90998 0
M  V30 4747 H 444.776 -3.40285 5.50286 0
M  V30 4748 N 444.908 -1.36708 -0.784132 0
M  V30 4749 C 446.185 -1.21776 -1.53069 0
M  V30 4750 C 446.565 0.193876 -2.10208 0
M  V30 4751 O 445.913 1.20012 -1.94446 0
M  V30 4752 C 446.123 -2.30395 -2.62143 0
M  V30 4753 C 447.471 -2.67325 -3.29882 0
M  V30 4754 O 448.495 -2.29478 -2.7243 0
M  V30 4755 O 447.354 -3.32485 -4.33724 0
M  V30 4756 H 444.448 -0.474459 -0.677361 0
M  V30 4757 H 446.994 -1.48454 -0.82216 0
M  V30 4758 H 445.766 -3.2498 -2.17953 0
M  V30 4759 H 445.389 -2.05112 -3.40609 0
M  V30 4760 N 446.386 1.0089 -1.21074 0
M  V30 4761 C 447.635 1.74019 -1.01981 0
M  V30 4762 C 447.948 1.90408 0.447665 0
M  V30 4763 O 449.154 2.60707 0.757906 0
M  V30 4764 C 447.61 3.13026 -1.77603 0
M  V30 4765 C 447.218 3.04623 -3.28495 0
M  V30 4766 C 448.962 3.90312 -1.66904 0
M  V30 4767 C 446.869 4.38685 -3.96623 0
M  V30 4768 H 445.799 0.652422 -0.377971 0
M  V30 4769 H 448.45 1.12755 -1.44771 0
M  V30 4770 H 446.832 3.74878 -1.27604 0
M  V30 4771 H 448.006 2.52032 -3.85767 0
M  V30 4772 H 446.321 2.40827 -3.39693 0
M  V30 4773 H 448.918 4.8951 -2.15138 0
M  V30 4774 H 449.261 4.11558 -0.62658 0
M  V30 4775 H 449.794 3.35104 -2.14359 0
M  V30 4776 H 446.533 4.22641 -5.01054 0
M  V30 4777 H 446.053 4.91252 -3.4414 0
M  V30 4778 H 447.732 5.075 -4.01314 0
M  V30 4779 N 447.864 1.01787 1.20321 0
M  V30 4780 C 448.814 0.559976 2.21016 0
M  V30 4781 C 449.798 -0.385366 1.56217 0
M  V30 4782 O 450.99 -0.208126 1.75772 0
M  V30 4783 C 448.119 -0.0990553 3.43157 0
M  V30 4784 C 447.205 0.86807 4.15121 0
M  V30 4785 N 447.596 2.0261 4.63447 0
M  V30 4786 C 445.894 0.689162 4.40643 0
M  V30 4787 C 446.595 2.63518 5.18588 0
M  V30 4788 N 445.571 1.91569 5.08726 0
M  V30 4789 H 449.373 1.44281 2.56048 0
M  V30 4790 H 446.887 0.883381 1.36272 0
M  V30 4791 H 448.884 -0.444643 4.14522 0
M  V30 4792 H 447.544 -0.977709 3.0963 0
M  V30 4793 H 448.555 2.40598 4.58621 0
M  V30 4794 H 445.232 -0.14133 4.17261 0
M  V30 4795 H 446.622 3.61527 5.66346 0
M  V30 4796 N 449.342 -1.36122 0.79427 0
M  V30 4797 C 450.567 -2.03891 0.379871 0
M  V30 4798 C 450.992 -1.59488 -0.997251 0
M  V30 4799 O 450.35 -0.765652 -1.64339 0
M  V30 4800 C 450.398 -3.57687 0.457442 0
M  V30 4801 O 449.502 -4.08931 -0.5338 0
M  V30 4802 H 448.843 -0.6443 0.160541 0
M  V30 4803 H 451.373 -1.73976 1.07673 0
M  V30 4804 H 451.383 -4.06721 0.322792 0
M  V30 4805 H 450.058 -3.89357 1.46199 0
M  V30 4806 H 448.635 -3.71154 -0.360409 0
M  V30 4807 N 450.82 -0.546701 -1.47814 0
M  V30 4808 C 452.069 -0.0166497 -2.01693 0
M  V30 4809 C 452.382 1.33721 -1.42752 0
M  V30 4810 O 453.588 1.95658 -1.8823 0
M  V30 4811 C 452.044 0.0206769 -3.59894 0
M  V30 4812 C 451.652 -1.3293 -4.27824 0
M  V30 4813 C 453.396 0.498674 -4.21561 0
M  V30 4814 C 451.303 -1.25165 -5.78003 0
M  V30 4815 H 450.233 -0.0024541 -0.753996 0
M  V30 4816 H 452.884 -0.692984 -1.69912 0
M  V30 4817 H 451.266 0.76244 -3.88591 0
M  V30 4818 H 452.44 -2.08795 -4.10781 0
M  V30 4819 H 450.755 -1.74438 -3.78101 0
M  V30 4820 H 453.352 0.575 -5.31599 0
M  V30 4821 H 453.695 1.5083 -3.88016 0
M  V30 4822 H 454.228 -0.18791 -3.97356 0
M  V30 4823 H 450.967 -2.23695 -6.1615 0
M  V30 4824 H 450.487 -0.53464 -5.97412 0
M  V30 4825 H 452.166 -0.949299 -6.39998 0
M  V30 4826 N 452.299 1.55045 -0.282633 0
M  V30 4827 C 453.529 2.03872 0.334635 0
M  V30 4828 C 453.937 1.16018 1.49454 0
M  V30 4829 O 453.28 0.174449 1.8287 0
M  V30 4830 C 453.342 3.48791 0.870905 0
M  V30 4831 C 453.006 4.56715 -0.161338 0
M  V30 4832 C 454.003 5.10513 -0.983466 0
M  V30 4833 C 451.688 5.01417 -0.297745 0
M  V30 4834 C 453.682 6.07538 -1.92811 0
M  V30 4835 C 451.369 5.98265 -1.24586 0
M  V30 4836 C 452.367 6.51208 -2.05954 0
M  V30 4837 O 452.055 7.46162 -2.99162 0
M  V30 4838 H 451.787 0.671324 0.0793742 0
M  V30 4839 H 454.341 2.01169 -0.41473 0
M  V30 4840 H 452.571 3.48758 1.67047 0
M  V30 4841 H 454.26 3.80916 1.40207 0
M  V30 4842 H 455.026 4.76785 -0.888856 0
M  V30 4843 H 450.905 4.59849 0.325604 0
M  V30 4844 H 454.449 6.48787 -2.56363 0
M  V30 4845 H 450.346 6.31412 -1.34126 0
M  V30 4846 H 451.114 7.63903 -2.93929 0
M  V30 4847 N 453.777 0.010035 1.57597 0
M  V30 4848 C 455.024 -0.6727 1.91 0
M  V30 4849 C 455.352 -1.73219 0.884614 0
M  V30 4850 O 454.607 -1.95395 -0.109215 0
M  V30 4851 C 454.906 -1.34434 3.31153 0
M  V30 4852 C 454.572 -0.417083 4.48967 0
M  V30 4853 C 453.234 -0.161809 4.80928 0
M  V30 4854 C 455.586 0.220753 5.20732 0
M  V30 4855 C 452.914 0.739426 5.82022 0
M  V30 4856 C 455.266 1.10993 6.22787 0
M  V30 4857 C 453.93 1.37428 6.532 0
M  V30 4858 H 453.2 -0.246158 0.698918 0
M  V30 4859 H 455.847 0.0677145 1.9138 0
M  V30 4860 H 454.152 -2.15905 3.26944 0
M  V30 4861 H 455.849 -1.87883 3.54261 0
M  V30 4862 H 452.439 -0.626217 4.24001 0
M  V30 4863 H 456.623 0.0365643 4.96287 0
M  V30 4864 H 451.879 0.952139 6.03941 0
M  V30 4865 H 456.053 1.61046 6.77523 0
M  V30 4866 H 453.68 2.0743 7.31353 0
M  V30 4867 N 455.255 -1.55392 -0.262866 0
M  V30 4868 C 456.485 -1.80251 -1.00961 0
M  V30 4869 C 456.893 -0.58117 -1.80053 0
M  V30 4870 O 456.236 0.459427 -1.77862 0
M  V30 4871 C 456.298 -2.98207 -2.00781 0
M  V30 4872 C 455.962 -4.34856 -1.40533 0
M  V30 4873 C 456.959 -5.13459 -0.815853 0
M  V30 4874 C 454.644 -4.8153 -1.42948 0
M  V30 4875 C 456.638 -6.36875 -0.258562 0
M  V30 4876 C 454.325 -6.04899 -0.868334 0
M  V30 4877 C 455.323 -6.8241 -0.283884 0
M  V30 4878 O 455.011 -8.03451 0.268644 0
M  V30 4879 H 454.743 -0.604049 -0.303482 0
M  V30 4880 H 457.297 -2.03257 -0.295926 0
M  V30 4881 H 455.527 -2.70917 -2.75936 0
M  V30 4882 H 457.216 -3.10299 -2.61667 0
M  V30 4883 H 457.982 -4.78526 -0.789812 0
M  V30 4884 H 453.861 -4.21201 -1.87378 0
M  V30 4885 H 457.405 -6.97318 0.198257 0
M  V30 4886 H 453.302 -6.39312 -0.891649 0
M  V30 4887 H 454.07 -8.18346 0.158974 0
M  V30 4888 N 456.733 0.527833 -1.48498 0
M  V30 4889 C 457.981 1.28101 -1.56316 0
M  V30 4890 C 458.302 1.9352 -0.239781 0
M  V30 4891 O 457.572 1.81433 0.738849 0
M  V30 4892 H 456.152 0.475793 -0.575873 0
M  V30 4893 H 458.814 0.614052 -1.84974 0
M  V30 4894 H 457.91 2.05916 -2.34532 0
M  V30 4895 N 458.211 1.37122 0.776871 0
M  V30 4896 C 459.159 1.32549 1.91138 0
M  V30 4897 C 460.153 0.215119 1.68029 0
M  V30 4898 O 461.359 0.382852 1.75881 0
M  V30 4899 H 457.734 0.412952 0.62847 0
M  V30 4900 H 459.705 2.28332 1.92112 0
M  V30 4901 C 458.454 1.14422 3.28333 0
M  V30 4902 H 457.777 1.99115 3.46689 0
M  V30 4903 H 459.217 1.15272 4.0803 0
M  V30 4904 C 457.676 -0.150434 3.36564 0
M  V30 4905 O 458.206 -1.13584 3.85307 0
M  V30 4906 N 456.412 -0.19939 2.89915 0
M  V30 4907 H 455.959 0.603142 2.5044 0
M  V30 4908 H 455.917 -1.06526 2.95803 0
M  V30 4909 N 459.689 -1.00246 1.21608 0
M  V30 4910 C 460.917 -1.77631 1.06089 0
M  V30 4911 C 461.332 -1.84746 -0.38916 0
M  V30 4912 O 460.689 -1.31068 -1.26994 0
M  V30 4913 C 460.74 -3.21415 1.65453 0
M  V30 4914 O 460.461 -3.14703 3.04785 0
M  V30 4915 C 461.962 -4.15289 1.55079 0
M  V30 4916 H 459.182 -0.558162 0.37242 0
M  V30 4917 H 461.726 -1.26093 1.60999 0
M  V30 4918 H 459.881 -3.70053 1.14629 0
M  V30 4919 H 460.295 -4.05056 3.33212 0
M  V30 4920 H 461.769 -5.13965 2.01355 0
M  V30 4921 H 462.246 -4.36279 0.505665 0
M  V30 4922 H 462.852 -3.72543 2.05163 0
M  V30 4923 N 461.167 -1.02423 -1.1978 0
M  V30 4924 C 462.414 -0.717988 -1.89344 0
M  V30 4925 C 462.742 0.753036 -1.79331 0
M  V30 4926 O 461.997 1.56355 -1.17692 0
M  V30 4927 C 462.296 -1.1088 -3.39765 0
M  V30 4928 C 461.962 -2.57731 -3.6998 0
M  V30 4929 C 460.624 -2.97854 -3.77937 0
M  V30 4930 C 462.976 -3.52763 -3.83677 0
M  V30 4931 C 460.304 -4.31931 -3.97054 0
M  V30 4932 C 462.656 -4.86538 -4.04306 0
M  V30 4933 C 461.32 -5.26356 -4.10494 0
M  V30 4934 H 460.59 -0.26273 -0.692859 0
M  V30 4935 H 463.237 -1.28623 -1.41875 0
M  V30 4936 H 461.542 -0.459094 -3.89101 0
M  V30 4937 H 463.239 -0.849432 -3.919 0
M  V30 4938 H 459.829 -2.25646 -3.64393 0
M  V30 4939 H 464.013 -3.2292 -3.76877 0
M  V30 4940 H 459.269 -4.62324 -4.00083 0
M  V30 4941 H 463.443 -5.60093 -4.13846 0
M  V30 4942 H 461.07 -6.3026 -4.2506 0
M  V30 4943 N 462.645 1.35699 -0.801477 0
M  V30 4944 C 463.894 1.98165 -0.375979 0
M  V30 4945 C 464.207 1.64306 1.06127 0
M  V30 4946 O 465.413 2.20097 1.58964 0
M  V30 4947 C 463.869 3.54497 -0.621305 0
M  V30 4948 C 463.477 3.9727 -2.07076 0
M  V30 4949 C 465.221 4.23697 -0.26091 0
M  V30 4950 C 463.128 5.46427 -2.26211 0
M  V30 4951 H 462.058 0.741478 -0.136844 0
M  V30 4952 H 464.709 1.54834 -0.984814 0
M  V30 4953 H 463.091 3.95958 0.0574112 0
M  V30 4954 H 464.265 3.66974 -2.78687 0
M  V30 4955 H 462.58 3.40943 -2.39054 0
M  V30 4956 H 465.177 5.33334 -0.381994 0
M  V30 4957 H 465.52 4.0869 0.792344 0
M  V30 4958 H 466.053 3.87639 -0.893339 0
M  V30 4959 H 462.792 5.66396 -3.29963 0
M  V30 4960 H 462.312 5.78309 -1.59119 0
M  V30 4961 H 463.991 6.12819 -2.07513 0
M  V30 4962 N 464.123 0.554532 1.47522 0
M  V30 4963 C 465.348 0.0322661 2.07375 0
M  V30 4964 C 465.773 -1.25079 1.40488 0
M  V30 4965 O 465.131 -1.74859 0.47896 0
M  V30 4966 C 465.179 -0.149397 3.6029 0
M  V30 4967 O 464.283 -1.21259 3.9417 0
M  V30 4968 H 463.624 0.0501228 0.662106 0
M  V30 4969 H 466.154 0.769452 1.8958 0
M  V30 4970 H 466.164 -0.364437 4.06369 0
M  V30 4971 H 464.839 0.787743 4.08372 0
M  V30 4972 H 463.416 -0.97825 3.5984 0
M  V30 4973 N 465.601 -1.54893 0.290851 0
M  V30 4974 C 467.017 -1.59476 -0.0628432 0
M  V30 4975 C 467.217 -1.30795 -1.5328 0
M  V30 4976 O 466.273 -1.07644 -2.28406 0
M  V30 4977 C 467.586 -2.98928 0.325962 0
M  V30 4978 C 469.134 -3.11799 0.273882 0
M  V30 4979 C 469.609 -4.53544 0.637359 0
M  V30 4980 N 471.1 -4.59433 0.589507 0
M  V30 4981 C 471.835 -5.67164 0.84335 0
M  V30 4982 N 471.331 -6.82975 1.16263 0
M  V30 4983 N 473.124 -5.56786 0.771091 0
M  V30 4984 H 465.275 -1.71798 1.24896 0
M  V30 4985 H 467.538 -0.801879 0.505663 0
M  V30 4986 H 467.244 -3.24805 1.34887 0
M  V30 4987 H 467.118 -3.75793 -0.325441 0
M  V30 4988 H 469.505 -2.85677 -0.739765 0
M  V30 4989 H 469.586 -2.37112 0.959766 0
M  V30 4990 H 469.23 -4.80394 1.64877 0
M  V30 4991 H 469.16 -5.26553 -0.0704866 0
M  V30 4992 H 471.651 -3.76245 0.353252 0
M  V30 4993 H 471.964 -7.61048 1.34257 0
M  V30 4994 H 470.309 -6.84552 1.20057 0
M  V30 4995 H 473.5 -4.65187 0.521383 0
M  V30 4996 H 473.673 -6.40664 0.972295 0
M  V30 4997 N 467.08 -0.0183926 -1.57589 0
M  V30 4998 C 468.328 0.661253 -1.90976 0
M  V30 4999 C 468.649 1.73281 -0.894353 0
M  V30 5000 O 467.919 1.9579 0.0656788 0
M  V30 5001 H 466.499 0.247233 -0.704901 0
M  V30 5002 H 469.161 -0.0636639 -1.94796 0
M  V30 5003 H 468.257 1.12083 -2.9128 0
M  V30 5004 N 468.558 1.5553 0.254621 0
M  V30 5005 C 469.508 1.86057 1.31783 0
M  V30 5006 C 470.492 0.720827 1.4385 0
M  V30 5007 O 471.684 0.982586 1.47222 0
M  V30 5008 C 468.813 2.15203 2.67475 0
M  V30 5009 C 467.899 3.35484 2.59444 0
M  V30 5010 N 468.29 4.54945 2.2104 0
M  V30 5011 C 466.588 3.38441 2.90472 0
M  V30 5012 C 467.289 5.3707 2.23453 0
M  V30 5013 N 466.265 4.75936 2.62652 0
M  V30 5014 H 470.067 2.75953 1.01129 0
M  V30 5015 H 467.581 1.55653 0.463255 0
M  V30 5016 H 469.578 2.35235 3.44195 0
M  V30 5017 H 468.238 1.26601 2.99002 0
M  V30 5018 H 469.249 4.8071 1.92712 0
M  V30 5019 H 465.926 2.60087 3.2659 0
M  V30 5020 H 467.316 6.42626 1.96166 0
M  V30 5021 N 470.036 -0.519951 1.48776 0
M  V30 5022 C 471.452 -0.849418 1.35119 0
M  V30 5023 C 471.652 -1.98077 0.36982 0
M  V30 5024 O 470.708 -2.51664 -0.205359 0
M  V30 5025 C 472.021 -1.20748 2.75391 0
M  V30 5026 C 473.569 -1.31679 2.83954 0
M  V30 5027 C 474.044 -1.70824 4.24951 0
M  V30 5028 N 475.535 -1.77908 4.27672 0
M  V30 5029 C 476.27 -2.09603 5.33717 0
M  V30 5030 N 475.766 -2.39652 6.5003 0
M  V30 5031 N 477.559 -2.10694 5.21119 0
M  V30 5032 H 469.71 0.226377 2.1119 0
M  V30 5033 H 471.973 0.0386519 0.947212 0
M  V30 5034 H 471.679 -0.449703 3.48813 0
M  V30 5035 H 471.553 -2.15534 3.09556 0
M  V30 5036 H 473.94 -2.06532 2.10781 0
M  V30 5037 H 474.021 -0.3499 2.53396 0
M  V30 5038 H 473.665 -0.965282 4.98643 0
M  V30 5039 H 473.595 -2.6858 4.52959 0
M  V30 5040 H 476.086 -1.56923 3.43779 0
M  V30 5041 H 476.399 -2.6297 7.26682 0
M  V30 5042 H 474.744 -2.37149 6.53288 0
M  V30 5043 H 477.935 -1.86682 4.29264 0
M  V30 5044 H 478.108 -2.35062 6.03863 0
M  V30 5045 N 471.514 -1.37532 -0.769588 0
M  V30 5046 C 472.742 -1.36059 -1.55871 0
M  V30 5047 C 473.157 0.053544 -1.88724 0
M  V30 5048 O 472.514 1.01591 -1.5161 0
M  V30 5049 C 472.565 -2.20107 -2.86767 0
M  V30 5050 O 472.286 -3.56009 -2.55321 0
M  V30 5051 C 473.787 -2.26636 -3.80987 0
M  V30 5052 H 471.007 -0.465967 -0.482821 0
M  V30 5053 H 473.551 -1.80901 -0.953686 0
M  V30 5054 H 471.706 -1.78768 -3.43687 0
M  V30 5055 H 472.12 -4.0009 -3.39158 0
M  V30 5056 H 473.594 -2.89763 -4.69831 0
M  V30 5057 H 474.071 -1.2754 -4.20274 0
M  V30 5058 H 474.677 -2.68296 -3.29996 0
M  V30 5059 N 472.992 0.995999 -1.22138 0
M  V30 5060 C 474.269 1.70834 -0.952642 0
M  V30 5061 C 474.649 2.04257 0.533119 0
M  V30 5062 O 473.997 1.72343 1.50034 0
M  V30 5063 C 474.207 2.96119 -1.84701 0
M  V30 5064 C 475.555 3.68962 -2.10124 0
M  V30 5065 O 476.579 3.0612 -1.82124 0
M  V30 5066 O 475.438 4.82017 -2.57531 0
M  V30 5067 H 472.532 0.745498 -0.357997 0
M  V30 5068 H 475.078 1.05262 -1.33109 0
M  V30 5069 H 473.85 2.67898 -2.85213 0
M  V30 5070 H 473.473 3.6943 -1.46995 0
M  V30 5071 N 474.47 1.03057 1.19235 0
M  V30 5072 C 475.716 0.729098 1.89241 0
M  V30 5073 C 476.049 -0.740573 1.79525 0
M  V30 5074 O 475.324 -1.53946 1.18874 0
M  V30 5075 C 475.607 1.18304 3.40112 0
M  V30 5076 C 475.46 2.71406 3.5869 0
M  V30 5077 C 476.779 0.765161 4.33397 0
M  V30 5078 H 473.898 0.266338 0.687192 0
M  V30 5079 H 476.54 1.28079 1.40341 0
M  V30 5080 H 474.69 0.713672 3.81889 0
M  V30 5081 H 476.362 3.26303 3.26074 0
M  V30 5082 H 474.605 3.11717 3.01687 0
M  V30 5083 H 475.276 2.98225 4.64506 0
M  V30 5084 H 477.752 1.16889 3.99345 0
M  V30 5085 H 476.628 1.11065 5.37546 0
M  V30 5086 H 476.889 -0.332372 4.40849 0
M  V30 5087 N 475.948 -1.35272 0.808662 0
M  V30 5088 C 477.194 -1.99003 0.390581 0
M  V30 5089 C 477.527 -1.63999 -1.0401 0
M  V30 5090 O 476.802 -0.904368 -1.72196 0
M  V30 5091 C 477.085 -3.55454 0.576566 0
M  V30 5092 C 476.938 -4.00249 2.05233 0
M  V30 5093 C 478.257 -4.401 0.00354277 0
M  V30 5094 H 475.376 -0.722917 0.143388 0
M  V30 5095 H 478.018 -1.6039 1.01858 0
M  V30 5096 H 476.168 -3.88477 0.0419766 0
M  V30 5097 H 477.84 -3.77626 2.64946 0
M  V30 5098 H 476.083 -3.51082 2.54801 0
M  V30 5099 H 476.754 -5.0911 2.13333 0
M  V30 5100 H 479.23 -4.13548 0.460117 0
M  V30 5101 H 478.106 -5.48656 0.163575 0
M  V30 5102 H 478.367 -4.28444 -1.09032 0
M  V30 5103 N 477.426 -0.562348 -1.47226 0
M  V30 5104 C 478.374 0.195476 -2.31777 0
M  V30 5105 C 479.368 0.90433 -1.43242 0
M  V30 5106 O 480.574 0.825031 -1.59979 0
M  V30 5107 H 476.949 0.0819095 -0.747526 0
M  V30 5108 H 478.92 -0.536753 -2.93533 0
M  V30 5109 C 477.669 1.20902 -3.26003 0
M  V30 5110 H 476.992 0.672997 -3.94095 0
M  V30 5111 H 478.432 1.71006 -3.87986 0
M  V30 5112 C 476.891 2.25955 -2.49891 0
M  V30 5113 O 477.421 3.32969 -2.2471 0
M  V30 5114 N 475.627 2.00019 -2.1081 0
M  V30 5115 H 475.174 1.13006 -2.31489 0
M  V30 5116 H 475.132 2.70523 -1.60201 0
M  V30 5117 N 478.904 1.54736 -0.299062 0
M  V30 5118 C 479.834 2.26409 0.571085 0
M  V30 5119 C 480.815 1.2629 1.13951 0
M  V30 5120 O 482 1.55059 1.16921 0
M  V30 5121 C 479.13 3.00338 1.74396 0
M  V30 5122 C 478.084 4.07588 1.30599 0
M  V30 5123 C 477.41 4.69222 2.56387 0
M  V30 5124 C 478.71 5.20455 0.438645 0
M  V30 5125 H 480.404 2.99388 -0.0266991 0
M  V30 5126 H 477.95 1.43993 -0.0142812 0
M  V30 5127 H 479.903 3.49198 2.35878 0
M  V30 5128 H 478.627 2.24934 2.36796 0
M  V30 5129 H 477.286 3.59575 0.71424 0
M  V30 5130 H 476.934 3.9046 3.17097 0
M  V30 5131 H 476.634 5.41653 2.27784 0
M  V30 5132 H 478.158 5.20844 3.18675 0
M  V30 5133 H 479.572 5.65221 0.959085 0
M  V30 5134 H 477.969 5.99594 0.246466 0
M  V30 5135 H 479.039 4.8192 -0.536738 0
M  V30 5136 N 480.382 0.0267497 1.57577 0
M  V30 5137 C 481.629 -0.652404 1.91703 0
M  V30 5138 C 481.957 -1.72271 0.902936 0
M  V30 5139 O 481.212 -1.955 -0.0884843 0
M  V30 5140 C 481.511 -1.30914 3.3256 0
M  V30 5141 C 481.177 -0.369441 4.49384 0
M  V30 5142 C 479.839 -0.110791 4.81072 0
M  V30 5143 C 482.191 0.275971 5.20469 0
M  V30 5144 C 479.519 0.801116 5.81205 0
M  V30 5145 C 481.871 1.17592 6.21575 0
M  V30 5146 C 480.535 1.44348 6.51705 0
M  V30 5147 H 479.805 -0.238732 0.70149 0
M  V30 5148 H 482.452 0.0880091 1.91298 0
M  V30 5149 H 480.757 -2.12425 3.29216 0
M  V30 5150 H 482.454 -1.84115 3.56234 0
M  V30 5151 H 479.044 -0.581211 4.24641 0
M  V30 5152 H 483.228 0.0892 4.9622 0
M  V30 5153 H 478.484 1.01614 6.02897 0
M  V30 5154 H 482.658 1.68223 6.75777 0
M  V30 5155 H 480.285 2.15176 7.29111 0
M  V30 5156 N 481.861 -1.55662 -0.24637 0
M  V30 5157 C 483.272 -1.67953 -0.81539 0
M  V30 5158 C 483.623 -0.624302 -1.86002 0
M  V30 5159 O 482.748 0.229328 -2.15181 0
M  V30 5160 C 483.343 -3.04484 -1.48576 0
M  V30 5161 C 481.902 -3.18713 -2.00248 0
M  V30 5162 C 481.049 -2.6383 -0.853766 0
M  V30 5163 H 484 -1.58685 -0.0221692 0
M  V30 5164 H 484.021 -2.98959 -2.3538 0
M  V30 5165 H 483.533 -3.81264 -0.725222 0
M  V30 5166 H 481.634 -2.46757 -2.79181 0
M  V30 5167 H 481.747 -4.25628 -2.1995 0
M  V30 5168 H 480.111 -2.21667 -1.25442 0
M  V30 5169 H 480.894 -3.43135 -0.106302 0
M  V30 5170 N 483.339 0.512053 -1.4905 0
M  V30 5171 C 484.302 1.59704 -1.64399 0
M  V30 5172 C 485.302 1.52285 -0.516317 0
M  V30 5173 O 486.492 1.55635 -0.782527 0
M  V30 5174 C 483.624 2.9935 -1.63102 0
M  V30 5175 H 484.817 1.47428 -2.61161 0
M  V30 5176 H 482.37 0.735469 -1.37915 0
M  V30 5177 H 483.105 3.17116 -0.678836 0
M  V30 5178 H 482.89 3.06144 -2.44986 0
M  V30 5179 H 484.38 3.782 -1.77072 0
M  V30 5180 N 484.817 1.37938 0.762283 0
M  V30 5181 C 486.045 1.36883 1.55147 0
M  V30 5182 C 486.46 -0.0435348 1.8875 0
M  V30 5183 O 485.817 -1.00786 1.52146 0
M  V30 5184 C 485.868 2.21624 2.85596 0
M  V30 5185 O 485.589 3.57358 2.5343 0
M  V30 5186 C 487.09 2.28653 3.7978 0
M  V30 5187 H 484.31 0.468521 0.480343 0
M  V30 5188 H 486.854 1.81404 0.944079 0
M  V30 5189 H 485.009 1.80588 3.42734 0
M  V30 5190 H 485.423 4.01883 3.37032 0
M  V30 5191 H 486.897 2.9225 4.68288 0
M  V30 5192 H 487.374 1.29767 4.19592 0
M  V30 5193 H 487.98 2.70043 3.28568 0
M  V30 5194 N 486.295 -0.989507 1.22664 0
M  V30 5195 C 487.542 -1.72953 1.05325 0
M  V30 5196 C 487.87 -1.90104 -0.411168 0
M  V30 5197 O 487.125 -1.44386 -1.32103 0
M  V30 5198 C 487.424 -3.13649 1.71345 0
M  V30 5199 C 487.09 -3.16403 3.21248 0
M  V30 5200 C 485.752 -3.16862 3.62149 0
M  V30 5201 C 488.104 -3.12428 4.17179 0
M  V30 5202 C 485.432 -3.11051 4.97458 0
M  V30 5203 C 487.784 -3.08159 5.52468 0
M  V30 5204 C 486.448 -3.06935 5.92746 0
M  V30 5205 H 485.718 -0.632881 0.385412 0
M  V30 5206 H 488.365 -1.15863 1.52473 0
M  V30 5207 H 486.67 -3.74069 1.16532 0
M  V30 5208 H 488.367 -3.69658 1.55416 0
M  V30 5209 H 484.957 -3.16798 2.88682 0
M  V30 5210 H 489.141 -3.11221 3.86595 0
M  V30 5211 H 484.397 -3.0845 5.27891 0
M  V30 5212 H 488.571 -3.04039 6.26525 0
M  V30 5213 H 486.198 -3.02186 6.97558 0
M  V30 5214 N 487.773 -1.03688 -1.18687 0
M  V30 5215 C 488.703 -0.645407 -2.24403 0
M  V30 5216 C 489.684 0.349511 -1.66471 0
M  V30 5217 O 490.869 0.230453 -1.92828 0
M  V30 5218 C 487.999 -0.00365337 -3.473 0
M  V30 5219 C 486.953 -0.921705 -4.17958 0
M  V30 5220 C 486.279 -0.144629 -5.34504 0
M  V30 5221 C 487.579 -2.23909 -4.71871 0
M  V30 5222 H 489.273 -1.52917 -2.57404 0
M  V30 5223 H 486.819 -0.736711 -1.23728 0
M  V30 5224 H 488.772 0.281908 -4.20456 0
M  V30 5225 H 487.496 0.914963 -3.13522 0
M  V30 5226 H 486.155 -1.19159 -3.46694 0
M  V30 5227 H 485.803 0.776274 -4.96974 0
M  V30 5228 H 485.503 -0.756206 -5.82714 0
M  V30 5229 H 487.027 0.134004 -6.10453 0
M  V30 5230 H 488.441 -2.0145 -5.36741 0
M  V30 5231 H 486.838 -2.8033 -5.30599 0
M  V30 5232 H 487.908 -2.88822 -3.895 0
M  V30 5233 N 489.251 1.34841 -0.815825 0
M  V30 5234 C 490.479 2.0273 -0.413294 0
M  V30 5235 C 490.894 1.61459 0.978599 0
M  V30 5236 O 490.251 0.816584 1.63212 0
M  V30 5237 C 490.302 3.58058 -0.497676 0
M  V30 5238 O 490.023 3.97832 -1.8347 0
M  V30 5239 C 491.524 4.4321 -0.0891339 0
M  V30 5240 H 488.744 0.649956 -0.166728 0
M  V30 5241 H 491.288 1.72267 -1.10201 0
M  V30 5242 H 489.443 3.87136 0.142886 0
M  V30 5243 H 489.857 4.92501 -1.80396 0
M  V30 5244 H 491.331 5.5164 -0.199274 0
M  V30 5245 H 491.808 4.28432 0.966571 0
M  V30 5246 H 492.414 4.19446 -0.703214 0
M  V30 5247 N 490.729 0.570148 1.46925 0
M  V30 5248 C 491.957 0.0561966 2.06824 0
M  V30 5249 C 492.372 -1.24326 1.42086 0
M  V30 5250 O 491.729 -1.74882 0.521794 0
M  V30 5251 C 491.78 -0.129517 3.61268 0
M  V30 5252 O 491.501 1.1185 4.23581 0
M  V30 5253 C 493.002 -0.679266 4.38065 0
M  V30 5254 H 490.222 0.0517261 0.669003 0
M  V30 5255 H 492.766 0.787243 1.8874 0
M  V30 5256 H 490.921 -0.810739 3.78822 0
M  V30 5257 H 491.335 0.924375 5.1629 0
M  V30 5258 H 492.809 -0.758445 5.46765 0
M  V30 5259 H 493.286 -1.69346 4.05239 0
M  V30 5260 H 493.892 -0.0333237 4.25287 0
M  V30 5261 N 492.207 -1.54576 0.307264 0
M  V30 5262 C 493.117 -2.27435 -0.57536 0
M  V30 5263 C 494.133 -1.31183 -1.14311 0
M  V30 5264 O 495.309 -1.64175 -1.16656 0
M  V30 5265 C 492.374 -3.00566 -1.72803 0
M  V30 5266 C 491.435 -4.12369 -1.19373 0
M  V30 5267 C 490.668 -4.82003 -2.29147 0
M  V30 5268 O 490.891 -4.51038 -3.49171 0
M  V30 5269 O 489.825 -5.69271 -1.95485 0
M  V30 5270 H 493.651 -3.03696 0.0158558 0
M  V30 5271 H 491.236 -1.49219 0.0735064 0
M  V30 5272 H 493.118 -3.46416 -2.39946 0
M  V30 5273 H 491.793 -2.27195 -2.30574 0
M  V30 5274 H 490.7 -3.70905 -0.487851 0
M  V30 5275 H 492.033 -4.87736 -0.661376 0
M  V30 5276 N 493.685 -0.035106 -1.57561 0
M  V30 5277 C 494.618 0.979673 -2.06101 0
M  V30 5278 C 495.596 1.31378 -0.958046 0
M  V30 5279 O 496.78 1.42942 -1.22881 0
M  V30 5280 C 493.907 2.29809 -2.48808 0
M  V30 5281 C 492.953 2.11817 -3.70184 0
M  V30 5282 S 493.786 1.41143 -5.16565 0
M  V30 5283 C 494.942 2.74341 -5.62572 0
M  V30 5284 H 495.175 0.566506 -2.91853 0
M  V30 5285 H 492.708 0.176744 -1.53385 0
M  V30 5286 H 494.666 3.056 -2.74078 0
M  V30 5287 H 493.327 2.68257 -1.63392 0
M  V30 5288 H 492.52 3.09299 -3.97933 0
M  V30 5289 H 492.122 1.44168 -3.45097 0
M  V30 5290 H 494.414 3.70562 -5.67177 0
M  V30 5291 H 495.357 2.51249 -6.62027 0
M  V30 5292 H 495.765 2.79863 -4.90242 0
M  V30 5293 N 495.163 1.55791 0.238111 0
M  V30 5294 C 496.412 1.77234 0.962868 0
M  V30 5295 C 496.725 0.600661 1.86149 0
M  V30 5296 O 497.931 0.698315 2.62366 0
M  V30 5297 C 496.387 3.13808 1.76218 0
M  V30 5298 C 495.995 4.3865 0.910518 0
M  V30 5299 C 497.739 3.44585 2.47914 0
M  V30 5300 C 495.646 5.66252 1.70623 0
M  V30 5301 H 494.576 0.660731 0.36325 0
M  V30 5302 H 497.227 1.8221 0.217242 0
M  V30 5303 H 495.609 3.02963 2.55009 0
M  V30 5304 H 496.783 4.60507 0.164316 0
M  V30 5305 H 495.098 4.15271 0.30647 0
M  V30 5306 H 497.695 4.3714 3.07917 0
M  V30 5307 H 498.038 2.66314 3.19973 0
M  V30 5308 H 498.571 3.56685 1.76127 0
M  V30 5309 H 495.31 6.47369 1.02923 0
M  V30 5310 H 494.83 5.48483 2.42748 0
M  V30 5311 H 496.509 6.05829 2.27114 0
M  V30 5312 N 496.642 -0.504142 1.49319 0
M  V30 5313 C 497.605 -1.5883 1.65244 0
M  V30 5314 C 498.605 -1.52009 0.524386 0
M  V30 5315 O 499.795 -1.55218 0.79077 0
M  V30 5316 C 496.927 -2.98481 1.64687 0
M  V30 5317 H 498.12 -1.4604 2.61939 0
M  V30 5318 H 495.673 -0.728144 1.38303 0
M  V30 5319 H 496.408 -3.16751 0.695644 0
M  V30 5320 H 496.193 -3.0484 2.46607 0
M  V30 5321 H 497.683 -3.77256 1.79075 0
M  V30 5322 N 498.12 -1.38341 -0.754957 0
M  V30 5323 C 499.03 -1.3769 -1.89944 0
M  V30 5324 C 500.046 -0.274194 -1.71826 0
M  V30 5325 O 501.222 -0.512391 -1.94773 0
M  V30 5326 C 498.287 -1.19938 -3.25293 0
M  V30 5327 C 497.348 -2.40001 -3.55946 0
M  V30 5328 C 496.581 -2.23087 -4.84838 0
M  V30 5329 O 496.804 -1.22386 -5.57116 0
M  V30 5330 O 495.738 -3.11646 -5.14937 0
M  V30 5331 H 499.564 -2.3412 -1.93446 0
M  V30 5332 H 497.149 -1.19246 -0.900044 0
M  V30 5333 H 499.031 -1.12093 -4.06218 0
M  V30 5334 H 497.706 -0.265919 -3.22606 0
M  V30 5335 H 496.613 -2.53421 -2.75188 0
M  V30 5336 H 497.946 -3.31973 -3.63394 0
M  V30 5337 N 499.598 0.982988 -1.23187 0
M  V30 5338 C 500.546 2.09616 -1.00817 0
M  V30 5339 C 501.54 1.6932 0.0519995 0
M  V30 5340 O 502.746 1.79715 -0.101284 0
M  V30 5341 H 499.121 0.685628 -0.308899 0
M  V30 5342 H 501.092 2.25652 -1.95253 0
M  V30 5343 C 499.841 3.42249 -0.613243 0
M  V30 5344 H 499.164 3.73705 -1.42073 0
M  V30 5345 H 500.604 4.21086 -0.496208 0
M  V30 5346 C 499.063 3.30002 0.678233 0
M  V30 5347 O 499.593 3.6263 1.72807 0
M  V30 5348 N 497.799 2.83164 0.653165 0
M  V30 5349 H 497.346 2.56811 -0.201492 0
M  V30 5350 H 497.304 2.75352 1.51752 0
M  V30 5351 N 501.076 1.04316 1.18135 0
M  V30 5352 C 502.487 0.775505 1.69832 0
M  V30 5353 C 502.838 -0.703348 1.8316 0
M  V30 5354 O 501.963 -1.54729 1.51287 0
M  V30 5355 C 502.558 1.40112 3.0847 0
M  V30 5356 C 501.117 1.18172 3.57368 0
M  V30 5357 C 500.264 1.49022 2.33854 0
M  V30 5358 H 503.215 1.20925 1.02775 0
M  V30 5359 H 503.236 0.805672 3.71873 0
M  V30 5360 H 502.748 2.47744 2.98738 0
M  V30 5361 H 500.849 0.124258 3.72393 0
M  V30 5362 H 500.962 1.8805 4.40652 0
M  V30 5363 H 499.326 0.909995 2.37889 0
M  V30 5364 H 500.109 2.57768 2.26738 0
M  V30 5365 N 502.554 -1.34406 0.822964 0
M  V30 5366 C 503.802 -1.97892 0.410245 0
M  V30 5367 C 504.123 -1.65567 -1.03017 0
M  V30 5368 O 503.393 -0.94642 -1.71522 0
M  V30 5369 H 501.973 -0.732049 0.148707 0
M  V30 5370 H 504.635 -1.64043 1.05242 0
M  V30 5371 H 503.731 -3.07579 0.529284 0
M  V30 5372 N 504.032 -0.577932 -1.46621 0
M  V30 5373 C 504.979 0.158048 -2.30258 0
M  V30 5374 C 505.949 0.888669 -1.40328 0
M  V30 5375 O 507.134 0.880283 -1.6928 0
M  V30 5376 C 504.274 1.16884 -3.24703 0
M  V30 5377 C 503.387 0.442163 -4.29731 0
M  V30 5378 C 502.522 1.44007 -5.11308 0
M  V30 5379 C 501.561 0.69952 -6.0809 0
M  V30 5380 N 500.698 1.64525 -6.82551 0
M  V30 5381 H 505.538 -0.561242 -2.92667 0
M  V30 5382 H 503.075 -0.288591 -1.44241 0
M  V30 5383 H 505.033 1.7677 -3.779 0
M  V30 5384 H 503.663 1.85591 -2.64113 0
M  V30 5385 H 502.715 -0.271632 -3.79429 0
M  V30 5386 H 504.027 -0.136992 -4.98612 0
M  V30 5387 H 503.181 2.11186 -5.68758 0
M  V30 5388 H 501.92 2.05315 -4.42377 0
M  V30 5389 H 500.925 0.0139217 -5.49798 0
M  V30 5390 H 502.15 0.091894 -6.79038 0
M  V30 5391 H 500.096 2.24653 -6.16334 0
M  V30 5392 H 500.013 1.11878 -7.47676 0
M  V30 5393 H 501.281 2.30754 -7.44562 0
M  V30 5394 N 505.51 1.54411 -0.315457 0
M  V30 5395 C 506.756 2.01425 0.282775 0
M  V30 5396 C 507.111 1.19978 1.5041 0
M  V30 5397 O 506.404 0.271766 1.89663 0
M  V30 5398 C 506.598 3.50936 0.676652 0
M  V30 5399 C 506.427 4.46856 -0.504954 0
M  V30 5400 C 505.197 4.95275 -1.00152 0
M  V30 5401 C 507.395 4.96141 -1.35456 0
M  V30 5402 N 505.377 5.75081 -2.14838 0
M  V30 5403 C 506.748 5.73791 -2.3487 0
M  V30 5404 C 508.803 4.78299 -1.38327 0
M  V30 5405 C 507.506 6.35498 -3.36949 0
M  V30 5406 C 509.532 5.40836 -2.39271 0
M  V30 5407 C 508.894 6.1833 -3.37413 0
M  V30 5408 H 504.993 0.779078 0.0675398 0
M  V30 5409 H 507.577 1.8946 -0.448656 0
M  V30 5410 H 505.748 3.63162 1.37723 0
M  V30 5411 H 507.48 3.84728 1.25566 0
M  V30 5412 H 504.235 4.70107 -0.574123 0
M  V30 5413 H 504.659 6.19664 -2.72665 0
M  V30 5414 H 509.301 4.17956 -0.638196 0
M  V30 5415 H 507.019 6.94967 -4.12367 0
M  V30 5416 H 510.605 5.28952 -2.42284 0
M  V30 5417 H 509.485 6.65861 -4.14244 0
M  V30 5418 N 506.988 0.0434614 1.5754 0
M  V30 5419 C 507.921 -0.968729 2.06618 0
M  V30 5420 C 508.899 -1.30868 0.965 0
M  V30 5421 O 510.083 -1.42288 1.23638 0
M  V30 5422 C 507.21 -2.28486 2.50023 0
M  V30 5423 C 506.256 -2.09851 3.71302 0
M  V30 5424 S 507.089 -1.38401 5.17306 0
M  V30 5425 C 508.245 -2.71354 5.64019 0
M  V30 5426 H 508.478 -0.551021 2.92149 0
M  V30 5427 H 506.011 -0.168607 1.53477 0
M  V30 5428 H 507.969 -3.04142 2.75695 0
M  V30 5429 H 506.63 -2.67387 1.64812 0
M  V30 5430 H 505.823 -3.07184 3.99567 0
M  V30 5431 H 505.425 -1.42336 3.45856 0
M  V30 5432 H 507.717 -3.67549 5.69134 0
M  V30 5433 H 508.66 -2.47734 6.6335 0
M  V30 5434 H 509.068 -2.77259 4.91719 0
M  V30 5435 N 508.466 -1.55915 -0.229846 0
M  V30 5436 C 509.715 -1.77742 -0.953455 0
M  V30 5437 C 510.028 -0.610524 -1.85828 0
M  V30 5438 O 511.234 -0.712219 -2.61992 0
M  V30 5439 C 509.69 -3.14738 -1.74551 0
M  V30 5440 C 509.298 -4.39126 -0.887242 0
M  V30 5441 C 511.042 -3.45895 -2.46084 0
M  V30 5442 C 508.949 -5.67149 -1.67617 0
M  V30 5443 H 507.879 -0.662648 -0.359741 0
M  V30 5444 H 510.53 -1.82322 -0.207576 0
M  V30 5445 H 508.912 -3.04311 -2.53399 0
M  V30 5446 H 510.086 -4.60588 -0.139892 0
M  V30 5447 H 508.401 -4.15427 -0.284443 0
M  V30 5448 H 510.998 -4.38767 -3.05594 0
M  V30 5449 H 511.341 -2.68007 -3.18556 0
M  V30 5450 H 511.874 -3.57614 -1.74233 0
M  V30 5451 H 508.613 -6.47906 -0.994881 0
M  V30 5452 H 508.133 -5.49763 -2.39836 0
M  V30 5453 H 509.812 -6.07025 -2.23898 0
M  V30 5454 N 509.944 0.496216 -1.49584 0
M  V30 5455 C 511.172 1.27394 -1.63029 0
M  V30 5456 C 511.587 1.86344 -0.303569 0
M  V30 5457 O 510.944 1.68057 0.711547 0
M  V30 5458 C 510.995 2.40077 -2.70269 0
M  V30 5459 O 510.716 1.83549 -3.97796 0
M  V30 5460 C 512.217 3.31372 -2.94462 0
M  V30 5461 H 509.437 0.386211 -0.54871 0
M  V30 5462 H 511.981 0.595163 -1.95648 0
M  V30 5463 H 510.136 3.03775 -2.40415 0
M  V30 5464 H 510.55 2.57561 -4.56905 0
M  V30 5465 H 512.024 4.06707 -3.73221 0
M  V30 5466 H 512.501 3.88654 -2.0456 0
M  V30 5467 H 513.107 2.73435 -3.25751 0
M  V30 5468 N 511.423 1.38739 0.74761 0
M  V30 5469 C 512.663 1.36695 1.51966 0
M  V30 5470 C 513.027 -0.0411889 1.91956 0
M  V30 5471 O 514.228 -0.186543 2.68152 0
M  V30 5472 C 512.499 2.30119 2.73459 0
M  V30 5473 S 514.058 2.4615 3.63257 0
M  V30 5474 H 510.876 0.484929 0.519966 0
M  V30 5475 H 513.478 1.7472 0.877104 0
M  V30 5476 H 512.182 3.31312 2.422 0
M  V30 5477 H 511.713 1.93265 3.42655 0
M  V30 5478 H 513.728 1.69001 4.66533 0
M  V30 5479 N 512.901 -0.976442 1.23707 0
M  V30 5480 C 513.833 -2.07212 0.979574 0
M  V30 5481 C 514.846 -1.6273 -0.0478528 0
M  V30 5482 O 516.035 -1.77506 0.18815 0
M  V30 5483 C 513.135 -3.35835 0.45479 0
M  V30 5484 C 512.308 -4.09268 1.54331 0
M  V30 5485 C 511.367 -5.16166 1.02271 0
M  V30 5486 O 510.393 -5.42827 1.71254 0
M  V30 5487 N 511.595 -5.80313 -0.147419 0
M  V30 5488 H 514.36 -2.29878 1.92292 0
M  V30 5489 H 511.921 -1.14343 1.14618 0
M  V30 5490 H 513.913 -4.04597 0.0914631 0
M  V30 5491 H 512.483 -3.10106 -0.394068 0
M  V30 5492 H 511.703 -3.34906 2.07923 0
M  V30 5493 H 512.991 -4.55095 2.27522 0
M  V30 5494 H 512.389 -5.61043 -0.724353 0
M  V30 5495 H 510.946 -6.50231 -0.451972 0
M  V30 5496 N 514.379 -1.04941 -1.1758 0
M  V30 5497 C 515.625 -0.759112 -1.88057 0
M  V30 5498 C 515.958 0.711918 -1.8068 0
M  V30 5499 O 515.233 1.52035 -1.21308 0
M  V30 5500 C 515.516 -1.237 -3.38187 0
M  V30 5501 C 515.369 -2.77078 -3.54327 0
M  V30 5502 C 516.688 -0.834014 -4.32125 0
M  V30 5503 H 513.807 -0.277237 -0.682868 0
M  V30 5504 H 516.449 -1.30296 -1.38286 0
M  V30 5505 H 514.599 -0.774337 -3.80705 0
M  V30 5506 H 516.271 -3.31449 -3.20842 0
M  V30 5507 H 514.514 -3.16477 -2.96689 0
M  V30 5508 H 515.185 -3.05577 -4.59703 0
M  V30 5509 H 517.661 -1.23228 -3.97434 0
M  V30 5510 H 516.537 -1.19603 -5.35711 0
M  V30 5511 H 516.798 0.262195 -4.41322 0
M  V30 5512 N 515.857 1.33968 -0.830081 0
M  V30 5513 C 517.082 2.02813 -0.433796 0
M  V30 5514 C 517.507 1.62076 0.954614 0
M  V30 5515 O 516.865 0.808955 1.62252 0
M  V30 5516 C 516.913 3.56348 -0.552115 0
M  V30 5517 O 516.017 4.10202 0.425191 0
M  V30 5518 H 515.358 0.639817 -0.177567 0
M  V30 5519 H 517.888 1.7106 -1.12248 0
M  V30 5520 H 517.898 4.05722 -0.430513 0
M  V30 5521 H 516.573 3.85344 -1.56471 0
M  V30 5522 H 515.15 3.71979 0.261878 0
M  V30 5523 N 517.335 0.585699 1.46312 0
M  V30 5524 C 518.612 0.00542031 1.95599 0
M  V30 5525 C 518.992 -1.45619 1.52834 0
M  V30 5526 O 518.34 -2.14759 0.780446 0
M  V30 5527 C 518.55 0.180601 3.48532 0
M  V30 5528 C 519.898 0.049979 4.24571 0
M  V30 5529 O 520.922 0.109589 3.56031 0
M  V30 5530 O 519.781 -0.0832226 5.46437 0
M  V30 5531 H 516.875 -0.0481281 0.825598 0
M  V30 5532 H 519.421 0.654227 1.56582 0
M  V30 5533 H 518.193 1.19657 3.72556 0
M  V30 5534 H 517.816 -0.504498 3.94386 0
M  V30 5535 N 518.813 -1.54241 0.323641 0
M  V30 5536 C 519.763 -2.21071 -0.557833 0
M  V30 5537 C 520.747 -1.19126 -1.08157 0
M  V30 5538 O 521.939 -1.44755 -1.01857 0
M  V30 5539 C 519.068 -2.97208 -1.71821 0
M  V30 5540 C 518.154 -4.06491 -1.20936 0
M  V30 5541 N 518.545 -5.04052 -0.420202 0
M  V30 5542 C 516.843 -4.20443 -1.48808 0
M  V30 5543 C 517.544 -5.81516 -0.146413 0
M  V30 5544 N 516.52 -5.38641 -0.732562 0
M  V30 5545 H 520.322 -2.93853 0.0523921 0
M  V30 5546 H 517.836 -1.61883 0.129502 0
M  V30 5547 H 519.833 -3.4357 -2.36146 0
M  V30 5548 H 518.493 -2.25947 -2.33191 0
M  V30 5549 H 519.504 -5.17862 -0.0630401 0
M  V30 5550 H 516.181 -3.60396 -2.10762 0
M  V30 5551 H 517.571 -6.70119 0.488895 0
M  V30 5552 N 520.291 -0.0518155 -1.57515 0
M  V30 5553 C 521.221 0.920283 -2.146 0
M  V30 5554 C 522.202 1.32406 -1.06783 0
M  V30 5555 O 523.387 1.39866 -1.34726 0
M  V30 5556 C 520.517 2.1949 -2.6915 0
M  V30 5557 C 519.471 1.93116 -3.81956 0
M  V30 5558 C 518.797 3.27037 -4.23026 0
M  V30 5559 C 520.097 1.25225 -5.07066 0
M  V30 5560 H 521.791 0.444801 -2.96077 0
M  V30 5561 H 519.337 0.212508 -1.42423 0
M  V30 5562 H 521.29 2.87894 -3.07725 0
M  V30 5563 H 520.014 2.69244 -1.84865 0
M  V30 5564 H 518.673 1.27123 -3.43854 0
M  V30 5565 H 518.321 3.74595 -3.3569 0
M  V30 5566 H 518.021 3.10189 -4.99056 0
M  V30 5567 H 519.545 3.96673 -4.64202 0
M  V30 5568 H 520.959 1.83666 -5.43083 0
M  V30 5569 H 519.356 1.18702 -5.88243 0
M  V30 5570 H 520.426 0.228382 -4.84362 0
M  V30 5571 N 521.769 1.56035 0.221574 0
M  V30 5572 C 522.701 1.889 1.29805 0
M  V30 5573 C 523.714 0.777269 1.43047 0
M  V30 5574 O 524.903 1.05557 1.43945 0
M  V30 5575 C 522.003 2.0825 2.67367 0
M  V30 5576 C 521.176 3.39267 2.76073 0
M  V30 5577 C 520.235 3.48049 3.94649 0
M  V30 5578 O 519.261 4.2108 3.82988 0
M  V30 5579 N 520.463 2.79191 5.08953 0
M  V30 5580 H 523.228 2.81831 1.01938 0
M  V30 5581 H 520.789 1.5658 0.411612 0
M  V30 5582 H 522.781 2.11441 3.45072 0
M  V30 5583 H 521.351 1.21944 2.87834 0
M  V30 5584 H 520.571 3.48175 1.84846 0
M  V30 5585 H 521.859 4.25575 2.7886 0
M  V30 5586 H 521.257 2.19635 5.21322 0
M  V30 5587 H 519.814 2.88043 5.84701 0
M  V30 5588 N 523.247 -0.488276 1.49845 0
M  V30 5589 C 524.21 -1.57069 1.66919 0
M  V30 5590 C 525.21 -1.51445 0.540479 0
M  V30 5591 O 526.4 -1.5437 0.807188 0
M  V30 5592 C 523.532 -2.96718 1.67844 0
M  V30 5593 H 524.725 -1.43254 2.63474 0
M  V30 5594 H 522.278 -0.713435 1.39068 0
M  V30 5595 H 523.013 -3.15996 0.7292 0
M  V30 5596 H 522.798 -3.02208 2.49826 0
M  V30 5597 H 524.288 -3.75335 1.83066 0
M  V30 5598 N 524.725 -1.39134 -0.740242 0
M  V30 5599 C 525.973 -1.35803 -1.49673 0
M  V30 5600 C 526.294 0.0470897 -1.94943 0
M  V30 5601 O 525.564 0.997347 -1.68611 0
M  V30 5602 H 524.144 -0.499736 -0.555224 0
M  V30 5603 H 526.806 -1.73947 -0.879107 0
M  V30 5604 H 525.902 -2.0174 -2.38133 0
M  V30 5605 N 526.204 0.969867 -1.24223 0
M  V30 5606 C 527.137 2.06279 -0.975926 0
M  V30 5607 C 528.115 1.62353 0.0895385 0
M  V30 5608 O 529.299 1.88442 -0.0469418 0
M  V30 5609 C 526.426 3.35391 -0.472315 0
M  V30 5610 C 525.472 3.98266 -1.526 0
M  V30 5611 S 526.305 4.36172 -3.10667 0
M  V30 5612 C 527.461 5.68423 -2.62003 0
M  V30 5613 H 527.694 2.28551 -1.90137 0
M  V30 5614 H 525.227 1.10748 -1.07584 0
M  V30 5615 H 527.185 4.10068 -0.188376 0
M  V30 5616 H 525.846 3.1111 0.432378 0
M  V30 5617 H 525.039 4.91307 -1.12399 0
M  V30 5618 H 524.641 3.30009 -1.75983 0
M  V30 5619 H 526.933 6.45842 -2.0468 0
M  V30 5620 H 527.876 6.13478 -3.53625 0
M  V30 5621 H 528.284 5.26928 -2.02502 0
M  V30 5622 N 527.682 1.05563 1.17022 0
M  V30 5623 C 528.612 0.681026 2.23348 0
M  V30 5624 C 529.593 -0.322983 1.67005 0
M  V30 5625 O 530.778 -0.199746 1.9317 0
M  V30 5626 C 527.908 0.0589053 3.4725 0
M  V30 5627 C 526.862 0.988082 4.16438 0
M  V30 5628 C 526.188 0.229646 5.34207 0
M  V30 5629 C 527.488 2.31388 4.68249 0
M  V30 5630 H 529.182 1.56993 2.54938 0
M  V30 5631 H 526.728 0.756302 1.2254 0
M  V30 5632 H 528.681 -0.214982 4.20851 0
M  V30 5633 H 527.405 -0.864968 3.14938 0
M  V30 5634 H 526.064 1.24659 3.44754 0
M  V30 5635 H 525.712 -0.697111 4.98146 0
M  V30 5636 H 525.412 0.848815 5.81437 0
M  V30 5637 H 526.936 -0.0368694 6.10589 0
M  V30 5638 H 528.35 2.09964 5.33468 0
M  V30 5639 H 526.747 2.88736 5.26072 0
M  V30 5640 H 527.817 2.94982 3.84855 0
M  V30 5641 N 529.16 -1.33526 0.837174 0
M  V30 5642 C 530.408 -1.97446 0.431211 0
M  V30 5643 C 530.729 -1.6665 -1.01255 0
M  V30 5644 O 529.999 -0.964559 -1.70508 0
M  V30 5645 H 528.579 -0.73043 0.156463 0
M  V30 5646 H 531.241 -1.62918 1.06976 0
M  V30 5647 H 530.337 -3.07001 0.561877 0
M  V30 5648 N 530.638 -0.59345 -1.46 0
M  V30 5649 C 531.57 0.171569 -2.28557 0
M  V30 5650 C 532.583 0.845273 -1.39137 0
M  V30 5651 O 533.772 0.713033 -1.6364 0
M  V30 5652 C 530.872 1.26311 -3.14482 0
M  V30 5653 C 530.045 0.679258 -4.32094 0
M  V30 5654 C 529.104 1.65987 -4.99334 0
M  V30 5655 O 528.13 1.19171 -5.56585 0
M  V30 5656 N 529.332 2.99414 -4.97324 0
M  V30 5657 H 532.097 -0.536771 -2.94854 0
M  V30 5658 H 529.658 -0.431954 -1.56031 0
M  V30 5659 H 531.65 1.91863 -3.5633 0
M  V30 5660 H 530.22 1.87416 -2.50188 0
M  V30 5661 H 529.44 -0.153992 -3.93899 0
M  V30 5662 H 530.728 0.26916 -5.08088 0
M  V30 5663 H 530.126 3.40064 -4.52076 0
M  V30 5664 H 528.683 3.60426 -5.4308 0
M  V30 5665 N 532.116 1.54067 -0.331816 0
M  V30 5666 C 533.346 2.04833 0.269605 0
M  V30 5667 C 533.754 1.20714 1.45687 0
M  V30 5668 O 533.097 0.232539 1.82222 0
M  V30 5669 C 533.159 3.51386 0.759499 0
M  V30 5670 C 532.823 4.55971 -0.306557 0
M  V30 5671 C 533.82 5.07126 -1.14538 0
M  V30 5672 C 531.505 5.00216 -0.457116 0
M  V30 5673 C 533.499 6.01096 -2.12042 0
M  V30 5674 C 531.186 5.93999 -1.43556 0
M  V30 5675 C 532.184 6.44326 -2.26568 0
M  V30 5676 O 531.872 7.36267 -3.22749 0
M  V30 5677 H 531.604 0.673509 0.0579763 0
M  V30 5678 H 534.158 1.99748 -0.478521 0
M  V30 5679 H 532.388 3.53896 1.55867 0
M  V30 5680 H 534.077 3.85184 1.28017 0
M  V30 5681 H 534.843 4.73716 -1.04009 0
M  V30 5682 H 530.722 4.60652 0.179142 0
M  V30 5683 H 534.266 6.40302 -2.76873 0
M  V30 5684 H 530.163 6.26825 -1.54146 0
M  V30 5685 H 530.931 7.54165 -3.18083 0
M  V30 5686 N 533.594 0.0601682 1.57485 0
M  V30 5687 C 534.542 -0.928899 2.13247 0
M  V30 5688 C 535.536 -1.31616 1.06647 0
M  V30 5689 O 536.742 -1.29476 1.25043 0
M  V30 5690 H 533.117 -0.317455 0.681708 0
M  V30 5691 H 535.088 -0.433566 2.95233 0
M  V30 5692 C 533.837 -2.19121 2.69965 0
M  V30 5693 H 533.16 -1.90204 3.51657 0
M  V30 5694 H 534.6 -2.86465 3.12592 0
M  V30 5695 C 533.059 -2.94195 1.64168 0
M  V30 5696 O 533.589 -3.87468 1.05978 0
M  V30 5697 N 531.795 -2.57089 1.35476 0
M  V30 5698 H 531.342 -1.81314 1.82984 0
M  V30 5699 H 531.3 -3.07624 0.649196 0
M  V30 5700 N 535.072 -1.5615 -0.213296 0
M  V30 5701 C 536.318 -1.79812 -0.937849 0
M  V30 5702 C 536.651 -0.631201 -1.83656 0
M  V30 5703 O 535.926 0.369165 -1.90964 0
M  V30 5704 C 536.209 -3.13613 -1.76972 0
M  V30 5705 C 536.062 -4.40766 -0.89695 0
M  V30 5706 C 537.381 -3.43931 -2.7459 0
M  V30 5707 H 534.5 -0.654138 -0.339518 0
M  V30 5708 H 537.142 -1.88877 -0.20623 0
M  V30 5709 H 535.292 -3.06015 -2.39347 0
M  V30 5710 H 536.964 -4.60392 -0.289306 0
M  V30 5711 H 535.207 -4.33326 -0.202756 0
M  V30 5712 H 535.878 -5.30843 -1.51358 0
M  V30 5713 H 538.354 -3.5171 -2.22349 0
M  V30 5714 H 537.23 -4.38706 -3.29891 0
M  V30 5715 H 537.491 -2.6651 -3.52739 0
M  V30 5716 N 536.55 0.480323 -1.50102 0
M  V30 5717 C 537.827 1.24159 -1.51142 0
M  V30 5718 C 538.207 2.09605 -0.250818 0
M  V30 5719 O 537.555 2.15274 0.766118 0
M  V30 5720 C 537.765 2.08057 -2.80202 0
M  V30 5721 C 539.113 2.66556 -3.30504 0
M  V30 5722 O 540.137 2.18308 -2.81461 0
M  V30 5723 O 538.996 3.54442 -4.15973 0
M  V30 5724 H 536.09 0.562928 -0.605839 0
M  V30 5725 H 538.636 0.492899 -1.62384 0
M  V30 5726 H 537.408 1.45032 -3.6343 0
M  V30 5727 H 537.031 2.90079 -2.71919 0
M  V30 5728 N 538.028 1.39524 0.732853 0
M  V30 5729 C 538.976 1.38563 1.86824 0
M  V30 5730 C 539.97 0.268467 1.67259 0
M  V30 5731 O 541.176 0.438613 1.74574 0
M  V30 5732 H 537.551 0.432737 0.615014 0
M  V30 5733 H 539.522 2.34328 1.84751 0
M  V30 5734 C 538.271 1.2481 3.24527 0
M  V30 5735 H 537.594 2.10044 3.40179 0
M  V30 5736 H 539.034 1.28194 4.04156 0
M  V30 5737 C 537.493 -0.0432825 3.36872 0
M  V30 5738 O 538.023 -1.01268 3.88726 0
M  V30 5739 N 536.229 -0.107055 2.90403 0
M  V30 5740 H 535.776 0.682512 2.48394 0
M  V30 5741 H 535.734 -0.970618 2.99042 0
M  V30 5742 N 539.506 -0.963266 1.24736 0
M  V30 5743 C 540.746 -1.72172 1.10165 0
M  V30 5744 C 541.11 -1.88731 -0.352784 0
M  V30 5745 O 542.311 -2.61549 -0.620107 0
M  V30 5746 C 540.582 -3.0724 1.82589 0
M  V30 5747 S 542.141 -3.98449 1.83803 0
M  V30 5748 H 538.959 -0.591901 0.393922 0
M  V30 5749 H 541.561 -1.14955 1.58132 0
M  V30 5750 H 540.265 -2.92851 2.87518 0
M  V30 5751 H 539.796 -3.69521 1.34973 0
M  V30 5752 H 541.811 -4.87805 0.908883 0
M  V30 5753 N 540.985 -1.06182 -1.16461 0
M  V30 5754 C 541.932 -0.671613 -2.20812 0
M  V30 5755 C 542.902 0.331186 -1.62765 0
M  V30 5756 O 544.087 0.22033 -1.89524 0
M  V30 5757 C 541.227 -0.063029 -3.45042 0
M  V30 5758 C 540.34 -1.11587 -4.1734 0
M  V30 5759 C 539.475 -0.473546 -5.29085 0
M  V30 5760 C 538.514 -1.51 -5.93182 0
M  V30 5761 N 537.651 -0.891118 -6.96422 0
M  V30 5762 H 542.491 -1.56589 -2.53542 0
M  V30 5763 H 540.028 -0.782951 -1.24532 0
M  V30 5764 H 541.986 0.307344 -4.16066 0
M  V30 5765 H 540.616 0.794663 -3.12866 0
M  V30 5766 H 539.668 -1.60396 -3.44931 0
M  V30 5767 H 540.98 -1.90221 -4.61104 0
M  V30 5768 H 540.134 -0.0501432 -6.06679 0
M  V30 5769 H 538.873 0.344687 -4.8648 0
M  V30 5770 H 537.878 -1.94331 -5.14311 0
M  V30 5771 H 539.103 -2.33031 -6.37866 0
M  V30 5772 H 537.049 -0.0935753 -6.55933 0
M  V30 5773 H 536.966 -1.61486 -7.38551 0
M  V30 5774 H 538.234 -0.492822 -7.77941 0
M  V30 5775 N 542.463 1.3308 -0.844243 0
M  V30 5776 C 543.688 2.02341 -0.455282 0
M  V30 5777 C 544.113 1.6308 0.93737 0
M  V30 5778 O 543.471 0.826118 1.61385 0
M  V30 5779 C 543.519 3.55743 -0.58988 0
M  V30 5780 O 542.623 4.1063 0.38166 0
M  V30 5781 H 541.964 0.637898 -0.184343 0
M  V30 5782 H 544.494 1.6986 -1.14056 0
M  V30 5783 H 544.504 4.05243 -0.473522 0
M  V30 5784 H 543.179 3.83662 -1.60549 0
M  V30 5785 H 541.756 3.72236 0.22241 0
M  V30 5786 N 543.941 0.601185 1.45683 0
M  V30 5787 C 545.218 0.0261659 1.95582 0
M  V30 5788 C 545.598 -1.4399 1.5437 0
M  V30 5789 O 544.946 -2.13919 0.80318 0
M  V30 5790 C 545.156 0.217557 3.48321 0
M  V30 5791 C 546.504 0.0950076 4.24494 0
M  V30 5792 O 547.528 0.147345 3.55895 0
M  V30 5793 O 546.387 -0.025261 5.46494 0
M  V30 5794 H 543.481 -0.0393688 0.826062 0
M  V30 5795 H 546.027 0.670798 1.55879 0
M  V30 5796 H 544.799 1.23601 3.71266 0
M  V30 5797 H 544.422 -0.46264 3.94899 0
M  V30 5798 N 545.419 -1.53889 0.339982 0
M  V30 5799 C 546.668 -2.00035 -0.258604 0
M  V30 5800 C 546.981 -1.23179 -1.51942 0
M  V30 5801 O 548.187 -1.59784 -2.19503 0
M  V30 5802 C 546.643 -3.56249 -0.511359 0
M  V30 5803 C 546.251 -4.41957 0.733349 0
M  V30 5804 C 547.995 -4.1082 -1.069 0
M  V30 5805 C 545.902 -5.89673 0.451591 0
M  V30 5806 H 544.832 -0.747284 -0.10041 0
M  V30 5807 H 547.483 -1.77776 0.454758 0
M  V30 5808 H 545.865 -3.7456 -1.28533 0
M  V30 5809 H 547.039 -4.35421 1.50815 0
M  V30 5810 H 545.354 -3.9836 1.21237 0
M  V30 5811 H 547.951 -5.18789 -1.2947 0
M  V30 5812 H 548.294 -3.63817 -2.02343 0
M  V30 5813 H 548.827 -3.96205 -0.355817 0
M  V30 5814 H 545.566 -6.40903 1.37565 0
M  V30 5815 H 545.086 -5.99122 -0.285193 0
M  V30 5816 H 546.765 -6.46965 0.0675067 0
M  V30 5817 N 546.897 -0.0685191 -1.57451 0
M  V30 5818 C 548.144 0.601348 -1.93365 0
M  V30 5819 C 548.472 1.69816 -0.948294 0
M  V30 5820 O 547.727 1.95666 0.0366199 0
M  V30 5821 C 548.026 1.22051 -3.35914 0
M  V30 5822 C 547.692 0.250165 -4.50205 0
M  V30 5823 C 546.354 -0.0167954 -4.81197 0
M  V30 5824 C 548.706 -0.413867 -5.19554 0
M  V30 5825 C 546.034 -0.95493 -5.78876 0
M  V30 5826 C 548.386 -1.3403 -6.18238 0
M  V30 5827 C 547.05 -1.61576 -6.47649 0
M  V30 5828 H 546.32 0.220049 -0.707573 0
M  V30 5829 H 548.967 -0.138697 -1.90997 0
M  V30 5830 H 547.272 2.03622 -3.34732 0
M  V30 5831 H 548.969 1.74605 -3.6099 0
M  V30 5832 H 545.559 0.468421 -4.26033 0
M  V30 5833 H 549.743 -0.220733 -4.95809 0
M  V30 5834 H 544.999 -1.17563 -5.99991 0
M  V30 5835 H 549.173 -1.86081 -6.71079 0
M  V30 5836 H 546.8 -2.34431 -7.2315 0
M  V30 5837 N 548.375 1.56261 0.205012 0
M  V30 5838 C 549.605 1.83874 0.942018 0
M  V30 5839 C 550.013 0.647595 1.77772 0
M  V30 5840 O 549.356 -0.393098 1.79445 0
M  V30 5841 C 549.418 3.05453 1.89575 0
M  V30 5842 C 549.082 4.39772 1.24296 0
M  V30 5843 C 550.079 5.16133 0.624724 0
M  V30 5844 C 547.764 4.86504 1.24978 0
M  V30 5845 C 549.758 6.37396 0.0220117 0
M  V30 5846 C 547.445 6.07705 0.643232 0
M  V30 5847 C 548.443 6.82993 0.0304164 0
M  V30 5848 O 548.131 8.019 -0.566654 0
M  V30 5849 H 547.863 0.614896 0.280854 0
M  V30 5850 H 550.417 2.04215 0.220285 0
M  V30 5851 H 548.647 2.80972 2.65691 0
M  V30 5852 H 550.336 3.19797 2.4997 0
M  V30 5853 H 551.102 4.81127 0.611666 0
M  V30 5854 H 546.981 4.27865 1.71616 0
M  V30 5855 H 550.525 6.96102 -0.456926 0
M  V30 5856 H 546.422 6.42181 0.653759 0
M  V30 5857 H 547.19 8.17192 -0.462588 0
M  V30 5858 N 549.853 -0.472356 1.50355 0
M  V30 5859 C 551.264 -1.05326 1.54154 0
M  V30 5860 C 551.615 -1.93155 0.344303 0
M  V30 5861 O 550.74 -2.09479 -0.542928 0
M  V30 5862 C 551.335 -1.91691 2.79356 0
M  V30 5863 C 549.894 -2.44892 2.8584 0
M  V30 5864 C 549.041 -1.23205 2.48426 0
M  V30 5865 H 551.992 -0.255027 1.56637 0
M  V30 5866 H 552.013 -2.76742 2.6114 0
M  V30 5867 H 551.525 -1.27741 3.66475 0
M  V30 5868 H 549.626 -3.12399 2.0307 0
M  V30 5869 H 549.739 -2.80086 3.88701 0
M  V30 5870 H 548.103 -1.56643 2.00836 0
M  V30 5871 H 548.886 -0.609194 3.37852 0
M  V30 5872 N 551.331 -1.39911 -0.725443 0
M  V30 5873 C 552.278 -1.39393 -1.83952 0
M  V30 5874 C 553.248 -0.252249 -1.64173 0
M  V30 5875 O 554.433 -0.44882 -1.85446 0
M  V30 5876 C 551.573 -1.25262 -3.21564 0
M  V30 5877 C 550.686 -2.49054 -3.52982 0
M  V30 5878 C 549.821 -2.27439 -4.80047 0
M  V30 5879 C 548.86 -3.46857 -5.04338 0
M  V30 5880 N 547.997 -3.24499 -6.22611 0
M  V30 5881 H 552.837 -2.34622 -1.83729 0
M  V30 5882 H 550.374 -1.16537 -0.897636 0
M  V30 5883 H 552.332 -1.15077 -4.01015 0
M  V30 5884 H 550.962 -0.33657 -3.21041 0
M  V30 5885 H 550.014 -2.69805 -2.6816 0
M  V30 5886 H 551.326 -3.37973 -3.66846 0
M  V30 5887 H 550.48 -2.14551 -5.67497 0
M  V30 5888 H 549.219 -1.35929 -4.68374 0
M  V30 5889 H 548.224 -3.60232 -4.15346 0
M  V30 5890 H 549.449 -4.3928 -5.17889 0
M  V30 5891 H 547.395 -2.35663 -6.12208 0
M  V30 5892 H 547.312 -4.06978 -6.37106 0
M  V30 5893 H 548.58 -3.15325 -7.12875 0
M  V30 5894 N 552.809 0.956637 -1.25245 0
M  V30 5895 C 553.742 2.05232 -0.99775 0
M  V30 5896 C 554.72 1.62439 0.0723137 0
M  V30 5897 O 555.904 1.88381 -0.066926 0
M  V30 5898 C 553.031 3.34871 -0.507861 0
M  V30 5899 C 552.077 3.96625 -1.56815 0
M  V30 5900 S 552.91 4.32853 -3.15276 0
M  V30 5901 C 554.066 5.65613 -2.68017 0
M  V30 5902 H 554.299 2.26521 -1.9255 0
M  V30 5903 H 551.832 1.09601 -1.08752 0
M  V30 5904 H 553.79 4.09845 -0.231858 0
M  V30 5905 H 552.451 3.11551 0.399356 0
M  V30 5906 H 551.644 4.90087 -1.17604 0
M  V30 5907 H 551.246 3.28124 -1.79473 0
M  V30 5908 H 553.538 6.43635 -2.11518 0
M  V30 5909 H 554.481 6.09693 -3.60112 0
M  V30 5910 H 554.889 5.24751 -2.0808 0
M  V30 5911 N 554.287 1.06798 1.15896 0
M  V30 5912 C 555.234 0.683314 2.20453 0
M  V30 5913 C 556.204 -0.32255 1.62938 0
M  V30 5914 O 557.389 -0.210276 1.89638 0
M  V30 5915 C 554.529 0.0813266 3.45004 0
M  V30 5916 C 553.642 1.13799 4.16742 0
M  V30 5917 C 552.777 0.501598 5.28826 0
M  V30 5918 C 551.816 1.54144 5.92373 0
M  V30 5919 N 550.953 0.928038 6.9594 0
M  V30 5920 H 555.793 1.57932 2.52708 0
M  V30 5921 H 553.33 0.789544 1.24115 0
M  V30 5922 H 555.288 -0.285274 4.16224 0
M  V30 5923 H 553.918 -0.77806 3.13283 0
M  V30 5924 H 552.97 1.62223 3.44075 0
M  V30 5925 H 554.282 1.92664 4.60089 0
M  V30 5926 H 553.436 0.0823162 6.06644 0
M  V30 5927 H 552.175 -0.318883 4.86656 0
M  V30 5928 H 551.18 1.97056 5.13273 0
M  V30 5929 H 552.405 2.3641 6.36621 0
M  V30 5930 H 550.351 0.12836 6.55874 0
M  V30 5931 H 550.268 1.65401 7.37685 0
M  V30 5932 H 551.536 0.534071 7.77668 0
M  V30 5933 N 555.766 -1.3263 0.851289 0
M  V30 5934 C 557.014 -1.96978 0.452128 0
M  V30 5935 C 557.335 -1.67715 -0.99482 0
M  V30 5936 O 556.605 -0.98259 -1.69476 0
M  V30 5937 H 555.185 -0.72873 0.164202 0
M  V30 5938 H 557.847 -1.61774 1.08698 0
M  V30 5939 H 556.943 -3.06387 0.594407 0
M  V30 5940 N 557.244 -0.608902 -1.45362 0
M  V30 5941 C 558.176 0.147318 -2.28726 0
M  V30 5942 C 559.189 0.830468 -1.40025 0
M  V30 5943 O 560.378 0.695636 -1.64387 0
M  V30 5944 C 557.478 1.22968 -3.15804 0
M  V30 5945 C 556.651 0.633391 -4.3279 0
M  V30 5946 C 555.71 1.60682 -5.01067 0
M  V30 5947 O 554.736 1.13261 -5.57818 0
M  V30 5948 N 555.938 2.94123 -5.00472 0
M  V30 5949 H 558.703 -0.568014 -2.94268 0
M  V30 5950 H 556.264 -0.448479 -1.55564 0
M  V30 5951 H 558.256 1.88072 -3.58345 0
M  V30 5952 H 556.826 1.84752 -2.52162 0
M  V30 5953 H 556.046 -0.195762 -3.93714 0
M  V30 5954 H 557.334 0.215255 -5.08344 0
M  V30 5955 H 556.732 3.3525 -4.55657 0
M  V30 5956 H 555.289 3.54646 -5.46872 0
M  V30 5957 N 558.722 1.53707 -0.348139 0
M  V30 5958 C 559.654 2.22725 0.540946 0
M  V30 5959 C 560.667 1.2354 1.06027 0
M  V30 5960 O 561.856 1.49867 0.96964 0
M  V30 5961 C 558.956 2.89756 1.75768 0
M  V30 5962 C 558.129 4.15297 1.37285 0
M  V30 5963 C 557.188 4.65697 2.44976 0
M  V30 5964 O 556.214 5.29798 2.08092 0
M  V30 5965 N 557.416 4.42017 3.763 0
M  V30 5966 H 560.181 2.99658 -0.0501592 0
M  V30 5967 H 557.742 1.60979 -0.17248 0
M  V30 5968 H 559.734 3.20388 2.47252 0
M  V30 5969 H 558.304 2.16382 2.25605 0
M  V30 5970 H 557.524 3.9116 0.488584 0
M  V30 5971 H 558.812 4.96948 1.09179 0
M  V30 5972 H 558.21 3.9076 4.09051 0
M  V30 5973 H 556.767 4.77242 4.4394 0
M  V30 5974 N 560.2 0.0768682 1.57412 0
M  V30 5975 C 561.616 -0.279772 1.57129 0
M  V30 5976 C 561.816 -1.69688 1.08666 0
M  V30 5977 O 560.872 -2.40953 0.754843 0
M  V30 5978 C 562.185 -0.0848055 3.0058 0
M  V30 5979 C 563.733 -0.153954 3.12621 0
M  V30 5980 C 564.208 0.0127946 4.57998 0
M  V30 5981 N 565.699 -0.0426435 4.6318 0
M  V30 5982 C 566.434 0.0618892 5.73367 0
M  V30 5983 N 565.93 0.220229 6.9245 0
M  V30 5984 N 567.723 0.00446072 5.621 0
M  V30 5985 H 559.874 1.00297 1.87228 0
M  V30 5986 H 562.137 0.391565 0.863354 0
M  V30 5987 H 561.843 0.89325 3.40168 0
M  V30 5988 H 561.717 -0.834961 3.67843 0
M  V30 5989 H 564.104 -1.1225 2.72917 0
M  V30 5990 H 564.185 0.627389 2.47987 0
M  V30 5991 H 563.829 0.978128 4.98392 0
M  V30 5992 H 563.759 -0.788016 5.20671 0
M  V30 5993 H 566.25 -0.163226 3.77547 0
M  V30 5994 H 566.563 0.291999 7.72248 0
M  V30 5995 H 564.908 0.255658 6.9453 0
M  V30 5996 H 568.099 -0.117979 4.67951 0
M  V30 5997 H 568.272 0.0893796 6.47938 0
M  V30 5998 N 561.678 -1.56367 -0.196722 0
M  V30 5999 C 563.094 -1.49916 -0.54749 0
M  V30 6000 C 563.294 -0.77659 -1.85934 0
M  V30 6001 O 562.35 -0.32644 -2.50381 0
M  V30 6002 C 563.663 -2.94577 -0.603734 0
M  V30 6003 C 565.211 -3.05239 -0.692677 0
M  V30 6004 C 565.686 -4.51308 -0.780046 0
M  V30 6005 N 567.177 -4.55453 -0.843616 0
M  V30 6006 C 567.912 -5.65786 -0.931358 0
M  V30 6007 N 567.408 -6.85812 -0.981503 0
M  V30 6008 N 569.201 -5.53695 -0.968421 0
M  V30 6009 H 561.352 -2.01761 0.663803 0
M  V30 6010 H 563.615 -0.918094 0.236238 0
M  V30 6011 H 563.321 -3.50494 0.29105 0
M  V30 6012 H 563.195 -3.47841 -1.45898 0
M  V30 6013 H 565.582 -2.49372 -1.57789 0
M  V30 6014 H 565.663 -2.55103 0.188736 0
M  V30 6015 H 565.307 -5.078 0.100811 0
M  V30 6016 H 565.237 -4.99176 -1.67724 0
M  V30 6017 H 567.728 -3.69025 -0.814176 0
M  V30 6018 H 568.041 -7.65648 -1.04892 0
M  V30 6019 H 566.386 -6.88474 -0.950208 0
M  V30 6020 H 569.577 -4.58848 -0.926072 0
M  V30 6021 H 569.75 -6.39708 -1.03334 0
M  V30 6022 N 563.156 0.464375 -1.50603 0
M  V30 6023 C 564.386 1.23727 -1.65454 0
M  V30 6024 C 564.794 1.86119 -0.340032 0
M  V30 6025 O 564.137 1.70301 0.688706 0
M  V30 6026 C 564.199 2.38153 -2.69301 0
M  V30 6027 C 563.863 1.96345 -4.12671 0
M  V30 6028 C 564.86 1.48215 -4.98326 0
M  V30 6029 C 562.545 2.04861 -4.58625 0
M  V30 6030 C 564.539 1.09152 -6.27985 0
M  V30 6031 C 562.226 1.65409 -5.88288 0
M  V30 6032 C 563.224 1.17634 -6.72794 0
M  V30 6033 O 562.912 0.787312 -8.00035 0
M  V30 6034 H 562.644 0.380075 -0.559034 0
M  V30 6035 H 565.198 0.559919 -1.97621 0
M  V30 6036 H 563.428 3.09081 -2.32392 0
M  V30 6037 H 565.117 3.00099 -2.73304 0
M  V30 6038 H 565.883 1.41052 -4.64036 0
M  V30 6039 H 561.762 2.40996 -3.92991 0
M  V30 6040 H 565.306 0.717909 -6.93896 0
M  V30 6041 H 561.203 1.72233 -6.22098 0
M  V30 6042 H 561.971 0.915567 -8.13363 0
M  V30 6043 N 564.634 1.40294 0.718013 0
M  V30 6044 C 565.881 1.3844 1.47786 0
M  V30 6045 C 566.209 -0.0140838 1.94495 0
M  V30 6046 O 565.464 -0.998165 1.68331 0
M  V30 6047 C 565.763 2.31814 2.72024 0
M  V30 6048 C 565.429 3.79117 2.44093 0
M  V30 6049 C 564.091 4.19249 2.36185 0
M  V30 6050 C 566.443 4.72212 2.20602 0
M  V30 6051 C 563.771 5.50516 2.02851 0
M  V30 6052 C 566.123 6.03775 1.88781 0
M  V30 6053 C 564.787 6.42953 1.79354 0
M  V30 6054 H 564.057 0.506588 0.540786 0
M  V30 6055 H 566.704 1.72929 0.822663 0
M  V30 6056 H 565.009 1.90501 3.42369 0
M  V30 6057 H 566.706 2.27664 3.30106 0
M  V30 6058 H 563.296 3.47318 2.51133 0
M  V30 6059 H 567.48 4.42026 2.25669 0
M  V30 6060 H 562.736 5.79776 1.94088 0
M  V30 6061 H 566.91 6.75428 1.69617 0
M  V30 6062 H 564.537 7.44584 1.53291 0
M  V30 6063 N 566.112 -0.949982 1.2575 0
M  V30 6064 C 567.361 -1.68956 1.10168 0
M  V30 6065 C 567.674 -1.92327 -0.356309 0
M  V30 6066 O 568.88 -2.64026 -0.632657 0
M  V30 6067 C 567.336 -3.04196 1.92336 0
M  V30 6068 C 566.944 -2.88603 3.42655 0
M  V30 6069 C 568.688 -3.81904 1.85336 0
M  V30 6070 C 566.595 -4.19262 4.17101 0
M  V30 6071 H 565.525 -0.633645 0.408668 0
M  V30 6072 H 568.176 -1.05719 1.49986 0
M  V30 6073 H 566.558 -3.68363 1.45344 0
M  V30 6074 H 567.732 -2.3334 3.97353 0
M  V30 6075 H 566.047 -2.24345 3.50796 0
M  V30 6076 H 568.644 -4.78688 2.38248 0
M  V30 6077 H 568.987 -4.08099 0.822226 0
M  V30 6078 H 569.52 -3.24495 2.30104 0
M  V30 6079 H 566.259 -3.98254 5.20648 0
M  V30 6080 H 565.779 -4.74273 3.67186 0
M  V30 6081 H 567.458 -4.87775 4.25071 0
M  V30 6082 N 567.59 -1.07411 -1.15328 0
M  V30 6083 C 568.553 -0.698914 -2.18284 0
M  V30 6084 C 569.553 0.261149 -1.58665 0
M  V30 6085 O 570.743 0.0420277 -1.74149 0
M  V30 6086 C 567.875 -0.0302427 -3.40887 0
M  V30 6087 H 569.068 -1.61045 -2.52991 0
M  V30 6088 H 566.621 -0.870724 -1.298 0
M  V30 6089 H 567.356 0.893505 -3.11748 0
M  V30 6090 H 567.141 -0.720759 -3.85419 0
M  V30 6091 H 568.631 0.21759 -4.17033 0
M  V30 6092 N 569.068 1.32177 -0.85831 0
M  V30 6093 C 570.031 2.27086 -0.310588 0
M  V30 6094 C 571.031 1.51751 0.531806 0
M  V30 6095 O 572.221 1.70794 0.34279 0
M  V30 6096 C 569.353 3.36266 0.560179 0
M  V30 6097 H 570.546 2.77045 -1.1483 0
M  V30 6098 H 568.099 1.42911 -0.632942 0
M  V30 6099 H 568.834 2.9158 1.41956 0
M  V30 6100 H 568.619 3.92077 -0.0428473 0
M  V30 6101 H 570.109 4.06974 0.936056 0
M  V30 6102 N 570.547 0.616602 1.45037 0
M  V30 6103 C 571.457 -0.0985401 2.34393 0
M  V30 6104 C 572.473 -0.850971 1.51771 0
M  V30 6105 O 573.649 -0.806521 1.84546 0
M  V30 6106 C 570.714 -1.07748 3.29532 0
M  V30 6107 C 569.775 -0.326022 4.2806 0
M  V30 6108 C 569.008 -1.25833 5.18654 0
M  V30 6109 O 569.231 -2.49652 5.12864 0
M  V30 6110 O 568.165 -0.750512 5.97203 0
M  V30 6111 H 571.991 0.636016 2.96966 0
M  V30 6112 H 569.576 0.376832 1.44569 0
M  V30 6113 H 571.458 -1.64107 3.88133 0
M  V30 6114 H 570.133 -1.79291 2.69512 0
M  V30 6115 H 569.04 0.280253 3.73049 0
M  V30 6116 H 570.373 0.349091 4.9096 0
M  V30 6117 N 572.025 -1.5352 0.356285 0
M  V30 6118 C 572.972 -2.25439 -0.494569 0
M  V30 6119 C 573.942 -1.25752 -1.08516 0
M  V30 6120 O 575.127 -1.54513 -1.1194 0
M  V30 6121 C 572.267 -3.04011 -1.63313 0
M  V30 6122 C 571.38 -4.18574 -1.06862 0
M  V30 6123 C 570.515 -4.84607 -2.17552 0
M  V30 6124 C 569.554 -5.91218 -1.58518 0
M  V30 6125 N 568.691 -6.50979 -2.63003 0
M  V30 6126 H 573.531 -2.97737 0.125244 0
M  V30 6127 H 571.068 -1.46916 0.0735789 0
M  V30 6128 H 573.026 -3.47834 -2.30363 0
M  V30 6129 H 571.656 -2.33986 -2.22374 0
M  V30 6130 H 570.708 -3.79303 -0.288672 0
M  V30 6131 H 572.02 -4.95215 -0.596924 0
M  V30 6132 H 571.174 -5.31566 -2.92442 0
M  V30 6133 H 569.913 -4.07418 -2.6807 0
M  V30 6134 H 568.918 -5.4363 -0.821391 0
M  V30 6135 H 570.143 -6.70322 -1.08836 0
M  V30 6136 H 568.089 -5.76648 -3.12751 0
M  V30 6137 H 568.006 -7.23131 -2.20493 0
M  V30 6138 H 569.274 -7.02589 -3.37623 0
M  V30 6139 N 573.503 -0.0852151 -1.57369 0
M  V30 6140 C 574.752 0.580443 -1.93168 0
M  V30 6141 C 575.065 1.6995 -0.968319 0
M  V30 6142 O 576.271 2.42564 -1.21963 0
M  V30 6143 C 574.727 1.08386 -3.43192 0
M  V30 6144 C 574.335 -0.00491388 -4.48 0
M  V30 6145 C 576.079 1.72281 -3.87968 0
M  V30 6146 C 573.986 0.513299 -5.89168 0
M  V30 6147 H 572.916 0.22059 -0.72101 0
M  V30 6148 H 575.567 -0.159621 -1.82804 0
M  V30 6149 H 573.949 1.8773 -3.48674 0
M  V30 6150 H 575.123 -0.780032 -4.5415 0
M  V30 6151 H 573.438 -0.548453 -4.12772 0
M  V30 6152 H 576.035 2.12108 -4.9083 0
M  V30 6153 H 576.378 2.58811 -3.26071 0
M  V30 6154 H 576.911 0.995359 -3.85146 0
M  V30 6155 H 573.65 -0.315153 -6.54742 0
M  V30 6156 H 573.17 1.25564 -5.8651 0
M  V30 6157 H 574.849 0.985433 -6.39451 0
M  V30 6158 N 574.981 1.5647 0.188427 0
M  V30 6159 C 575.911 1.98101 1.23606 0
M  V30 6160 C 576.892 0.853961 1.47111 0
M  V30 6161 O 578.077 1.11879 1.58735 0
M  V30 6162 C 575.207 2.32624 2.57882 0
M  V30 6163 C 574.161 3.48129 2.48978 0
M  V30 6164 C 573.487 3.68347 3.87588 0
M  V30 6165 C 574.787 4.82112 2.00911 0
M  V30 6166 H 576.481 2.85864 0.890068 0
M  V30 6167 H 574.027 1.37532 0.426714 0
M  V30 6168 H 575.98 2.60343 3.3136 0
M  V30 6169 H 574.704 1.41751 2.94235 0
M  V30 6170 H 573.363 3.20511 1.77956 0
M  V30 6171 H 573.011 2.74793 4.21305 0
M  V30 6172 H 572.711 4.46055 3.82503 0
M  V30 6173 H 574.235 3.98449 4.62678 0
M  V30 6174 H 575.649 5.08819 2.64151 0
M  V30 6175 H 574.046 5.63337 2.06814 0
M  V30 6176 H 575.116 4.75249 0.96262 0
M  V30 6177 N 576.459 -0.456382 1.50847 0
M  V30 6178 C 577.705 -1.20618 1.63777 0
M  V30 6179 C 578.06 -1.8936 0.340677 0
M  V30 6180 O 577.353 -1.79786 -0.662378 0
M  V30 6181 C 577.547 -2.26336 2.76599 0
M  V30 6182 C 577.376 -1.67968 4.17153 0
M  V30 6183 C 576.146 -1.47293 4.83356 0
M  V30 6184 C 578.344 -1.16643 5.00898 0
M  V30 6185 N 576.326 -0.843222 6.08081 0
M  V30 6186 C 577.697 -0.660843 6.16468 0
M  V30 6187 C 579.752 -1.05637 4.86565 0
M  V30 6188 C 578.455 -0.0560365 7.19278 0
M  V30 6189 C 580.481 -0.465485 5.89565 0
M  V30 6190 C 579.843 0.0296516 7.04394 0
M  V30 6191 H 575.942 -0.429725 0.653345 0
M  V30 6192 H 578.526 -0.505784 1.88016 0
M  V30 6193 H 576.697 -2.93785 2.54056 0
M  V30 6194 H 578.429 -2.9334 2.78808 0
M  V30 6195 H 575.184 -1.72934 4.40898 0
M  V30 6196 H 575.608 -0.546357 6.74792 0
M  V30 6197 H 580.25 -1.42508 3.98059 0
M  V30 6198 H 577.968 0.324845 8.07447 0
M  V30 6199 H 581.554 -0.382493 5.80541 0
M  V30 6200 H 580.434 0.479705 7.82731 0
M  V30 6201 N 577.937 -1.40673 -0.710563 0
M  V30 6202 C 579.214 -1.29718 -1.46398 0
M  V30 6203 C 579.594 0.082177 -2.1094 0
M  V30 6204 O 578.942 1.09536 -2.00534 0
M  V30 6205 C 579.152 -2.43967 -2.49562 0
M  V30 6206 C 580.5 -2.84436 -3.15248 0
M  V30 6207 O 581.524 -2.43597 -2.59883 0
M  V30 6208 O 580.383 -3.55008 -4.1549 0
M  V30 6209 H 577.477 -0.509697 -0.651258 0
M  V30 6210 H 580.023 -1.52603 -0.742312 0
M  V30 6211 H 578.795 -3.36076 -2.0042 0
M  V30 6212 H 578.418 -2.22879 -3.29258 0
M  V30 6213 N 579.415 0.9433 -1.26252 0
M  V30 6214 C 580.645 1.72117 -1.14277 0
M  V30 6215 C 581.053 1.86726 0.304944 0
M  V30 6216 O 580.396 1.3727 1.22076 0
M  V30 6217 C 580.458 3.14778 -1.73651 0
M  V30 6218 C 580.122 3.23561 -3.22734 0
M  V30 6219 C 581.119 3.07001 -4.19579 0
M  V30 6220 C 578.804 3.47019 -3.63157 0
M  V30 6221 C 580.798 3.13763 -5.54826 0
M  V30 6222 C 578.485 3.53416 -4.98538 0
M  V30 6223 C 579.483 3.36804 -5.94182 0
M  V30 6224 O 579.171 3.42906 -7.27098 0
M  V30 6225 H 578.903 0.545781 -0.398873 0
M  V30 6226 H 581.457 1.19123 -1.67328 0
M  V30 6227 H 579.687 3.69186 -1.1506 0
M  V30 6228 H 581.376 3.74469 -1.56613 0
M  V30 6229 H 582.142 2.88736 -3.89688 0
M  V30 6230 H 578.021 3.59006 -2.89199 0
M  V30 6231 H 581.565 3.00714 -6.29458 0
M  V30 6232 H 577.462 3.71201 -5.28091 0
M  V30 6233 H 578.23 3.59463 -7.35342 0
M  V30 6234 N 580.893 1.08022 1.14757 0
M  V30 6235 C 581.856 0.71048 2.1791 0
M  V30 6236 C 582.856 -0.252731 1.58801 0
M  V30 6237 O 584.046 -0.0327915 1.74169 0
M  V30 6238 C 581.178 0.0483203 3.40866 0
M  V30 6239 H 582.371 1.62384 2.52134 0
M  V30 6240 H 579.924 0.877595 1.29337 0
M  V30 6241 H 580.659 -0.876959 3.12218 0
M  V30 6242 H 580.444 0.741189 3.85031 0
M  V30 6243 H 581.934 -0.195471 4.17142 0
M  V30 6244 N 582.371 -1.3172 0.865308 0
M  V30 6245 C 583.782 -1.79104 0.527126 0
M  V30 6246 C 584.133 -1.7135 -0.955695 0
M  V30 6247 O 583.258 -1.27845 -1.74598 0
M  V30 6248 C 583.853 -3.25207 0.950061 0
M  V30 6249 C 582.412 -3.70504 0.663611 0
M  V30 6250 C 581.559 -2.52605 1.14395 0
M  V30 6251 H 584.51 -1.18868 1.05148 0
M  V30 6252 H 584.531 -3.79535 0.270805 0
M  V30 6253 H 584.043 -3.30818 2.02931 0
M  V30 6254 H 582.144 -3.70398 -0.404474 0
M  V30 6255 H 582.257 -4.62845 1.23737 0
M  V30 6256 H 580.621 -2.4838 0.563859 0
M  V30 6257 H 581.404 -2.60964 2.23053 0
M  V30 6258 N 583.85 -0.624285 -1.44708 0
M  V30 6259 C 584.782 0.12305 -2.28869 0
M  V30 6260 C 585.795 0.81557 -1.40898 0
M  V30 6261 O 586.984 0.678162 -1.65116 0
M  V30 6262 C 584.084 1.19612 -3.1709 0
M  V30 6263 C 583.257 0.587452 -4.33437 0
M  V30 6264 C 582.316 1.55358 -5.02743 0
M  V30 6265 O 581.341 1.07338 -5.58988 0
M  V30 6266 N 582.543 2.88798 -5.03563 0
M  V30 6267 H 585.308 -0.599193 -2.93649 0
M  V30 6268 H 582.87 -0.464954 -1.5508 0
M  V30 6269 H 584.861 1.84261 -3.60319 0
M  V30 6270 H 583.432 1.82067 -2.54107 0
M  V30 6271 H 582.652 -0.237509 -3.93484 0
M  V30 6272 H 583.94 0.161326 -5.08544 0
M  V30 6273 H 583.338 3.30399 -4.59188 0
M  V30 6274 H 581.894 3.48826 -5.50603 0
M  V30 6275 N 585.328 1.53329 -0.364422 0
M  V30 6276 C 586.576 2.00842 0.225189 0
M  V30 6277 C 586.897 1.25345 1.49378 0
M  V30 6278 O 586.167 0.366396 1.92443 0
M  V30 6279 H 584.747 0.742009 0.0862027 0
M  V30 6280 H 587.409 1.8863 -0.490389 0
M  V30 6281 H 586.505 3.08795 0.452987 0
M  V30 6282 N 586.806 0.0935595 1.57322 0
M  V30 6283 C 588.036 -0.578095 1.98347 0
M  V30 6284 C 588.444 -1.62357 0.971441 0
M  V30 6285 O 587.787 -1.83639 -0.0473959 0
M  V30 6286 C 587.849 -1.28525 3.3574 0
M  V30 6287 C 587.513 -0.390714 4.55327 0
M  V30 6288 C 588.51 0.360522 5.18648 0
M  V30 6289 C 586.195 -0.309221 5.01347 0
M  V30 6290 C 588.189 1.18125 6.26359 0
M  V30 6291 C 585.876 0.515157 6.08925 0
M  V30 6292 C 586.874 1.25904 6.71295 0
M  V30 6293 O 586.562 2.06978 7.76798 0
M  V30 6294 H 586.294 -0.159767 0.656849 0
M  V30 6295 H 588.848 0.169058 2.04703 0
M  V30 6296 H 587.078 -2.07894 3.26063 0
M  V30 6297 H 588.767 -1.85128 3.61223 0
M  V30 6298 H 589.533 0.307285 4.84026 0
M  V30 6299 H 585.412 -0.877881 4.52564 0
M  V30 6300 H 588.956 1.76236 6.74971 0
M  V30 6301 H 584.853 0.56988 6.42979 0
M  V30 6302 H 585.621 1.99644 7.93779 0
M  V30 6303 N 588.284 -1.56567 -0.180126 0
M  V30 6304 C 589.232 -1.96632 -1.24251 0
M  V30 6305 C 590.226 -0.853818 -1.46309 0
M  V30 6306 O 591.432 -1.0389 -1.46993 0
M  V30 6307 H 587.807 -0.625476 -0.417473 0
M  V30 6308 H 589.778 -2.85201 -0.877679 0
M  V30 6309 C 588.527 -2.33486 -2.57642 0
M  V30 6310 H 587.85 -3.18626 -2.4149 0
M  V30 6311 H 589.29 -2.65371 -3.30688 0
M  V30 6312 C 587.749 -1.17499 -3.15746 0
M  V30 6313 O 588.279 -0.457956 -3.99081 0
M  V30 6314 N 586.485 -0.94786 -2.74707 0
M  V30 6315 H 586.032 -1.53269 -2.07042 0
M  V30 6316 H 585.99 -0.173626 -3.1392 0
M  V30 6317 N 589.762 0.448376 -1.51087 0
M  V30 6318 C 590.709 1.54341 -1.71603 0
M  V30 6319 C 591.679 1.56463 -0.557536 0
M  V30 6320 O 592.864 1.73644 -0.79072 0
M  V30 6321 C 590.004 2.92148 -1.83695 0
M  V30 6322 C 589.117 2.99639 -3.11192 0
M  V30 6323 C 588.252 4.285 -3.13944 0
M  V30 6324 C 587.291 4.29819 -4.35801 0
M  V30 6325 N 586.428 5.50186 -4.36164 0
M  V30 6326 H 591.268 1.36151 -2.65079 0
M  V30 6327 H 588.805 0.661585 -1.31383 0
M  V30 6328 H 590.763 3.72093 -1.88687 0
M  V30 6329 H 589.393 3.0892 -0.936374 0
M  V30 6330 H 588.445 2.12425 -3.15562 0
M  V30 6331 H 589.757 2.96474 -4.01129 0
M  V30 6332 H 588.911 5.16811 -3.17791 0
M  V30 6333 H 587.65 4.34307 -2.21876 0
M  V30 6334 H 586.655 3.39902 -4.32142 0
M  V30 6335 H 587.88 4.25685 -5.29121 0
M  V30 6336 H 585.826 5.56735 -3.46961 0
M  V30 6337 H 585.743 5.48856 -5.19897 0
M  V30 6338 H 587.011 6.40559 -4.44189 0
M  V30 6339 N 591.24 1.41047 0.703093 0
M  V30 6340 C 592.487 1.4 1.46309 0
M  V30 6341 C 592.815 0.00654574 1.94499 0
M  V30 6342 O 592.07 -0.980255 1.6938 0
M  V30 6343 C 592.369 2.34686 2.6955 0
M  V30 6344 C 592.035 3.81684 2.40058 0
M  V30 6345 C 590.697 4.21731 2.31725 0
M  V30 6346 C 593.049 4.74525 2.15581 0
M  V30 6347 C 590.377 5.52637 1.97001 0
M  V30 6348 C 592.729 6.05744 1.82366 0
M  V30 6349 C 591.393 6.44819 1.72524 0
M  V30 6350 H 590.663 0.512295 0.535382 0
M  V30 6351 H 593.31 1.73792 0.804275 0
M  V30 6352 H 591.615 1.94122 3.40329 0
M  V30 6353 H 593.312 2.31152 3.27673 0
M  V30 6354 H 589.902 3.49963 2.47435 0
M  V30 6355 H 594.086 4.44395 2.20968 0
M  V30 6356 H 589.342 5.81802 1.87928 0
M  V30 6357 H 593.516 6.77189 1.62444 0
M  V30 6358 H 591.143 7.46168 1.45385 0
M  V30 6359 N 592.718 -0.936591 1.26751 0
M  V30 6360 C 593.943 -1.72288 1.15462 0
M  V30 6361 C 594.368 -1.85915 -0.285887 0
M  V30 6362 O 593.726 -1.35272 -1.20711 0
M  V30 6363 C 593.774 -3.10503 1.83359 0
M  V30 6364 O 592.878 -3.96745 1.1255 0
M  V30 6365 H 592.219 -0.52843 0.402067 0
M  V30 6366 H 594.749 -1.17271 1.67656 0
M  V30 6367 H 594.759 -3.60867 1.90365 0
M  V30 6368 H 593.434 -2.99901 2.88153 0
M  V30 6369 H 592.011 -3.55191 1.13551 0
M  V30 6370 N 594.196 -1.08629 -1.14182 0
M  V30 6371 C 595.444 -0.815731 -1.84906 0
M  V30 6372 C 595.765 0.660441 -1.83475 0
M  V30 6373 O 595.035 1.47888 -1.28476 0
M  V30 6374 H 593.615 -0.298773 -0.684648 0
M  V30 6375 H 596.277 -1.37274 -1.38354 0
M  V30 6376 H 595.373 -1.16193 -2.89665 0
M  V30 6377 N 595.674 1.31259 -0.872281 0
M  V30 6378 C 596.604 2.30929 -0.345554 0
M  V30 6379 C 597.585 1.60449 0.5648 0
M  V30 6380 O 598.77 1.8814 0.481335 0
M  V30 6381 C 595.9 3.44348 0.451823 0
M  V30 6382 C 594.854 4.26435 -0.365641 0
M  V30 6383 C 594.18 5.31785 0.557562 0
M  V30 6384 C 595.48 4.97159 -1.60095 0
M  V30 6385 H 597.174 2.75234 -1.17841 0
M  V30 6386 H 594.72 1.3232 -0.568094 0
M  V30 6387 H 596.673 4.13128 0.830854 0
M  V30 6388 H 595.397 2.98816 1.31821 0
M  V30 6389 H 594.056 3.59326 -0.726649 0
M  V30 6390 H 593.704 4.82502 1.4213 0
M  V30 6391 H 593.404 5.87598 0.0144878 0
M  V30 6392 H 594.928 6.03424 0.933387 0
M  V30 6393 H 596.342 5.58523 -1.29323 0
M  V30 6394 H 594.739 5.62779 -2.08327 0
M  V30 6395 H 595.809 4.24012 -2.35249 0
M  V30 6396 N 597.152 0.631951 1.44375 0
M  V30 6397 C 598.563 0.219036 1.85411 0
M  V30 6398 C 598.914 -1.22974 1.52879 0
M  V30 6399 O 598.039 -1.93579 0.967266 0
M  V30 6400 C 598.634 0.39075 3.36539 0
M  V30 6401 C 597.193 0.0323351 3.76386 0
M  V30 6402 C 596.34 0.703744 2.68221 0
M  V30 6403 H 599.291 0.837056 1.3483 0
M  V30 6404 H 599.312 -0.370056 3.78696 0
M  V30 6405 H 598.824 1.44527 3.60185 0
M  V30 6406 H 596.925 -1.02042 3.58355 0
M  V30 6407 H 597.038 0.442969 4.77048 0
M  V30 6408 H 595.402 0.138974 2.54321 0
M  V30 6409 H 596.185 1.76088 2.947 0
M  V30 6410 N 598.631 -1.53133 0.372548 0
M  V30 6411 C 599.561 -2.28876 -0.462412 0
M  V30 6412 C 600.542 -1.31583 -1.07796 0
M  V30 6413 O 601.727 -1.60461 -1.09389 0
M  V30 6414 C 598.857 -3.08317 -1.59868 0
M  V30 6415 C 597.811 -4.13355 -1.11003 0
M  V30 6416 C 597.137 -4.8092 -2.33708 0
M  V30 6417 C 598.437 -5.21955 -0.18983 0
M  V30 6418 H 600.131 -2.9892 0.169511 0
M  V30 6419 H 597.677 -1.43761 0.0829658 0
M  V30 6420 H 599.63 -3.60055 -2.18949 0
M  V30 6421 H 598.354 -2.35976 -2.25794 0
M  V30 6422 H 597.013 -3.62573 -0.541869 0
M  V30 6423 H 596.661 -4.05144 -2.98106 0
M  V30 6424 H 596.361 -5.51904 -2.01682 0
M  V30 6425 H 597.885 -5.35455 -2.93462 0
M  V30 6426 H 599.299 -5.69153 -0.688319 0
M  V30 6427 H 597.696 -6.00087 0.0398887 0
M  V30 6428 H 598.766 -4.78811 0.766057 0
M  V30 6429 N 600.109 -0.101901 -1.5727 0
M  V30 6430 C 601.057 0.872034 -2.15635 0
M  V30 6431 C 602.051 1.28742 -1.10099 0
M  V30 6432 O 603.257 1.26116 -1.28432 0
M  V30 6433 H 599.632 0.299269 -0.689886 0
M  V30 6434 H 601.603 0.355137 -2.96279 0
M  V30 6435 C 600.352 2.11886 -2.7568 0
M  V30 6436 H 599.675 1.80813 -3.56576 0
M  V30 6437 H 601.115 2.78077 -3.20077 0
M  V30 6438 C 599.574 2.89739 -1.7191 0
M  V30 6439 O 600.104 3.84522 -1.16213 0
M  V30 6440 N 598.31 2.53407 -1.42245 0
M  V30 6441 H 597.857 1.76398 -1.87727 0
M  V30 6442 H 597.815 3.05795 -0.730529 0
M  V30 6443 N 601.587 1.56661 0.17182 0
M  V30 6444 C 602.55 1.9549 1.19651 0
M  V30 6445 C 603.55 0.838501 1.37207 0
M  V30 6446 O 604.74 1.10556 1.34622 0
M  V30 6447 C 601.872 2.24927 2.56166 0
M  V30 6448 H 603.065 2.87184 0.864007 0
M  V30 6449 H 600.618 1.50711 0.41425 0
M  V30 6450 H 601.353 1.35944 2.94431 0
M  V30 6451 H 601.138 3.06301 2.4479 0
M  V30 6452 H 602.628 2.55891 3.30014 0
M  V30 6453 N 603.065 -0.440357 1.51323 0
M  V30 6454 C 604.29 -1.21716 1.67928 0
M  V30 6455 C 604.715 -1.84328 0.374826 0
M  V30 6456 O 604.073 -1.68675 -0.664706 0
M  V30 6457 C 604.121 -2.27914 2.79442 0
M  V30 6458 O 603.225 -3.33325 2.42834 0
M  V30 6459 H 602.566 -0.35674 0.560029 0
M  V30 6460 H 605.096 -0.520417 1.97871 0
M  V30 6461 H 605.106 -2.72746 3.03436 0
M  V30 6462 H 603.781 -1.8172 3.741 0
M  V30 6463 H 602.358 -2.9399 2.294 0
M  V30 6464 N 604.543 -1.41418 -0.695603 0
M  V30 6465 C 605.791 -1.40496 -1.45277 0
M  V30 6466 C 606.112 -0.0149538 -1.94994 0
M  V30 6467 O 605.382 0.9432 -1.71699 0
M  V30 6468 H 603.962 -0.517147 -0.539044 0
M  V30 6469 H 606.624 -1.76656 -0.823321 0
M  V30 6470 H 605.72 -2.09214 -2.31595 0
M  V30 6471 N 606.021 0.929856 -1.27246 0
M  V30 6472 C 607.246 1.71674 -1.16374 0
M  V30 6473 C 607.671 1.86064 0.276024 0
M  V30 6474 O 607.029 1.3591 1.19992 0
M  V30 6475 C 607.077 3.09526 -1.85003 0
M  V30 6476 O 606.181 3.96142 -1.14653 0
M  V30 6477 H 605.522 0.52629 -0.404863 0
M  V30 6478 H 608.052 1.16381 -1.68276 0
M  V30 6479 H 608.062 3.59852 -1.92276 0
M  V30 6480 H 606.737 2.98369 -2.89739 0
M  V30 6481 H 605.314 3.54584 -1.15433 0
M  V30 6482 N 607.499 1.09233 1.13605 0
M  V30 6483 C 608.776 0.739633 1.81077 0
M  V30 6484 C 609.156 -0.775595 1.96336 0
M  V30 6485 O 608.504 -1.69726 1.52988 0
M  V30 6486 C 608.714 1.47636 3.16235 0
M  V30 6487 C 610.062 1.64087 3.91613 0
M  V30 6488 O 611.086 1.43871 3.25852 0
M  V30 6489 O 609.945 1.97511 5.0956 0
M  V30 6490 H 607.039 0.265464 0.783236 0
M  V30 6491 H 609.585 1.19441 1.20549 0
M  V30 6492 H 608.357 2.50818 3.00344 0
M  V30 6493 H 607.98 1.01362 3.84462 0
M  V30 6494 N 608.977 -1.30795 0.87923 0
M  V30 6495 C 610.202 -2.01063 0.508769 0
M  V30 6496 C 610.627 -1.65508 -0.893803 0
M  V30 6497 O 609.985 -0.868616 -1.59138 0
M  V30 6498 C 610.033 -3.54054 0.683991 0
M  V30 6499 O 609.137 -4.11498 -0.272654 0
M  V30 6500 H 608.478 -0.632786 0.201191 0
M  V30 6501 H 611.008 -1.66776 1.18519 0
M  V30 6502 H 611.018 -4.03845 0.580798 0
M  V30 6503 H 609.693 -3.79271 1.70665 0
M  V30 6504 H 608.27 -3.72695 -0.12364 0
M  V30 6505 N 610.455 -0.639598 -1.44038 0
M  V30 6506 C 611.732 -0.078012 -1.95444 0
M  V30 6507 C 612.112 1.39847 -1.58133 0
M  V30 6508 O 611.46 2.11714 -0.859614 0
M  V30 6509 C 611.67 -0.309832 -3.47622 0
M  V30 6510 C 613.018 -0.207521 -4.24093 0
M  V30 6511 O 614.042 -0.241653 -3.55379 0
M  V30 6512 O 612.901 -0.119641 -5.46369 0
M  V30 6513 H 609.995 0.0174534 -0.826816 0
M  V30 6514 H 612.541 -0.711891 -1.54046 0
M  V30 6515 H 611.313 -1.33401 -3.67858 0
M  V30 6516 H 610.936 0.357777 -3.95987 0
M  V30 6517 N 611.933 1.52934 -0.380664 0
M  V30 6518 C 612.863 2.29118 0.450268 0
M  V30 6519 C 613.844 1.32153 1.07096 0
M  V30 6520 O 615.029 1.61038 1.08537 0
M  V30 6521 C 612.159 3.09161 1.58231 0
M  V30 6522 C 611.113 4.13938 1.0881 0
M  V30 6523 C 610.439 4.82153 2.31155 0
M  V30 6524 C 611.739 5.22048 0.162146 0
M  V30 6525 H 613.433 2.98826 -0.185361 0
M  V30 6526 H 610.979 1.43715 -0.0905886 0
M  V30 6527 H 612.932 3.61211 2.17036 0
M  V30 6528 H 611.656 2.3717 2.2454 0
M  V30 6529 H 610.315 3.62855 0.522633 0
M  V30 6530 H 609.963 4.06719 2.95953 0
M  V30 6531 H 609.663 5.52966 1.98752 0
M  V30 6532 H 611.187 5.37004 2.90618 0
M  V30 6533 H 612.601 5.6951 0.658126 0
M  V30 6534 H 610.998 6.00057 -0.0717122 0
M  V30 6535 H 612.068 4.78398 -0.791438 0
M  V30 6536 N 613.412 0.11024 1.57214 0
M  V30 6537 C 614.642 -0.557025 1.98949 0
M  V30 6538 C 615.05 -1.61317 0.988606 0
M  V30 6539 O 614.393 -1.83679 -0.0279159 0
M  V30 6540 C 614.455 -1.24956 3.37085 0
M  V30 6541 C 614.119 -0.342398 4.55716 0
M  V30 6542 C 615.116 0.415511 5.18237 0
M  V30 6543 C 612.801 -0.256029 5.01647 0
M  V30 6544 C 614.795 1.24761 6.25071 0
M  V30 6545 C 612.482 0.579713 6.08344 0
M  V30 6546 C 613.48 1.33017 6.69922 0
M  V30 6547 O 613.168 2.15205 7.74559 0
M  V30 6548 H 612.9 -0.152792 0.658506 0
M  V30 6549 H 615.454 0.19076 2.04512 0
M  V30 6550 H 613.684 -2.04424 3.2825 0
M  V30 6551 H 615.373 -1.81286 3.63167 0
M  V30 6552 H 616.139 0.358605 4.83672 0
M  V30 6553 H 612.018 -0.829831 4.5347 0
M  V30 6554 H 615.562 1.83386 6.73064 0
M  V30 6555 H 611.459 0.638044 6.42339 0
M  V30 6556 H 612.227 2.08052 7.91617 0
M  V30 6557 N 614.89 -1.56749 -0.16351 0
M  V30 6558 C 616.137 -1.82434 -0.878866 0
M  V30 6559 C 616.465 -0.688557 -1.81904 0
M  V30 6560 O 615.72 0.323644 -1.93005 0
M  V30 6561 C 616.019 -3.14342 -1.70071 0
M  V30 6562 C 615.685 -4.41647 -0.908775 0
M  V30 6563 C 614.347 -4.76224 -0.690236 0
M  V30 6564 C 616.699 -5.19998 -0.353815 0
M  V30 6565 C 614.027 -5.86624 0.0942374 0
M  V30 6566 C 616.379 -6.3122 0.41761 0
M  V30 6567 C 615.043 -6.64358 0.646879 0
M  V30 6568 H 614.313 -0.667574 -0.3216 0
M  V30 6569 H 616.96 -1.90963 -0.14337 0
M  V30 6570 H 615.265 -3.0119 -2.50583 0
M  V30 6571 H 616.962 -3.31426 -2.25738 0
M  V30 6572 H 613.552 -4.1453 -1.08916 0
M  V30 6573 H 617.736 -4.93673 -0.509975 0
M  V30 6574 H 612.992 -6.10751 0.281529 0
M  V30 6575 H 617.166 -6.91133 0.854849 0
M  V30 6576 H 614.793 -7.49742 1.25662 0
M  V30 6577 N 616.368 0.432326 -1.51554 0
M  V30 6578 C 617.596 1.20364 -1.68286 0
M  V30 6579 C 618.011 1.84888 -0.38233 0
M  V30 6580 O 617.368 1.70924 0.639627 0
M  V30 6581 C 617.419 2.28398 -2.80208 0
M  V30 6582 O 617.14 1.66512 -4.05223 0
M  V30 6583 C 618.641 3.18584 -3.08251 0
M  V30 6584 H 615.861 0.36259 -0.564596 0
M  V30 6585 H 618.405 0.511647 -1.97996 0
M  V30 6586 H 616.56 2.93305 -2.53083 0
M  V30 6587 H 616.974 2.37951 -4.67418 0
M  V30 6588 H 618.448 3.90511 -3.90135 0
M  V30 6589 H 618.925 3.79628 -2.2086 0
M  V30 6590 H 619.531 2.59372 -3.37055 0
M  V30 6591 N 617.846 1.41785 0.688094 0
M  V30 6592 C 618.778 1.40159 1.81351 0
M  V30 6593 C 619.791 0.30262 1.59963 0
M  V30 6594 O 620.98 0.564841 1.69327 0
M  V30 6595 C 618.08 1.16517 3.1824 0
M  V30 6596 C 617.253 2.38597 3.66593 0
M  V30 6597 C 616.312 2.10699 4.82174 0
M  V30 6598 O 615.338 2.83798 4.93404 0
M  V30 6599 N 616.54 1.10187 5.69947 0
M  V30 6600 H 619.305 2.3716 1.83236 0
M  V30 6601 H 616.866 1.36494 0.870697 0
M  V30 6602 H 618.858 0.957941 3.93199 0
M  V30 6603 H 617.428 0.280873 3.11336 0
M  V30 6604 H 616.648 2.74974 2.82459 0
M  V30 6605 H 617.936 3.19919 3.95638 0
M  V30 6606 H 617.334 0.497016 5.63512 0
M  V30 6607 H 615.891 0.954518 6.44773 0
M  V30 6608 N 619.324 -0.923095 1.27737 0
M  V30 6609 C 620.572 -1.66797 1.14119 0
M  V30 6610 C 620.893 -1.92479 -0.312541 0
M  V30 6611 O 620.163 -1.53432 -1.218 0
M  V30 6612 H 618.743 -0.618196 0.419336 0
M  V30 6613 H 621.405 -1.10815 1.60331 0
M  V30 6614 H 620.501 -2.63424 1.67374 0
M  V30 6615 N 620.802 -1.09834 -1.13024 0
M  V30 6616 C 622.079 -0.749225 -1.80682 0
M  V30 6617 C 622.459 0.765171 -1.96744 0
M  V30 6618 O 621.807 1.68912 -1.53886 0
M  V30 6619 C 622.017 -1.49311 -3.15448 0
M  V30 6620 C 623.365 -1.66162 -3.90737 0
M  V30 6621 O 624.389 -1.45597 -3.25085 0
M  V30 6622 O 623.248 -2.00211 -5.08505 0
M  V30 6623 H 620.342 -0.269614 -0.781817 0
M  V30 6624 H 622.888 -1.20078 -1.19914 0
M  V30 6625 H 621.66 -2.52407 -2.99009 0
M  V30 6626 H 621.283 -1.034 -3.8392 0
M  V30 6627 N 622.28 1.30327 -0.886154 0
M  V30 6628 C 623.228 2.30052 -0.343317 0
M  V30 6629 C 624.222 1.60212 0.550305 0
M  V30 6630 O 625.428 1.74674 0.434609 0
M  V30 6631 H 621.803 0.746306 -0.0923681 0
M  V30 6632 H 623.774 2.73294 -1.19804 0
M  V30 6633 C 622.523 3.45079 0.426107 0
M  V30 6634 H 621.846 3.99003 -0.25227 0
M  V30 6635 H 623.286 4.16931 0.771009 0
M  V30 6636 C 621.745 2.95195 1.62363 0
M  V30 6637 O 622.275 2.95323 2.723 0
M  V30 6638 N 620.481 2.51192 1.4612 0
M  V30 6639 H 620.028 2.51286 0.566832 0
M  V30 6640 H 619.986 2.18173 2.2638 0
M  V30 6641 N 623.758 0.647228 1.43697 0
M  V30 6642 C 625.174 0.314256 1.56476 0
M  V30 6643 C 625.374 -1.18191 1.63196 0
M  V30 6644 O 624.43 -1.96655 1.58376 0
M  V30 6645 C 625.743 1.02034 2.82859 0
M  V30 6646 C 627.291 1.00002 2.96595 0
M  V30 6647 C 627.766 1.68689 4.25803 0
M  V30 6648 N 629.257 1.65424 4.32654 0
M  V30 6649 C 629.992 2.1545 5.31384 0
M  V30 6650 N 629.488 2.73738 6.36427 0
M  V30 6651 N 631.281 2.05985 5.22998 0
M  V30 6652 H 623.432 1.61821 1.37578 0
M  V30 6653 H 625.695 0.680184 0.660344 0
M  V30 6654 H 625.401 2.07542 2.83935 0
M  V30 6655 H 625.275 0.568146 3.72897 0
M  V30 6656 H 627.662 -0.0466319 2.95063 0
M  V30 6657 H 627.743 1.49086 2.07863 0
M  V30 6658 H 627.387 2.73308 4.28095 0
M  V30 6659 H 627.317 1.17076 5.13421 0
M  V30 6660 H 629.808 1.22884 3.57363 0
M  V30 6661 H 630.121 3.09602 7.08072 0
M  V30 6662 H 628.466 2.77796 6.37067 0
M  V30 6663 H 631.657 1.60157 4.39849 0
M  V30 6664 H 631.83 2.45281 5.99784 0
M  V30 6665 N 625.236 -1.5273 0.388769 0
M  V30 6666 C 626.485 -2.00757 -0.194833 0
M  V30 6667 C 626.798 -1.27951 -1.47946 0
M  V30 6668 O 628.004 -1.66686 -2.14308 0
M  V30 6669 C 626.46 -3.57695 -0.397762 0
M  V30 6670 C 626.068 -4.394 0.873583 0
M  V30 6671 C 627.812 -4.14012 -0.937759 0
M  V30 6672 C 625.719 -5.87938 0.638962 0
M  V30 6673 H 624.649 -0.750101 -0.0765845 0
M  V30 6674 H 627.3 -1.76239 0.511086 0
M  V30 6675 H 625.682 -3.7846 -1.16552 0
M  V30 6676 H 626.856 -4.30403 1.64591 0
M  V30 6677 H 625.171 -3.94301 1.33849 0
M  V30 6678 H 627.768 -5.22645 -1.12899 0
M  V30 6679 H 628.111 -3.7007 -1.90666 0
M  V30 6680 H 628.644 -3.97137 -0.229588 0
M  V30 6681 H 625.383 -6.36202 1.57885 0
M  V30 6682 H 624.903 -5.99726 -0.094443 0
M  V30 6683 H 626.582 -6.46423 0.273299 0
M  V30 6684 N 626.714 -0.118576 -1.57153 0
M  V30 6685 C 627.962 0.538461 -1.94795 0
M  V30 6686 C 628.283 1.67243 -1.00274 0
M  V30 6687 O 627.553 1.95811 -0.0589692 0
M  V30 6688 H 626.133 0.201904 -0.719197 0
M  V30 6689 H 628.795 -0.187418 -1.93997 0
M  V30 6690 H 627.891 0.933315 -2.97818 0
M  V30 6691 N 628.193 1.56834 0.155195 0
M  V30 6692 C 629.441 1.82536 0.867462 0
M  V30 6693 C 629.762 0.698168 1.82073 0
M  V30 6694 O 629.032 -0.280807 1.93877 0
M  V30 6695 H 627.612 0.673401 0.323327 0
M  V30 6696 H 630.274 1.94313 0.151156 0
M  V30 6697 H 629.37 2.77171 1.43466 0
M  V30 6698 N 629.671 -0.424282 1.51781 0
M  V30 6699 C 630.618 -1.51591 1.74037 0
M  V30 6700 C 631.588 -1.55556 0.582358 0
M  V30 6701 O 632.773 -1.72364 0.818245 0
M  V30 6702 C 629.913 -2.89188 1.8832 0
M  V30 6703 C 629.026 -2.9465 3.1592 0
M  V30 6704 C 628.161 -4.23452 3.20721 0
M  V30 6705 C 627.2 -4.22831 4.42584 0
M  V30 6706 N 626.337 -5.43178 4.44862 0
M  V30 6707 H 631.177 -1.31917 2.67212 0
M  V30 6708 H 628.714 -0.640599 1.32419 0
M  V30 6709 H 630.672 -3.69044 1.94583 0
M  V30 6710 H 629.302 -3.07392 0.985402 0
M  V30 6711 H 628.354 -2.07378 3.18902 0
M  V30 6712 H 629.666 -2.90055 4.05795 0
M  V30 6713 H 628.82 -5.1169 3.25973 0
M  V30 6714 H 627.559 -4.30722 2.28757 0
M  V30 6715 H 626.564 -3.32984 4.37495 0
M  V30 6716 H 627.789 -4.17213 5.35826 0
M  V30 6717 H 625.735 -5.51145 3.55775 0
M  V30 6718 H 625.652 -5.40515 5.28563 0
M  V30 6719 H 626.92 -6.33412 4.54324 0
M  V30 6720 N 631.149 -1.42148 -0.680565 0
M  V30 6721 C 632.379 -1.45485 -1.46689 0
M  V30 6722 C 632.787 -0.0629451 -1.89095 0
M  V30 6723 O 632.13 0.931397 -1.58337 0
M  V30 6724 C 632.192 -2.31397 -2.75129 0
M  V30 6725 C 631.856 -3.79353 -2.54834 0
M  V30 6726 C 632.853 -4.71148 -2.19808 0
M  V30 6727 C 630.538 -4.23557 -2.70008 0
M  V30 6728 C 632.532 -6.05139 -2.00215 0
M  V30 6729 C 630.219 -5.57609 -2.50031 0
M  V30 6730 C 631.217 -6.48216 -2.15187 0
M  V30 6731 O 630.905 -7.79792 -1.95397 0
M  V30 6732 H 630.637 -0.497139 -0.458071 0
M  V30 6733 H 633.191 -1.87252 -0.844139 0
M  V30 6734 H 631.421 -1.84468 -3.39865 0
M  V30 6735 H 633.11 -2.26257 -3.36991 0
M  V30 6736 H 633.876 -4.38282 -2.07686 0
M  V30 6737 H 629.755 -3.53327 -2.96109 0
M  V30 6738 H 633.299 -6.75823 -1.72941 0
M  V30 6739 H 629.196 -5.9005 -2.61748 0
M  V30 6740 H 629.964 -7.91091 -2.10042 0
M  V30 6741 N 632.627 0.916307 -1.28225 0
M  V30 6742 C 633.873 1.66794 -1.1641 0
M  V30 6743 C 634.228 1.90278 0.284986 0
M  V30 6744 O 633.521 1.49023 1.20427 0
M  V30 6745 C 633.715 3.03125 -1.8934 0
M  V30 6746 C 633.544 2.92947 -3.41192 0
M  V30 6747 C 632.314 2.9461 -4.10528 0
M  V30 6748 C 634.512 2.7121 -4.36978 0
M  V30 6749 N 632.494 2.74993 -5.48864 0
M  V30 6750 C 633.865 2.60411 -5.6266 0
M  V30 6751 C 635.92 2.56187 -4.26934 0
M  V30 6752 C 634.623 2.3612 -6.79441 0
M  V30 6753 C 636.649 2.33275 -5.43449 0
M  V30 6754 C 636.011 2.23228 -6.68093 0
M  V30 6755 H 632.11 0.616654 -0.480896 0
M  V30 6756 H 634.694 1.08237 -1.61842 0
M  V30 6757 H 632.865 3.59774 -1.46346 0
M  V30 6758 H 634.597 3.67294 -1.69932 0
M  V30 6759 H 631.352 3.0527 -3.62087 0
M  V30 6760 H 631.776 2.68284 -6.21573 0
M  V30 6761 H 636.418 2.62707 -3.31278 0
M  V30 6762 H 634.136 2.28339 -7.75169 0
M  V30 6763 H 637.722 2.22519 -5.37565 0
M  V30 6764 H 636.602 2.05741 -7.5673 0
M  V30 6765 N 634.105 1.10431 1.1244 0
M  V30 6766 C 635.052 0.753103 2.18167 0
M  V30 6767 C 636.022 -0.270549 1.63882 0
M  V30 6768 O 637.207 -0.149837 1.90211 0
M  V30 6769 C 634.347 0.191046 3.44571 0
M  V30 6770 C 633.46 1.26999 4.12911 0
M  V30 6771 C 632.595 0.669586 5.26963 0
M  V30 6772 C 631.634 1.72912 5.87169 0
M  V30 6773 N 630.771 1.14898 6.92635 0
M  V30 6774 H 635.611 1.65892 2.47556 0
M  V30 6775 H 633.148 0.828631 1.21541 0
M  V30 6776 H 635.106 -0.152712 4.1692 0
M  V30 6777 H 633.736 -0.677997 3.15599 0
M  V30 6778 H 632.788 1.73087 3.3874 0
M  V30 6779 H 634.1 2.07204 4.53727 0
M  V30 6780 H 633.254 0.275274 6.06075 0
M  V30 6781 H 631.993 -0.163895 4.87425 0
M  V30 6782 H 630.998 2.13286 5.06744 0
M  V30 6783 H 632.223 2.56544 6.28778 0
M  V30 6784 H 630.169 0.336956 6.55134 0
M  V30 6785 H 630.086 1.88786 7.32049 0
M  V30 6786 H 631.354 0.78121 7.75576 0
M  V30 6787 N 635.583 -1.29855 0.893053 0
M  V30 6788 C 636.829 -1.96116 0.516349 0
M  V30 6789 C 637.162 -1.70281 -0.933695 0
M  V30 6790 O 636.437 -1.01205 -1.66096 0
M  V30 6791 C 636.72 -3.51068 0.801455 0
M  V30 6792 C 636.573 -3.86387 2.30272 0
M  V30 6793 C 637.892 -4.39186 0.283423 0
M  V30 6794 H 635.011 -0.712335 0.189072 0
M  V30 6795 H 637.653 -1.53587 1.11852 0
M  V30 6796 H 635.803 -3.87424 0.288949 0
M  V30 6797 H 637.475 -3.60012 2.88425 0
M  V30 6798 H 635.718 -3.34167 2.76613 0
M  V30 6799 H 636.389 -4.94512 2.45279 0
M  V30 6800 H 638.865 -4.09785 0.722187 0
M  V30 6801 H 637.741 -5.46505 0.512169 0
M  V30 6802 H 638.002 -4.34511 -0.815643 0
M  V30 6803 N 637.061 -0.65484 -1.43351 0
M  V30 6804 C 638.477 -0.32255 -1.56307 0
M  V30 6805 C 638.677 1.17324 -1.63821 0
M  V30 6806 O 637.733 1.95813 -1.59417 0
M  V30 6807 C 639.046 -1.03533 -2.82314 0
M  V30 6808 C 640.594 -1.01574 -2.9606 0
M  V30 6809 C 641.069 -1.70945 -4.24902 0
M  V30 6810 N 642.56 -1.67716 -4.3177 0
M  V30 6811 C 643.295 -2.18265 -5.30234 0
M  V30 6812 N 642.791 -2.7711 -6.34966 0
M  V30 6813 N 644.584 -2.08756 -5.21898 0
M  V30 6814 H 636.735 -1.62549 -1.36717 0
M  V30 6815 H 638.998 -0.683676 -0.656727 0
M  V30 6816 H 638.704 -2.09045 -2.8283 0
M  V30 6817 H 638.578 -0.587913 -3.7259 0
M  V30 6818 H 640.965 0.0309834 -2.95084 0
M  V30 6819 H 641.046 -1.50186 -2.07069 0
M  V30 6820 H 640.69 -2.75574 -4.26639 0
M  V30 6821 H 640.62 -1.19797 -5.12793 0
M  V30 6822 H 643.111 -1.24777 -3.56706 0
M  V30 6823 H 643.424 -3.13353 -7.06421 0
M  V30 6824 H 641.769 -2.81171 -6.35585 0
M  V30 6825 H 644.96 -1.62488 -4.38994 0
M  V30 6826 H 645.133 -2.48459 -5.98475 0
M  V30 6827 N 638.539 1.52521 -0.396863 0
M  V30 6828 C 639.769 2.05792 0.182485 0
M  V30 6829 C 640.177 1.26784 1.40436 0
M  V30 6830 O 639.52 0.309617 1.81072 0
M  V30 6831 C 639.582 3.54291 0.609781 0
M  V30 6832 C 639.246 4.5426 -0.499674 0
M  V30 6833 C 640.243 5.01812 -1.35944 0
M  V30 6834 C 637.928 4.97827 -0.668864 0
M  V30 6835 C 639.922 5.91562 -2.37346 0
M  V30 6836 C 637.609 5.87376 -1.68621 0
M  V30 6837 C 638.607 6.34137 -2.53692 0
M  V30 6838 O 638.295 7.21915 -3.53686 0
M  V30 6839 H 638.027 0.675362 0.0293583 0
M  V30 6840 H 640.581 1.97539 -0.56281 0
M  V30 6841 H 638.811 3.60188 1.40717 0
M  V30 6842 H 640.5 3.90267 1.11565 0
M  V30 6843 H 641.266 4.68879 -1.24008 0
M  V30 6844 H 637.145 4.60997 -0.0163971 0
M  V30 6845 H 640.689 6.27983 -3.03782 0
M  V30 6846 H 636.586 6.19723 -1.80593 0
M  V30 6847 H 637.354 7.39996 -3.49784 0
M  V30 6848 N 640.017 0.126909 1.57088 0
M  V30 6849 C 641.245 -0.53667 1.99819 0
M  V30 6850 C 641.66 -1.5972 1.00673 0
M  V30 6851 O 641.017 -1.825 0.000747365 0
M  V30 6852 C 641.068 -1.15563 3.42531 0
M  V30 6853 O 640.789 -0.137483 4.37884 0
M  V30 6854 C 642.29 -1.90176 4.00435 0
M  V30 6855 H 639.51 -0.141443 0.655923 0
M  V30 6856 H 642.054 0.215578 2.03361 0
M  V30 6857 H 640.209 -1.85861 3.39904 0
M  V30 6858 H 640.623 -0.588229 5.21191 0
M  V30 6859 H 642.097 -2.28801 5.02349 0
M  V30 6860 H 642.574 -2.78002 3.40017 0
M  V30 6861 H 643.18 -1.24623 4.06632 0
M  V30 6862 N 641.495 -1.56914 -0.146875 0
M  V30 6863 C 642.405 -2.0154 -1.20079 0
M  V30 6864 C 643.421 -0.930838 -1.47008 0
M  V30 6865 O 644.597 -1.24032 -1.58676 0
M  V30 6866 C 641.662 -2.38715 -2.51428 0
M  V30 6867 C 640.723 -3.6112 -2.32145 0
M  V30 6868 C 639.956 -3.96512 -3.57231 0
M  V30 6869 O 640.179 -3.32566 -4.63418 0
M  V30 6870 O 639.113 -4.89758 -3.49887 0
M  V30 6871 H 642.939 -2.91506 -0.851924 0
M  V30 6872 H 640.524 -1.45106 -0.355607 0
M  V30 6873 H 642.406 -2.63485 -3.28867 0
M  V30 6874 H 641.081 -1.51903 -2.85845 0
M  V30 6875 H 639.988 -3.41536 -1.52656 0
M  V30 6876 H 641.321 -4.48549 -2.02644 0
M  V30 6877 N 642.974 0.416227 -1.52004 0
M  V30 6878 C 644.221 1.16383 -1.65714 0
M  V30 6879 C 644.549 1.9068 -0.383594 0
M  V30 6880 O 643.804 1.85174 0.633185 0
M  V30 6881 C 644.103 2.18923 -2.82502 0
M  V30 6882 C 643.769 1.61485 -4.20991 0
M  V30 6883 C 642.431 1.45545 -4.58661 0
M  V30 6884 C 644.783 1.19468 -5.07323 0
M  V30 6885 C 642.111 0.860937 -5.80349 0
M  V30 6886 C 644.463 0.614386 -6.29609 0
M  V30 6887 C 643.127 0.442056 -6.66035 0
M  V30 6888 H 642.397 0.425875 -0.606392 0
M  V30 6889 H 645.044 0.45199 -1.8609 0
M  V30 6890 H 643.349 2.96225 -2.56433 0
M  V30 6891 H 645.046 2.76628 -2.90307 0
M  V30 6892 H 641.636 1.74873 -3.91302 0
M  V30 6893 H 645.82 1.30596 -4.78809 0
M  V30 6894 H 641.076 0.715372 -6.072 0
M  V30 6895 H 645.25 0.280393 -6.95835 0
M  V30 6896 H 642.877 -0.0207218 -7.60197 0
M  V30 6897 N 644.452 1.42507 0.673017 0
M  V30 6898 C 645.698 1.43284 1.43519 0
M  V30 6899 C 646.031 0.049668 1.94136 0
M  V30 6900 O 645.306 -0.926369 1.71022 0
M  V30 6901 C 645.589 2.45874 2.63093 0
M  V30 6902 C 645.442 3.93388 2.18096 0
M  V30 6903 C 646.761 2.45431 3.6531 0
M  V30 6904 H 643.88 0.521752 0.520522 0
M  V30 6905 H 646.522 1.73932 0.764701 0
M  V30 6906 H 644.672 2.19869 3.20296 0
M  V30 6907 H 646.344 4.30379 1.66046 0
M  V30 6908 H 644.587 4.07169 1.49652 0
M  V30 6909 H 645.258 4.60752 3.03993 0
M  V30 6910 H 647.734 2.68561 3.17827 0
M  V30 6911 H 646.61 3.19189 4.46553 0
M  V30 6912 H 646.871 1.48092 4.16559 0
M  V30 6913 N 645.93 -0.909495 1.28709 0
M  V30 6914 C 647.207 -1.63865 1.06806 0
M  V30 6915 C 647.587 -2.07445 -0.391143 0
M  V30 6916 O 646.935 -1.82269 -1.37805 0
M  V30 6917 C 647.145 -2.82692 2.04661 0
M  V30 6918 C 648.493 -3.5361 2.35042 0
M  V30 6919 O 649.517 -2.92847 2.02779 0
M  V30 6920 O 648.376 -4.63131 2.90124 0
M  V30 6921 H 645.47 -0.719065 0.408502 0
M  V30 6922 H 648.016 -0.958424 1.40044 0
M  V30 6923 H 646.788 -2.47614 3.0299 0
M  V30 6924 H 646.411 -3.58426 1.72095 0
M  V30 6925 N 647.408 -1.11026 -1.11852 0
M  V30 6926 C 648.371 -0.768006 -2.1595 0
M  V30 6927 C 649.371 0.210538 -1.59416 0
M  V30 6928 O 650.561 -0.0133978 -1.74195 0
M  V30 6929 C 647.693 -0.138678 -3.40618 0
M  V30 6930 H 648.886 -1.69012 -2.4774 0
M  V30 6931 H 646.439 -0.911578 -1.26964 0
M  V30 6932 H 647.174 0.793872 -3.14433 0
M  V30 6933 H 646.959 -0.843012 -3.8293 0
M  V30 6934 H 648.449 0.0848039 -4.17514 0
M  V30 6935 N 648.886 1.2938 -0.899927 0
M  V30 6936 C 650.114 1.99691 -0.541386 0
M  V30 6937 C 650.529 1.67355 0.873936 0
M  V30 6938 O 649.886 0.918728 1.57688 0
M  V30 6939 C 649.937 3.54168 -0.72438 0
M  V30 6940 O 649.658 3.85359 -2.08399 0
M  V30 6941 C 651.159 4.41746 -0.370819 0
M  V30 6942 H 648.379 0.638037 -0.207726 0
M  V30 6943 H 650.923 1.6491 -1.20934 0
M  V30 6944 H 649.078 3.87261 -0.103607 0
M  V30 6945 H 649.492 4.80032 -2.11352 0
M  V30 6946 H 650.966 5.49256 -0.549693 0
M  V30 6947 H 651.443 4.33712 0.692148 0
M  V30 6948 H 652.049 4.14125 -0.968543 0
M  V30 6949 N 650.364 0.662433 1.43002 0
M  V30 6950 C 651.611 0.179591 2.01702 0
M  V30 6951 C 651.939 -1.20964 1.52309 0
M  V30 6952 O 651.194 -1.82343 0.7106 0
M  V30 6953 C 651.493 0.149363 3.57088 0
M  V30 6954 C 651.159 1.48158 4.25864 0
M  V30 6955 C 649.821 1.84638 4.44367 0
M  V30 6956 C 652.173 2.35953 4.64732 0
M  V30 6957 C 649.501 3.08561 4.99006 0
M  V30 6958 C 651.853 3.59176 5.20745 0
M  V30 6959 C 650.517 3.95841 5.37463 0
M  V30 6960 H 649.787 0.0657172 0.73808 0
M  V30 6961 H 652.434 0.854968 1.71355 0
M  V30 6962 H 650.739 -0.609491 3.8703 0
M  V30 6963 H 652.436 -0.241241 4.00274 0
M  V30 6964 H 649.026 1.18777 4.11813 0
M  V30 6965 H 653.21 2.09058 4.50121 0
M  V30 6966 H 648.466 3.37005 5.10135 0
M  V30 6967 H 652.64 4.27417 5.49807 0
M  V30 6968 H 650.267 4.91942 5.79566 0
M  V30 6969 N 651.842 -1.52309 0.404946 0
M  V30 6970 C 653.07 -2.06185 -0.171818 0
M  V30 6971 C 653.485 -1.27536 -1.39212 0
M  V30 6972 O 652.842 -0.326112 -1.79563 0
M  V30 6973 C 652.893 -3.57647 -0.526417 0
M  V30 6974 O 652.614 -4.3332 0.645417 0
M  V30 6975 C 654.115 -4.27925 -1.15736 0
M  V30 6976 H 651.335 -0.670632 -0.0222328 0
M  V30 6977 H 653.879 -1.96259 0.574692 0
M  V30 6978 H 652.034 -3.67595 -1.22282 0
M  V30 6979 H 652.448 -5.23328 0.35042 0
M  V30 6980 H 653.922 -5.35093 -1.35572 0
M  V30 6981 H 654.399 -3.84134 -2.12926 0
M  V30 6982 H 655.005 -4.22335 -0.501281 0
M  V30 6983 N 653.32 -0.135238 -1.57019 0
M  V30 6984 C 654.267 0.808908 -2.1616 0
M  V30 6985 C 655.237 1.25234 -1.09113 0
M  V30 6986 O 656.422 1.32697 -1.37099 0
M  V30 6987 C 653.562 2.04729 -2.77813 0
M  V30 6988 C 652.675 1.65074 -3.99218 0
M  V30 6989 C 651.81 2.84002 -4.48906 0
M  V30 6990 C 650.849 2.40663 -5.62803 0
M  V30 6991 N 649.986 3.5256 -6.07162 0
M  V30 6992 H 654.826 0.297751 -2.96509 0
M  V30 6993 H 652.363 0.135264 -1.46477 0
M  V30 6994 H 654.321 2.7731 -3.11697 0
M  V30 6995 H 652.951 2.53275 -2.00128 0
M  V30 6996 H 652.003 0.823029 -3.7139 0
M  V30 6997 H 653.315 1.29236 -4.81767 0
M  V30 6998 H 652.469 3.64788 -4.84783 0
M  V30 6999 H 651.208 3.23076 -3.65339 0
M  V30 7000 H 650.213 1.58314 -5.26514 0
M  V30 7001 H 651.438 2.02687 -6.48147 0
M  V30 7002 H 649.384 3.91278 -5.26534 0
M  V30 7003 H 649.301 3.20699 -6.84608 0
M  V30 7004 H 650.569 4.33738 -6.47682 0
M  V30 7005 N 654.798 1.5699 0.138552 0
M  V30 7006 C 656.214 1.51844 0.491472 0
M  V30 7007 C 656.414 0.845063 1.82923 0
M  V30 7008 O 655.47 0.419143 2.48997 0
M  V30 7009 C 656.783 2.96615 0.493987 0
M  V30 7010 C 658.331 3.076 0.578913 0
M  V30 7011 C 658.806 4.53893 0.612009 0
M  V30 7012 N 660.297 4.5827 0.673997 0
M  V30 7013 C 661.032 5.68852 0.720729 0
M  V30 7014 N 660.528 6.88982 0.726292 0
M  V30 7015 N 662.321 5.56908 0.762253 0
M  V30 7016 H 654.472 1.99158 -0.738228 0
M  V30 7017 H 656.735 0.908693 -0.270149 0
M  V30 7018 H 656.441 3.49172 -0.420933 0
M  V30 7019 H 656.315 3.53017 1.32887 0
M  V30 7020 H 658.702 2.55057 1.48425 0
M  V30 7021 H 658.783 2.54227 -0.283286 0
M  V30 7022 H 658.427 5.07076 -0.289208 0
M  V30 7023 H 658.357 5.05057 1.49082 0
M  V30 7024 H 660.848 3.71793 0.676654 0
M  V30 7025 H 661.161 7.69014 0.764032 0
M  V30 7026 H 659.506 6.91526 0.69403 0
M  V30 7027 H 662.697 4.61969 0.755135 0
M  V30 7028 H 662.87 6.43102 0.795207 0
M  V30 7029 N 656.276 -0.40816 1.52223 0
M  V30 7030 C 657.223 -1.49737 1.75635 0
M  V30 7031 C 658.193 -1.5493 0.598824 0
M  V30 7032 O 659.378 -1.71487 0.83648 0
M  V30 7033 C 656.518 -2.87174 1.91376 0
M  V30 7034 C 655.631 -2.91283 3.19027 0
M  V30 7035 C 654.766 -4.20026 3.25195 0
M  V30 7036 C 653.805 -4.18113 4.47044 0
M  V30 7037 N 652.942 -5.38429 4.50598 0
M  V30 7038 H 657.782 -1.29075 2.68596 0
M  V30 7039 H 655.319 -0.626518 1.33091 0
M  V30 7040 H 657.277 -3.66959 1.98486 0
M  V30 7041 H 655.907 -3.06329 1.01795 0
M  V30 7042 H 654.959 -2.03984 3.21084 0
M  V30 7043 H 656.271 -2.85734 4.08849 0
M  V30 7044 H 655.425 -5.08204 3.31382 0
M  V30 7045 H 654.164 -4.28271 2.33313 0
M  V30 7046 H 653.169 -3.28325 4.41002 0
M  V30 7047 H 654.394 -4.11507 5.40221 0
M  V30 7048 H 652.34 -5.4734 3.616 0
M  V30 7049 H 652.257 -5.34879 5.34266 0
M  V30 7050 H 653.525 -6.28557 4.61016 0
M  V30 7051 N 657.755 -1.42862 -0.66545 0
M  V30 7052 C 659.171 -1.25993 -0.979687 0
M  V30 7053 C 659.371 -0.170831 -2.00775 0
M  V30 7054 O 658.427 0.454827 -2.4837 0
M  V30 7055 C 659.74 -2.62005 -1.47559 0
M  V30 7056 C 661.288 -2.69437 -1.59288 0
M  V30 7057 C 661.763 -4.05838 -2.12272 0
M  V30 7058 N 663.254 -4.0784 -2.19592 0
M  V30 7059 C 663.989 -5.10205 -2.61684 0
M  V30 7060 N 663.485 -6.22949 -3.03161 0
M  V30 7061 N 665.278 -4.9756 -2.61516 0
M  V30 7062 H 657.429 -2.12395 0.0150493 0
M  V30 7063 H 659.692 -0.946355 -0.0558187 0
M  V30 7064 H 659.398 -3.42605 -0.794654 0
M  V30 7065 H 659.272 -2.86566 -2.45275 0
M  V30 7066 H 661.659 -1.89178 -2.26486 0
M  V30 7067 H 661.74 -2.48655 -0.600374 0
M  V30 7068 H 661.384 -4.86559 -1.4568 0
M  V30 7069 H 661.314 -4.23977 -3.12331 0
M  V30 7070 H 663.805 -3.26452 -1.90361 0
M  V30 7071 H 664.118 -6.96899 -3.33993 0
M  V30 7072 H 662.463 -6.2644 -3.00995 0
M  V30 7073 H 665.654 -4.08551 -2.28481 0
M  V30 7074 H 665.827 -5.77468 -2.93999 0
M  V30 7075 N 659.233 0.902656 -1.29189 0
M  V30 7076 C 660.163 2.02294 -1.16616 0
M  V30 7077 C 661.144 1.6999 -0.0611175 0
M  V30 7078 O 662.329 1.9271 -0.240072 0
M  V30 7079 C 659.459 3.37018 -0.83882 0
M  V30 7080 C 658.413 3.83522 -1.89986 0
M  V30 7081 C 657.739 5.15337 -1.42589 0
M  V30 7082 C 659.039 4.04169 -3.30824 0
M  V30 7083 H 660.733 2.13071 -2.10336 0
M  V30 7084 H 658.279 1.02378 -1.01266 0
M  V30 7085 H 660.232 4.14895 -0.737584 0
M  V30 7086 H 658.956 3.26325 0.134071 0
M  V30 7087 H 657.615 3.07859 -1.99043 0
M  V30 7088 H 657.263 5.01056 -0.441759 0
M  V30 7089 H 656.963 5.47423 -2.13547 0
M  V30 7090 H 658.487 5.95758 -1.3381 0
M  V30 7091 H 659.901 4.72537 -3.24626 0
M  V30 7092 H 658.298 4.47604 -3.99713 0
M  V30 7093 H 659.368 3.08604 -3.74021 0
M  V30 7094 N 660.711 1.11618 1.11262 0
M  V30 7095 C 661.936 0.889013 1.8738 0
M  V30 7096 C 662.361 -0.555884 1.79698 0
M  V30 7097 O 661.719 -1.39272 1.16073 0
M  V30 7098 C 661.767 1.35759 3.34069 0
M  V30 7099 O 660.871 0.530499 4.08974 0
M  V30 7100 H 660.212 0.320082 0.581759 0
M  V30 7101 H 662.742 1.48611 1.40627 0
M  V30 7102 H 662.752 1.35291 3.84916 0
M  V30 7103 H 661.427 2.40973 3.38976 0
M  V30 7104 H 660.004 0.601439 3.68018 0
M  V30 7105 N 662.189 -1.289 0.906776 0
M  V30 7106 C 663.152 -2.25777 0.394656 0
M  V30 7107 C 664.152 -1.53621 -0.475119 0
M  V30 7108 O 665.342 -1.71949 -0.279165 0
M  V30 7109 C 662.474 -3.38113 -0.43499 0
M  V30 7110 H 663.667 -2.72592 1.25033 0
M  V30 7111 H 661.22 -1.40463 0.685547 0
M  V30 7112 H 661.955 -2.96648 -1.31036 0
M  V30 7113 H 661.74 -3.91647 0.188334 0
M  V30 7114 H 663.23 -4.10168 -0.784365 0
M  V30 7115 N 663.667 -0.670007 -1.42649 0
M  V30 7116 C 664.577 0.0114788 -2.34597 0
M  V30 7117 C 665.593 0.794055 -1.54825 0
M  V30 7118 O 666.769 0.737472 -1.87412 0
M  V30 7119 C 663.834 0.954436 -3.33304 0
M  V30 7120 C 662.895 0.166925 -4.28975 0
M  V30 7121 C 662.128 1.06497 -5.22967 0
M  V30 7122 O 662.351 2.30446 -5.21777 0
M  V30 7123 O 661.285 0.528347 -5.99577 0
M  V30 7124 H 665.111 -0.745794 -2.944 0
M  V30 7125 H 662.696 -0.430228 -1.43071 0
M  V30 7126 H 664.578 1.49589 -3.93956 0
M  V30 7127 H 663.253 1.69164 -2.7598 0
M  V30 7128 H 662.16 -0.418515 -3.71752 0
M  V30 7129 H 663.493 -0.531067 -4.89327 0
M  V30 7130 N 665.145 1.52092 -0.413018 0
M  V30 7131 C 666.055 2.30858 0.417318 0
M  V30 7132 C 667.071 1.38746 1.05003 0
M  V30 7133 O 668.247 1.71821 1.05069 0
M  V30 7134 C 665.312 3.11756 1.51687 0
M  V30 7135 C 664.373 4.19613 0.906825 0
M  V30 7136 C 663.606 4.96644 1.95399 0
M  V30 7137 O 663.829 4.7402 3.17271 0
M  V30 7138 O 662.763 5.81385 1.55805 0
M  V30 7139 H 666.589 3.02865 -0.225028 0
M  V30 7140 H 664.174 1.48358 -0.176126 0
M  V30 7141 H 666.056 3.62122 2.15512 0
M  V30 7142 H 664.731 2.42539 2.14375 0
M  V30 7143 H 663.638 3.73385 0.231183 0
M  V30 7144 H 664.971 4.91134 0.323814 0
M  V30 7145 N 666.623 0.143563 1.56945 0
M  V30 7146 C 667.586 -0.783295 2.154 0
M  V30 7147 C 668.586 -1.17763 1.09492 0
M  V30 7148 O 669.776 -1.09912 1.35148 0
M  V30 7149 C 666.908 -2.06248 2.7143 0
M  V30 7150 H 668.101 -0.274863 2.98638 0
M  V30 7151 H 665.654 -0.105859 1.55941 0
M  V30 7152 H 666.389 -2.61466 1.91849 0
M  V30 7153 H 666.174 -1.78897 3.4891 0
M  V30 7154 H 667.664 -2.72453 3.16479 0
M  V30 7155 N 668.101 -1.57061 -0.130224 0
M  V30 7156 C 669.051 -1.95941 -1.16582 0
M  V30 7157 C 670.035 -0.832858 -1.37667 0
M  V30 7158 O 671.227 -1.09647 -1.38948 0
M  V30 7159 C 668.356 -2.35777 -2.49528 0
M  V30 7160 C 667.442 -3.5504 -2.31964 0
M  V30 7161 N 667.833 -4.71071 -1.84189 0
M  V30 7162 C 666.131 -3.60453 -2.62659 0
M  V30 7163 C 666.832 -5.53128 -1.80068 0
M  V30 7164 N 665.808 -4.95303 -2.24001 0
M  V30 7165 H 669.61 -2.83117 -0.788806 0
M  V30 7166 H 667.124 -1.58842 -0.3381 0
M  V30 7167 H 669.121 -2.61843 -3.24413 0
M  V30 7168 H 667.781 -1.49961 -2.87996 0
M  V30 7169 H 668.792 -4.94504 -1.53903 0
M  V30 7170 H 665.469 -2.85217 -3.0489 0
M  V30 7171 H 666.859 -6.56182 -1.4448 0
M  V30 7172 N 669.579 0.400081 -1.52437 0
M  V30 7173 C 670.509 1.4947 -1.7939 0
M  V30 7174 C 671.49 1.57383 -0.645329 0
M  V30 7175 O 672.675 1.72511 -0.891826 0
M  V30 7176 C 669.805 2.87201 -1.95276 0
M  V30 7177 C 668.759 2.94134 -3.10917 0
M  V30 7178 C 668.085 4.34207 -3.1204 0
M  V30 7179 C 669.385 2.64791 -4.50203 0
M  V30 7180 H 671.079 1.27165 -2.71052 0
M  V30 7181 H 668.625 0.610312 -1.30427 0
M  V30 7182 H 670.578 3.63772 -2.12715 0
M  V30 7183 H 669.302 3.10819 -1.00294 0
M  V30 7184 H 667.961 2.20009 -2.93243 0
M  V30 7185 H 667.609 4.54848 -2.14761 0
M  V30 7186 H 667.309 4.39768 -3.89715 0
M  V30 7187 H 668.833 5.127 -3.31619 0
M  V30 7188 H 670.247 3.31083 -4.68035 0
M  V30 7189 H 668.644 2.81717 -5.29864 0
M  V30 7190 H 669.714 1.60184 -4.57678 0
M  V30 7191 N 671.057 1.43213 0.657864 0
M  V30 7192 C 672.305 1.44298 1.41501 0
M  V30 7193 C 672.626 0.0666478 1.94886 0
M  V30 7194 O 671.896 -0.897345 1.74139 0
M  V30 7195 H 670.476 0.531257 0.525143 0
M  V30 7196 H 673.138 1.78777 0.776195 0
M  V30 7197 H 672.234 2.1528 2.25966 0
M  V30 7198 N 672.536 -0.895792 1.29666 0
M  V30 7199 C 673.785 -1.64131 1.17234 0
M  V30 7200 C 674.098 -1.93665 -0.274416 0
M  V30 7201 O 675.304 -2.66472 -0.520105 0
M  V30 7202 C 673.76 -2.95764 2.05065 0
M  V30 7203 C 673.368 -2.7381 3.54587 0
M  V30 7204 C 675.112 -3.737 2.01367 0
M  V30 7205 C 673.019 -4.01194 4.34508 0
M  V30 7206 H 671.949 -0.615742 0.435175 0
M  V30 7207 H 674.6 -0.992626 1.54335 0
M  V30 7208 H 672.982 -3.61867 1.60837 0
M  V30 7209 H 674.156 -2.16277 4.06892 0
M  V30 7210 H 672.471 -2.09265 3.59996 0
M  V30 7211 H 675.068 -4.68152 2.58337 0
M  V30 7212 H 675.411 -4.04245 0.994575 0
M  V30 7213 H 675.944 -3.14444 2.43659 0
M  V30 7214 H 672.683 -3.75813 5.37071 0
M  V30 7215 H 672.203 -4.58272 3.86971 0
M  V30 7216 H 673.882 -4.69307 4.45376 0
M  V30 7217 N 674.014 -1.12206 -1.10668 0
M  V30 7218 C 674.944 -0.810086 -2.18997 0
M  V30 7219 C 675.925 0.225065 -1.68604 0
M  V30 7220 O 677.11 0.086783 -1.94006 0
M  V30 7221 C 674.24 -0.261262 -3.46316 0
M  V30 7222 C 673.194 -1.2292 -4.09969 0
M  V30 7223 C 672.52 -0.540713 -5.31959 0
M  V30 7224 C 673.82 -2.58295 -4.53962 0
M  V30 7225 H 675.514 -1.7159 -2.45352 0
M  V30 7226 H 673.06 -0.82646 -1.17922 0
M  V30 7227 H 675.013 -0.0307522 -4.21389 0
M  V30 7228 H 673.737 0.679879 -3.19445 0
M  V30 7229 H 672.396 -1.44548 -3.369 0
M  V30 7230 H 672.044 0.405492 -5.01363 0
M  V30 7231 H 671.744 -1.18637 -5.75499 0
M  V30 7232 H 673.268 -0.319184 -6.09765 0
M  V30 7233 H 674.682 -2.40709 -5.20319 0
M  V30 7234 H 673.079 -3.18916 -5.08343 0
M  V30 7235 H 674.149 -3.16918 -3.67002 0
M  V30 7236 N 675.492 1.28418 -0.913599 0
M  V30 7237 C 676.74 1.94596 -0.545594 0
M  V30 7238 C 677.061 1.7227 0.913668 0
M  V30 7239 O 676.331 1.06233 1.64595 0
M  V30 7240 H 674.911 0.720065 -0.198783 0
M  V30 7241 H 677.573 1.56404 -1.16292 0
M  V30 7242 H 676.669 3.03202 -0.739911 0
M  V30 7243 N 676.97 0.677563 1.42291 0
M  V30 7244 C 678.381 0.277912 1.8462 0
M  V30 7245 C 678.732 -1.18048 1.56714 0
M  V30 7246 O 677.857 -1.90404 1.02836 0
M  V30 7247 C 678.452 0.497619 3.35126 0
M  V30 7248 C 677.011 0.152063 3.76093 0
M  V30 7249 C 676.158 0.78872 2.65847 0
M  V30 7250 H 679.109 0.879527 1.32098 0
M  V30 7251 H 679.13 -0.24939 3.79682 0
M  V30 7252 H 678.642 1.55913 3.55405 0
M  V30 7253 H 676.743 -0.905896 3.6142 0
M  V30 7254 H 676.856 0.594514 4.75397 0
M  V30 7255 H 675.22 0.219813 2.5375 0
M  V30 7256 H 676.003 1.85374 2.88949 0
M  V30 7257 N 678.448 -1.51871 0.421078 0
M  V30 7258 C 679.694 -2.02237 -0.151014 0
M  V30 7259 C 680.027 -1.30554 -1.43768 0
M  V30 7260 O 679.302 -0.41546 -1.90011 0
M  V30 7261 C 679.585 -3.5802 -0.386482 0
M  V30 7262 C 679.438 -4.40339 0.9177 0
M  V30 7263 C 680.757 -4.24444 -1.16342 0
M  V30 7264 H 677.876 -0.735062 -0.0534102 0
M  V30 7265 H 680.518 -1.81656 0.556888 0
M  V30 7266 H 678.668 -3.75688 -0.989494 0
M  V30 7267 H 680.34 -4.34357 1.55344 0
M  V30 7268 H 678.583 -4.06073 1.526 0
M  V30 7269 H 679.254 -5.47451 0.707187 0
M  V30 7270 H 681.73 -4.10948 -0.652788 0
M  V30 7271 H 680.606 -5.33358 -1.29693 0
M  V30 7272 H 680.867 -3.84204 -2.18724 0
M  V30 7273 N 679.926 -0.151884 -1.56866 0
M  V30 7274 C 681.175 0.497992 -1.95456 0
M  V30 7275 C 681.488 1.6569 -1.03953 0
M  V30 7276 O 682.694 2.37173 -1.32142 0
M  V30 7277 C 681.15 0.93732 -3.4748 0
M  V30 7278 C 680.758 -0.194921 -4.47576 0
M  V30 7279 C 682.502 1.55671 -3.94926 0
M  V30 7280 C 680.409 0.26295 -5.90815 0
M  V30 7281 H 679.339 0.189811 -0.729717 0
M  V30 7282 H 681.99 -0.237011 -1.81963 0
M  V30 7283 H 680.372 1.72773 -3.56322 0
M  V30 7284 H 681.546 -0.971951 -4.50433 0
M  V30 7285 H 679.861 -0.72303 -4.10075 0
M  V30 7286 H 682.458 1.91099 -4.99385 0
M  V30 7287 H 682.801 2.44748 -3.36755 0
M  V30 7288 H 683.334 0.831109 -3.89021 0
M  V30 7289 H 680.073 -0.592568 -6.52816 0
M  V30 7290 H 679.593 1.00575 -5.91308 0
M  V30 7291 H 681.272 0.713333 -6.43056 0
M  V30 7292 N 681.404 1.57128 0.121893 0
M  V30 7293 C 682.351 2.0013 1.14964 0
M  V30 7294 C 683.321 0.872959 1.4131 0
M  V30 7295 O 684.506 1.13696 1.53225 0
M  V30 7296 C 681.646 2.40824 2.4718 0
M  V30 7297 C 680.759 3.67061 2.27794 0
M  V30 7298 C 679.894 3.96749 3.53219 0
M  V30 7299 C 678.933 5.16178 3.28978 0
M  V30 7300 N 678.07 5.41751 4.46599 0
M  V30 7301 H 682.91 2.8772 0.775947 0
M  V30 7302 H 680.447 1.42328 0.371652 0
M  V30 7303 H 682.405 2.62454 3.24305 0
M  V30 7304 H 681.035 1.56279 2.82448 0
M  V30 7305 H 680.087 3.53063 1.416 0
M  V30 7306 H 681.399 4.5434 2.05857 0
M  V30 7307 H 680.553 4.19012 4.38764 0
M  V30 7308 H 679.292 3.07941 3.78185 0
M  V30 7309 H 678.297 4.93762 2.41824 0
M  V30 7310 H 679.522 6.06561 3.05386 0
M  V30 7311 H 677.468 4.55899 4.71691 0
M  V30 7312 H 677.385 6.23347 4.27756 0
M  V30 7313 H 678.653 5.68531 5.33285 0
M  V30 7314 N 682.882 -0.391992 1.52647 0
M  V30 7315 C 683.845 -1.46135 1.7657 0
M  V30 7316 C 684.845 -1.47701 0.635698 0
M  V30 7317 O 686.035 -1.48924 0.903728 0
M  V30 7318 C 683.167 -2.85443 1.86374 0
M  V30 7319 H 684.36 -1.26208 2.72051 0
M  V30 7320 H 681.913 -0.623549 1.43323 0
M  V30 7321 H 682.648 -3.10718 0.928685 0
M  V30 7322 H 682.433 -2.85708 2.68539 0
M  V30 7323 H 683.923 -3.62933 2.06566 0
M  V30 7324 N 684.36 -1.4356 -0.65026 0
M  V30 7325 C 685.27 -1.514 -1.79207 0
M  V30 7326 C 686.286 -0.400895 -1.69319 0
M  V30 7327 O 687.462 -0.655458 -1.90436 0
M  V30 7328 C 684.527 -1.43737 -3.155 0
M  V30 7329 C 683.588 -2.65743 -3.37163 0
M  V30 7330 C 682.821 -2.58436 -4.66954 0
M  V30 7331 O 683.044 -1.63374 -5.46503 0
M  V30 7332 O 681.978 -3.48984 -4.90402 0
M  V30 7333 H 685.804 -2.47825 -1.75547 0
M  V30 7334 H 683.389 -1.25594 -0.809111 0
M  V30 7335 H 685.271 -1.41916 -3.96784 0
M  V30 7336 H 683.946 -0.504488 -3.19745 0
M  V30 7337 H 682.853 -2.73136 -2.55632 0
M  V30 7338 H 684.186 -3.58014 -3.37768 0
M  V30 7339 N 685.838 0.888903 -1.30139 0
M  V30 7340 C 687.084 1.6428 -1.18912 0
M  V30 7341 C 687.417 1.92499 0.256477 0
M  V30 7342 O 686.692 1.54312 1.18397 0
M  V30 7343 C 686.975 2.9851 -2.01405 0
M  V30 7344 C 686.828 2.77288 -3.54163 0
M  V30 7345 C 688.147 3.99383 -1.84882 0
M  V30 7346 H 685.266 0.596148 -0.433333 0
M  V30 7347 H 687.908 1.0289 -1.5973 0
M  V30 7348 H 686.058 3.50907 -1.66722 0
M  V30 7349 H 687.73 2.31709 -3.98884 0
M  V30 7350 H 685.973 2.11867 -3.78543 0
M  V30 7351 H 686.644 3.72717 -4.07168 0
M  V30 7352 H 689.12 3.56132 -2.15196 0
M  V30 7353 H 687.996 4.91222 -2.44934 0
M  V30 7354 H 688.257 4.34674 -0.806902 0
M  V30 7355 N 687.317 1.12792 1.10072 0
M  V30 7356 C 688.565 0.883796 1.81751 0
M  V30 7357 C 688.886 -0.591891 1.858 0
M  V30 7358 O 688.156 -1.43017 1.33876 0
M  V30 7359 H 686.736 0.323978 0.673088 0
M  V30 7360 H 689.398 1.42314 1.33164 0
M  V30 7361 H 688.494 1.26863 2.85153 0
M  V30 7362 N 688.795 -1.27931 0.920396 0
M  V30 7363 C 690.072 -1.89728 0.475687 0
M  V30 7364 C 690.452 -1.8337 -1.04588 0
M  V30 7365 O 689.8 -1.27404 -1.89685 0
M  V30 7366 C 690.01 -3.33959 1.01354 0
M  V30 7367 C 691.358 -4.10907 1.06963 0
M  V30 7368 O 692.382 -3.42945 0.962646 0
M  V30 7369 O 691.241 -5.32399 1.23343 0
M  V30 7370 H 688.335 -0.81294 0.151845 0
M  V30 7371 H 690.881 -1.36252 1.01161 0
M  V30 7372 H 689.653 -3.32843 2.05746 0
M  V30 7373 H 689.276 -3.94944 0.458829 0
M  V30 7374 N 690.273 -0.685099 -1.4193 0
M  V30 7375 C 691.501 -0.220372 -2.05723 0
M  V30 7376 C 691.916 1.12642 -1.51516 0
M  V30 7377 O 691.273 1.70182 -0.659114 0
M  V30 7378 C 691.324 -0.157974 -3.61155 0
M  V30 7379 O 691.045 -1.45156 -4.13354 0
M  V30 7380 C 692.546 0.329009 -4.42077 0
M  V30 7381 H 689.766 -0.104725 -0.662777 0
M  V30 7382 H 692.31 -0.934736 -1.81887 0
M  V30 7383 H 690.465 0.507144 -3.84066 0
M  V30 7384 H 690.879 -1.33172 -5.07312 0
M  V30 7385 H 692.353 0.321559 -5.51063 0
M  V30 7386 H 692.83 1.36608 -4.17414 0
M  V30 7387 H 693.436 -0.304737 -4.24207 0
M  V30 7388 N 691.751 1.51645 -0.429126 0
M  V30 7389 C 692.681 2.30434 0.377148 0
M  V30 7390 C 693.662 1.35493 1.02838 0
M  V30 7391 O 694.847 1.6441 1.03359 0
M  V30 7392 C 691.977 3.14038 1.48315 0
M  V30 7393 C 690.931 4.1719 0.955855 0
M  V30 7394 C 690.257 4.89263 2.15698 0
M  V30 7395 C 691.557 5.223 -0.00402136 0
M  V30 7396 H 693.251 2.98085 -0.280336 0
M  V30 7397 H 690.797 1.43354 -0.136265 0
M  V30 7398 H 692.75 3.67933 2.05435 0
M  V30 7399 H 691.474 2.44193 2.16881 0
M  V30 7400 H 690.133 3.64335 0.406929 0
M  V30 7401 H 689.781 4.15929 2.82864 0
M  V30 7402 H 689.481 5.59009 1.81059 0
M  V30 7403 H 691.005 5.45978 2.73387 0
M  V30 7404 H 692.419 5.71315 0.476607 0
M  V30 7405 H 690.816 5.99525 -0.26258 0
M  V30 7406 H 691.886 4.75638 -0.943236 0
M  V30 7407 N 693.229 0.160201 1.56784 0
M  V30 7408 C 694.159 -0.770264 2.2043 0
M  V30 7409 C 695.14 -1.24736 1.15651 0
M  V30 7410 O 696.325 -1.30253 1.44041 0
M  V30 7411 C 693.455 -2.00427 2.83631 0
M  V30 7412 C 692.409 -1.66345 3.94352 0
M  V30 7413 C 691.735 -2.97119 4.4455 0
M  V30 7414 C 693.035 -0.899972 5.14488 0
M  V30 7415 H 694.729 -0.239783 2.98438 0
M  V30 7416 H 692.275 -0.113891 1.43549 0
M  V30 7417 H 694.228 -2.66012 3.26827 0
M  V30 7418 H 692.952 -2.5587 2.02973 0
M  V30 7419 H 691.611 -1.03133 3.51794 0
M  V30 7420 H 691.259 -3.5058 3.60698 0
M  V30 7421 H 690.959 -2.75073 5.19238 0
M  V30 7422 H 692.483 -3.63753 4.90425 0
M  V30 7423 H 693.897 -1.45818 5.54446 0
M  V30 7424 H 692.294 -0.778968 5.95023 0
M  V30 7425 H 693.364 0.105827 4.84785 0
M  V30 7426 N 694.707 -1.5719 -0.113559 0
M  V30 7427 C 695.953 -1.85412 -0.821597 0
M  V30 7428 C 696.286 -0.746722 -1.7927 0
M  V30 7429 O 695.561 0.246971 -1.92926 0
M  V30 7430 C 695.844 -3.24233 -1.56669 0
M  V30 7431 C 695.697 -4.45578 -0.614823 0
M  V30 7432 C 697.016 -3.60697 -2.52161 0
M  V30 7433 H 694.135 -0.674406 -0.29723 0
M  V30 7434 H 696.777 -1.89807 -0.085694 0
M  V30 7435 H 694.927 -3.20617 -2.19401 0
M  V30 7436 H 696.599 -4.613 0.00407137 0
M  V30 7437 H 694.842 -4.33738 0.0732332 0
M  V30 7438 H 695.513 -5.39395 -1.17292 0
M  V30 7439 H 697.989 -3.65139 -1.99532 0
M  V30 7440 H 696.865 -4.58798 -3.01323 0
M  V30 7441 H 697.126 -2.88403 -3.35076 0
M  V30 7442 N 696.185 0.383891 -1.52853 0
M  V30 7443 C 697.413 1.1495 -1.7203 0
M  V30 7444 C 697.828 1.83578 -0.440957 0
M  V30 7445 O 697.185 1.72872 0.584925 0
M  V30 7446 C 697.236 2.19368 -2.87333 0
M  V30 7447 O 696.957 1.53536 -4.10315 0
M  V30 7448 C 698.458 3.08616 -3.18231 0
M  V30 7449 H 695.678 0.344445 -0.575846 0
M  V30 7450 H 698.222 0.448397 -1.99524 0
M  V30 7451 H 696.377 2.85105 -2.62286 0
M  V30 7452 H 696.791 2.2296 -4.74752 0
M  V30 7453 H 698.265 3.77902 -4.02361 0
M  V30 7454 H 698.742 3.72409 -2.32826 0
M  V30 7455 H 699.348 2.48518 -3.45136 0
M  V30 7456 N 697.663 1.43903 0.642637 0
M  V30 7457 C 698.91 1.46079 1.40239 0
M  V30 7458 C 699.238 0.0890335 1.94296 0
M  V30 7459 O 698.493 -0.907533 1.73385 0
M  V30 7460 C 698.792 2.45907 2.59354 0
M  V30 7461 C 698.458 3.91522 2.23654 0
M  V30 7462 C 697.12 4.31179 2.1363 0
M  V30 7463 C 699.472 4.83242 1.95261 0
M  V30 7464 C 696.8 5.60495 1.73384 0
M  V30 7465 C 699.152 6.12933 1.56511 0
M  V30 7466 C 697.816 6.51556 1.4502 0
M  V30 7467 H 697.086 0.534542 0.513172 0
M  V30 7468 H 699.733 1.77047 0.72984 0
M  V30 7469 H 698.038 2.08381 3.3179 0
M  V30 7470 H 699.735 2.44842 3.17574 0
M  V30 7471 H 696.325 3.60142 2.32369 0
M  V30 7472 H 700.509 4.53367 2.0192 0
M  V30 7473 H 695.765 5.89249 1.63082 0
M  V30 7474 H 699.939 6.83469 1.33576 0
M  V30 7475 H 697.566 7.51663 1.13606 0
M  V30 7476 N 699.141 -0.881989 1.30609 0
M  V30 7477 C 700.104 -1.96957 1.1722 0
M  V30 7478 C 701.104 -1.60472 0.102598 0
M  V30 7479 O 702.294 -1.70628 0.350943 0
M  V30 7480 C 699.426 -3.31463 0.796572 0
M  V30 7481 H 700.619 -2.10262 2.13846 0
M  V30 7482 H 698.172 -1.06877 1.14048 0
M  V30 7483 H 698.907 -3.23859 -0.169053 0
M  V30 7484 H 698.692 -3.59314 1.56959 0
M  V30 7485 H 700.182 -4.11233 0.72645 0
M  V30 7486 N 700.619 -1.13374 -1.09472 0
M  V30 7487 C 701.567 -0.806105 -2.18185 0
M  V30 7488 C 702.561 0.21136 -1.68076 0
M  V30 7489 O 703.767 0.0685558 -1.79869 0
M  V30 7490 H 700.142 -0.242901 -0.71169 0
M  V30 7491 H 702.113 -1.73115 -2.43051 0
M  V30 7492 C 700.862 -0.287928 -3.46506 0
M  V30 7493 H 700.185 -1.06217 -3.85432 0
M  V30 7494 H 701.625 -0.0971054 -4.23889 0
M  V30 7495 C 700.084 0.986256 -3.22141 0
M  V30 7496 O 700.614 2.06217 -3.44728 0
M  V30 7497 N 698.82 0.917153 -2.75747 0
M  V30 7498 H 698.367 0.0414609 -2.57567 0
M  V30 7499 H 698.325 1.77029 -2.59823 0
M  V30 7500 N 702.098 1.27442 -0.927168 0
M  V30 7501 C 703.045 2.26863 -0.424459 0
M  V30 7502 C 704.015 1.5813 0.508346 0
M  V30 7503 O 705.2 1.85946 0.42762 0
M  V30 7504 C 702.34 3.43639 0.31718 0
M  V30 7505 C 701.453 4.27087 -0.649675 0
M  V30 7506 C 700.588 5.31082 0.111753 0
M  V30 7507 C 699.627 6.062 -0.847843 0
M  V30 7508 N 698.764 7.01999 -0.119074 0
M  V30 7509 H 703.604 2.69239 -1.27728 0
M  V30 7510 H 701.141 1.32394 -0.641106 0
M  V30 7511 H 703.099 4.10155 0.763486 0
M  V30 7512 H 701.729 3.02217 1.13424 0
M  V30 7513 H 700.781 3.60491 -1.21451 0
M  V30 7514 H 702.093 4.79242 -1.38307 0
M  V30 7515 H 701.247 6.03544 0.618 0
M  V30 7516 H 699.986 4.7973 0.878114 0
M  V30 7517 H 698.991 5.32577 -1.36534 0
M  V30 7518 H 700.216 6.59642 -1.61398 0
M  V30 7519 H 698.162 6.52977 0.629051 0
M  V30 7520 H 698.079 7.5184 -0.792046 0
M  V30 7521 H 699.347 7.78638 0.366537 0
M  V30 7522 N 703.576 0.692616 1.41565 0
M  V30 7523 C 704.539 0.0344174 2.29174 0
M  V30 7524 C 705.539 -0.710961 1.44229 0
M  V30 7525 O 706.729 -0.546293 1.65412 0
M  V30 7526 C 703.861 -0.961682 3.27054 0
M  V30 7527 H 705.054 0.805755 2.88873 0
M  V30 7528 H 702.607 0.455947 1.49502 0
M  V30 7529 H 703.342 -1.76089 2.72329 0
M  V30 7530 H 703.127 -0.430375 3.89731 0
M  V30 7531 H 704.617 -1.4201 3.92712 0
M  V30 7532 N 705.054 -1.51416 0.437162 0
M  V30 7533 C 706.331 -1.94682 -0.189292 0
M  V30 7534 C 706.711 -1.37581 -1.60108 0
M  V30 7535 O 706.059 -0.562815 -2.2146 0
M  V30 7536 C 706.269 -3.48599 -0.167201 0
M  V30 7537 C 707.617 -4.2296 -0.372856 0
M  V30 7538 O 708.641 -3.55354 -0.245323 0
M  V30 7539 O 707.5 -5.42895 -0.626693 0
M  V30 7540 H 704.594 -0.816708 -0.130063 0
M  V30 7541 H 707.14 -1.62316 0.495128 0
M  V30 7542 H 705.912 -3.82616 0.81981 0
M  V30 7543 H 705.535 -3.87406 -0.894537 0
M  V30 7544 N 706.532 -0.168513 -1.56696 0
M  V30 7545 C 707.479 0.762875 -2.17828 0
M  V30 7546 C 708.449 1.22892 -1.11745 0
M  V30 7547 O 709.634 1.29759 -1.39883 0
M  V30 7548 C 706.774 1.9879 -2.82093 0
M  V30 7549 C 705.887 1.56568 -4.02629 0
M  V30 7550 C 705.022 2.74416 -4.54829 0
M  V30 7551 C 704.061 2.28671 -5.67782 0
M  V30 7552 N 703.198 3.39602 -6.14504 0
M  V30 7553 H 708.038 0.23479 -2.97074 0
M  V30 7554 H 705.575 0.104163 -1.46731 0
M  V30 7555 H 707.533 2.70636 -3.17509 0
M  V30 7556 H 706.163 2.48973 -2.05456 0
M  V30 7557 H 705.215 0.744067 -3.73052 0
M  V30 7558 H 706.527 1.18988 -4.844 0
M  V30 7559 H 705.681 3.54423 -4.92412 0
M  V30 7560 H 704.42 3.15254 -3.7211 0
M  V30 7561 H 703.425 1.4711 -5.29753 0
M  V30 7562 H 704.65 1.88894 -6.52301 0
M  V30 7563 H 702.596 3.80021 -5.34715 0
M  V30 7564 H 702.513 3.06105 -6.91257 0
M  V30 7565 H 703.781 4.19902 -6.56737 0
M  V30 7566 N 708.01 1.57248 0.105221 0
M  V30 7567 C 709.256 1.85845 0.811753 0
M  V30 7568 C 709.589 0.756219 1.78871 0
M  V30 7569 O 708.864 -0.236736 1.93054 0
M  V30 7570 C 709.147 3.25059 1.54947 0
M  V30 7571 C 709 4.45898 0.591185 0
M  V30 7572 C 710.319 3.6203 2.50245 0
M  V30 7573 H 707.438 0.675973 0.293649 0
M  V30 7574 H 710.08 1.89849 0.0756269 0
M  V30 7575 H 708.23 3.21776 2.17698 0
M  V30 7576 H 709.902 4.61291 -0.0285352 0
M  V30 7577 H 708.145 4.33693 -0.0962343 0
M  V30 7578 H 708.816 5.40009 1.1443 0
M  V30 7579 H 711.292 3.66192 1.97593 0
M  V30 7580 H 710.168 4.60389 2.98886 0
M  V30 7581 H 710.429 2.90176 3.33542 0
M  V30 7582 N 709.488 -0.375779 1.53054 0
M  V30 7583 C 710.718 -1.1387 1.72386 0
M  V30 7584 C 711.126 -1.8382 0.447966 0
M  V30 7585 O 710.469 -1.74027 -0.588244 0
M  V30 7586 C 710.531 -2.22047 2.82728 0
M  V30 7587 C 710.195 -1.71951 4.23417 0
M  V30 7588 C 711.192 -1.18909 5.06119 0
M  V30 7589 C 708.877 -1.77773 4.69789 0
M  V30 7590 C 710.871 -0.723529 6.3328 0
M  V30 7591 C 708.558 -1.30829 5.96931 0
M  V30 7592 C 709.556 -0.782077 6.78508 0
M  V30 7593 O 709.244 -0.319529 8.03265 0
M  V30 7594 H 708.976 -0.346835 0.580242 0
M  V30 7595 H 711.53 -0.443748 2.00549 0
M  V30 7596 H 709.76 -2.95006 2.50017 0
M  V30 7597 H 711.449 -2.83654 2.90336 0
M  V30 7598 H 712.215 -1.13758 4.7147 0
M  V30 7599 H 708.094 -2.17673 4.06373 0
M  V30 7600 H 711.638 -0.312126 6.96901 0
M  V30 7601 H 707.535 -1.3567 6.31081 0
M  V30 7602 H 708.303 -0.439796 8.17318 0
M  V30 7603 N 710.966 -1.44241 -0.634997 0
M  V30 7604 C 712.191 -1.50516 -1.42687 0
M  V30 7605 C 712.616 -0.129864 -1.87651 0
M  V30 7606 O 711.974 0.880164 -1.58502 0
M  V30 7607 C 712.022 -2.4714 -2.62591 0
M  V30 7608 O 711.126 -1.97025 -3.62291 0
M  V30 7609 H 710.467 -0.50841 -0.427101 0
M  V30 7610 H 712.997 -1.89337 -0.775408 0
M  V30 7611 H 713.007 -2.65048 -3.10183 0
M  V30 7612 H 711.682 -3.47039 -2.29209 0
M  V30 7613 H 710.259 -1.88866 -3.21534 0
M  V30 7614 N 712.444 0.87505 -1.31075 0
M  V30 7615 C 713.693 1.62245 -1.19831 0
M  V30 7616 C 714.006 1.94078 0.24357 0
M  V30 7617 O 715.212 2.67265 0.477646 0
M  V30 7618 C 713.668 2.92464 -2.09744 0
M  V30 7619 C 713.276 2.68134 -3.58898 0
M  V30 7620 C 715.02 3.70449 -2.07287 0
M  V30 7621 C 712.927 3.9423 -4.40836 0
M  V30 7622 H 711.857 0.608741 -0.444916 0
M  V30 7623 H 714.508 0.967947 -1.55894 0
M  V30 7624 H 712.89 3.59262 -1.66574 0
M  V30 7625 H 714.064 2.09776 -4.10281 0
M  V30 7626 H 712.379 2.03511 -3.6328 0
M  V30 7627 H 714.976 4.63983 -2.65752 0
M  V30 7628 H 715.319 4.02611 -1.05876 0
M  V30 7629 H 715.852 3.10528 -2.48631 0
M  V30 7630 H 712.591 3.67221 -5.42982 0
M  V30 7631 H 712.111 4.52058 -3.94213 0
M  V30 7632 H 713.79 4.62162 -4.52786 0
M  V30 7633 N 713.922 1.13953 1.08869 0
M  V30 7634 C 714.852 0.844824 2.17681 0
M  V30 7635 C 715.833 -0.198213 1.68941 0
M  V30 7636 O 717.018 -0.0559073 1.9412 0
M  V30 7637 C 714.148 0.316325 3.45856 0
M  V30 7638 C 713.102 1.29426 4.07962 0
M  V30 7639 C 712.428 0.625275 5.31031 0
M  V30 7640 C 713.728 2.65484 4.49795 0
M  V30 7641 H 715.422 1.75471 2.42591 0
M  V30 7642 H 712.968 0.845116 1.16592 0
M  V30 7643 H 714.921 0.0977876 4.21287 0
M  V30 7644 H 713.645 -0.628972 3.20486 0
M  V30 7645 H 712.304 1.49889 3.34558 0
M  V30 7646 H 711.952 -0.325678 5.01945 0
M  V30 7647 H 711.652 1.27777 5.73539 0
M  V30 7648 H 713.176 0.416152 6.0918 0
M  V30 7649 H 714.59 2.48957 5.16424 0
M  V30 7650 H 712.987 3.26963 5.03205 0
M  V30 7651 H 714.057 3.22717 3.61914 0
M  V30 7652 N 715.4 -1.26948 0.933913 0
M  V30 7653 C 716.811 -1.76058 0.621324 0
M  V30 7654 C 717.162 -1.76175 -0.863522 0
M  V30 7655 O 716.287 -1.36921 -1.67576 0
M  V30 7656 C 716.882 -3.19713 1.12111 0
M  V30 7657 C 715.441 -3.66465 0.859074 0
M  V30 7658 C 714.588 -2.46186 1.27624 0
M  V30 7659 H 717.539 -1.13127 1.11301 0
M  V30 7660 H 717.56 -3.77566 0.471608 0
M  V30 7661 H 717.072 -3.19596 2.20182 0
M  V30 7662 H 715.173 -3.72021 -0.207566 0
M  V30 7663 H 715.286 -4.55636 1.48098 0
M  V30 7664 H 713.65 -2.45042 0.694727 0
M  V30 7665 H 714.433 -2.48774 2.36572 0
M  V30 7666 N 716.879 -0.700114 -1.41195 0
M  V30 7667 C 717.829 -0.0144098 -2.27995 0
M  V30 7668 C 718.813 0.748249 -1.42443 0
M  V30 7669 O 720.005 0.622995 -1.65674 0
M  V30 7670 C 717.134 0.917938 -3.308 0
M  V30 7671 C 716.22 0.151286 -4.2383 0
M  V30 7672 N 716.611 -0.85732 -4.98481 0
M  V30 7673 C 714.909 0.386108 -4.44326 0
M  V30 7674 C 715.61 -1.31663 -5.66604 0
M  V30 7675 N 714.586 -0.641689 -5.39799 0
M  V30 7676 H 718.388 -0.787662 -2.83149 0
M  V30 7677 H 715.902 -0.531344 -1.53462 0
M  V30 7678 H 717.899 1.42437 -3.91813 0
M  V30 7679 H 716.559 1.69074 -2.77208 0
M  V30 7680 H 717.57 -1.2377 -5.02893 0
M  V30 7681 H 714.247 1.13644 -4.01735 0
M  V30 7682 H 715.637 -2.15384 -6.36443 0
M  V30 7683 N 718.357 1.51182 -0.445186 0
M  V30 7684 C 719.605 2.01753 0.11841 0
M  V30 7685 C 719.926 1.33087 1.42523 0
M  V30 7686 O 719.196 0.467891 1.9023 0
M  V30 7687 H 717.776 0.745536 0.0467492 0
M  V30 7688 H 720.438 1.85765 -0.589688 0
M  V30 7689 H 719.534 3.10762 0.288665 0
M  V30 7690 N 719.835 0.176821 1.56605 0
M  V30 7691 C 721.081 -0.467406 1.9734 0
M  V30 7692 C 721.414 -1.62523 1.06301 0
M  V30 7693 O 720.689 -1.94182 0.11125 0
M  V30 7694 C 720.972 -0.945106 3.47476 0
M  V30 7695 C 720.825 0.213273 4.49294 0
M  V30 7696 C 722.144 -1.8169 4.00845 0
M  V30 7697 H 719.263 -0.168426 0.717497 0
M  V30 7698 H 721.905 0.264065 1.88156 0
M  V30 7699 H 720.055 -1.56841 3.55434 0
M  V30 7700 H 721.727 0.850508 4.53392 0
M  V30 7701 H 719.97 0.867918 4.25029 0
M  V30 7702 H 720.641 -0.163187 5.51759 0
M  V30 7703 H 723.117 -1.29139 3.95553 0
M  V30 7704 H 721.993 -2.12015 5.06301 0
M  V30 7705 H 722.254 -2.76463 3.44994 0
M  V30 7706 N 721.313 -1.57302 -0.09688 0
M  V30 7707 C 722.562 -1.85183 -0.799388 0
M  V30 7708 C 722.875 -0.765818 -1.79985 0
M  V30 7709 O 724.081 -0.931696 -2.55013 0
M  V30 7710 C 722.537 -3.28399 -1.47249 0
M  V30 7711 C 722.145 -4.45066 -0.511888 0
M  V30 7712 C 723.889 -3.65506 -2.15883 0
M  V30 7713 C 721.796 -5.79315 -1.18948 0
M  V30 7714 H 720.726 -0.690752 -0.302287 0
M  V30 7715 H 723.377 -1.83425 -0.0523104 0
M  V30 7716 H 721.759 -3.24692 -2.26697 0
M  V30 7717 H 722.933 -4.60116 0.250962 0
M  V30 7718 H 721.248 -4.16343 0.0686576 0
M  V30 7719 H 723.845 -4.63087 -2.67309 0
M  V30 7720 H 724.188 -2.94041 -2.94696 0
M  V30 7721 H 724.721 -3.71094 -1.43298 0
M  V30 7722 H 721.46 -6.54007 -0.442198 0
M  V30 7723 H 720.98 -5.68111 -1.9238 0
M  V30 7724 H 722.659 -6.23816 -1.71646 0
M  V30 7725 N 722.791 0.367657 -1.53252 0
M  V30 7726 C 724.021 1.12955 -1.72988 0
M  V30 7727 C 724.429 1.8358 -0.457708 0
M  V30 7728 O 723.772 1.74336 0.579006 0
M  V30 7729 C 723.834 2.20545 -2.83902 0
M  V30 7730 C 723.498 1.69704 -4.24323 0
M  V30 7731 C 724.495 1.16223 -5.06743 0
M  V30 7732 C 722.18 1.7528 -4.70725 0
M  V30 7733 C 724.174 0.689935 -6.33655 0
M  V30 7734 C 721.861 1.27662 -5.97617 0
M  V30 7735 C 722.859 0.746083 -6.78913 0
M  V30 7736 O 722.547 0.276925 -8.03423 0
M  V30 7737 H 722.279 0.343753 -0.582074 0
M  V30 7738 H 724.833 0.433106 -2.00782 0
M  V30 7739 H 723.063 2.93676 -2.51577 0
M  V30 7740 H 724.752 2.82111 -2.91836 0
M  V30 7741 H 725.518 1.11256 -4.72067 0
M  V30 7742 H 721.397 2.15515 -4.07522 0
M  V30 7743 H 724.941 0.275164 -6.97057 0
M  V30 7744 H 720.838 1.32322 -6.31792 0
M  V30 7745 H 721.606 0.396445 -8.17539 0
M  V30 7746 N 724.269 1.44576 0.627338 0
M  V30 7747 C 725.546 1.38033 1.38586 0
M  V30 7748 C 725.926 0.0409468 2.1106 0
M  V30 7749 O 725.274 -0.976582 2.0658 0
M  V30 7750 C 725.484 2.58102 2.34913 0
M  V30 7751 C 726.832 3.02332 2.98129 0
M  V30 7752 O 727.856 2.58334 2.45238 0
M  V30 7753 O 726.715 3.78628 3.94085 0
M  V30 7754 H 723.809 0.546801 0.620434 0
M  V30 7755 H 726.355 1.56672 0.652077 0
M  V30 7756 H 725.127 3.4719 1.80485 0
M  V30 7757 H 724.75 2.41696 3.15703 0
M  V30 7758 N 725.747 -0.868086 1.31537 0
M  V30 7759 C 726.694 -1.97548 1.19346 0
M  V30 7760 C 727.664 -1.65913 0.0787922 0
M  V30 7761 O 728.849 -1.89129 0.251985 0
M  V30 7762 C 725.989 -3.32922 0.908692 0
M  V30 7763 C 725.102 -3.77141 2.10687 0
M  V30 7764 C 724.237 -5.01241 1.75873 0
M  V30 7765 C 723.276 -5.37914 2.92088 0
M  V30 7766 N 722.413 -6.53192 2.57457 0
M  V30 7767 H 727.253 -2.07307 2.14074 0
M  V30 7768 H 724.79 -1.01483 1.06487 0
M  V30 7769 H 726.748 -4.10867 0.724138 0
M  V30 7770 H 725.378 -3.228 -0.0017611 0
M  V30 7771 H 724.43 -2.94961 2.40213 0
M  V30 7772 H 725.742 -4.00248 2.97663 0
M  V30 7773 H 724.896 -5.86858 1.53891 0
M  V30 7774 H 723.635 -4.80041 0.86091 0
M  V30 7775 H 722.64 -4.50814 3.14717 0
M  V30 7776 H 723.865 -5.61077 3.82582 0
M  V30 7777 H 721.811 -6.33536 1.702 0
M  V30 7778 H 721.728 -6.76252 3.37963 0
M  V30 7779 H 722.996 -7.41997 2.38873 0
M  V30 7780 N 727.225 -1.14528 -1.08264 0
M  V30 7781 C 728.188 -0.83632 -2.13397 0
M  V30 7782 C 729.188 0.159715 -1.60005 0
M  V30 7783 O 730.378 -0.0688098 -1.74064 0
M  V30 7784 C 727.51 -0.246973 -3.40004 0
M  V30 7785 H 728.703 -1.76808 -2.42237 0
M  V30 7786 H 726.256 -0.951509 -1.24 0
M  V30 7787 H 726.991 0.693436 -3.168 0
M  V30 7788 H 726.776 -0.964412 -3.80055 0
M  V30 7789 H 728.266 -0.0480679 -4.17572 0
M  V30 7790 N 728.703 1.26451 -0.940633 0
M  V30 7791 C 729.928 1.98407 -0.60412 0
M  V30 7792 C 730.353 1.69584 0.81382 0
M  V30 7793 O 729.711 0.943553 1.54812 0
M  V30 7794 C 729.759 3.50387 -0.852136 0
M  V30 7795 O 728.863 4.1233 0.076013 0
M  V30 7796 H 728.204 0.622466 -0.231153 0
M  V30 7797 H 730.734 1.60932 -1.26342 0
M  V30 7798 H 730.744 4.00614 -0.772816 0
M  V30 7799 H 729.419 3.70696 -1.88566 0
M  V30 7800 H 727.996 3.7286 -0.0543187 0
M  V30 7801 N 730.181 0.707592 1.40822 0
M  V30 7802 C 731.458 0.171172 1.9485 0
M  V30 7803 C 731.838 -1.32143 1.64625 0
M  V30 7804 O 731.186 -2.07372 0.959647 0
M  V30 7805 C 731.396 0.475334 3.45748 0
M  V30 7806 C 732.744 0.409625 4.22619 0
M  V30 7807 O 733.768 0.410934 3.53822 0
M  V30 7808 O 732.627 0.380185 5.45176 0
M  V30 7809 H 729.721 0.022015 0.826707 0
M  V30 7810 H 732.267 0.784577 1.50474 0
M  V30 7811 H 731.039 1.50801 3.61075 0
M  V30 7812 H 730.662 -0.168439 3.97243 0
M  V30 7813 N 731.66 -1.50943 0.453197 0
M  V30 7814 C 732.623 -2.26684 -0.338705 0
M  V30 7815 C 733.623 -1.30748 -0.936032 0
M  V30 7816 O 734.813 -1.54327 -0.808002 0
M  V30 7817 C 731.945 -3.07063 -1.48071 0
M  V30 7818 H 733.138 -2.98131 0.325289 0
M  V30 7819 H 730.691 -1.54926 0.206771 0
M  V30 7820 H 731.426 -2.4007 -2.18029 0
M  V30 7821 H 731.211 -3.77545 -1.0584 0
M  V30 7822 H 732.701 -3.64393 -2.0398 0
M  V30 7823 N 733.138 -0.185124 -1.56509 0
M  V30 7824 C 734.101 0.72591 -2.17401 0
M  V30 7825 C 735.101 1.14819 -1.12575 0
M  V30 7826 O 736.291 1.0629 -1.38015 0
M  V30 7827 C 733.423 1.98979 -2.76803 0
M  V30 7828 H 734.616 0.195588 -2.99262 0
M  V30 7829 H 732.169 0.0644772 -1.56167 0
M  V30 7830 H 732.904 2.56287 -1.98714 0
M  V30 7831 H 732.689 1.69583 -3.53531 0
M  V30 7832 H 734.179 2.63966 -3.23592 0
M  V30 7833 N 734.616 1.57351 0.0885366 0
M  V30 7834 C 736.027 1.75303 0.642308 0
M  V30 7835 C 736.378 0.808238 1.78779 0
M  V30 7836 O 735.503 -0.01171 2.16397 0
M  V30 7837 C 736.098 3.17885 1.17194 0
M  V30 7838 C 734.657 3.37239 1.67172 0
M  V30 7839 C 733.804 2.7108 0.584045 0
M  V30 7840 H 736.755 1.58103 -0.137567 0
M  V30 7841 H 736.776 3.2112 2.04114 0
M  V30 7842 H 736.288 3.86625 0.338024 0
M  V30 7843 H 734.389 2.73588 2.52943 0
M  V30 7844 H 734.502 4.45594 1.76019 0
M  V30 7845 H 732.866 2.33161 1.02508 0
M  V30 7846 H 733.649 3.42464 -0.239403 0
M  V30 7847 N 736.094 -0.359525 1.53444 0
M  V30 7848 C 737.042 -1.46104 1.80987 0
M  V30 7849 C 738.036 -1.55181 0.679351 0
M  V30 7850 O 739.242 -1.57995 0.862405 0
M  V30 7851 H 735.617 -0.486835 0.573145 0
M  V30 7852 H 737.588 -1.2008 2.73173 0
M  V30 7853 C 736.337 -2.82855 2.02208 0
M  V30 7854 H 735.66 -2.76631 2.88644 0
M  V30 7855 H 737.1 -3.59091 2.25455 0
M  V30 7856 C 735.559 -3.27192 0.802931 0
M  V30 7857 O 736.089 -4.017 -0.00544286 0
M  V30 7858 N 734.295 -2.83807 0.624657 0
M  V30 7859 H 733.842 -2.23339 1.28364 0
M  V30 7860 H 733.8 -3.13828 -0.189641 0
M  V30 7861 N 737.572 -1.44907 -0.619662 0
M  V30 7862 C 738.502 -1.55488 -1.742 0
M  V30 7863 C 739.483 -0.407143 -1.65156 0
M  V30 7864 O 740.668 -0.628743 -1.8374 0
M  V30 7865 C 737.798 -1.5097 -3.1277 0
M  V30 7866 C 736.752 -2.64337 -3.36615 0
M  V30 7867 C 736.078 -2.44872 -4.75333 0
M  V30 7868 C 737.378 -4.06423 -3.28051 0
M  V30 7869 H 739.072 -2.49432 -1.65602 0
M  V30 7870 H 736.618 -1.20047 -0.795281 0
M  V30 7871 H 738.571 -1.56971 -3.91073 0
M  V30 7872 H 737.295 -0.535486 -3.2218 0
M  V30 7873 H 735.954 -2.57744 -2.60698 0
M  V30 7874 H 735.602 -1.45617 -4.81461 0
M  V30 7875 H 735.302 -3.20888 -4.92244 0
M  V30 7876 H 736.826 -2.52709 -5.55851 0
M  V30 7877 H 738.24 -4.14324 -3.96243 0
M  V30 7878 H 736.637 -4.82733 -3.56495 0
M  V30 7879 H 737.707 -4.29183 -2.25676 0
M  V30 7880 N 739.05 0.861098 -1.31996 0
M  V30 7881 C 740.327 1.59788 -1.12814 0
M  V30 7882 C 740.707 2.08753 0.313882 0
M  V30 7883 O 740.055 1.87258 1.30946 0
M  V30 7884 C 740.265 2.74901 -2.15012 0
M  V30 7885 C 741.613 3.44643 -2.48004 0
M  V30 7886 O 742.637 2.85119 -2.13508 0
M  V30 7887 O 741.496 4.52044 -3.07113 0
M  V30 7888 H 738.59 0.703408 -0.434909 0
M  V30 7889 H 741.136 0.905788 -1.43505 0
M  V30 7890 H 739.908 2.36198 -3.11971 0
M  V30 7891 H 739.531 3.51792 -1.85279 0
M  V30 7892 N 740.528 1.15101 1.07655 0
M  V30 7893 C 741.776 0.922149 1.79836 0
M  V30 7894 C 742.097 -0.552346 1.87014 0
M  V30 7895 O 741.367 -1.40145 1.3688 0
M  V30 7896 H 739.947 0.338182 0.666064 0
M  V30 7897 H 742.609 1.45107 1.30115 0
M  V30 7898 H 741.705 1.32883 2.82398 0
M  V30 7899 N 742.006 -1.2595 0.947325 0
M  V30 7900 C 743.253 -1.93463 0.598178 0
M  V30 7901 C 743.581 -1.74271 -0.863705 0
M  V30 7902 O 742.836 -1.07684 -1.63409 0
M  V30 7903 C 743.135 -3.46034 0.894158 0
M  V30 7904 C 742.801 -3.85373 2.3409 0
M  V30 7905 C 741.463 -3.95823 2.73637 0
M  V30 7906 C 743.815 -4.04986 3.2808 0
M  V30 7907 C 741.143 -4.23288 4.06257 0
M  V30 7908 C 743.495 -4.3394 4.60303 0
M  V30 7909 C 742.159 -4.42606 4.99656 0
M  V30 7910 H 741.429 -0.707933 0.218889 0
M  V30 7911 H 744.076 -1.4964 1.19499 0
M  V30 7912 H 742.381 -3.9121 0.214874 0
M  V30 7913 H 744.078 -3.96445 0.602698 0
M  V30 7914 H 740.668 -3.7779 2.02417 0
M  V30 7915 H 744.852 -3.96333 2.9872 0
M  V30 7916 H 740.108 -4.28211 4.36401 0
M  V30 7917 H 744.282 -4.48061 5.33118 0
M  V30 7918 H 741.909 -4.63641 6.02446 0
M  V30 7919 N 743.484 -0.715051 -1.40445 0
M  V30 7920 C 744.73 -0.254705 -2.01194 0
M  V30 7921 C 745.063 1.14894 -1.56567 0
M  V30 7922 O 744.338 1.77933 -0.785491 0
M  V30 7923 C 744.621 -0.334148 -3.58546 0
M  V30 7924 C 744.474 -1.77613 -4.13248 0
M  V30 7925 C 745.793 0.294968 -4.3911 0
M  V30 7926 H 742.912 -0.094025 -0.730978 0
M  V30 7927 H 745.554 -0.907449 -1.66929 0
M  V30 7928 H 743.704 0.221609 -3.87867 0
M  V30 7929 H 745.376 -2.38723 -3.94727 0
M  V30 7930 H 743.619 -2.30402 -3.67556 0
M  V30 7931 H 744.29 -1.78311 -5.22407 0
M  V30 7932 H 746.766 -0.178563 -4.15717 0
M  V30 7933 H 745.642 0.208934 -5.48502 0
M  V30 7934 H 745.903 1.37841 -4.20062 0
M  V30 7935 N 744.962 1.50701 -0.461195 0
M  V30 7936 C 745.909 2.2831 0.338094 0
M  V30 7937 C 746.879 1.32928 0.995957 0
M  V30 7938 O 748.064 1.61857 1.0103 0
M  V30 7939 C 745.204 3.14539 1.41983 0
M  V30 7940 C 744.317 4.24942 0.77773 0
M  V30 7941 C 743.452 4.98443 1.83652 0
M  V30 7942 C 742.491 6.00733 1.17413 0
M  V30 7943 N 741.628 6.6755 2.17533 0
M  V30 7944 H 746.468 2.96167 -0.330051 0
M  V30 7945 H 744.005 1.4606 -0.174611 0
M  V30 7946 H 745.963 3.62877 2.05855 0
M  V30 7947 H 744.593 2.48749 2.05727 0
M  V30 7948 H 743.645 3.80391 0.0266924 0
M  V30 7949 H 744.957 4.98151 0.254362 0
M  V30 7950 H 744.111 5.50449 2.55129 0
M  V30 7951 H 742.85 4.24917 2.39367 0
M  V30 7952 H 741.855 5.47997 0.444944 0
M  V30 7953 H 743.08 6.76227 0.624006 0
M  V30 7954 H 741.026 5.96823 2.72284 0
M  V30 7955 H 740.943 7.36603 1.70154 0
M  V30 7956 H 742.211 7.24178 2.88421 0
M  V30 7957 N 746.441 0.193421 1.56409 0
M  V30 7958 C 747.852 -0.319471 1.83946 0
M  V30 7959 C 748.203 -1.61505 1.11403 0
M  V30 7960 O 747.328 -2.13139 0.374289 0
M  V30 7961 C 747.923 -0.586411 3.33686 0
M  V30 7962 C 746.482 -1.04368 3.61641 0
M  V30 7963 C 745.629 -0.0913834 2.77149 0
M  V30 7964 H 748.58 0.417242 1.53117 0
M  V30 7965 H 748.601 -1.43591 3.52366 0
M  V30 7966 H 748.113 0.356701 3.86457 0
M  V30 7967 H 746.214 -2.00113 3.14302 0
M  V30 7968 H 746.327 -0.937549 4.69837 0
M  V30 7969 H 744.691 -0.592954 2.47702 0
M  V30 7970 H 745.474 0.846142 3.32709 0
M  V30 7971 N 747.919 -1.57396 -0.0801906 0
M  V30 7972 C 749.167 -1.86467 -0.779384 0
M  V30 7973 C 749.488 -0.784243 -1.78535 0
M  V30 7974 O 748.758 0.187986 -1.94996 0
M  V30 7975 H 747.338 -0.68806 -0.29083 0
M  V30 7976 H 750 -1.94813 -0.0582749 0
M  V30 7977 H 749.096 -2.83701 -1.30078 0
M  V30 7978 N 749.397 0.351382 -1.53633 0
M  V30 7979 C 750.36 1.41403 -1.80383 0
M  V30 7980 C 751.36 1.45963 -0.674635 0
M  V30 7981 O 752.55 1.46476 -0.942895 0
M  V30 7982 C 749.682 2.80401 -1.93876 0
M  V30 7983 H 750.875 1.18951 -2.75301 0
M  V30 7984 H 748.428 0.58533 -1.44926 0
M  V30 7985 H 749.163 3.08147 -1.01074 0
M  V30 7986 H 748.948 2.78488 -2.7602 0
M  V30 7987 H 750.438 3.57329 -2.16116 0
M  V30 7988 N 750.875 1.45233 0.611969 0
M  V30 7989 C 751.825 1.49997 1.71711 0
M  V30 7990 C 752.809 0.363689 1.56736 0
M  V30 7991 O 754.001 0.610261 1.66147 0
M  V30 7992 C 751.13 1.46537 3.10454 0
M  V30 7993 C 750.216 2.65351 3.30831 0
M  V30 7994 N 750.607 3.90485 3.21489 0
M  V30 7995 C 748.905 2.60955 3.61688 0
M  V30 7996 C 749.606 4.69758 3.43078 0
M  V30 7997 N 748.582 4.01141 3.66861 0
M  V30 7998 H 752.384 2.44574 1.62975 0
M  V30 7999 H 749.898 1.40464 0.815082 0
M  V30 8000 H 751.895 1.48035 3.89732 0
M  V30 8001 H 750.555 0.530139 3.20343 0
M  V30 8002 H 751.566 4.22171 2.99987 0
M  V30 8003 H 748.243 1.76319 3.78441 0
M  V30 8004 H 749.633 5.7877 3.41285 0
M  V30 8005 N 752.353 -0.854086 1.3245 0
M  V30 8006 C 753.599 -1.61069 1.23225 0
M  V30 8007 C 753.932 -1.93111 -0.205349 0
M  V30 8008 O 753.207 -1.57397 -1.14265 0
M  V30 8009 C 753.49 -2.93065 2.09249 0
M  V30 8010 C 753.343 -2.67801 3.6139 0
M  V30 8011 C 754.662 -3.94341 1.95406 0
M  V30 8012 H 751.781 -0.584449 0.448986 0
M  V30 8013 H 754.423 -0.986189 1.62402 0
M  V30 8014 H 752.573 -3.46364 1.75967 0
M  V30 8015 H 754.245 -2.21052 4.04887 0
M  V30 8016 H 752.488 -2.01756 3.84027 0
M  V30 8017 H 753.159 -3.6179 4.16907 0
M  V30 8018 H 755.635 -3.50301 2.24562 0
M  V30 8019 H 754.511 -4.84555 2.57872 0
M  V30 8020 H 754.772 -4.32382 0.921865 0
M  V30 8021 N 753.831 -1.1567 -1.07043 0
M  V30 8022 C 754.778 -0.856336 -2.14326 0
M  V30 8023 C 755.748 0.192051 -1.64986 0
M  V30 8024 O 756.933 0.0589148 -1.90709 0
M  V30 8025 C 754.073 -0.355227 -3.43267 0
M  V30 8026 C 753.186 -1.46555 -4.06381 0
M  V30 8027 C 752.321 -0.920245 -5.23168 0
M  V30 8028 C 751.36 -2.00729 -5.78251 0
M  V30 8029 N 750.497 -1.47813 -6.86364 0
M  V30 8030 H 755.337 -1.77514 -2.39359 0
M  V30 8031 H 752.874 -0.885676 -1.17449 0
M  V30 8032 H 754.832 -0.0463804 -4.17174 0
M  V30 8033 H 753.462 0.526649 -3.18475 0
M  V30 8034 H 752.514 -1.89052 -3.30096 0
M  V30 8035 H 753.826 -2.28616 -4.43324 0
M  V30 8036 H 752.98 -0.564127 -6.04072 0
M  V30 8037 H 751.719 -0.0688477 -4.87651 0
M  V30 8038 H 750.724 -2.3722 -4.95991 0
M  V30 8039 H 751.949 -2.86252 -6.15822 0
M  V30 8040 H 749.895 -0.649145 -6.5278 0
M  V30 8041 H 749.812 -2.23498 -7.22208 0
M  V30 8042 H 751.08 -1.15036 -7.70965 0
M  V30 8043 N 755.309 1.25446 -0.953992 0
M  V30 8044 C 756.72 1.75047 -0.649255 0
M  V30 8045 C 757.071 1.77527 0.835385 0
M  V30 8046 O 756.196 1.39569 1.65377 0
M  V30 8047 C 756.791 3.17889 -1.17183 0
M  V30 8048 C 755.35 3.65052 -0.917267 0
M  V30 8049 C 754.497 2.44124 -1.31525 0
M  V30 8050 H 757.448 1.11342 -1.13087 0
M  V30 8051 H 757.469 3.76768 -0.531616 0
M  V30 8052 H 756.981 3.16052 -2.25239 0
M  V30 8053 H 755.082 3.72305 0.148354 0
M  V30 8054 H 755.195 4.53222 -1.55328 0
M  V30 8055 H 753.559 2.43906 -0.733624 0
M  V30 8056 H 754.342 2.44979 -2.405 0
M  V30 8057 N 756.787 0.722489 1.40064 0
M  V30 8058 C 758.035 0.264455 2.00362 0
M  V30 8059 C 758.356 -1.14847 1.57592 0
M  V30 8060 O 757.626 -1.77982 0.818477 0
M  V30 8061 H 756.206 0.0947846 0.740962 0
M  V30 8062 H 758.868 0.929659 1.71299 0
M  V30 8063 H 757.964 0.302977 3.10626 0
M  V30 8064 N 758.265 -1.50454 0.469181 0
M  V30 8065 C 759.175 -2.32248 -0.331349 0
M  V30 8066 C 760.191 -1.42548 -0.997807 0
M  V30 8067 O 761.367 -1.75602 -0.9862 0
M  V30 8068 C 758.432 -3.17171 -1.40012 0
M  V30 8069 C 757.493 -4.2269 -0.750463 0
M  V30 8070 C 756.726 -5.03554 -1.76831 0
M  V30 8071 O 756.949 -4.85469 -2.99459 0
M  V30 8072 O 755.883 -5.86767 -1.3412 0
M  V30 8073 H 759.709 -3.01821 0.337279 0
M  V30 8074 H 757.294 -1.47602 0.231066 0
M  V30 8075 H 759.176 -3.69871 -2.01924 0
M  V30 8076 H 757.851 -2.50328 -2.05226 0
M  V30 8077 H 756.758 -3.73986 -0.0924446 0
M  V30 8078 H 758.091 -4.91997 -0.14131 0
M  V30 8079 N 759.743 -0.201713 -1.56304 0
M  V30 8080 C 760.971 0.440723 -2.02152 0
M  V30 8081 C 761.386 1.54735 -1.08179 0
M  V30 8082 O 760.743 1.82289 -0.0878196 0
M  V30 8083 C 760.794 0.990884 -3.47655 0
M  V30 8084 O 760.515 -0.0715937 -4.38041 0
M  V30 8085 C 762.016 1.70854 -4.09052 0
M  V30 8086 H 759.236 0.109987 -0.661924 0
M  V30 8087 H 761.78 -0.312358 -2.021 0
M  V30 8088 H 759.935 1.69432 -3.48384 0
M  V30 8089 H 760.349 0.338892 -5.23404 0
M  V30 8090 H 761.823 2.04572 -5.12693 0
M  V30 8091 H 762.3 2.61462 -3.52894 0
M  V30 8092 H 762.906 1.0508 -4.12114 0
M  V30 8093 N 761.222 1.57436 0.0718424 0
M  V30 8094 C 762.469 1.87248 0.771007 0
M  V30 8095 C 762.797 0.793441 1.7758 0
M  V30 8096 O 762.052 -0.210565 1.94564 0
M  V30 8097 C 762.351 3.23723 1.51455 0
M  V30 8098 C 762.017 4.46194 0.649736 0
M  V30 8099 C 760.679 4.79438 0.411409 0
M  V30 8100 C 763.031 5.21176 0.05004 0
M  V30 8101 C 760.359 5.85077 -0.436096 0
M  V30 8102 C 762.711 6.27712 -0.784919 0
M  V30 8103 C 761.375 6.59457 -1.03312 0
M  V30 8104 H 760.645 0.685188 0.282132 0
M  V30 8105 H 763.292 1.91474 0.0317896 0
M  V30 8106 H 761.597 3.15287 2.32597 0
M  V30 8107 H 763.294 3.44023 2.06031 0
M  V30 8108 H 759.884 4.20175 0.84562 0
M  V30 8109 H 764.068 4.95806 0.221282 0
M  V30 8110 H 759.324 6.08071 -0.637136 0
M  V30 8111 H 763.498 6.84974 -1.25635 0
M  V30 8112 H 761.125 7.4114 -1.6916 0
M  V30 8113 N 762.7 -0.34323 1.53817 0
M  V30 8114 C 763.928 -1.10348 1.75017 0
M  V30 8115 C 764.343 -1.82345 0.489475 0
M  V30 8116 O 763.7 -1.74362 -0.538886 0
M  V30 8117 C 763.751 -2.11672 2.93048 0
M  V30 8118 O 763.472 -1.42603 4.14241 0
M  V30 8119 C 764.973 -3.0007 3.26301 0
M  V30 8120 H 762.193 -0.329056 0.584776 0
M  V30 8121 H 764.737 -0.395339 2.00642 0
M  V30 8122 H 762.892 -2.78051 2.69753 0
M  V30 8123 H 763.306 -2.10294 4.80496 0
M  V30 8124 H 764.78 -3.67101 4.12239 0
M  V30 8125 H 765.257 -3.66105 2.42618 0
M  V30 8126 H 765.863 -2.3928 3.51604 0
M  V30 8127 N 764.178 -1.45556 -0.604258 0
M  V30 8128 C 765.408 -1.53056 -1.38771 0
M  V30 8129 C 765.816 -0.163092 -1.88496 0
M  V30 8130 O 765.159 0.846157 -1.63052 0
M  V30 8131 C 765.221 -2.45656 -2.62476 0
M  V30 8132 C 764.885 -3.92328 -2.34367 0
M  V30 8133 C 765.882 -4.82137 -1.94525 0
M  V30 8134 C 763.567 -4.37275 -2.47177 0
M  V30 8135 C 765.561 -6.14901 -1.67856 0
M  V30 8136 C 763.248 -5.70079 -2.20122 0
M  V30 8137 C 764.246 -6.58711 -1.80524 0
M  V30 8138 O 763.934 -7.89053 -1.53788 0
M  V30 8139 H 763.666 -0.520721 -0.431075 0
M  V30 8140 H 766.22 -1.91464 -0.743693 0
M  V30 8141 H 764.45 -2.02225 -3.29609 0
M  V30 8142 H 766.139 -2.43802 -3.24523 0
M  V30 8143 H 766.905 -4.48675 -1.84162 0
M  V30 8144 H 762.784 -3.68527 -2.76964 0
M  V30 8145 H 766.328 -6.8404 -1.36874 0
M  V30 8146 H 762.225 -6.03095 -2.30102 0
M  V30 8147 H 762.993 -8.01113 -1.67812 0
M  V30 8148 N 765.656 0.84705 -1.32902 0
M  V30 8149 C 766.603 1.95624 -1.22473 0
M  V30 8150 C 767.573 1.65767 -0.105178 0
M  V30 8151 O 768.758 1.88704 -0.282042 0
M  V30 8152 C 765.898 3.31434 -0.961542 0
M  V30 8153 C 765.011 3.73741 -2.1666 0
M  V30 8154 C 764.146 4.98379 -1.83825 0
M  V30 8155 C 763.185 5.33199 -3.00609 0
M  V30 8156 N 762.322 6.49014 -2.67816 0
M  V30 8157 H 767.162 2.03875 -2.17345 0
M  V30 8158 H 764.699 0.997764 -1.08088 0
M  V30 8159 H 766.657 4.09663 -0.789411 0
M  V30 8160 H 765.287 3.22762 -0.0495938 0
M  V30 8161 H 764.339 2.91102 -2.44875 0
M  V30 8162 H 765.651 3.95462 -3.03993 0
M  V30 8163 H 764.805 5.84336 -1.63208 0
M  V30 8164 H 763.544 4.78611 -0.937172 0
M  V30 8165 H 762.549 4.4575 -3.21849 0
M  V30 8166 H 763.774 5.5492 -3.9146 0
M  V30 8167 H 761.72 6.30748 -1.80258 0
M  V30 8168 H 761.637 6.7079 -3.48679 0
M  V30 8169 H 762.905 7.38103 -2.50647 0
M  V30 8170 N 767.134 1.16236 1.06428 0
M  V30 8171 C 768.38 0.954417 1.79617 0
M  V30 8172 C 768.735 -0.512411 1.85451 0
M  V30 8173 O 768.028 -1.37523 1.33409 0
M  V30 8174 C 768.222 1.51396 3.2375 0
M  V30 8175 C 768.051 3.03367 3.31962 0
M  V30 8176 C 766.821 3.71996 3.41975 0
M  V30 8177 C 769.019 4.01075 3.21937 0
M  V30 8178 N 767.001 5.11688 3.39187 0
M  V30 8179 C 768.372 5.27142 3.26376 0
M  V30 8180 C 770.427 3.92917 3.05812 0
M  V30 8181 C 769.13 6.46 3.16348 0
M  V30 8182 C 771.156 5.11344 2.97121 0
M  V30 8183 C 770.518 6.36291 3.02181 0
M  V30 8184 H 766.617 0.403007 0.670156 0
M  V30 8185 H 769.201 1.47605 1.26968 0
M  V30 8186 H 767.372 1.01883 3.74799 0
M  V30 8187 H 769.104 1.2439 3.85109 0
M  V30 8188 H 765.859 3.22623 3.46715 0
M  V30 8189 H 766.283 5.84676 3.41297 0
M  V30 8190 H 770.925 2.97172 3.00746 0
M  V30 8191 H 768.643 7.41968 3.2017 0
M  V30 8192 H 772.229 5.06801 2.85734 0
M  V30 8193 H 771.109 7.26389 2.95513 0
M  V30 8194 N 768.612 -1.24939 0.960631 0
M  V30 8195 C 769.84 -1.96881 0.636045 0
M  V30 8196 C 770.255 -1.71334 -0.793093 0
M  V30 8197 O 769.612 -0.992917 -1.53125 0
M  V30 8198 C 769.663 -3.50309 0.892533 0
M  V30 8199 O 769.384 -3.74977 2.26548 0
M  V30 8200 C 770.885 -4.39474 0.581159 0
M  V30 8201 H 768.105 -0.627399 0.237931 0
M  V30 8202 H 770.649 -1.58952 1.28664 0
M  V30 8203 H 768.804 -3.86326 0.288257 0
M  V30 8204 H 769.218 -4.69401 2.34014 0
M  V30 8205 H 770.692 -5.46008 0.811125 0
M  V30 8206 H 771.169 -4.3652 -0.48443 0
M  V30 8207 H 771.775 -4.09032 1.16502 0
M  V30 8208 N 770.09 -0.729906 -1.39679 0
M  V30 8209 C 771.336 -0.27603 -2.00913 0
M  V30 8210 C 771.669 1.13227 -1.57776 0
M  V30 8211 O 770.944 1.7709 -0.804319 0
M  V30 8212 C 771.227 -0.372157 -3.58172 0
M  V30 8213 C 771.08 -1.81986 -4.11341 0
M  V30 8214 C 772.399 0.248378 -4.39399 0
M  V30 8215 H 769.518 -0.101773 -0.729939 0
M  V30 8216 H 772.16 -0.925104 -1.65957 0
M  V30 8217 H 770.31 0.180459 -3.88081 0
M  V30 8218 H 771.982 -2.42896 -3.92172 0
M  V30 8219 H 770.225 -2.34287 -3.65092 0
M  V30 8220 H 770.896 -1.83842 -5.20486 0
M  V30 8221 H 773.372 -0.222645 -4.15504 0
M  V30 8222 H 772.248 0.150746 -5.48693 0
M  V30 8223 H 772.509 1.33378 -4.21501 0
M  V30 8224 N 771.568 1.50203 -0.477153 0
M  V30 8225 C 772.979 1.86685 -0.0235041 0
M  V30 8226 C 773.33 1.39148 1.38319 0
M  V30 8227 O 772.455 0.759051 2.02651 0
M  V30 8228 C 773.05 3.38781 -0.0358767 0
M  V30 8229 C 771.609 3.74652 0.362327 0
M  V30 8230 C 770.756 2.7412 -0.41875 0
M  V30 8231 H 773.707 1.4286 -0.691133 0
M  V30 8232 H 773.728 3.72732 0.764924 0
M  V30 8233 H 773.24 3.73349 -1.05981 0
M  V30 8234 H 771.341 3.45686 1.39039 0
M  V30 8235 H 771.454 4.79063 0.059457 0
M  V30 8236 H 769.818 2.54376 0.128341 0
M  V30 8237 H 770.601 3.11532 -1.44231 0
M  V30 8238 N 773.046 0.209999 1.56195 0
M  V30 8239 C 773.956 -0.716459 2.23392 0
M  V30 8240 C 774.972 -1.22291 1.23778 0
M  V30 8241 O 776.148 -1.26694 1.56558 0
M  V30 8242 C 773.213 -1.91261 2.89172 0
M  V30 8243 C 772.274 -1.44927 4.04097 0
M  V30 8244 C 771.507 -2.5884 4.66731 0
M  V30 8245 O 771.73 -3.76693 4.2832 0
M  V30 8246 O 770.664 -2.30701 5.55932 0
M  V30 8247 H 774.49 -0.174089 3.03201 0
M  V30 8248 H 772.075 -0.0199505 1.49387 0
M  V30 8249 H 773.957 -2.6114 3.30733 0
M  V30 8250 H 772.632 -2.4433 2.12331 0
M  V30 8251 H 771.539 -0.718839 3.67129 0
M  V30 8252 H 772.872 -0.965084 4.82646 0
M  V30 8253 N 774.524 -1.57472 -0.0634922 0
M  V30 8254 C 775.749 -1.92273 -0.77756 0
M  V30 8255 C 776.174 -0.807141 -1.69902 0
M  V30 8256 O 775.532 0.239523 -1.79711 0
M  V30 8257 C 775.58 -3.26054 -1.54017 0
M  V30 8258 O 774.684 -3.15873 -2.65138 0
M  V30 8259 H 774.025 -0.629389 -0.211579 0
M  V30 8260 H 776.555 -2.04579 -0.0292523 0
M  V30 8261 H 776.565 -3.60127 -1.91763 0
M  V30 8262 H 775.24 -4.06824 -0.864128 0
M  V30 8263 H 773.817 -2.93373 -2.30189 0
M  V30 8264 N 776.003 0.335068 -1.53997 0
M  V30 8265 C 777.249 1.07594 -1.71905 0
M  V30 8266 C 777.582 1.88039 -0.485264 0
M  V30 8267 O 776.857 1.87482 0.517752 0
M  V30 8268 C 777.14 2.01016 -2.98772 0
M  V30 8269 C 776.993 1.23977 -4.32377 0
M  V30 8270 C 778.312 3.0071 -3.21343 0
M  V30 8271 H 775.431 0.38976 -0.625505 0
M  V30 8272 H 778.073 0.353684 -1.86679 0
M  V30 8273 H 776.223 2.62603 -2.86307 0
M  V30 8274 H 777.895 0.649383 -4.56706 0
M  V30 8275 H 776.138 0.541878 -4.30402 0
M  V30 8276 H 776.809 1.92512 -5.17342 0
M  V30 8277 H 779.285 2.4924 -3.33194 0
M  V30 8278 H 778.161 3.63272 -4.11491 0
M  V30 8279 H 778.422 3.72549 -2.38033 0
M  V30 8280 N 777.481 1.45874 0.596531 0
M  V30 8281 C 778.706 1.54247 1.38646 0
M  V30 8282 C 779.131 0.179571 1.87241 0
M  V30 8283 O 778.489 -0.837831 1.6078 0
M  V30 8284 C 778.537 2.54015 2.55946 0
M  V30 8285 O 777.641 2.06561 3.5694 0
M  V30 8286 H 776.982 0.519555 0.413471 0
M  V30 8287 H 779.512 1.91327 0.724936 0
M  V30 8288 H 779.522 2.73179 3.03047 0
M  V30 8289 H 778.197 3.52994 2.19928 0
M  V30 8290 H 776.774 1.97324 3.16414 0
M  V30 8291 N 778.959 -0.83999 1.33349 0
M  V30 8292 C 780.37 -1.41139 1.22216 0
M  V30 8293 C 780.721 -1.95551 -0.159398 0
M  V30 8294 O 779.846 -1.88721 -1.05893 0
M  V30 8295 C 780.441 -2.56564 2.21269 0
M  V30 8296 C 779 -3.09661 2.13979 0
M  V30 8297 C 778.147 -1.82457 2.08818 0
M  V30 8298 H 781.098 -0.645853 1.44964 0
M  V30 8299 H 781.119 -3.34163 1.81976 0
M  V30 8300 H 780.631 -2.16932 3.21811 0
M  V30 8301 H 778.732 -3.53841 1.16736 0
M  V30 8302 H 778.845 -3.6991 3.04472 0
M  V30 8303 H 777.209 -2.0266 1.54276 0
M  V30 8304 H 777.992 -1.45022 3.11165 0
M  V30 8305 N 780.437 -1.16799 -1.0581 0
M  V30 8306 C 781.665 -0.97687 -1.82387 0
M  V30 8307 C 782.08 0.474917 -1.82729 0
M  V30 8308 O 781.437 1.3297 -1.25001 0
M  V30 8309 C 781.488 -1.50279 -3.28783 0
M  V30 8310 O 781.209 -2.89772 -3.28578 0
M  V30 8311 C 782.71 -1.35538 -4.22071 0
M  V30 8312 H 779.93 -0.345977 -0.574927 0
M  V30 8313 H 782.474 -1.54942 -1.33466 0
M  V30 8314 H 780.629 -0.972414 -3.74997 0
M  V30 8315 H 781.043 -3.13954 -4.20159 0
M  V30 8316 H 782.517 -1.7716 -5.22799 0
M  V30 8317 H 782.994 -0.301598 -4.38163 0
M  V30 8318 H 783.6 -1.87562 -3.81708 0
M  V30 8319 N 781.915 1.24427 -0.967243 0
M  V30 8320 C 782.878 2.23637 -0.501927 0
M  V30 8321 C 783.878 1.55712 0.401283 0
M  V30 8322 O 785.068 1.73085 0.196808 0
M  V30 8323 C 782.2 3.39804 0.273176 0
M  V30 8324 H 783.393 2.66317 -1.37897 0
M  V30 8325 H 780.946 1.37033 -0.751783 0
M  V30 8326 H 781.681 3.02562 1.16733 0
M  V30 8327 H 781.466 3.90303 -0.37498 0
M  V30 8328 H 782.956 4.13443 0.587776 0
M  V30 8329 N 783.393 0.737304 1.3929 0
M  V30 8330 C 784.641 0.285691 2.00071 0
M  V30 8331 C 784.962 -1.13169 1.58801 0
M  V30 8332 O 784.232 -1.77104 0.837308 0
M  V30 8333 H 782.812 0.102638 0.739915 0
M  V30 8334 H 785.474 0.947775 1.70303 0
M  V30 8335 H 784.57 0.335906 3.10287 0
M  V30 8336 N 784.871 -1.49948 0.485112 0
M  V30 8337 C 786.148 -1.95186 -0.12726 0
M  V30 8338 C 786.528 -1.42605 -1.5565 0
M  V30 8339 O 785.876 -0.632986 -2.19558 0
M  V30 8340 C 786.086 -3.48955 -0.0562117 0
M  V30 8341 C 787.434 -4.23932 -0.238106 0
M  V30 8342 O 788.458 -3.55955 -0.132145 0
M  V30 8343 O 787.317 -5.44614 -0.453658 0
M  V30 8344 H 784.411 -0.820433 -0.104014 0
M  V30 8345 H 786.957 -1.60659 0.546517 0
M  V30 8346 H 785.729 -3.79814 0.941122 0
M  V30 8347 H 785.352 -3.90056 -0.770834 0
M  V30 8348 N 786.349 -0.21828 -1.56081 0
M  V30 8349 C 787.76 0.290166 -1.84431 0
M  V30 8350 C 788.111 1.59712 -1.13958 0
M  V30 8351 O 787.236 2.12516 -0.40815 0
M  V30 8352 C 787.831 0.53325 -3.34577 0
M  V30 8353 C 786.39 0.986011 -3.63256 0
M  V30 8354 C 785.537 0.0472798 -2.7726 0
M  V30 8355 H 788.488 -0.441548 -1.52434 0
M  V30 8356 H 788.509 1.37967 -3.54606 0
M  V30 8357 H 788.021 -0.418137 -3.85841 0
M  V30 8358 H 786.122 1.95087 -3.17446 0
M  V30 8359 H 786.235 0.862684 -4.71269 0
M  V30 8360 H 784.599 0.553471 -2.48614 0
M  V30 8361 H 785.382 -0.898966 -3.31321 0
M  V30 8362 N 787.827 1.57504 0.0551401 0
M  V30 8363 C 789.238 1.76626 0.604979 0
M  V30 8364 C 789.589 0.845978 1.77024 0
M  V30 8365 O 788.714 0.0341936 2.16373 0
M  V30 8366 C 789.309 3.203 1.10425 0
M  V30 8367 C 787.868 3.4071 1.59981 0
M  V30 8368 C 787.015 2.72258 0.526414 0
M  V30 8369 H 789.966 1.57775 -0.171072 0
M  V30 8370 H 789.987 3.25377 1.97256 0
M  V30 8371 H 789.499 3.87255 0.255939 0
M  V30 8372 H 787.6 2.78892 2.47083 0
M  V30 8373 H 787.713 4.49227 1.66528 0
M  V30 8374 H 786.077 2.35283 0.97539 0
M  V30 8375 H 786.86 3.41879 -0.311991 0
M  V30 8376 N 789.305 -0.326896 1.54172 0
M  V30 8377 C 790.545 -1.07349 1.73941 0
M  V30 8378 C 790.909 -1.85355 0.50075 0
M  V30 8379 O 792.11 -2.62562 0.575731 0
M  V30 8380 C 790.381 -1.97636 2.97783 0
M  V30 8381 S 791.94 -2.79292 3.3844 0
M  V30 8382 H 788.758 -0.362459 0.611673 0
M  V30 8383 H 791.36 -0.349884 1.92344 0
M  V30 8384 H 790.064 -1.39158 3.86087 0
M  V30 8385 H 789.595 -2.74406 2.81895 0
M  V30 8386 H 791.61 -4.00106 2.93478 0
M  V30 8387 N 790.784 -1.46188 -0.588786 0
M  V30 8388 C 791.714 -1.59148 -1.70863 0
M  V30 8389 C 792.695 -0.442083 -1.64255 0
M  V30 8390 O 793.88 -0.667575 -1.82365 0
M  V30 8391 C 791.01 -1.5757 -3.09498 0
M  V30 8392 C 789.964 -2.71418 -3.30932 0
M  V30 8393 C 789.29 -2.549 -4.70032 0
M  V30 8394 C 790.59 -4.1329 -3.19356 0
M  V30 8395 H 792.284 -2.52889 -1.60274 0
M  V30 8396 H 789.83 -1.21707 -0.769638 0
M  V30 8397 H 791.783 -1.65231 -3.87655 0
M  V30 8398 H 790.507 -0.603705 -3.20972 0
M  V30 8399 H 789.166 -2.63216 -2.55172 0
M  V30 8400 H 788.814 -1.55797 -4.78264 0
M  V30 8401 H 788.514 -3.31257 -4.85327 0
M  V30 8402 H 790.038 -2.64443 -5.50366 0
M  V30 8403 H 791.452 -4.22636 -3.87365 0
M  V30 8404 H 789.849 -4.90187 -3.46175 0
M  V30 8405 H 790.919 -4.33874 -2.16522 0
M  V30 8406 N 792.262 0.832906 -1.33792 0
M  V30 8407 C 793.49 1.62048 -1.28639 0
M  V30 8408 C 793.905 1.88269 0.141522 0
M  V30 8409 O 793.262 1.46706 1.08553 0
M  V30 8410 C 793.313 2.96722 -2.0649 0
M  V30 8411 O 793.034 2.7165 -3.43712 0
M  V30 8412 C 794.535 3.91144 -2.08617 0
M  V30 8413 H 791.755 0.504032 -0.442937 0
M  V30 8414 H 794.299 1.03704 -1.76255 0
M  V30 8415 H 792.454 3.51652 -1.62541 0
M  V30 8416 H 792.868 3.57453 -3.83833 0
M  V30 8417 H 794.342 4.82837 -2.67531 0
M  V30 8418 H 794.819 4.25766 -1.07796 0
M  V30 8419 H 795.425 3.42152 -2.52611 0
M  V30 8420 N 793.74 1.17359 1.05189 0
M  V30 8421 C 794.97 0.985099 1.81602 0
M  V30 8422 C 795.378 -0.469872 1.83273 0
M  V30 8423 O 794.721 -1.33806 1.25864 0
M  V30 8424 C 794.783 1.44956 3.2898 0
M  V30 8425 C 794.447 2.92666 3.50993 0
M  V30 8426 C 795.444 3.906 3.43115 0
M  V30 8427 C 793.129 3.30841 3.77954 0
M  V30 8428 C 795.123 5.24709 3.61883 0
M  V30 8429 C 792.81 4.65116 3.96371 0
M  V30 8430 C 793.808 5.61859 3.88335 0
M  V30 8431 O 793.496 6.93704 4.06238 0
M  V30 8432 H 793.228 0.348731 0.579105 0
M  V30 8433 H 795.782 1.56066 1.33539 0
M  V30 8434 H 794.012 0.817559 3.77959 0
M  V30 8435 H 795.701 1.22674 3.86919 0
M  V30 8436 H 796.467 3.62453 3.22262 0
M  V30 8437 H 792.346 2.5611 3.83313 0
M  V30 8438 H 795.89 6.00205 3.55527 0
M  V30 8439 H 791.787 4.92969 4.16715 0
M  V30 8440 H 792.555 7.00443 4.23463 0
M  V30 8441 N 795.218 -1.23913 0.973828 0
M  V30 8442 C 796.148 -2.27453 0.527969 0
M  V30 8443 C 797.129 -1.6443 -0.435513 0
M  V30 8444 O 798.314 -1.9137 -0.330306 0
M  V30 8445 C 795.444 -3.4685 -0.176757 0
M  V30 8446 C 794.398 -4.22181 0.703352 0
M  V30 8447 C 793.724 -5.34534 -0.133215 0
M  V30 8448 C 795.024 -4.82865 1.99096 0
M  V30 8449 H 796.718 -2.65 1.3934 0
M  V30 8450 H 794.264 -1.27388 0.671446 0
M  V30 8451 H 796.217 -4.18424 -0.499934 0
M  V30 8452 H 794.941 -3.08346 -1.07659 0
M  V30 8453 H 793.6 -3.52416 1.00989 0
M  V30 8454 H 793.248 -4.92271 -1.03338 0
M  V30 8455 H 792.948 -5.85855 0.452494 0
M  V30 8456 H 794.472 -6.08933 -0.450924 0
M  V30 8457 H 795.886 -5.46481 1.73297 0
M  V30 8458 H 794.283 -5.44444 2.52389 0
M  V30 8459 H 795.353 -4.03977 2.68199 0
M  V30 8460 N 796.696 -0.74468 -1.38897 0
M  V30 8461 C 797.926 -0.306982 -2.04307 0
M  V30 8462 C 798.334 1.06652 -1.56275 0
M  V30 8463 O 797.677 1.68699 -0.72708 0
M  V30 8464 C 797.739 -0.241186 -3.5869 0
M  V30 8465 C 797.403 -1.55476 -4.2974 0
M  V30 8466 C 798.4 -2.50229 -4.55721 0
M  V30 8467 C 796.085 -1.82173 -4.68101 0
M  V30 8468 C 798.079 -3.69905 -5.19085 0
M  V30 8469 C 795.766 -3.02125 -5.31191 0
M  V30 8470 C 796.764 -3.95812 -5.56616 0
M  V30 8471 O 796.452 -5.13656 -6.18395 0
M  V30 8472 H 796.184 -0.130416 -0.663301 0
M  V30 8473 H 798.738 -1.01192 -1.78744 0
M  V30 8474 H 796.968 0.519925 -3.83189 0
M  V30 8475 H 798.657 0.165806 -4.05561 0
M  V30 8476 H 799.423 -2.30877 -4.26522 0
M  V30 8477 H 795.302 -1.10091 -4.47662 0
M  V30 8478 H 798.846 -4.43047 -5.38846 0
M  V30 8479 H 794.743 -3.21374 -5.59811 0
M  V30 8480 H 795.511 -5.14119 -6.36886 0
M  V30 8481 N 798.174 1.49689 -0.493057 0
M  V30 8482 C 799.421 2.02427 0.0542714 0
M  V30 8483 C 799.749 1.37339 1.37725 0
M  V30 8484 O 799.004 0.495523 1.89323 0
M  V30 8485 C 799.303 3.56427 0.263536 0
M  V30 8486 C 798.969 4.40111 -0.98046 0
M  V30 8487 C 797.631 4.62699 -1.32148 0
M  V30 8488 C 799.983 4.88847 -1.80771 0
M  V30 8489 C 797.311 5.31268 -2.48941 0
M  V30 8490 C 799.663 5.587 -2.96711 0
M  V30 8491 C 798.327 5.79536 -3.31202 0
M  V30 8492 H 797.597 0.740734 0.0198593 0
M  V30 8493 H 800.244 1.80073 -0.651603 0
M  V30 8494 H 798.549 3.77416 1.05186 0
M  V30 8495 H 800.246 3.94819 0.701348 0
M  V30 8496 H 796.836 4.22765 -0.704814 0
M  V30 8497 H 801.02 4.71231 -1.55741 0
M  V30 8498 H 796.276 5.45603 -2.75911 0
M  V30 8499 H 800.45 5.9544 -3.61143 0
M  V30 8500 H 798.077 6.32443 -4.21805 0
M  V30 8501 N 799.652 0.226554 1.55963 0
M  V30 8502 C 800.877 -0.411527 2.03276 0
M  V30 8503 C 801.302 -1.52206 1.10521 0
M  V30 8504 O 800.66 -1.81054 0.0943217 0
M  V30 8505 C 800.708 -0.915694 3.4878 0
M  V30 8506 O 799.812 -2.02672 3.59163 0
M  V30 8507 H 799.153 -0.0924907 0.657527 0
M  V30 8508 H 801.683 0.346656 2.01642 0
M  V30 8509 H 801.693 -1.22421 3.892 0
M  V30 8510 H 800.368 -0.102915 4.15773 0
M  V30 8511 H 798.945 -1.72445 3.30632 0
M  V30 8512 N 801.13 -1.57531 -0.0467866 0
M  V30 8513 C 802.093 -2.04379 -1.03738 0
M  V30 8514 C 803.093 -0.944881 -1.3011 0
M  V30 8515 O 804.283 -1.20904 -1.25411 0
M  V30 8516 C 801.415 -2.44572 -2.37482 0
M  V30 8517 H 802.608 -2.93142 -0.633063 0
M  V30 8518 H 800.161 -1.53526 -0.293177 0
M  V30 8519 H 800.896 -1.58911 -2.82697 0
M  V30 8520 H 800.681 -3.24785 -2.19675 0
M  V30 8521 H 802.171 -2.81307 -3.08636 0
M  V30 8522 N 802.608 0.318715 -1.54344 0
M  V30 8523 C 803.854 1.05765 -1.73037 0
M  V30 8524 C 804.187 1.87514 -0.505181 0
M  V30 8525 O 803.462 1.88021 0.497838 0
M  V30 8526 C 803.745 1.97836 -3.00887 0
M  V30 8527 C 803.598 1.19384 -4.33668 0
M  V30 8528 C 804.917 2.97285 -3.24514 0
M  V30 8529 H 802.036 0.383104 -0.629603 0
M  V30 8530 H 804.678 0.333864 -1.87044 0
M  V30 8531 H 802.828 2.59552 -2.89076 0
M  V30 8532 H 804.5 0.600906 -4.57369 0
M  V30 8533 H 802.743 0.496198 -4.30953 0
M  V30 8534 H 803.414 1.87014 -5.19355 0
M  V30 8535 H 805.89 2.45693 -3.35819 0
M  V30 8536 H 804.766 3.58887 -4.15321 0
M  V30 8537 H 805.027 3.70003 -2.41971 0
M  V30 8538 N 804.086 1.46499 0.581025 0
M  V30 8539 C 805.363 1.42372 1.34125 0
M  V30 8540 C 805.743 0.108073 2.10823 0
M  V30 8541 O 805.091 -0.910366 2.09582 0
M  V30 8542 C 805.301 2.65445 2.26583 0
M  V30 8543 C 806.649 3.11664 2.88359 0
M  V30 8544 O 807.673 2.66006 2.36896 0
M  V30 8545 O 806.532 3.90974 3.81839 0
M  V30 8546 H 803.626 0.566262 0.602724 0
M  V30 8547 H 806.172 1.58667 0.601903 0
M  V30 8548 H 804.944 3.52756 1.69348 0
M  V30 8549 H 804.567 2.51618 3.07854 0
M  V30 8550 N 805.565 -0.825799 1.34232 0
M  V30 8551 C 806.976 -1.39835 1.23706 0
M  V30 8552 C 807.327 -1.95709 -0.138649 0
M  V30 8553 O 806.452 -1.89833 -1.03886 0
M  V30 8554 C 807.047 -2.54203 2.23978 0
M  V30 8555 C 805.606 -3.07374 2.17251 0
M  V30 8556 C 804.753 -1.80232 2.10741 0
M  V30 8557 H 807.704 -0.630442 1.4564 0
M  V30 8558 H 807.725 -3.32214 1.8551 0
M  V30 8559 H 807.237 -2.13506 3.24094 0
M  V30 8560 H 805.338 -3.52583 1.20483 0
M  V30 8561 H 805.451 -3.6666 3.08379 0
M  V30 8562 H 803.815 -2.01012 1.56417 0
M  V30 8563 H 804.598 -1.41713 3.12686 0
M  V30 8564 N 807.043 -1.17915 -1.04565 0
M  V30 8565 C 808.292 -0.965816 -1.77073 0
M  V30 8566 C 808.605 0.506005 -1.88942 0
M  V30 8567 O 809.811 0.837717 -2.58253 0
M  V30 8568 C 808.267 -1.67894 -3.18339 0
M  V30 8569 C 807.875 -3.18972 -3.1458 0
M  V30 8570 C 809.619 -1.54823 -3.9526 0
M  V30 8571 C 807.526 -3.82946 -4.50674 0
M  V30 8572 H 806.456 -0.357729 -0.663736 0
M  V30 8573 H 809.107 -1.41235 -1.17153 0
M  V30 8574 H 807.489 -1.16016 -3.78624 0
M  V30 8575 H 808.663 -3.77835 -2.63776 0
M  V30 8576 H 806.978 -3.32127 -2.51159 0
M  V30 8577 H 809.575 -1.99984 -4.95894 0
M  V30 8578 H 809.918 -0.499727 -4.1329 0
M  V30 8579 H 810.451 -2.03953 -3.41538 0
M  V30 8580 H 807.19 -4.8782 -4.37849 0
M  V30 8581 H 806.71 -3.2887 -5.01602 0
M  V30 8582 H 808.389 -3.85518 -5.196 0
M  V30 8583 N 808.521 1.23394 -0.980386 0
M  V30 8584 C 809.468 2.24859 -0.520298 0
M  V30 8585 C 810.438 1.60144 0.440821 0
M  V30 8586 O 811.623 1.87593 0.348369 0
M  V30 8587 C 808.763 3.44675 0.171145 0
M  V30 8588 C 807.876 4.23947 -0.830233 0
M  V30 8589 C 807.011 5.31079 -0.113597 0
M  V30 8590 C 806.05 6.02058 -1.10419 0
M  V30 8591 N 805.187 7.00862 -0.416709 0
M  V30 8592 H 810.027 2.63579 -1.39032 0
M  V30 8593 H 807.564 1.29556 -0.696682 0
M  V30 8594 H 809.522 4.13024 0.588838 0
M  V30 8595 H 808.152 3.06755 1.00504 0
M  V30 8596 H 807.204 3.55016 -1.36631 0
M  V30 8597 H 808.516 4.72945 -1.58508 0
M  V30 8598 H 807.67 6.05622 0.36146 0
M  V30 8599 H 806.409 4.83022 0.673854 0
M  V30 8600 H 805.414 5.26307 -1.59 0
M  V30 8601 H 806.639 6.52203 -1.8923 0
M  V30 8602 H 804.585 6.55057 0.351535 0
M  V30 8603 H 804.502 7.47804 -1.11021 0
M  V30 8604 H 805.77 7.79492 0.0359606 0
M  V30 8605 N 809.999 0.752036 1.385 0
M  V30 8606 C 811.276 0.233075 1.94206 0
M  V30 8607 C 811.656 -1.26838 1.68746 0
M  V30 8608 O 811.004 -2.04214 1.02513 0
M  V30 8609 C 811.214 0.58509 3.44061 0
M  V30 8610 C 812.562 0.543871 4.21102 0
M  V30 8611 O 813.586 0.523291 3.52335 0
M  V30 8612 O 812.445 0.553436 5.4369 0
M  V30 8613 H 809.539 0.0483049 0.825588 0
M  V30 8614 H 812.085 0.832053 1.47902 0
M  V30 8615 H 810.857 1.62212 3.56094 0
M  V30 8616 H 810.48 -0.0419738 3.97578 0
M  V30 8617 N 811.477 -1.49425 0.500989 0
M  V30 8618 C 812.705 -2.06861 -0.0403443 0
M  V30 8619 C 813.12 -1.36132 -1.30819 0
M  V30 8620 O 812.477 -0.439647 -1.77125 0
M  V30 8621 C 812.528 -3.6027 -0.297902 0
M  V30 8622 O 812.249 -4.28338 0.919686 0
M  V30 8623 C 813.75 -4.34419 -0.882876 0
M  V30 8624 H 810.97 -0.670688 0.0204619 0
M  V30 8625 H 813.514 -1.92207 0.698342 0
M  V30 8626 H 811.669 -3.74627 -0.98657 0
M  V30 8627 H 812.083 -5.2004 0.682528 0
M  V30 8628 H 813.557 -5.42631 -1.01268 0
M  V30 8629 H 814.034 -3.96898 -1.88066 0
M  V30 8630 H 814.64 -4.24669 -0.231677 0
M  V30 8631 N 812.955 -0.234822 -1.55841 0
M  V30 8632 C 814.18 0.400741 -2.03492 0
M  V30 8633 C 814.605 1.51618 -1.11327 0
M  V30 8634 O 813.963 1.81002 -0.103922 0
M  V30 8635 C 814.011 0.897184 -3.49261 0
M  V30 8636 O 813.115 2.00764 -3.60233 0
M  V30 8637 H 812.456 0.0890023 -0.658008 0
M  V30 8638 H 814.986 -0.357345 -2.01455 0
M  V30 8639 H 814.996 1.20356 -3.89844 0
M  V30 8640 H 813.671 0.0808639 -4.15821 0
M  V30 8641 H 812.248 1.70689 -3.31541 0
M  V30 8642 N 814.433 1.57553 0.0384317 0
M  V30 8643 C 815.658 1.93485 0.746872 0
M  V30 8644 C 816.083 0.834069 1.68597 0
M  V30 8645 O 815.441 -0.210902 1.80069 0
M  V30 8646 C 815.489 3.28463 1.4881 0
M  V30 8647 O 814.593 3.20051 2.60079 0
M  V30 8648 H 813.934 0.632675 0.201539 0
M  V30 8649 H 816.464 2.046 -0.00329815 0
M  V30 8650 H 816.474 3.63132 1.86009 0
M  V30 8651 H 815.149 4.08147 0.799297 0
M  V30 8652 H 813.726 2.96998 2.25492 0
M  V30 8653 N 815.911 -0.310526 1.54511 0
M  V30 8654 C 817.159 -1.04484 1.72996 0
M  V30 8655 C 817.48 -1.88118 0.513479 0
M  V30 8656 O 816.75 -1.90119 -0.472384 0
M  V30 8657 H 815.33 -0.388747 0.637875 0
M  V30 8658 H 817.992 -0.343811 1.91844 0
M  V30 8659 H 817.088 -1.70341 2.61515 0
M  V30 8660 N 817.389 -1.46805 -0.573248 0
M  V30 8661 C 818.319 -1.60951 -1.69165 0
M  V30 8662 C 819.3 -0.45948 -1.63777 0
M  V30 8663 O 820.485 -0.68688 -1.81647 0
M  V30 8664 C 817.615 -1.60844 -3.07809 0
M  V30 8665 C 816.569 -2.74913 -3.28035 0
M  V30 8666 C 815.895 -2.59871 -4.67302 0
M  V30 8667 C 817.195 -4.16654 -3.14955 0
M  V30 8668 H 818.889 -2.54574 -1.57582 0
M  V30 8669 H 816.435 -1.22516 -0.756686 0
M  V30 8670 H 818.388 -1.69334 -3.85881 0
M  V30 8671 H 817.112 -0.637714 -3.20314 0
M  V30 8672 H 815.771 -2.65908 -2.52366 0
M  V30 8673 H 815.419 -1.60861 -4.76585 0
M  V30 8674 H 815.119 -3.36386 -4.81786 0
M  V30 8675 H 816.643 -2.70265 -5.4753 0
M  V30 8676 H 818.057 -4.26721 -3.82861 0
M  V30 8677 H 816.454 -4.93831 -3.40956 0
M  V30 8678 H 817.524 -4.36146 -2.11908 0
M  V30 8679 N 818.867 0.818669 -1.34668 0
M  V30 8680 C 820.113 1.57746 -1.27453 0
M  V30 8681 C 820.446 1.93588 0.154077 0
M  V30 8682 O 819.721 1.60371 1.10051 0
M  V30 8683 C 820.004 2.87414 -2.16945 0
M  V30 8684 C 819.857 2.58125 -3.68363 0
M  V30 8685 C 821.176 3.89021 -2.05792 0
M  V30 8686 H 818.295 0.572339 -0.464324 0
M  V30 8687 H 820.937 0.942784 -1.64959 0
M  V30 8688 H 819.087 3.41576 -1.85089 0
M  V30 8689 H 820.759 2.10239 -4.10606 0
M  V30 8690 H 819.002 1.91503 -3.89242 0
M  V30 8691 H 819.673 3.5061 -4.26353 0
M  V30 8692 H 822.149 3.44224 -2.33771 0
M  V30 8693 H 821.025 4.77548 -2.70628 0
M  V30 8694 H 821.286 4.29786 -1.03618 0
M  V30 8695 N 820.346 1.18468 1.03938 0
M  V30 8696 C 821.594 0.978895 1.76811 0
M  V30 8697 C 821.915 -0.49257 1.88676 0
M  V30 8698 O 821.185 -1.3572 1.41269 0
M  V30 8699 H 819.765 0.359201 0.654968 0
M  V30 8700 H 822.427 1.49173 1.25433 0
M  V30 8701 H 821.523 1.418 2.78027 0
M  V30 8702 N 821.824 -1.22873 0.986916 0
M  V30 8703 C 823.235 -1.73264 0.695438 0
M  V30 8704 C 823.586 -1.79679 -0.788023 0
M  V30 8705 O 822.711 -1.43905 -1.61618 0
M  V30 8706 C 823.306 -3.14671 1.2557 0
M  V30 8707 C 821.865 -3.62492 1.01373 0
M  V30 8708 C 821.012 -2.40551 1.37951 0
M  V30 8709 H 823.963 -1.08304 1.15999 0
M  V30 8710 H 823.984 -3.75226 0.631322 0
M  V30 8711 H 823.496 -3.0997 2.33539 0
M  V30 8712 H 821.597 -3.72567 -0.0495917 0
M  V30 8713 H 821.71 -4.48944 1.67289 0
M  V30 8714 H 820.074 -2.41875 0.798033 0
M  V30 8715 H 820.857 -2.38516 2.46911 0
M  V30 8716 N 823.302 -0.75937 -1.38099 0
M  V30 8717 C 824.232 -0.151077 -2.33011 0
M  V30 8718 C 825.213 0.697099 -1.5516 0
M  V30 8719 O 826.398 0.637101 -1.83452 0
M  V30 8720 C 823.528 0.738423 -3.39359 0
M  V30 8721 C 822.482 -0.0074741 -4.27999 0
M  V30 8722 C 821.808 1.00066 -5.25253 0
M  V30 8723 C 823.108 -1.17926 -5.08813 0
M  V30 8724 H 824.802 -0.943933 -2.84131 0
M  V30 8725 H 822.348 -0.455362 -1.36611 0
M  V30 8726 H 824.301 1.17369 -4.04725 0
M  V30 8727 H 823.025 1.56366 -2.86735 0
M  V30 8728 H 821.684 -0.423379 -3.64147 0
M  V30 8729 H 821.332 1.82012 -4.68914 0
M  V30 8730 H 821.032 0.506199 -5.85416 0
M  V30 8731 H 822.556 1.43512 -5.93495 0
M  V30 8732 H 823.97 -0.821262 -5.67387 0
M  V30 8733 H 822.367 -1.60497 -5.78239 0
M  V30 8734 H 823.437 -1.98938 -4.42212 0
M  V30 8735 N 824.78 1.49157 -0.508906 0
M  V30 8736 C 825.71 2.32109 0.254469 0
M  V30 8737 C 826.691 1.40754 0.955111 0
M  V30 8738 O 827.876 1.69658 0.944983 0
M  V30 8739 C 825.006 3.21458 1.3146 0
M  V30 8740 C 823.96 4.2167 0.733368 0
M  V30 8741 C 823.286 5.00009 1.8946 0
M  V30 8742 C 824.586 5.21544 -0.280875 0
M  V30 8743 H 826.28 2.9618 -0.43795 0
M  V30 8744 H 823.826 1.4243 -0.212062 0
M  V30 8745 H 825.779 3.78305 1.85643 0
M  V30 8746 H 824.503 2.55346 2.03632 0
M  V30 8747 H 823.162 3.65979 0.213231 0
M  V30 8748 H 822.81 4.30338 2.60419 0
M  V30 8749 H 822.51 5.67821 1.51173 0
M  V30 8750 H 824.034 5.59702 2.44061 0
M  V30 8751 H 825.448 5.73039 0.173095 0
M  V30 8752 H 823.845 5.97291 -0.580006 0
M  V30 8753 H 824.915 4.69969 -1.19404 0
M  V30 8754 N 826.258 0.243083 1.55714 0
M  V30 8755 C 827.504 -0.383287 1.99145 0
M  V30 8756 C 827.837 -1.57868 1.13098 0
M  V30 8757 O 827.112 -1.93535 0.193509 0
M  V30 8758 C 827.395 -0.796879 3.51172 0
M  V30 8759 C 827.248 0.403642 4.47985 0
M  V30 8760 C 828.567 -1.64525 4.08191 0
M  V30 8761 H 825.686 -0.137843 0.723995 0
M  V30 8762 H 828.328 0.343631 1.86867 0
M  V30 8763 H 826.478 -1.41625 3.61766 0
M  V30 8764 H 828.15 1.04204 4.49376 0
M  V30 8765 H 826.393 1.04741 4.20965 0
M  V30 8766 H 827.064 0.0709794 5.51954 0
M  V30 8767 H 829.54 -1.12246 4.00674 0
M  V30 8768 H 828.416 -1.9035 5.14838 0
M  V30 8769 H 828.677 -2.61582 3.56409 0
M  V30 8770 N 827.736 -1.57571 -0.0300757 0
M  V30 8771 C 828.976 -1.91074 -0.725946 0
M  V30 8772 C 829.34 -0.841545 -1.72575 0
M  V30 8773 O 830.541 -1.06088 -2.46979 0
M  V30 8774 C 828.812 -3.2973 -1.37888 0
M  V30 8775 S 830.371 -3.85065 -2.10405 0
M  V30 8776 H 827.189 -0.669084 -0.240515 0
M  V30 8777 H 829.791 -1.9549 0.019384 0
M  V30 8778 H 828.495 -4.05411 -0.637974 0
M  V30 8779 H 828.026 -3.28614 -2.16278 0
M  V30 8780 H 830.041 -3.63711 -3.37533 0
M  V30 8781 N 829.214 0.302327 -1.54673 0
M  V30 8782 C 830.161 1.37282 -1.85532 0
M  V30 8783 C 831.131 1.50437 -0.704129 0
M  V30 8784 O 832.316 1.65317 -0.952627 0
M  V30 8785 C 829.456 2.73309 -2.10704 0
M  V30 8786 C 828.569 2.68614 -3.38335 0
M  V30 8787 C 827.704 3.96626 -3.53357 0
M  V30 8788 C 826.743 3.86324 -4.74784 0
M  V30 8789 N 825.88 5.06109 -4.86619 0
M  V30 8790 H 830.72 1.10265 -2.76849 0
M  V30 8791 H 828.257 0.533346 -1.37091 0
M  V30 8792 H 830.215 3.52414 -2.23294 0
M  V30 8793 H 828.845 2.98589 -1.22656 0
M  V30 8794 H 827.897 1.81381 -3.34373 0
M  V30 8795 H 829.209 2.56891 -4.27561 0
M  V30 8796 H 828.363 4.84168 -3.65604 0
M  V30 8797 H 827.102 4.11182 -2.62261 0
M  V30 8798 H 826.107 2.97166 -4.62572 0
M  V30 8799 H 827.332 3.73315 -5.67286 0
M  V30 8800 H 825.278 5.2113 -3.98446 0
M  V30 8801 H 825.195 4.96804 -5.69844 0
M  V30 8802 H 826.463 5.95306 -5.03221 0
M  V30 8803 N 830.692 1.47107 0.565454 0
M  V30 8804 C 831.639 1.58974 1.6732 0
M  V30 8805 C 832.609 0.433146 1.60353 0
M  V30 8806 O 833.794 0.652141 1.79309 0
M  V30 8807 C 830.934 1.60224 3.05651 0
M  V30 8808 C 830.047 2.86741 3.23116 0
M  V30 8809 C 829.182 2.79381 4.51796 0
M  V30 8810 C 828.221 4.0076 4.62664 0
M  V30 8811 N 827.358 3.91685 5.8269 0
M  V30 8812 H 832.198 2.53588 1.56515 0
M  V30 8813 H 829.735 1.25791 0.762558 0
M  V30 8814 H 831.693 1.58933 3.85741 0
M  V30 8815 H 830.323 0.691285 3.15311 0
M  V30 8816 H 829.375 2.97936 2.36513 0
M  V30 8817 H 830.687 3.7665 3.27011 0
M  V30 8818 H 829.841 2.76293 5.40136 0
M  V30 8819 H 828.58 1.87142 4.50366 0
M  V30 8820 H 827.585 4.04162 3.72738 0
M  V30 8821 H 828.81 4.94117 4.6586 0
M  V30 8822 H 826.756 3.02243 5.82224 0
M  V30 8823 H 826.673 4.75264 5.87929 0
M  V30 8824 H 827.941 3.92599 6.73414 0
M  V30 8825 N 832.17 -0.811516 1.35101 0
M  V30 8826 C 833.418 -1.56525 1.27845 0
M  V30 8827 C 833.739 -1.94435 -0.14829 0
M  V30 8828 O 833.009 -1.63203 -1.08359 0
M  V30 8829 H 831.589 -0.580433 0.47022 0
M  V30 8830 H 834.251 -0.968277 1.69146 0
M  V30 8831 H 833.347 -2.48291 1.89097 0
M  V30 8832 N 833.648 -1.19017 -1.03309 0
M  V30 8833 C 834.894 -0.991681 -1.769 0
M  V30 8834 C 835.227 0.476813 -1.88255 0
M  V30 8835 O 834.502 1.35407 -1.39625 0
M  V30 8836 C 834.785 -1.65627 -3.19749 0
M  V30 8837 C 834.638 -3.19813 -3.1629 0
M  V30 8838 C 835.957 -1.37579 -4.18043 0
M  V30 8839 H 833.076 -0.361674 -0.642153 0
M  V30 8840 H 835.718 -1.46795 -1.20628 0
M  V30 8841 H 833.868 -1.25132 -3.67796 0
M  V30 8842 H 835.54 -3.69494 -2.76174 0
M  V30 8843 H 833.783 -3.51578 -2.54117 0
M  V30 8844 H 834.454 -3.61457 -4.17196 0
M  V30 8845 H 836.93 -1.72679 -3.78578 0
M  V30 8846 H 835.806 -1.86636 -5.16196 0
M  V30 8847 H 836.067 -0.300118 -4.4108 0
M  V30 8848 N 835.127 1.22348 -0.993418 0
M  V30 8849 C 836.057 2.26584 -0.564088 0
M  V30 8850 C 837.038 1.65102 0.409298 0
M  V30 8851 O 838.223 1.91872 0.299819 0
M  V30 8852 C 835.353 3.47087 0.121554 0
M  V30 8853 C 834.307 4.21009 -0.770429 0
M  V30 8854 C 833.633 5.34678 0.0481586 0
M  V30 8855 C 834.933 4.79636 -2.06752 0
M  V30 8856 H 836.627 2.62749 -1.43538 0
M  V30 8857 H 834.173 1.26303 -0.691628 0
M  V30 8858 H 836.126 4.19166 0.433303 0
M  V30 8859 H 834.85 3.1002 1.0274 0
M  V30 8860 H 833.509 3.50764 -1.06583 0
M  V30 8861 H 833.157 4.93852 0.954933 0
M  V30 8862 H 832.857 5.85061 -0.545641 0
M  V30 8863 H 834.381 6.09573 0.353991 0
M  V30 8864 H 835.795 5.43654 -1.81969 0
M  V30 8865 H 834.192 5.4036 -2.61019 0
M  V30 8866 H 835.262 3.99659 -2.74592 0
M  V30 8867 N 836.605 0.766683 1.37694 0
M  V30 8868 C 837.553 0.137269 2.32195 0
M  V30 8869 C 838.547 -0.69067 1.54681 0
M  V30 8870 O 839.753 -0.588299 1.70115 0
M  V30 8871 H 836.128 0.0256003 0.751564 0
M  V30 8872 H 838.099 0.950129 2.82869 0
M  V30 8873 C 836.848 -0.731446 3.39919 0
M  V30 8874 H 836.171 -0.103738 3.99665 0
M  V30 8875 H 837.611 -1.13891 4.08417 0
M  V30 8876 C 836.07 -1.87984 2.79578 0
M  V30 8877 O 836.6 -2.97496 2.69924 0
M  V30 8878 N 834.806 -1.6789 2.37195 0
M  V30 8879 H 834.353 -0.788162 2.45246 0
M  V30 8880 H 834.311 -2.44894 1.97165 0
M  V30 8881 N 838.083 -1.48885 0.516809 0
M  V30 8882 C 839.046 -2.27916 -0.242256 0
M  V30 8883 C 840.046 -1.34601 -0.879735 0
M  V30 8884 O 841.236 -1.57616 -0.74182 0
M  V30 8885 C 838.368 -3.13067 -1.34914 0
M  V30 8886 H 839.561 -2.96483 0.451444 0
M  V30 8887 H 837.114 -1.5391 0.272294 0
M  V30 8888 H 837.849 -2.49102 -2.07651 0
M  V30 8889 H 837.634 -3.81695 -0.897313 0
M  V30 8890 H 839.124 -3.72716 -1.88341 0
M  V30 8891 N 839.561 -0.251338 -1.55583 0
M  V30 8892 C 840.838 0.422729 -1.90977 0
M  V30 8893 C 841.218 1.75534 -1.17265 0
M  V30 8894 O 840.566 2.26632 -0.291588 0
M  V30 8895 C 840.776 0.586448 -3.44037 0
M  V30 8896 C 842.124 0.880294 -4.15375 0
M  V30 8897 O 843.148 0.672148 -3.49801 0
M  V30 8898 O 842.007 1.27694 -5.31372 0
M  V30 8899 H 839.101 0.227622 -0.795058 0
M  V30 8900 H 841.647 -0.295733 -1.67103 0
M  V30 8901 H 840.419 -0.352327 -3.89711 0
M  V30 8902 H 840.042 1.35528 -3.73789 0
M  V30 8903 N 841.039 1.57585 0.0217189 0
M  V30 8904 C 842.287 1.89231 0.709641 0
M  V30 8905 C 842.608 0.849964 1.75501 0
M  V30 8906 O 841.878 -0.115485 1.95559 0
M  V30 8907 H 840.458 0.69838 0.265092 0
M  V30 8908 H 843.12 1.94895 -0.0140688 0
M  V30 8909 H 842.216 2.88333 1.19459 0
M  V30 8910 N 842.517 -0.29412 1.54831 0
M  V30 8911 C 843.745 -1.04724 1.78439 0
M  V30 8912 C 844.16 -1.80695 0.547239 0
M  V30 8913 O 843.517 -1.75989 -0.483141 0
M  V30 8914 C 843.568 -2.02242 2.99634 0
M  V30 8915 O 843.289 -1.29352 4.18568 0
M  V30 8916 C 844.79 -2.89537 3.35683 0
M  V30 8917 H 842.01 -0.310285 0.594949 0
M  V30 8918 H 844.554 -0.331306 2.01798 0
M  V30 8919 H 842.709 -2.69328 2.78462 0
M  V30 8920 H 843.123 -1.94901 4.86943 0
M  V30 8921 H 844.597 -3.538 4.23709 0
M  V30 8922 H 845.074 -3.58201 2.54143 0
M  V30 8923 H 845.68 -2.27973 3.59038 0
M  V30 8924 N 843.995 -1.47404 -0.557645 0
M  V30 8925 C 844.927 -1.55917 -1.67995 0
M  V30 8926 C 845.94 -0.445411 -1.56588 0
M  V30 8927 O 847.129 -0.714999 -1.63554 0
M  V30 8928 C 844.229 -1.44697 -3.06457 0
M  V30 8929 C 843.402 -2.70633 -3.43622 0
M  V30 8930 C 842.461 -2.53256 -4.61246 0
M  V30 8931 O 841.487 -3.27068 -4.65849 0
M  V30 8932 N 842.689 -1.61053 -5.57711 0
M  V30 8933 H 845.454 -2.52694 -1.61139 0
M  V30 8934 H 843.015 -1.43778 -0.744271 0
M  V30 8935 H 845.007 -1.30806 -3.82978 0
M  V30 8936 H 843.577 -0.560039 -3.07542 0
M  V30 8937 H 842.797 -2.99288 -2.56555 0
M  V30 8938 H 844.085 -3.5424 -3.65228 0
M  V30 8939 H 843.483 -1.00235 -5.56749 0
M  V30 8940 H 842.04 -1.53115 -6.33561 0
M  V30 8941 N 845.473 0.80434 -1.35529 0
M  V30 8942 C 846.42 1.91629 -1.28635 0
M  V30 8943 C 847.39 1.65348 -0.157862 0
M  V30 8944 O 848.575 1.87711 -0.341934 0
M  V30 8945 C 845.715 3.28207 -1.0665 0
M  V30 8946 C 844.828 3.66659 -2.28441 0
M  V30 8947 C 843.963 4.92279 -1.99588 0
M  V30 8948 C 843.002 5.23365 -3.1742 0
M  V30 8949 N 842.139 6.40165 -2.88328 0
M  V30 8950 H 846.979 1.96858 -2.23721 0
M  V30 8951 H 844.516 0.962871 -1.11208 0
M  V30 8952 H 846.474 4.06945 -0.919343 0
M  V30 8953 H 845.104 3.22441 -0.152253 0
M  V30 8954 H 844.156 2.83164 -2.54013 0
M  V30 8955 H 845.468 3.8559 -3.1642 0
M  V30 8956 H 844.622 5.78847 -1.81715 0
M  V30 8957 H 843.361 4.75387 -1.08896 0
M  V30 8958 H 842.366 4.35285 -3.35867 0
M  V30 8959 H 843.591 5.42185 -4.08916 0
M  V30 8960 H 841.537 6.24694 -2.00233 0
M  V30 8961 H 841.454 6.59357 -3.69843 0
M  V30 8962 H 842.722 7.29755 -2.74002 0
M  V30 8963 N 846.951 1.19563 1.02676 0
M  V30 8964 C 848.199 0.997593 1.75763 0
M  V30 8965 C 848.52 -0.47253 1.89188 0
M  V30 8966 O 847.79 -1.34214 1.42701 0
M  V30 8967 H 846.37 0.366128 0.651122 0
M  V30 8968 H 849.032 1.50495 1.23844 0
M  V30 8969 H 848.128 1.44741 2.76508 0
M  V30 8970 N 848.429 -1.21819 0.999893 0
M  V30 8971 C 849.678 -1.90066 0.675108 0
M  V30 8972 C 849.991 -1.78624 -0.79705 0
M  V30 8973 O 851.197 -2.41851 -1.23371 0
M  V30 8974 C 849.653 -3.40795 1.15702 0
M  V30 8975 C 849.261 -3.60859 2.6549 0
M  V30 8976 C 851.005 -4.147 0.906889 0
M  V30 8977 C 848.912 -5.05324 3.07248 0
M  V30 8978 H 847.842 -0.711763 0.248815 0
M  V30 8979 H 850.493 -1.3792 1.21038 0
M  V30 8980 H 848.875 -3.92164 0.549832 0
M  V30 8981 H 850.049 -3.19951 3.31614 0
M  V30 8982 H 848.364 -3.00298 2.88461 0
M  V30 8983 H 850.961 -5.21187 1.1945 0
M  V30 8984 H 851.304 -4.16004 -0.156923 0
M  V30 8985 H 851.837 -3.69379 1.47662 0
M  V30 8986 H 848.576 -5.09164 4.12834 0
M  V30 8987 H 848.096 -5.47108 2.45832 0
M  V30 8988 H 849.775 -5.73797 2.98941 0
M  V30 8989 N 849.908 -0.773975 -1.37286 0
M  V30 8990 C 851.185 -0.263942 -1.93811 0
M  V30 8991 C 851.565 1.24138 -1.70743 0
M  V30 8992 O 850.913 2.02557 -1.05749 0
M  V30 8993 C 851.123 -0.639753 -3.43086 0
M  V30 8994 C 852.471 -0.610796 -4.20184 0
M  V30 8995 O 853.495 -0.579278 -3.51458 0
M  V30 8996 O 852.354 -0.639862 -5.42741 0
M  V30 8997 H 849.448 -0.0614331 -0.824715 0
M  V30 8998 H 851.994 -0.855477 -1.46559 0
M  V30 8999 H 850.766 -1.67856 -3.53469 0
M  V30 9000 H 850.389 -0.0212827 -3.97594 0
M  V30 9001 N 851.386 1.48609 -0.524698 0
M  V30 9002 C 852.333 2.29539 0.240956 0
M  V30 9003 C 853.303 1.37033 0.938681 0
M  V30 9004 O 854.488 1.65996 0.940737 0
M  V30 9005 C 851.628 3.20278 1.28514 0
M  V30 9006 C 850.741 4.27858 0.596798 0
M  V30 9007 C 849.876 5.05784 1.62346 0
M  V30 9008 C 848.915 6.05173 0.918287 0
M  V30 9009 N 848.052 6.76176 1.89025 0
M  V30 9010 H 852.892 2.945 -0.455368 0
M  V30 9011 H 850.429 1.45188 -0.236403 0
M  V30 9012 H 852.387 3.71281 1.90279 0
M  V30 9013 H 851.017 2.57251 1.94992 0
M  V30 9014 H 850.069 3.80162 -0.134668 0
M  V30 9015 H 851.381 4.98782 0.0428506 0
M  V30 9016 H 850.535 5.60775 2.31553 0
M  V30 9017 H 849.274 4.34687 2.2113 0
M  V30 9018 H 848.279 5.49391 0.21212 0
M  V30 9019 H 849.504 6.78265 0.336633 0
M  V30 9020 H 847.45 6.07834 2.46726 0
M  V30 9021 H 847.367 7.43157 1.3876 0
M  V30 9022 H 848.635 7.35759 2.57446 0
M  V30 9023 N 852.864 0.259585 1.55447 0
M  V30 9024 C 853.774 -0.645026 2.25558 0
M  V30 9025 C 854.79 -1.18291 1.27606 0
M  V30 9026 O 855.966 -1.21649 1.6051 0
M  V30 9027 C 853.031 -1.81964 2.9511 0
M  V30 9028 C 852.092 -1.31997 4.08504 0
M  V30 9029 C 851.325 -2.43861 4.74729 0
M  V30 9030 O 851.548 -3.62876 4.40088 0
M  V30 9031 O 850.482 -2.12898 5.6299 0
M  V30 9032 H 854.308 -0.0775399 3.03601 0
M  V30 9033 H 851.893 0.0275859 1.49375 0
M  V30 9034 H 853.775 -2.50485 3.38873 0
M  V30 9035 H 852.45 -2.37451 2.19997 0
M  V30 9036 H 851.357 -0.601676 3.6923 0
M  V30 9037 H 852.69 -0.811045 4.85472 0
M  V30 9038 N 854.342 -1.57594 -0.0133615 0
M  V30 9039 C 855.589 -1.8998 -0.70098 0
M  V30 9040 C 855.917 -0.858802 -1.74513 0
M  V30 9041 O 855.172 0.138209 -1.95211 0
M  V30 9042 C 855.471 -3.29121 -1.39336 0
M  V30 9043 C 855.137 -4.48298 -0.483687 0
M  V30 9044 C 853.799 -4.80635 -0.233186 0
M  V30 9045 C 856.151 -5.21003 0.143426 0
M  V30 9046 C 853.479 -5.83055 0.652943 0
M  V30 9047 C 855.831 -6.24366 1.01735 0
M  V30 9048 C 854.495 -6.55168 1.27716 0
M  V30 9049 H 853.765 -0.695187 -0.256507 0
M  V30 9050 H 856.412 -1.9146 0.0392965 0
M  V30 9051 H 854.717 -3.23703 -2.20735 0
M  V30 9052 H 856.414 -3.51433 -1.93121 0
M  V30 9053 H 853.004 -4.23024 -0.689092 0
M  V30 9054 H 857.188 -4.96286 -0.0371139 0
M  V30 9055 H 852.444 -6.05288 0.862379 0
M  V30 9056 H 856.618 -6.79839 1.5097 0
M  V30 9057 H 854.245 -7.34351 1.9655 0
M  V30 9058 N 855.82 0.285905 -1.54985 0
M  V30 9059 C 857.05 1.03626 -1.78732 0
M  V30 9060 C 857.458 1.80896 -0.554377 0
M  V30 9061 O 856.801 1.77161 0.48578 0
M  V30 9062 C 856.863 2.05185 -2.95193 0
M  V30 9063 C 856.527 1.46973 -4.32722 0
M  V30 9064 C 857.524 0.891986 -5.12191 0
M  V30 9065 C 855.209 1.50081 -4.79355 0
M  V30 9066 C 857.203 0.353078 -6.36421 0
M  V30 9067 C 854.89 0.958037 -6.03544 0
M  V30 9068 C 855.888 0.385157 -6.81913 0
M  V30 9069 O 855.576 -0.149341 -8.03761 0
M  V30 9070 H 855.308 0.312416 -0.599477 0
M  V30 9071 H 857.862 0.326067 -2.02795 0
M  V30 9072 H 856.092 2.79928 -2.66791 0
M  V30 9073 H 857.781 2.66244 -3.0638 0
M  V30 9074 H 858.547 0.860762 -4.77301 0
M  V30 9075 H 854.426 1.9361 -4.18373 0
M  V30 9076 H 857.97 -0.0947181 -6.97536 0
M  V30 9077 H 853.867 0.986458 -6.37918 0
M  V30 9078 H 854.635 -0.0374719 -8.18491 0
M  V30 9079 N 857.298 1.47698 0.54982 0
M  V30 9080 C 858.228 1.63622 1.66583 0
M  V30 9081 C 859.209 0.485477 1.63025 0
M  V30 9082 O 860.394 0.715692 1.80531 0
M  V30 9083 C 857.524 1.65721 3.05211 0
M  V30 9084 C 856.478 2.80097 3.2362 0
M  V30 9085 C 855.804 2.67272 4.63109 0
M  V30 9086 C 857.104 4.21612 3.08286 0
M  V30 9087 H 858.798 2.57049 1.53512 0
M  V30 9088 H 856.344 1.23705 0.737099 0
M  V30 9089 H 858.297 1.75451 3.83138 0
M  V30 9090 H 857.021 0.688593 3.19258 0
M  V30 9091 H 855.68 2.69889 2.48104 0
M  V30 9092 H 855.328 1.68422 4.73965 0
M  V30 9093 H 855.028 3.44008 4.76374 0
M  V30 9094 H 856.552 2.78942 5.43161 0
M  V30 9095 H 857.966 4.32758 3.76024 0
M  V30 9096 H 856.363 4.99193 3.33057 0
M  V30 9097 H 857.433 4.39462 2.04942 0
M  V30 9098 N 858.776 -0.797141 1.35954 0
M  V30 9099 C 859.706 -1.92387 1.32323 0
M  V30 9100 C 860.687 -1.68967 0.196007 0
M  V30 9101 O 861.872 -1.90193 0.39245 0
M  V30 9102 C 859.002 -3.29286 1.10398 0
M  V30 9103 C 857.956 -3.67212 2.19862 0
M  V30 9104 C 857.282 -5.02377 1.8309 0
M  V30 9105 C 858.582 -3.76602 3.61896 0
M  V30 9106 H 860.276 -1.95683 2.26602 0
M  V30 9107 H 857.822 -0.94007 1.09081 0
M  V30 9108 H 859.775 -4.07721 1.06495 0
M  V30 9109 H 858.499 -3.26358 0.125668 0
M  V30 9110 H 857.158 -2.91069 2.22878 0
M  V30 9111 H 856.806 -4.95961 0.838527 0
M  V30 9112 H 856.506 -5.28722 2.56372 0
M  V30 9113 H 858.03 -5.8324 1.80729 0
M  V30 9114 H 859.444 -4.45246 3.6115 0
M  V30 9115 H 857.841 -4.14425 4.34018 0
M  V30 9116 H 858.911 -2.77906 3.97361 0
M  V30 9117 N 860.254 -1.20106 -1.0204 0
M  V30 9118 C 861.501 -1.00889 -1.75578 0
M  V30 9119 C 861.829 0.459415 -1.88996 0
M  V30 9120 O 861.084 1.35735 -1.40977 0
M  V30 9121 C 861.383 -1.63308 -3.17908 0
M  V30 9122 C 861.049 -3.13091 -3.24476 0
M  V30 9123 C 859.711 -3.53968 -3.25976 0
M  V30 9124 C 862.063 -4.09093 -3.22944 0
M  V30 9125 C 859.391 -4.89381 -3.2361 0
M  V30 9126 C 861.743 -5.44447 -3.22119 0
M  V30 9127 C 860.407 -5.84742 -3.2192 0
M  V30 9128 H 859.677 -0.36918 -0.642485 0
M  V30 9129 H 862.324 -1.49475 -1.19706 0
M  V30 9130 H 860.629 -1.06974 -3.76914 0
M  V30 9131 H 862.326 -1.45958 -3.73493 0
M  V30 9132 H 858.916 -2.80526 -3.24042 0
M  V30 9133 H 863.1 -3.78549 -3.20958 0
M  V30 9134 H 858.356 -5.1987 -3.21785 0
M  V30 9135 H 862.53 -6.18584 -3.19885 0
M  V30 9136 H 860.157 -6.89642 -3.19841 0
M  V30 9137 N 861.732 1.21287 -1.00634 0
M  V30 9138 C 862.96 1.94385 -0.708678 0
M  V30 9139 C 863.375 1.7416 0.728957 0
M  V30 9140 O 862.732 1.04906 1.49335 0
M  V30 9141 C 862.783 3.46755 -1.02193 0
M  V30 9142 O 862.504 3.6631 -2.40309 0
M  V30 9143 C 864.005 4.37014 -0.743867 0
M  V30 9144 H 861.225 0.618136 -0.261052 0
M  V30 9145 H 863.769 1.54067 -1.34475 0
M  V30 9146 H 861.924 3.8499 -0.431441 0
M  V30 9147 H 862.338 4.60393 -2.51274 0
M  V30 9148 H 863.812 5.42621 -1.01321 0
M  V30 9149 H 864.289 4.38017 0.322084 0
M  V30 9150 H 864.895 4.04426 -1.31603 0
M  V30 9151 N 863.21 0.781244 1.36873 0
M  V30 9152 C 864.456 0.350407 1.9975 0
M  V30 9153 C 864.789 -1.07293 1.6187 0
M  V30 9154 O 864.064 -1.73983 0.869491 0
M  V30 9155 C 864.347 0.504834 3.56544 0
M  V30 9156 C 864.2 1.97127 4.04303 0
M  V30 9157 C 865.519 -0.0851272 4.40018 0
M  V30 9158 H 862.638 0.128794 0.725659 0
M  V30 9159 H 865.28 0.98606 1.6241 0
M  V30 9160 H 863.43 -0.0363006 3.88483 0
M  V30 9161 H 865.102 2.57284 3.82887 0
M  V30 9162 H 863.345 2.47676 3.56145 0
M  V30 9163 H 864.016 2.03033 5.13305 0
M  V30 9164 H 866.492 0.376704 4.14391 0
M  V30 9165 H 865.368 0.0530015 5.48874 0
M  V30 9166 H 865.629 -1.17642 4.2616 0
M  V30 9167 N 864.689 -1.48329 0.532571 0
M  V30 9168 C 865.936 -2.025 -0.000582356 0
M  V30 9169 C 866.264 -1.40942 -1.34036 0
M  V30 9170 O 865.519 -0.545545 -1.87942 0
M  V30 9171 C 865.818 -3.57 -0.168943 0
M  V30 9172 C 865.484 -4.37357 1.0968 0
M  V30 9173 C 864.146 -4.59033 1.44369 0
M  V30 9174 C 866.498 -4.83882 1.93669 0
M  V30 9175 C 863.826 -5.24481 2.62939 0
M  V30 9176 C 866.178 -5.50637 3.11419 0
M  V30 9177 C 864.842 -5.70551 3.46451 0
M  V30 9178 H 864.112 -0.741 -0.000213099 0
M  V30 9179 H 866.759 -1.78282 0.699117 0
M  V30 9180 H 865.064 -3.80072 -0.951429 0
M  V30 9181 H 866.761 -3.9654 -0.596422 0
M  V30 9182 H 863.351 -4.20748 0.816655 0
M  V30 9183 H 867.535 -4.66936 1.6818 0
M  V30 9184 H 862.791 -5.38096 2.9028 0
M  V30 9185 H 866.965 -5.85655 3.76803 0
M  V30 9186 H 864.592 -6.21037 4.38425 0
M  V30 9187 N 866.167 -0.267825 -1.55308 0
M  V30 9188 C 867.444 0.402449 -1.91415 0
M  V30 9189 C 867.824 1.7428 -1.1912 0
M  V30 9190 O 867.172 2.2631 -0.315609 0
M  V30 9191 C 867.382 0.549926 -3.4464 0
M  V30 9192 C 868.73 0.836188 -4.16285 0
M  V30 9193 O 869.754 0.635009 -3.50494 0
M  V30 9194 O 868.613 1.22051 -5.32697 0
M  V30 9195 H 865.707 0.219177 -0.797427 0
M  V30 9196 H 868.253 -0.313439 -1.6678 0
M  V30 9197 H 867.025 -0.393641 -3.89315 0
M  V30 9198 H 866.648 1.31556 -3.75205 0
M  V30 9199 N 867.645 1.57599 0.00500368 0
M  V30 9200 C 868.555 2.11532 1.01446 0
M  V30 9201 C 869.571 1.05941 1.3803 0
M  V30 9202 O 870.747 1.37815 1.46864 0
M  V30 9203 C 867.812 2.60382 2.28915 0
M  V30 9204 C 866.873 3.80554 1.98689 0
M  V30 9205 C 866.106 4.27064 3.20081 0
M  V30 9206 O 866.329 3.72939 4.31593 0
M  V30 9207 O 865.263 5.1927 3.04371 0
M  V30 9208 H 869.089 2.97993 0.586011 0
M  V30 9209 H 866.674 1.47718 0.223519 0
M  V30 9210 H 868.556 2.92024 3.03809 0
M  V30 9211 H 867.231 1.77022 2.71007 0
M  V30 9212 H 866.138 3.53893 1.21286 0
M  V30 9213 H 867.471 4.64972 1.61437 0
M  V30 9214 N 869.123 -0.277682 1.55134 0
M  V30 9215 C 870.071 -1.36305 1.88478 0
M  V30 9216 C 871.065 -1.51362 0.760654 0
M  V30 9217 O 872.271 -1.53202 0.944943 0
M  V30 9218 H 868.646 -0.45577 0.598146 0
M  V30 9219 H 870.617 -1.05431 2.79154 0
M  V30 9220 C 869.366 -2.71739 2.16918 0
M  V30 9221 H 868.689 -2.60942 3.02901 0
M  V30 9222 H 870.129 -3.46635 2.44172 0
M  V30 9223 C 868.588 -3.22476 0.975239 0
M  V30 9224 O 869.118 -4.01164 0.207497 0
M  V30 9225 N 867.324 -2.80097 0.774219 0
M  V30 9226 H 866.871 -2.16221 1.40022 0
M  V30 9227 H 866.829 -3.14392 -0.023021 0
M  V30 9228 N 870.601 -1.47988 -0.541979 0
M  V30 9229 C 871.531 -1.64503 -1.65713 0
M  V30 9230 C 872.512 -0.494116 -1.62765 0
M  V30 9231 O 873.697 -0.725256 -1.80149 0
M  V30 9232 C 870.827 -1.67337 -3.04328 0
M  V30 9233 C 869.781 -2.81809 -3.2213 0
M  V30 9234 C 869.107 -2.69724 -4.61685 0
M  V30 9235 C 870.407 -4.23241 -3.06046 0
M  V30 9236 H 872.101 -2.5786 -1.52147 0
M  V30 9237 H 869.647 -1.24094 -0.730529 0
M  V30 9238 H 871.6 -1.77481 -3.82202 0
M  V30 9239 H 870.324 -0.705514 -3.18889 0
M  V30 9240 H 868.983 -2.71201 -2.46669 0
M  V30 9241 H 868.631 -1.70934 -4.73065 0
M  V30 9242 H 868.331 -3.4653 -4.74543 0
M  V30 9243 H 869.855 -2.81818 -5.41674 0
M  V30 9244 H 871.269 -4.34746 -3.73723 0
M  V30 9245 H 869.666 -5.00952 -3.30405 0
M  V30 9246 H 870.736 -4.40543 -2.02609 0
M  V30 9247 N 872.079 0.78992 -1.36375 0
M  V30 9248 C 873.304 1.58389 -1.33895 0
M  V30 9249 C 873.729 1.8794 0.0774934 0
M  V30 9250 O 873.087 1.4785 1.0493 0
M  V30 9251 C 873.135 2.88201 -2.16732 0
M  V30 9252 O 872.239 3.81778 -1.55946 0
M  V30 9253 H 871.58 0.480471 -0.458305 0
M  V30 9254 H 874.11 0.979119 -1.79651 0
M  V30 9255 H 874.12 3.37475 -2.29292 0
M  V30 9256 H 872.795 2.66019 -3.19698 0
M  V30 9257 H 871.372 3.40371 -1.52323 0
M  V30 9258 N 873.557 1.20646 1.01402 0
M  V30 9259 C 874.973 0.961866 1.27359 0
M  V30 9260 C 875.173 -0.357083 1.98311 0
M  V30 9261 O 874.229 -1.08498 2.28001 0
M  V30 9262 C 875.542 2.14627 2.10609 0
M  V30 9263 C 877.09 2.18753 2.23866 0
M  V30 9264 C 877.565 3.36686 3.10494 0
M  V30 9265 N 879.056 3.36716 3.18083 0
M  V30 9266 C 879.791 4.24615 3.85343 0
M  V30 9267 N 879.287 5.22697 4.54708 0
M  V30 9268 N 881.08 4.12449 3.81893 0
M  V30 9269 H 873.231 2.05481 0.537721 0
M  V30 9270 H 875.494 0.899292 0.299963 0
M  V30 9271 H 875.2 3.10159 1.65814 0
M  V30 9272 H 875.074 2.12935 3.11349 0
M  V30 9273 H 877.461 1.23782 2.67885 0
M  V30 9274 H 877.542 2.24492 1.22626 0
M  V30 9275 H 877.186 4.31945 2.67181 0
M  V30 9276 H 877.116 3.28185 4.11828 0
M  V30 9277 H 879.607 2.65728 2.68695 0
M  V30 9278 H 879.92 5.86087 5.03708 0
M  V30 9279 H 878.265 5.26631 4.53525 0
M  V30 9280 H 881.456 3.35091 3.26851 0
M  V30 9281 H 881.629 4.81162 4.34035 0
M  V30 9282 N 875.035 -1.20752 1.01276 0
M  V30 9283 C 876.265 -1.93725 0.717934 0
M  V30 9284 C 876.673 -1.74769 -0.724732 0
M  V30 9285 O 876.016 -1.05642 -1.50285 0
M  V30 9286 C 876.078 -3.46196 0.968954 0
M  V30 9287 C 875.742 -3.88909 2.39998 0
M  V30 9288 C 876.739 -3.94982 3.38061 0
M  V30 9289 C 874.424 -4.21006 2.7397 0
M  V30 9290 C 876.418 -4.32558 4.68159 0
M  V30 9291 C 874.105 -4.58257 4.04282 0
M  V30 9292 C 875.103 -4.64004 5.01187 0
M  V30 9293 O 874.791 -5.00403 6.29168 0
M  V30 9294 H 874.523 -0.622663 0.263186 0
M  V30 9295 H 877.077 -1.54299 1.35577 0
M  V30 9296 H 875.307 -3.85728 0.273952 0
M  V30 9297 H 876.996 -4.00394 0.666312 0
M  V30 9298 H 877.762 -3.70353 3.13151 0
M  V30 9299 H 873.641 -4.15725 1.99233 0
M  V30 9300 H 877.185 -4.36959 5.43795 0
M  V30 9301 H 873.082 -4.82341 4.28973 0
M  V30 9302 H 873.85 -5.18409 6.33399 0
M  V30 9303 N 876.513 -0.788492 -1.36457 0
M  V30 9304 C 877.76 -0.360461 -1.99266 0
M  V30 9305 C 878.088 1.0676 -1.62581 0
M  V30 9306 O 877.343 1.75205 -0.871884 0
M  V30 9307 C 877.642 -0.470255 -3.54293 0
M  V30 9308 C 877.308 -1.85899 -4.10795 0
M  V30 9309 C 875.97 -2.23896 -4.25939 0
M  V30 9310 C 878.322 -2.76836 -4.41601 0
M  V30 9311 C 875.65 -3.52235 -4.69199 0
M  V30 9312 C 878.002 -4.04602 -4.86292 0
M  V30 9313 C 876.666 -4.42623 -4.99641 0
M  V30 9314 H 875.936 -0.131902 -0.729166 0
M  V30 9315 H 878.583 -1.00577 -1.62962 0
M  V30 9316 H 876.888 0.258559 -3.90946 0
M  V30 9317 H 878.585 -0.120119 -4.0082 0
M  V30 9318 H 875.175 -1.55372 -3.99447 0
M  V30 9319 H 879.359 -2.48735 -4.2947 0
M  V30 9320 H 874.615 -3.81565 -4.77722 0
M  V30 9321 H 878.789 -4.75182 -5.09092 0
M  V30 9322 H 876.416 -5.42125 -5.32921 0
M  V30 9323 N 877.991 1.48044 -0.54043 0
M  V30 9324 C 879.268 1.95523 0.0547302 0
M  V30 9325 C 879.648 1.48284 1.5025 0
M  V30 9326 O 878.996 0.714037 2.17057 0
M  V30 9327 C 879.206 3.48923 -0.0733393 0
M  V30 9328 C 880.554 4.24523 0.0806026 0
M  V30 9329 O 881.578 3.562 -5.58687e-05 0
M  V30 9330 O 880.437 5.45922 0.251216 0
M  V30 9331 H 877.531 0.823728 0.073493 0
M  V30 9332 H 880.077 1.5852 -0.605768 0
M  V30 9333 H 878.849 3.76059 -1.08144 0
M  V30 9334 H 878.472 3.92648 0.625536 0
M  V30 9335 N 879.47 0.276058 1.55163 0
M  V30 9336 C 880.38 -0.621066 2.2623 0
M  V30 9337 C 881.396 -1.16931 1.28853 0
M  V30 9338 O 882.572 -1.1994 1.61791 0
M  V30 9339 C 879.637 -1.78824 2.97023 0
M  V30 9340 C 878.698 -1.27657 4.09881 0
M  V30 9341 C 877.931 -2.38812 4.77289 0
M  V30 9342 O 878.154 -3.58188 4.43912 0
M  V30 9343 O 877.088 -2.06915 5.65217 0
M  V30 9344 H 880.914 -0.0453346 3.03666 0
M  V30 9345 H 878.499 0.0434275 1.49337 0
M  V30 9346 H 880.381 -2.46877 3.41511 0
M  V30 9347 H 879.056 -2.35104 2.22503 0
M  V30 9348 H 877.963 -0.56248 3.69847 0
M  V30 9349 H 879.296 -0.759509 4.86305 0
M  V30 9350 N 880.948 -1.576 0.00335426 0
M  V30 9351 C 881.896 -2.09759 -1.00517 0
M  V30 9352 C 882.89 -1.01833 -1.35375 0
M  V30 9353 O 884.096 -1.20294 -1.339 0
M  V30 9354 H 880.471 -0.669821 -0.341825 0
M  V30 9355 H 882.442 -2.93478 -0.539718 0
M  V30 9356 C 881.191 -2.6189 -2.28711 0
M  V30 9357 H 880.514 -3.44571 -2.02758 0
M  V30 9358 H 881.954 -3.02061 -2.97548 0
M  V30 9359 C 880.413 -1.53455 -2.99922 0
M  V30 9360 O 880.943 -0.919402 -3.91037 0
M  V30 9361 N 879.149 -1.2612 -2.61806 0
M  V30 9362 H 878.696 -1.76329 -1.87792 0
M  V30 9363 H 878.654 -0.537872 -3.09765 0
M  V30 9364 N 882.426 0.269451 -1.5528 0
M  V30 9365 C 883.675 0.998381 -1.75258 0
M  V30 9366 C 883.988 1.87321 -0.563034 0
M  V30 9367 O 885.194 2.63719 -0.645313 0
M  V30 9368 C 883.65 1.82505 -3.10193 0
M  V30 9369 C 883.258 0.99871 -4.36726 0
M  V30 9370 C 885.002 2.54807 -3.3952 0
M  V30 9371 C 882.909 1.81997 -5.627 0
M  V30 9372 H 881.839 0.376488 -0.653278 0
M  V30 9373 H 884.49 0.253909 -1.81735 0
M  V30 9374 H 882.872 2.61061 -2.97763 0
M  V30 9375 H 884.046 0.257064 -4.60082 0
M  V30 9376 H 882.361 0.390074 -4.14569 0
M  V30 9377 H 884.958 3.16662 -4.30847 0
M  V30 9378 H 885.301 3.25273 -2.59813 0
M  V30 9379 H 885.834 1.83278 -3.53064 0
M  V30 9380 H 882.573 1.15945 -6.45164 0
M  V30 9381 H 882.093 2.53749 -5.43481 0
M  V30 9382 H 883.772 2.39274 -6.0113 0
M  V30 9383 N 883.904 1.48273 0.534124 0
M  V30 9384 C 884.836 1.5857 1.65494 0
M  V30 9385 C 885.849 0.470266 1.5586 0
M  V30 9386 O 887.038 0.740928 1.62396 0
M  V30 9387 C 884.138 1.49554 3.04117 0
M  V30 9388 C 883.311 2.76066 3.39273 0
M  V30 9389 C 882.37 2.60562 4.57159 0
M  V30 9390 O 881.396 3.34438 4.60587 0
M  V30 9391 N 882.598 1.69906 5.55079 0
M  V30 9392 H 885.363 2.55226 1.57099 0
M  V30 9393 H 882.924 1.44944 0.721303 0
M  V30 9394 H 884.916 1.36882 3.80848 0
M  V30 9395 H 883.486 0.608895 3.06613 0
M  V30 9396 H 882.706 3.03332 2.51761 0
M  V30 9397 H 883.994 3.60006 3.59546 0
M  V30 9398 H 883.392 1.09079 5.55084 0
M  V30 9399 H 881.949 1.63175 6.31044 0
M  V30 9400 N 885.382 -0.782676 1.36792 0
M  V30 9401 C 886.329 -1.89558 1.31667 0
M  V30 9402 C 887.299 -1.65076 0.184147 0
M  V30 9403 O 888.484 -1.87143 0.371753 0
M  V30 9404 C 885.624 -3.26469 1.11858 0
M  V30 9405 C 884.737 -3.62978 2.34245 0
M  V30 9406 C 883.872 -4.89041 2.07394 0
M  V30 9407 C 882.911 -5.18249 3.25706 0
M  V30 9408 N 882.048 -6.35497 2.98476 0
M  V30 9409 H 886.888 -1.93274 2.26824 0
M  V30 9410 H 884.425 -0.945057 1.12726 0
M  V30 9411 H 886.383 -4.05431 0.983968 0
M  V30 9412 H 885.013 -3.22158 0.203531 0
M  V30 9413 H 884.065 -2.79087 2.58485 0
M  V30 9414 H 885.377 -3.80507 3.22514 0
M  V30 9415 H 884.531 -5.75883 1.90901 0
M  V30 9416 H 883.27 -4.73594 1.16446 0
M  V30 9417 H 882.275 -4.29887 3.4275 0
M  V30 9418 H 883.5 -5.35611 4.1749 0
M  V30 9419 H 881.446 -6.21429 2.10146 0
M  V30 9420 H 881.363 -6.5339 3.80286 0
M  V30 9421 H 882.631 -7.25304 2.85577 0
M  V30 9422 N 886.86 -1.21182 -1.00761 0
M  V30 9423 C 888.107 -1.02746 -1.74498 0
M  V30 9424 C 888.435 0.439344 -1.89473 0
M  V30 9425 O 887.69 1.34232 -1.42409 0
M  V30 9426 C 887.989 -1.6667 -3.16158 0
M  V30 9427 C 887.655 -3.16515 -3.21137 0
M  V30 9428 C 886.317 -3.57405 -3.22203 0
M  V30 9429 C 888.669 -4.12495 -3.18587 0
M  V30 9430 C 885.997 -4.92786 -3.18401 0
M  V30 9431 C 888.349 -5.47833 -3.16326 0
M  V30 9432 C 887.013 -5.88124 -3.157 0
M  V30 9433 H 886.283 -0.375974 -0.638533 0
M  V30 9434 H 888.93 -1.50736 -1.18114 0
M  V30 9435 H 887.235 -1.10966 -3.75758 0
M  V30 9436 H 888.932 -1.49911 -3.71924 0
M  V30 9437 H 885.522 -2.83947 -3.21048 0
M  V30 9438 H 889.706 -3.81932 -3.16925 0
M  V30 9439 H 884.962 -5.23253 -3.16253 0
M  V30 9440 H 889.136 -6.21942 -3.13306 0
M  V30 9441 H 886.763 -6.92995 -3.12508 0
M  V30 9442 N 888.338 1.20213 -1.01915 0
M  V30 9443 C 889.587 1.88968 -0.705261 0
M  V30 9444 C 889.9 1.79869 0.768531 0
M  V30 9445 O 891.106 2.43783 1.19508 0
M  V30 9446 C 889.562 3.38911 -1.21109 0
M  V30 9447 C 889.17 3.5659 -2.71197 0
M  V30 9448 C 890.914 4.13204 -0.97275 0
M  V30 9449 C 888.821 5.00372 -3.15248 0
M  V30 9450 H 887.751 0.707715 -0.260107 0
M  V30 9451 H 890.402 1.35977 -1.23217 0
M  V30 9452 H 888.784 3.9124 -0.612152 0
M  V30 9453 H 889.958 3.14635 -3.36662 0
M  V30 9454 H 888.273 2.95671 -2.93202 0
M  V30 9455 H 890.87 5.19221 -1.27726 0
M  V30 9456 H 891.213 4.16201 0.09072 0
M  V30 9457 H 891.746 3.66983 -1.5352 0
M  V30 9458 H 888.485 5.02532 -4.20882 0
M  V30 9459 H 888.005 5.43127 -2.54505 0
M  V30 9460 H 889.684 5.68969 -3.08032 0
M  V30 9461 N 889.816 0.795718 1.36037 0
M  V30 9462 C 891.062 0.380668 1.99806 0
M  V30 9463 C 891.417 -1.03783 1.62009 0
M  V30 9464 O 890.71 -1.70819 0.867831 0
M  V30 9465 C 890.904 0.489038 3.54038 0
M  V30 9466 C 890.733 1.91652 4.06817 0
M  V30 9467 C 889.503 2.54252 4.36674 0
M  V30 9468 C 891.701 2.87956 4.26129 0
M  V30 9469 N 889.683 3.88523 4.75314 0
M  V30 9470 C 891.054 4.07074 4.67644 0
M  V30 9471 C 893.109 2.8493 4.08313 0
M  V30 9472 C 891.812 5.23583 4.93208 0
M  V30 9473 C 893.838 4.00632 4.35027 0
M  V30 9474 C 893.2 5.18496 4.76804 0
M  V30 9475 H 889.299 0.186842 0.759351 0
M  V30 9476 H 891.883 1.03465 1.64933 0
M  V30 9477 H 890.054 -0.134893 3.88166 0
M  V30 9478 H 891.786 0.0496256 4.0467 0
M  V30 9479 H 888.541 2.05685 4.26604 0
M  V30 9480 H 888.965 4.57623 4.98909 0
M  V30 9481 H 893.607 1.94964 3.75165 0
M  V30 9482 H 891.325 6.14129 5.25234 0
M  V30 9483 H 894.911 3.99659 4.22805 0
M  V30 9484 H 893.791 6.06538 4.97073 0
M  V30 9485 N 891.294 -1.47756 0.548274 0
M  V30 9486 C 892.244 -2.26891 -0.224628 0
M  V30 9487 C 893.228 -1.33816 -0.893421 0
M  V30 9488 O 894.42 -1.58232 -0.793204 0
M  V30 9489 C 891.549 -3.19358 -1.25959 0
M  V30 9490 C 890.635 -4.1991 -0.594662 0
M  V30 9491 N 891.026 -5.04721 0.330148 0
M  V30 9492 C 889.324 -4.37832 -0.849672 0
M  V30 9493 C 890.025 -5.77282 0.71553 0
M  V30 9494 N 889.001 -5.43552 0.0723997 0
M  V30 9495 H 892.803 -2.89844 0.486561 0
M  V30 9496 H 890.317 -1.58185 0.367577 0
M  V30 9497 H 892.314 -3.74726 -1.82718 0
M  V30 9498 H 890.974 -2.57961 -1.97196 0
M  V30 9499 H 891.985 -5.13095 0.703811 0
M  V30 9500 H 888.662 -3.87612 -1.55123 0
M  V30 9501 H 890.052 -6.55512 1.47493 0
M  V30 9502 N 892.772 -0.284283 -1.55015 0
M  V30 9503 C 894.183 0.211681 -1.85496 0
M  V30 9504 C 894.534 1.54735 -1.2063 0
M  V30 9505 O 893.659 2.10594 -0.497918 0
M  V30 9506 C 894.254 0.390864 -3.36538 0
M  V30 9507 C 892.813 0.831055 -3.67111 0
M  V30 9508 C 891.96 -0.0703581 -2.77211 0
M  V30 9509 H 894.911 -0.505803 -1.50424 0
M  V30 9510 H 894.932 1.22803 -3.60138 0
M  V30 9511 H 894.444 -0.581409 -3.8372 0
M  V30 9512 H 892.545 1.81447 -3.25434 0
M  V30 9513 H 892.658 0.662026 -4.74504 0
M  V30 9514 H 891.022 0.447528 -2.50737 0
M  V30 9515 H 891.805 -1.03868 -3.2721 0
M  V30 9516 N 894.251 1.57596 -0.0117121 0
M  V30 9517 C 895.498 1.91071 0.670667 0
M  V30 9518 C 895.826 0.886457 1.73125 0
M  V30 9519 O 895.081 -0.107135 1.95407 0
M  V30 9520 C 895.38 3.31296 1.34082 0
M  V30 9521 C 895.046 4.49011 0.412305 0
M  V30 9522 C 893.708 4.80945 0.156691 0
M  V30 9523 C 896.06 5.20709 -0.226294 0
M  V30 9524 C 893.388 5.81943 -0.745619 0
M  V30 9525 C 895.74 6.22668 -1.11655 0
M  V30 9526 C 894.404 6.53053 -1.38123 0
M  V30 9527 H 893.674 0.69918 0.245415 0
M  V30 9528 H 896.321 1.91373 -0.0697511 0
M  V30 9529 H 894.626 3.27174 2.15557 0
M  V30 9530 H 896.323 3.54461 1.87506 0
M  V30 9531 H 892.913 4.24067 0.621705 0
M  V30 9532 H 897.097 4.96282 -0.0418456 0
M  V30 9533 H 892.353 6.03839 -0.958566 0
M  V30 9534 H 896.527 6.77351 -1.61767 0
M  V30 9535 H 894.154 7.31132 -2.08208 0
M  V30 9536 N 895.729 -0.261212 1.5542 0
M  V30 9537 C 896.954 -1.01341 1.80955 0
M  V30 9538 C 897.379 -1.78711 0.586849 0
M  V30 9539 O 896.737 -1.75266 -0.463837 0
M  V30 9540 C 896.785 -1.93835 3.04073 0
M  V30 9541 O 895.889 -3.02791 2.79985 0
M  V30 9542 H 895.23 -0.289123 0.597749 0
M  V30 9543 H 897.76 -0.286543 2.02584 0
M  V30 9544 H 897.77 -2.3557 3.33123 0
M  V30 9545 H 896.445 -1.36936 3.9271 0
M  V30 9546 H 895.022 -2.65287 2.62063 0
M  V30 9547 N 897.207 -1.48554 -0.526253 0
M  V30 9548 C 898.456 -1.56014 -1.27837 0
M  V30 9549 C 898.769 -0.240643 -1.94114 0
M  V30 9550 O 899.975 -0.193525 -2.70809 0
M  V30 9551 C 898.431 -2.75161 -2.31979 0
M  V30 9552 C 898.039 -4.13768 -1.71755 0
M  V30 9553 C 899.783 -2.91936 -3.08178 0
M  V30 9554 C 897.69 -5.24171 -2.7386 0
M  V30 9555 H 896.62 -0.58082 -0.480795 0
M  V30 9556 H 899.271 -1.74895 -0.555335 0
M  V30 9557 H 897.653 -2.49722 -3.07335 0
M  V30 9558 H 898.827 -4.49241 -1.02563 0
M  V30 9559 H 897.142 -4.02141 -1.08036 0
M  V30 9560 H 899.739 -3.71586 -3.84484 0
M  V30 9561 H 900.082 -2.01533 -3.64267 0
M  V30 9562 H 900.615 -3.17294 -2.39937 0
M  V30 9563 H 897.354 -6.16552 -2.22586 0
M  V30 9564 H 896.874 -4.93181 -3.41368 0
M  V30 9565 H 898.553 -5.52442 -3.36774 0
M  V30 9566 N 898.685 0.775411 -1.37205 0
M  V30 9567 C 899.962 1.5229 -1.22748 0
M  V30 9568 C 900.342 2.10327 0.180487 0
M  V30 9569 O 899.69 1.95206 1.18772 0
M  V30 9570 C 899.9 2.60671 -2.3206 0
M  V30 9571 C 901.248 3.28173 -2.6942 0
M  V30 9572 O 902.272 2.70963 -2.31208 0
M  V30 9573 O 901.131 4.31598 -3.3524 0
M  V30 9574 H 898.225 0.674326 -0.478762 0
M  V30 9575 H 900.771 0.812691 -1.48975 0
M  V30 9576 H 899.543 2.1588 -3.26361 0
M  V30 9577 H 899.166 3.39296 -2.07277 0
M  V30 9578 N 900.163 1.21714 1.00117 0
M  V30 9579 C 901.11 0.979837 2.08968 0
M  V30 9580 C 902.08 -0.0955324 1.65825 0
M  V30 9581 O 903.265 0.0523742 1.90728 0
M  V30 9582 C 900.405 0.554758 3.40612 0
M  V30 9583 C 899.518 1.69999 3.97145 0
M  V30 9584 C 898.653 1.2237 5.16913 0
M  V30 9585 C 897.692 2.34101 5.65564 0
M  V30 9586 N 896.829 1.87579 6.76579 0
M  V30 9587 H 901.669 1.91167 2.28602 0
M  V30 9588 H 899.206 0.952645 1.12085 0
M  V30 9589 H 901.164 0.289526 4.16194 0
M  V30 9590 H 899.794 -0.340073 3.21004 0
M  V30 9591 H 898.846 2.07976 3.18512 0
M  V30 9592 H 900.158 2.54074 4.29241 0
M  V30 9593 H 899.312 0.915358 5.99755 0
M  V30 9594 H 898.051 0.353045 4.8642 0
M  V30 9595 H 897.056 2.65734 4.81316 0
M  V30 9596 H 898.281 3.21669 5.98085 0
M  V30 9597 H 896.227 1.02863 6.47885 0
M  V30 9598 H 896.144 2.65225 7.07949 0
M  V30 9599 H 897.412 1.5979 7.62947 0
M  V30 9600 N 901.641 -1.19671 1.02551 0
M  V30 9601 C 902.551 -2.26441 0.613329 0
M  V30 9602 C 903.567 -1.70375 -0.353339 0
M  V30 9603 O 904.743 -2.0028 -0.212064 0
M  V30 9604 C 901.808 -3.46684 -0.0329028 0
M  V30 9605 C 900.869 -4.17945 0.980837 0
M  V30 9606 C 900.102 -5.32448 0.36535 0
M  V30 9607 O 900.325 -5.64291 -0.832596 0
M  V30 9608 O 899.259 -5.92012 1.08652 0
M  V30 9609 H 903.085 -2.63932 1.50246 0
M  V30 9610 H 900.67 -1.2646 0.795502 0
M  V30 9611 H 902.552 -4.1956 -0.393395 0
M  V30 9612 H 901.227 -3.1105 -0.896089 0
M  V30 9613 H 900.134 -3.47204 1.39286 0
M  V30 9614 H 901.467 -4.57542 1.81428 0
M  V30 9615 N 903.119 -0.802921 -1.35613 0
M  V30 9616 C 904.396 -0.304993 -1.93208 0
M  V30 9617 C 904.776 1.20488 -1.73337 0
M  V30 9618 O 904.124 2.00268 -1.10022 0
M  V30 9619 C 904.334 -0.712383 -3.41652 0
M  V30 9620 C 905.682 -0.699785 -4.18794 0
M  V30 9621 O 906.706 -0.653698 -3.5015 0
M  V30 9622 O 905.565 -0.754842 -5.41262 0
M  V30 9623 H 902.659 -0.0789127 -0.823226 0
M  V30 9624 H 905.205 -0.886372 -1.44712 0
M  V30 9625 H 903.977 -1.75316 -3.49829 0
M  V30 9626 H 903.6 -0.105614 -3.9746 0
M  V30 9627 N 904.597 1.47463 -0.556102 0
M  V30 9628 C 905.544 2.29998 0.192213 0
M  V30 9629 C 906.514 1.38993 0.909403 0
M  V30 9630 O 907.699 1.67954 0.905316 0
M  V30 9631 C 904.839 3.22932 1.21692 0
M  V30 9632 C 903.952 4.29027 0.505908 0
M  V30 9633 C 903.087 5.09114 1.51581 0
M  V30 9634 C 902.126 6.06984 0.789714 0
M  V30 9635 N 901.263 6.80033 1.74639 0
M  V30 9636 H 906.103 2.93468 -0.517734 0
M  V30 9637 H 903.64 1.44654 -0.267147 0
M  V30 9638 H 905.598 3.75234 1.8236 0
M  V30 9639 H 904.228 2.61329 1.89491 0
M  V30 9640 H 903.28 3.7979 -0.215276 0
M  V30 9641 H 904.592 4.9876 -0.062958 0
M  V30 9642 H 903.746 5.6556 2.19606 0
M  V30 9643 H 902.485 4.3928 2.11859 0
M  V30 9644 H 901.49 5.49717 0.0955382 0
M  V30 9645 H 902.715 6.78827 0.192688 0
M  V30 9646 H 900.661 6.12931 2.33777 0
M  V30 9647 H 900.578 7.45933 1.22965 0
M  V30 9648 H 901.846 7.41054 2.41782 0
M  V30 9649 N 906.075 0.2925 1.54862 0
M  V30 9650 C 906.985 -0.597036 2.26876 0
M  V30 9651 C 908.001 -1.15558 1.30086 0
M  V30 9652 O 909.177 -1.18217 1.63054 0
M  V30 9653 C 906.242 -1.75664 2.98903 0
M  V30 9654 C 905.303 -1.23303 4.11212 0
M  V30 9655 C 904.536 -2.33736 4.79795 0
M  V30 9656 O 904.759 -3.53459 4.47686 0
M  V30 9657 O 903.693 -2.00908 5.67379 0
M  V30 9658 H 907.519 -0.0131242 3.03697 0
M  V30 9659 H 905.104 0.0592642 1.49282 0
M  V30 9660 H 906.986 -2.43241 3.4411 0
M  V30 9661 H 905.661 -2.32731 2.24984 0
M  V30 9662 H 904.568 -0.523222 3.70423 0
M  V30 9663 H 905.901 -0.707887 4.87083 0
M  V30 9664 N 907.553 -1.57587 0.0200696 0
M  V30 9665 C 908.8 -1.91424 -0.660525 0
M  V30 9666 C 909.128 -0.895626 -1.72652 0
M  V30 9667 O 908.383 0.096771 -1.95461 0
M  V30 9668 C 908.682 -3.32002 -1.32323 0
M  V30 9669 C 908.348 -4.49223 -0.388487 0
M  V30 9670 C 907.01 -4.81021 -0.131184 0
M  V30 9671 C 909.362 -5.20581 0.253906 0
M  V30 9672 C 906.69 -5.81539 0.776471 0
M  V30 9673 C 909.042 -6.22067 1.14956 0
M  V30 9674 C 907.706 -6.52311 1.41584 0
M  V30 9675 H 906.976 -0.700472 -0.241703 0
M  V30 9676 H 909.623 -1.91333 0.0798991 0
M  V30 9677 H 907.928 -3.28312 -2.13819 0
M  V30 9678 H 909.625 -3.5545 -1.85623 0
M  V30 9679 H 906.215 -4.24391 -0.599207 0
M  V30 9680 H 910.399 -4.96253 0.068164 0
M  V30 9681 H 905.655 -6.03322 0.990575 0
M  V30 9682 H 909.829 -6.76484 1.65357 0
M  V30 9683 H 907.456 -7.30017 2.12083 0
M  V30 9684 N 909.032 0.252966 -1.55557 0
M  V30 9685 C 910.278 0.983306 -1.77367 0
M  V30 9686 C 910.611 1.85203 -0.584258 0
M  V30 9687 O 909.886 1.89963 0.417644 0
M  V30 9688 C 910.169 1.84896 -3.09007 0
M  V30 9689 C 910.022 1.00883 -4.38341 0
M  V30 9690 C 911.341 2.83254 -3.36831 0
M  V30 9691 H 908.46 0.356056 -0.645286 0
M  V30 9692 H 911.102 0.254232 -1.88291 0
M  V30 9693 H 909.252 2.47058 -2.99825 0
M  V30 9694 H 910.924 0.40638 -4.59507 0
M  V30 9695 H 909.167 0.31297 -4.3267 0
M  V30 9696 H 909.838 1.64818 -5.2682 0
M  V30 9697 H 912.314 2.31228 -3.45937 0
M  V30 9698 H 911.19 3.40949 -4.30169 0
M  V30 9699 H 911.451 3.59407 -2.57447 0
M  V30 9700 N 910.51 1.48831 0.518367 0
M  V30 9701 C 911.457 1.64216 1.62178 0
M  V30 9702 C 912.427 0.483942 1.58894 0
M  V30 9703 O 913.612 0.708857 1.77144 0
M  V30 9704 C 910.752 1.69867 3.00399 0
M  V30 9705 C 909.865 2.96875 3.1383 0
M  V30 9706 C 909 2.93613 4.42679 0
M  V30 9707 C 908.039 4.15276 4.4968 0
M  V30 9708 N 907.176 4.10024 5.69934 0
M  V30 9709 H 912.016 2.58439 1.48368 0
M  V30 9710 H 909.553 1.28154 0.722152 0
M  V30 9711 H 911.511 1.71124 3.8049 0
M  V30 9712 H 910.141 0.791249 3.12952 0
M  V30 9713 H 909.193 3.0531 2.26914 0
M  V30 9714 H 910.505 3.86863 3.14863 0
M  V30 9715 H 909.659 2.93337 5.31073 0
M  V30 9716 H 908.398 2.01375 4.44184 0
M  V30 9717 H 907.403 4.15816 3.59691 0
M  V30 9718 H 908.628 5.08687 4.49904 0
M  V30 9719 H 906.574 3.20613 5.72314 0
M  V30 9720 H 906.491 4.93728 5.72511 0
M  V30 9721 H 907.759 4.13824 6.60583 0
M  V30 9722 N 911.988 -0.768124 1.37614 0
M  V30 9723 C 913.213 -1.56239 1.36397 0
M  V30 9724 C 913.638 -1.8804 -0.0475839 0
M  V30 9725 O 912.996 -1.495 -1.02564 0
M  V30 9726 C 913.044 -2.84716 2.21289 0
M  V30 9727 O 912.148 -3.79249 1.62001 0
M  V30 9728 H 911.489 -0.473119 0.465891 0
M  V30 9729 H 914.019 -0.950415 1.81186 0
M  V30 9730 H 914.029 -3.33784 2.34632 0
M  V30 9731 H 912.704 -2.60899 3.2389 0
M  V30 9732 H 911.281 -3.37904 1.57719 0
M  V30 9733 N 913.466 -1.22244 -0.994698 0
M  V30 9734 C 914.414 -0.988118 -2.10568 0
M  V30 9735 C 915.408 0.0681541 -1.69263 0
M  V30 9736 O 916.614 -0.0841311 -1.79803 0
M  V30 9737 H 912.989 -0.302343 -0.688544 0
M  V30 9738 H 914.96 -1.93091 -2.27505 0
M  V30 9739 C 913.709 -0.580557 -3.42819 0
M  V30 9740 H 913.032 -1.385 -3.75044 0
M  V30 9741 H 914.472 -0.456004 -4.21541 0
M  V30 9742 C 912.931 0.709692 -3.2934 0
M  V30 9743 O 913.461 1.76259 -3.60965 0
M  V30 9744 N 911.667 0.680155 -2.82528 0
M  V30 9745 H 911.214 -0.176977 -2.56991 0
M  V30 9746 H 911.172 1.54372 -2.73892 0
M  V30 9747 N 914.944 1.19125 -1.03184 0
M  V30 9748 C 916.36 1.40909 -0.749447 0
M  V30 9749 C 916.56 1.9022 0.664729 0
M  V30 9750 O 915.616 2.08085 1.43028 0
M  V30 9751 C 916.929 2.41761 -1.78807 0
M  V30 9752 C 918.477 2.55503 -1.80796 0
M  V30 9753 C 918.952 3.59612 -2.83626 0
M  V30 9754 N 920.443 3.6711 -2.82461 0
M  V30 9755 C 921.178 4.47366 -3.5868 0
M  V30 9756 N 920.674 5.31302 -4.44623 0
M  V30 9757 N 922.467 4.42044 -3.47208 0
M  V30 9758 H 914.618 0.854399 -1.94458 0
M  V30 9759 H 916.881 0.437753 -0.840878 0
M  V30 9760 H 916.587 2.12559 -2.80199 0
M  V30 9761 H 916.461 3.40981 -1.61283 0
M  V30 9762 H 918.848 2.84027 -0.800803 0
M  V30 9763 H 918.929 1.56427 -2.02396 0
M  V30 9764 H 918.573 3.3183 -3.84515 0
M  V30 9765 H 918.503 4.58345 -2.59283 0
M  V30 9766 H 920.994 3.07166 -2.2013 0
M  V30 9767 H 921.307 5.89667 -4.99512 0
M  V30 9768 H 919.652 5.30753 -4.48694 0
M  V30 9769 H 922.843 3.75513 -2.79477 0
M  V30 9770 H 923.016 5.0435 -4.06859 0
M  V30 9771 N 916.422 0.810101 1.35185 0
M  V30 9772 C 917.355 0.168416 2.27578 0
M  V30 9773 C 918.333 -0.667664 1.4826 0
M  V30 9774 O 919.517 -0.634184 1.77512 0
M  V30 9775 C 916.644 -0.765994 3.29925 0
M  V30 9776 C 915.69 -0.00908802 4.26499 0
M  V30 9777 S 916.523 1.32936 5.18737 0
M  V30 9778 C 917.679 0.399485 6.24624 0
M  V30 9779 H 917.912 0.951753 2.81654 0
M  V30 9780 H 915.445 0.60534 1.42039 0
M  V30 9781 H 917.403 -1.2996 3.89385 0
M  V30 9782 H 916.064 -1.52275 2.7472 0
M  V30 9783 H 915.257 -0.718919 4.98846 0
M  V30 9784 H 914.859 0.454663 3.71226 0
M  V30 9785 H 917.151 -0.413904 6.76234 0
M  V30 9786 H 918.094 1.09225 6.99625 0
M  V30 9787 H 918.502 -0.00638358 5.645 0
M  V30 9788 N 917.9 -1.47166 0.563914 0
M  V30 9789 C 918.85 -2.27116 -0.20055 0
M  V30 9790 C 919.834 -1.34756 -0.879177 0
M  V30 9791 O 921.026 -1.59064 -0.776377 0
M  V30 9792 C 918.155 -3.20676 -1.22565 0
M  V30 9793 C 917.241 -4.20517 -0.550092 0
M  V30 9794 N 917.632 -5.04343 0.383662 0
M  V30 9795 C 915.93 -4.38708 -0.803186 0
M  V30 9796 C 916.631 -5.76491 0.776718 0
M  V30 9797 N 915.607 -5.43444 0.130047 0
M  V30 9798 H 919.409 -2.89312 0.517275 0
M  V30 9799 H 916.923 -1.57787 0.384334 0
M  V30 9800 H 918.92 -3.76643 -1.78733 0
M  V30 9801 H 917.58 -2.60038 -1.94449 0
M  V30 9802 H 918.591 -5.1232 0.758192 0
M  V30 9803 H 915.268 -3.89235 -1.51003 0
M  V30 9804 H 916.658 -6.5391 1.54437 0
M  V30 9805 N 919.378 -0.300708 -1.54705 0
M  V30 9806 C 920.341 0.562648 -2.22187 0
M  V30 9807 C 921.341 1.06152 -1.20782 0
M  V30 9808 O 922.531 0.957596 -1.45519 0
M  V30 9809 C 919.663 1.77899 -2.908 0
M  V30 9810 H 920.856 -0.0269361 -2.99888 0
M  V30 9811 H 918.409 -0.0515412 -1.56215 0
M  V30 9812 H 919.144 2.40841 -2.17177 0
M  V30 9813 H 918.929 1.42892 -3.65136 0
M  V30 9814 H 920.419 2.39236 -3.42281 0
M  V30 9815 N 920.856 1.57574 -0.0284266 0
M  V30 9816 C 922.102 1.92056 0.651327 0
M  V30 9817 C 922.435 0.905092 1.71819 0
M  V30 9818 O 921.71 -0.0722703 1.94366 0
M  V30 9819 C 921.993 3.37021 1.26841 0
M  V30 9820 C 921.846 4.49304 0.211157 0
M  V30 9821 C 923.165 3.81936 2.18662 0
M  V30 9822 H 920.284 0.698428 0.235304 0
M  V30 9823 H 922.926 1.89807 -0.0855435 0
M  V30 9824 H 921.076 3.39068 1.89644 0
M  V30 9825 H 922.748 4.5939 -0.419379 0
M  V30 9826 H 920.991 4.31317 -0.463445 0
M  V30 9827 H 921.662 5.47764 0.682518 0
M  V30 9828 H 924.138 3.8162 1.65847 0
M  V30 9829 H 923.014 4.84064 2.58792 0
M  V30 9830 H 923.275 3.174 3.07749 0
M  V30 9831 N 922.334 -0.244713 1.55689 0
M  V30 9832 C 923.282 -1.32276 1.91326 0
M  V30 9833 C 924.276 -1.49714 0.792589 0
M  V30 9834 O 925.482 -1.51163 0.977227 0
M  V30 9835 H 921.857 -0.442979 0.607679 0
M  V30 9836 H 923.828 -0.99486 2.81327 0
M  V30 9837 C 922.577 -2.67077 2.22633 0
M  V30 9838 H 921.9 -2.54458 3.08368 0
M  V30 9839 H 923.34 -3.41378 2.5147 0
M  V30 9840 C 921.799 -3.20335 1.04342 0
M  V30 9841 O 922.329 -4.00633 0.292543 0
M  V30 9842 N 920.535 -2.78392 0.833457 0
M  V30 9843 H 920.082 -2.13202 1.44577 0
M  V30 9844 H 920.04 -3.1437 0.0436713 0
M  V30 9845 N 923.813 -1.49104 -0.510467 0
M  V30 9846 C 925.061 -1.578 -1.26268 0
M  V30 9847 C 925.382 -0.262349 -1.93227 0
M  V30 9848 O 924.652 0.717624 -1.82283 0
M  V30 9849 H 923.232 -0.581387 -0.46904 0
M  V30 9850 H 925.894 -1.85678 -0.592423 0
M  V30 9851 H 924.99 -2.36919 -2.03165 0
M  V30 9852 N 925.291 0.760815 -1.38019 0
M  V30 9853 C 926.521 1.54776 -1.3685 0
M  V30 9854 C 926.929 1.89146 0.0453971 0
M  V30 9855 O 926.272 1.52746 1.0205 0
M  V30 9856 C 926.334 2.87923 -2.15269 0
M  V30 9857 C 925.998 2.76131 -3.64144 0
M  V30 9858 C 926.995 2.46417 -4.57794 0
M  V30 9859 C 924.68 2.9381 -4.07408 0
M  V30 9860 C 926.674 2.34525 -5.92686 0
M  V30 9861 C 924.361 2.81539 -5.42383 0
M  V30 9862 C 925.359 2.51938 -6.34836 0
M  V30 9863 O 925.047 2.39713 -7.67329 0
M  V30 9864 H 924.779 0.485776 -0.470104 0
M  V30 9865 H 927.333 0.949939 -1.82113 0
M  V30 9866 H 925.563 3.49867 -1.64712 0
M  V30 9867 H 927.252 3.49389 -2.06596 0
M  V30 9868 H 928.018 2.32433 -4.25676 0
M  V30 9869 H 923.897 3.15849 -3.35799 0
M  V30 9870 H 927.441 2.11342 -6.64816 0
M  V30 9871 H 923.338 2.95093 -5.741 0
M  V30 9872 H 924.106 2.5498 -7.77771 0
M  V30 9873 N 926.769 1.22769 0.988202 0
M  V30 9874 C 927.702 0.945196 2.07705 0
M  V30 9875 C 928.68 -0.11363 1.62202 0
M  V30 9876 O 929.864 0.0189624 1.8849 0
M  V30 9877 C 926.991 0.422474 3.36055 0
M  V30 9878 C 926.037 1.4667 4.00487 0
M  V30 9879 S 926.87 3.04158 4.40736 0
M  V30 9880 C 928.026 2.53536 5.7225 0
M  V30 9881 H 928.259 1.86723 2.31348 0
M  V30 9882 H 925.792 1.05928 1.12333 0
M  V30 9883 H 927.75 0.12748 4.10302 0
M  V30 9884 H 926.411 -0.478515 3.10434 0
M  V30 9885 H 925.604 1.05093 4.92921 0
M  V30 9886 H 925.206 1.71064 3.32585 0
M  V30 9887 H 927.498 1.95069 6.4881 0
M  V30 9888 H 928.441 3.44479 6.1866 0
M  V30 9889 H 928.849 1.94658 5.29876 0
M  V30 9890 N 928.247 -1.18576 1.03814 0
M  V30 9891 C 929.477 -1.92158 0.758864 0
M  V30 9892 C 929.885 -1.76267 -0.687498 0
M  V30 9893 O 929.228 -1.08806 -1.4801 0
M  V30 9894 C 929.29 -3.44063 1.04217 0
M  V30 9895 C 928.954 -3.8373 2.48193 0
M  V30 9896 C 929.951 -3.87722 3.46363 0
M  V30 9897 C 927.636 -4.151 2.82838 0
M  V30 9898 C 929.63 -4.2253 4.77229 0
M  V30 9899 C 927.317 -4.49578 4.13911 0
M  V30 9900 C 928.315 -4.53269 5.10917 0
M  V30 9901 O 928.003 -4.86945 6.39641 0
M  V30 9902 H 927.735 -0.61694 0.276335 0
M  V30 9903 H 930.289 -1.51388 1.38819 0
M  V30 9904 H 928.519 -3.85061 0.355709 0
M  V30 9905 H 930.208 -3.9889 0.751091 0
M  V30 9906 H 930.974 -3.63627 3.20936 0
M  V30 9907 H 926.853 -4.11406 2.08006 0
M  V30 9908 H 930.397 -4.25326 5.52941 0
M  V30 9909 H 926.294 -4.73133 4.39107 0
M  V30 9910 H 927.062 -5.04857 6.44253 0
M  V30 9911 N 929.725 -0.817259 -1.34754 0
M  V30 9912 C 930.973 -0.401852 -1.98065 0
M  V30 9913 C 931.294 1.03718 -1.65129 0
M  V30 9914 O 930.564 1.71921 -0.939141 0
M  V30 9915 H 929.144 -0.145603 -0.732672 0
M  V30 9916 H 931.806 -1.04545 -1.64488 0
M  V30 9917 H 930.902 -0.516241 -3.07801 0
M  V30 9918 N 931.203 1.46865 -0.571711 0
M  V30 9919 C 932.151 2.31897 0.180714 0
M  V30 9920 C 933.145 1.43815 0.895191 0
M  V30 9921 O 934.351 1.60501 0.814828 0
M  V30 9922 H 930.726 0.748032 0.077148 0
M  V30 9923 H 932.697 2.93185 -0.555432 0
M  V30 9924 C 931.446 3.26766 1.18824 0
M  V30 9925 H 930.769 3.94515 0.64789 0
M  V30 9926 H 932.209 3.89067 1.68532 0
M  V30 9927 C 930.668 2.51325 2.2436 0
M  V30 9928 O 931.198 2.26825 3.31532 0
M  V30 9929 N 929.404 2.12079 1.98673 0
M  V30 9930 H 928.951 2.32204 1.1153 0
M  V30 9931 H 928.909 1.61921 2.69498 0
M  V30 9932 N 932.681 0.308908 1.54543 0
M  V30 9933 C 933.613 -0.597453 2.21276 0
M  V30 9934 C 934.626 -1.09137 1.20801 0
M  V30 9935 O 935.815 -1.00747 1.47351 0
M  V30 9936 C 932.915 -1.83085 2.85189 0
M  V30 9937 C 932.088 -1.4781 4.11669 0
M  V30 9938 C 931.147 -2.56748 4.59311 0
M  V30 9939 O 930.173 -2.21507 5.24331 0
M  V30 9940 N 931.375 -3.87427 4.32297 0
M  V30 9941 H 934.14 -0.0261183 2.99689 0
M  V30 9942 H 931.701 0.131456 1.61365 0
M  V30 9943 H 933.693 -2.55326 3.13992 0
M  V30 9944 H 932.263 -2.31039 2.1057 0
M  V30 9945 H 931.483 -0.587974 3.8979 0
M  V30 9946 H 932.771 -1.2179 4.94009 0
M  V30 9947 H 932.169 -4.18863 3.80224 0
M  V30 9948 H 930.726 -4.55942 4.6579 0
M  V30 9949 N 934.159 -1.57557 0.0367827 0
M  V30 9950 C 935.57 -1.79853 -0.500971 0
M  V30 9951 C 935.921 -0.947749 -1.71791 0
M  V30 9952 O 935.046 -0.160287 -2.15806 0
M  V30 9953 C 935.641 -3.26193 -0.915626 0
M  V30 9954 C 934.2 -3.49457 -1.39845 0
M  V30 9955 C 933.347 -2.74864 -0.366784 0
M  V30 9956 H 936.298 -1.56509 0.262768 0
M  V30 9957 H 936.319 -3.36324 -1.7795 0
M  V30 9958 H 935.831 -3.88089 -0.0297227 0
M  V30 9959 H 933.932 -2.92823 -2.30402 0
M  V30 9960 H 934.045 -4.58172 -1.40054 0
M  V30 9961 H 932.409 -2.4057 -0.836554 0
M  V30 9962 H 933.192 -3.39479 0.510785 0
M  V30 9963 N 935.637 0.236453 -1.55816 0
M  V30 9964 C 936.885 0.96111 -1.77784 0
M  V30 9965 C 937.206 1.85454 -0.602648 0
M  V30 9966 O 936.476 1.92157 0.381137 0
M  V30 9967 H 935.056 0.35787 -0.655697 0
M  V30 9968 H 937.718 0.251888 -1.93265 0
M  V30 9969 H 936.814 1.5767 -2.69345 0
M  V30 9970 N 937.115 1.49373 0.502552 0
M  V30 9971 C 938.045 1.68839 1.61294 0
M  V30 9972 C 939.026 0.537096 1.61398 0
M  V30 9973 O 940.211 0.772764 1.78163 0
M  V30 9974 C 937.341 1.75347 2.99784 0
M  V30 9975 C 936.295 2.90251 3.14545 0
M  V30 9976 C 935.621 2.8187 4.54371 0
M  V30 9977 C 936.921 4.31207 2.94717 0
M  V30 9978 H 938.615 2.61803 1.45257 0
M  V30 9979 H 936.161 1.25987 0.697371 0
M  V30 9980 H 938.114 1.87552 3.77362 0
M  V30 9981 H 936.838 0.789814 3.16906 0
M  V30 9982 H 935.497 2.77646 2.39392 0
M  V30 9983 H 935.145 1.83416 4.68367 0
M  V30 9984 H 934.845 3.5899 4.65188 0
M  V30 9985 H 936.369 2.96081 5.34012 0
M  V30 9986 H 937.783 4.44501 3.62065 0
M  V30 9987 H 936.18 5.09536 3.17007 0
M  V30 9988 H 937.25 4.45759 1.90857 0
M  V30 9989 N 938.594 -0.753485 1.38421 0
M  V30 9990 C 939.542 -1.8886 1.35774 0
M  V30 9991 C 940.536 -1.67639 0.243608 0
M  V30 9992 O 941.742 -1.75206 0.412649 0
M  V30 9993 H 938.117 -0.62137 0.42356 0
M  V30 9994 H 940.088 -1.88209 2.3156 0
M  V30 9995 C 938.837 -3.26344 1.19979 0
M  V30 9996 H 938.16 -3.43259 2.04971 0
M  V30 9997 H 939.6 -4.06015 1.22181 0
M  V30 9998 C 938.059 -3.36771 -0.0932867 0
M  V30 9999 O 938.589 -3.8718 -1.07027 0
M  V30 10000 N 936.795 -2.90212 -0.150154 0
M  V30 10001 H 936.342 -2.4938 0.645562 0
M  V30 10002 H 936.3 -2.97569 -1.0149 0
M  V30 10003 N 940.072 -1.23292 -0.981677 0
M  V30 10004 C 941.005 -0.956198 -2.07201 0
M  V30 10005 C 941.983 0.105027 -1.6226 0
M  V30 10006 O 943.167 -0.0289582 -1.88478 0
M  V30 10007 C 940.294 -0.44029 -3.35826 0
M  V30 10008 C 939.34 -1.48792 -3.99704 0
M  V30 10009 S 940.173 -3.06491 -4.39117 0
M  V30 10010 C 941.329 -2.56567 -5.70898 0
M  V30 10011 H 941.562 -1.87947 -2.30355 0
M  V30 10012 H 939.095 -1.06522 -1.1177 0
M  V30 10013 H 941.053 -0.149237 -4.10229 0
M  V30 10014 H 939.714 0.462045 -3.10683 0
M  V30 10015 H 938.907 -1.07706 -4.92357 0
M  V30 10016 H 938.509 -1.72826 -3.31673 0
M  V30 10017 H 940.801 -1.98508 -6.47766 0
M  V30 10018 H 941.744 -3.47755 -6.16824 0
M  V30 10019 H 942.152 -1.97465 -5.28836 0
M  V30 10020 N 941.55 1.18024 -1.04442 0
M  V30 10021 C 942.79 1.89787 -0.758957 0
M  V30 10022 C 943.154 1.78757 0.700707 0
M  V30 10023 O 944.355 2.45265 1.09994 0
M  V30 10024 C 942.626 3.36047 -1.21685 0
M  V30 10025 S 944.185 4.25864 -1.05761 0
M  V30 10026 H 941.003 0.655311 -0.275841 0
M  V30 10027 H 943.605 1.42589 -1.33749 0
M  V30 10028 H 942.309 3.41606 -2.2745 0
M  V30 10029 H 941.84 3.88286 -0.63227 0
M  V30 10030 H 943.855 4.96195 0.022729 0
M  V30 10031 N 943.028 0.824394 1.34319 0
M  V30 10032 C 943.975 0.245282 2.29493 0
M  V30 10033 C 944.945 -0.630762 1.53657 0
M  V30 10034 O 946.13 -0.572094 1.82021 0
M  V30 10035 C 943.27 -0.585631 3.40095 0
M  V30 10036 C 942.383 0.312821 4.30866 0
M  V30 10037 C 941.518 -0.527801 5.28571 0
M  V30 10038 C 940.557 0.369946 6.10981 0
M  V30 10039 N 939.694 -0.43169 7.00772 0
M  V30 10040 H 944.534 1.06225 2.78425 0
M  V30 10041 H 942.071 0.53533 1.37013 0
M  V30 10042 H 944.029 -1.08271 4.02906 0
M  V30 10043 H 942.659 -1.3677 2.92393 0
M  V30 10044 H 941.711 0.928129 3.68904 0
M  V30 10045 H 943.023 1.00306 4.8861 0
M  V30 10046 H 942.177 -1.0893 5.96841 0
M  V30 10047 H 940.916 -1.25154 4.71368 0
M  V30 10048 H 939.921 0.943577 5.41643 0
M  V30 10049 H 941.146 1.09182 6.70266 0
M  V30 10050 H 939.092 -1.13908 6.46035 0
M  V30 10051 H 939.009 0.200133 7.55735 0
M  V30 10052 H 940.277 -0.975894 7.73367 0
M  V30 10053 N 944.506 -1.46559 0.579492 0
M  V30 10054 C 945.922 -1.57771 0.240921 0
M  V30 10055 C 946.122 -1.57505 -1.25676 0
M  V30 10056 O 945.178 -1.4903 -2.03829 0
M  V30 10057 C 946.491 -2.87311 0.887285 0
M  V30 10058 C 948.039 -3.00937 0.860576 0
M  V30 10059 C 948.514 -4.33208 1.48642 0
M  V30 10060 N 950.005 -4.39899 1.45062 0
M  V30 10061 C 950.74 -5.40856 1.90428 0
M  V30 10062 N 950.236 -6.48503 2.43752 0
M  V30 10063 N 952.029 -5.32037 1.81364 0
M  V30 10064 H 944.18 -1.44976 1.55228 0
M  V30 10065 H 946.443 -0.691354 0.648639 0
M  V30 10066 H 946.149 -2.93307 1.94071 0
M  V30 10067 H 946.023 -3.75141 0.393577 0
M  V30 10068 H 948.41 -2.94524 -0.184223 0
M  V30 10069 H 948.491 -2.14591 1.39227 0
M  V30 10070 H 948.135 -4.40378 2.5304 0
M  V30 10071 H 948.065 -5.18323 0.92998 0
M  V30 10072 H 950.556 -3.62706 1.0608 0
M  V30 10073 H 950.869 -7.21744 2.76234 0
M  V30 10074 H 949.214 -6.49332 2.47776 0
M  V30 10075 H 952.405 -4.46841 1.39465 0
M  V30 10076 H 952.578 -6.10573 2.17035 0
M  V30 10077 N 945.984 -0.3171 -1.54377 0
M  V30 10078 C 947.261 0.341348 -1.92598 0
M  V30 10079 C 947.641 1.70402 -1.24605 0
M  V30 10080 O 946.989 2.25191 -0.387448 0
M  V30 10081 C 947.199 0.440003 -3.46215 0
M  V30 10082 C 948.547 0.703327 -4.18734 0
M  V30 10083 O 949.571 0.523181 -3.52337 0
M  V30 10084 O 948.43 1.05042 -5.3631 0
M  V30 10085 H 945.524 0.193696 -0.803997 0
M  V30 10086 H 948.07 -0.366341 -1.65699 0
M  V30 10087 H 946.842 -0.517299 -3.87866 0
M  V30 10088 H 946.465 1.19553 -3.792 0
M  V30 10089 N 947.462 1.57535 -0.0451378 0
M  V30 10090 C 948.878 1.56533 0.311373 0
M  V30 10091 C 949.078 1.05225 1.71843 0
M  V30 10092 O 948.134 0.706144 2.42425 0
M  V30 10093 C 949.447 3.00349 0.145348 0
M  V30 10094 C 950.995 3.12248 0.216908 0
M  V30 10095 C 951.47 4.57931 0.0794834 0
M  V30 10096 N 952.961 4.63 0.135954 0
M  V30 10097 C 953.696 5.73375 0.0536426 0
M  V30 10098 N 953.192 6.92753 -0.0806725 0
M  V30 10099 N 954.985 5.61995 0.108789 0
M  V30 10100 H 947.136 1.89211 -0.965044 0
M  V30 10101 H 949.399 0.871068 -0.374091 0
M  V30 10102 H 949.105 3.41898 -0.824533 0
M  V30 10103 H 948.979 3.66086 0.908903 0
M  V30 10104 H 951.366 2.70601 1.17726 0
M  V30 10105 H 951.447 2.49201 -0.577299 0
M  V30 10106 H 951.091 5.00262 -0.877516 0
M  V30 10107 H 951.021 5.18977 0.892758 0
M  V30 10108 H 953.512 3.77142 0.23926 0
M  V30 10109 H 953.825 7.7268 -0.136351 0
M  V30 10110 H 952.17 6.94904 -0.115675 0
M  V30 10111 H 955.361 4.67619 0.212235 0
M  V30 10112 H 955.534 6.47987 0.0411822 0
M  V30 10113 N 948.94 -0.228186 1.55939 0
M  V30 10114 C 950.186 -0.954964 1.78909 0
M  V30 10115 C 950.519 -1.8425 0.613648 0
M  V30 10116 O 949.794 -1.90604 -0.38737 0
M  V30 10117 C 950.077 -1.79957 3.1191 0
M  V30 10118 C 949.93 -0.938968 4.3989 0
M  V30 10119 C 951.249 -2.77859 3.41295 0
M  V30 10120 H 948.368 -0.345745 0.650868 0
M  V30 10121 H 951.01 -0.224244 1.88672 0
M  V30 10122 H 949.16 -2.42256 3.03717 0
M  V30 10123 H 950.832 -0.333225 4.60095 0
M  V30 10124 H 949.075 -0.244096 4.33113 0
M  V30 10125 H 949.746 -1.56416 5.29375 0
M  V30 10126 H 952.222 -2.25695 3.49572 0
M  V30 10127 H 951.098 -3.34062 4.35538 0
M  V30 10128 H 951.359 -3.55266 2.63132 0
M  V30 10129 N 950.418 -1.49637 -0.494624 0
M  V30 10130 C 951.643 -1.63431 -1.27691 0
M  V30 10131 C 952.068 -0.30813 -1.85559 0
M  V30 10132 O 951.426 0.725083 -1.66169 0
M  V30 10133 C 951.474 -2.71043 -2.3784 0
M  V30 10134 O 950.578 -2.3066 -3.41862 0
M  V30 10135 H 949.919 -0.546804 -0.376698 0
M  V30 10136 H 952.449 -1.95866 -0.591413 0
M  V30 10137 H 952.459 -2.93406 -2.83508 0
M  V30 10138 H 951.134 -3.67306 -1.95088 0
M  V30 10139 H 949.711 -2.18652 -3.02069 0
M  V30 10140 N 951.896 0.746133 -1.38819 0
M  V30 10141 C 953.142 1.50669 -1.3664 0
M  V30 10142 C 953.497 1.92356 0.0411513 0
M  V30 10143 O 952.79 1.63104 1.00537 0
M  V30 10144 C 952.984 2.76639 -2.26286 0
M  V30 10145 C 952.813 2.47268 -3.75618 0
M  V30 10146 C 951.583 2.40116 -4.44603 0
M  V30 10147 C 953.781 2.13548 -4.67869 0
M  V30 10148 N 951.763 2.03098 -5.79331 0
M  V30 10149 C 953.134 1.86883 -5.91164 0
M  V30 10150 C 955.189 1.99922 -4.56 0
M  V30 10151 C 953.892 1.47965 -7.03917 0
M  V30 10152 C 955.918 1.62406 -5.68664 0
M  V30 10153 C 955.28 1.36618 -6.91025 0
M  V30 10154 H 951.379 0.550624 -0.555282 0
M  V30 10155 H 953.963 0.868179 -1.74272 0
M  V30 10156 H 952.134 3.38287 -1.9083 0
M  V30 10157 H 953.866 3.42753 -2.1518 0
M  V30 10158 H 950.621 2.56839 -3.97908 0
M  V30 10159 H 951.045 1.87214 -6.506 0
M  V30 10160 H 955.687 2.18531 -3.61945 0
M  V30 10161 H 953.405 1.28096 -7.97883 0
M  V30 10162 H 956.991 1.52483 -5.61462 0
M  V30 10163 H 955.871 1.08021 -7.76725 0
M  V30 10164 N 953.375 1.23811 0.975125 0
M  V30 10165 C 954.325 0.991036 2.05335 0
M  V30 10166 C 955.309 -0.0648793 1.60769 0
M  V30 10167 O 956.501 0.147917 1.76381 0
M  V30 10168 C 953.63 0.589822 3.38195 0
M  V30 10169 C 952.716 1.68142 3.89344 0
M  V30 10170 N 953.107 2.91274 4.13513 0
M  V30 10171 C 951.405 1.55722 4.17931 0
M  V30 10172 C 952.106 3.61987 4.55347 0
M  V30 10173 N 951.082 2.8952 4.60086 0
M  V30 10174 H 954.884 1.92612 2.21986 0
M  V30 10175 H 952.398 1.13827 1.15832 0
M  V30 10176 H 954.395 0.394075 4.15033 0
M  V30 10177 H 953.055 -0.338157 3.22934 0
M  V30 10178 H 954.066 3.27528 4.01181 0
M  V30 10179 H 950.743 0.696732 4.11645 0
M  V30 10180 H 952.133 4.67572 4.8252 0
M  V30 10181 N 954.853 -1.17469 1.05066 0
M  V30 10182 C 955.783 -2.23635 0.671552 0
M  V30 10183 C 956.764 -1.66867 -0.33006 0
M  V30 10184 O 957.949 -1.93084 -0.207933 0
M  V30 10185 C 955.079 -3.47272 0.0441845 0
M  V30 10186 C 954.033 -4.16854 0.97042 0
M  V30 10187 C 953.359 -5.34299 0.206998 0
M  V30 10188 C 954.659 -4.69225 2.29401 0
M  V30 10189 H 956.353 -2.55602 1.55911 0
M  V30 10190 H 953.899 -1.2286 0.751101 0
M  V30 10191 H 955.852 -4.20756 -0.23282 0
M  V30 10192 H 954.576 -3.14568 -0.878311 0
M  V30 10193 H 953.235 -3.4528 1.23197 0
M  V30 10194 H 952.883 -4.97846 -0.718222 0
M  V30 10195 H 952.583 -5.81792 0.82416 0
M  V30 10196 H 954.107 -6.10568 -0.0627525 0
M  V30 10197 H 955.521 -5.34353 2.077 0
M  V30 10198 H 953.918 -5.27291 2.86503 0
M  V30 10199 H 954.988 -3.86102 2.93348 0
M  V30 10200 N 956.331 -0.831506 -1.3388 0
M  V30 10201 C 957.58 -0.420028 -1.97278 0
M  V30 10202 C 957.893 1.02441 -1.66629 0
M  V30 10203 O 959.099 1.54021 -2.23584 0
M  V30 10204 C 957.555 -0.700116 -3.53025 0
M  V30 10205 C 957.163 -2.15874 -3.92559 0
M  V30 10206 C 958.907 -0.355226 -4.23011 0
M  V30 10207 C 956.814 -2.38327 -5.41252 0
M  V30 10208 H 955.744 -0.153326 -0.738246 0
M  V30 10209 H 958.395 -1.01906 -1.52602 0
M  V30 10210 H 956.777 -0.0308044 -3.95988 0
M  V30 10211 H 957.951 -2.86792 -3.60675 0
M  V30 10212 H 956.266 -2.4659 -3.35533 0
M  V30 10213 H 958.863 -0.500701 -5.32351 0
M  V30 10214 H 959.206 0.70111 -4.10354 0
M  V30 10215 H 959.739 -0.979466 -3.85553 0
M  V30 10216 H 956.478 -3.42498 -5.58906 0
M  V30 10217 H 955.998 -1.71962 -5.74621 0
M  V30 10218 H 957.677 -2.21113 -6.08045 0
M  V30 10219 N 957.809 1.4625 -0.587256 0
M  V30 10220 C 959.057 2.01963 -0.0744273 0
M  V30 10221 C 959.378 1.46065 1.29189 0
M  V30 10222 O 958.648 0.647077 1.84905 0
M  V30 10223 H 957.228 0.746597 -0.0245236 0
M  V30 10224 H 959.89 1.79299 -0.764063 0
M  V30 10225 H 958.986 3.12099 -0.00884894 0
M  V30 10226 N 959.287 0.325282 1.54207 0
M  V30 10227 C 960.217 -0.532574 2.27345 0
M  V30 10228 C 961.198 -1.11791 1.28206 0
M  V30 10229 O 962.383 -1.14272 1.57021 0
M  V30 10230 C 959.513 -1.69274 3.03255 0
M  V30 10231 C 958.467 -1.23662 4.09746 0
M  V30 10232 C 957.793 -2.48386 4.73506 0
M  V30 10233 C 959.093 -0.350244 5.21124 0
M  V30 10234 H 960.787 0.0775108 2.993 0
M  V30 10235 H 958.333 0.0387193 1.43948 0
M  V30 10236 H 960.286 -2.29917 3.53152 0
M  V30 10237 H 959.01 -2.32944 2.28921 0
M  V30 10238 H 957.669 -0.653106 3.60735 0
M  V30 10239 H 957.317 -3.10424 3.95786 0
M  V30 10240 H 957.017 -2.18558 5.45441 0
M  V30 10241 H 958.541 -3.09789 5.26178 0
M  V30 10242 H 959.955 -0.863011 5.66767 0
M  V30 10243 H 958.352 -0.14466 5.99926 0
M  V30 10244 H 959.422 0.618457 4.8094 0
M  V30 10245 N 960.765 -1.57509 0.0534917 0
M  V30 10246 C 962.013 -1.92402 -0.618548 0
M  V30 10247 C 962.334 -0.93273 -1.71246 0
M  V30 10248 O 961.604 0.0220495 -1.95888 0
M  V30 10249 H 960.184 -0.710233 -0.23147 0
M  V30 10250 H 962.846 -1.94606 0.10704 0
M  V30 10251 H 961.942 -2.93704 -1.05566 0
M  V30 10252 N 962.243 0.219913 -1.56058 0
M  V30 10253 C 963.471 0.960915 -1.83232 0
M  V30 10254 C 963.886 1.77878 -0.632828 0
M  V30 10255 O 963.243 1.78093 0.398624 0
M  V30 10256 C 963.294 1.87716 -3.08942 0
M  V30 10257 O 963.015 1.09235 -4.24263 0
M  V30 10258 C 964.516 2.73192 -3.49115 0
M  V30 10259 H 961.736 0.281546 -0.609075 0
M  V30 10260 H 964.28 0.234648 -2.03149 0
M  V30 10261 H 962.435 2.55736 -2.90995 0
M  V30 10262 H 962.849 1.71446 -4.95688 0
M  V30 10263 H 964.323 3.33181 -4.40107 0
M  V30 10264 H 964.8 3.45668 -2.70943 0
M  V30 10265 H 965.406 2.10583 -3.69506 0
M  V30 10266 N 963.721 1.49897 0.486681 0
M  V30 10267 C 964.998 1.50614 1.24799 0
M  V30 10268 C 965.378 0.24193 2.09709 0
M  V30 10269 O 964.726 -0.775237 2.14947 0
M  V30 10270 C 964.936 2.79318 2.09243 0
M  V30 10271 C 966.284 3.29371 2.67955 0
M  V30 10272 O 967.308 2.80533 2.19499 0
M  V30 10273 O 966.167 4.14466 3.56202 0
M  V30 10274 H 963.261 0.603447 0.565491 0
M  V30 10275 H 965.807 1.62174 0.499778 0
M  V30 10276 H 964.579 3.62812 1.46572 0
M  V30 10277 H 964.202 2.70687 2.91229 0
M  V30 10278 N 965.199 -0.738761 1.39212 0
M  V30 10279 C 966.427 -1.52801 1.39497 0
M  V30 10280 C 966.842 -1.88797 -0.0114917 0
M  V30 10281 O 966.199 -1.53835 -0.981887 0
M  V30 10282 C 966.25 -2.81793 2.2644 0
M  V30 10283 O 965.971 -2.47328 3.61608 0
M  V30 10284 C 967.472 -3.75844 2.35067 0
M  V30 10285 H 964.692 -0.472322 0.476606 0
M  V30 10286 H 967.236 -0.913153 1.8298 0
M  V30 10287 H 965.391 -3.3962 1.8638 0
M  V30 10288 H 965.805 -3.30162 4.07545 0
M  V30 10289 H 967.279 -4.6326 3.00157 0
M  V30 10290 H 967.756 -4.17329 1.3687 0
M  V30 10291 H 968.362 -3.23937 2.75581 0
M  V30 10292 N 966.677 -1.24326 -0.968545 0
M  V30 10293 C 967.954 -0.990459 -1.68669 0
M  V30 10294 C 968.334 0.487487 -2.05394 0
M  V30 10295 O 967.682 1.46158 -1.75642 0
M  V30 10296 C 967.892 -1.91251 -2.91931 0
M  V30 10297 C 969.24 -2.18291 -3.6419 0
M  V30 10298 O 970.264 -1.88897 -3.01987 0
M  V30 10299 O 969.123 -2.68204 -4.76161 0
M  V30 10300 H 966.217 -0.374515 -0.737338 0
M  V30 10301 H 968.763 -1.35421 -1.02271 0
M  V30 10302 H 967.535 -2.9111 -2.61478 0
M  V30 10303 H 967.158 -1.55188 -3.66064 0
M  V30 10304 N 968.156 1.1691 -1.05688 0
M  V30 10305 C 969.089 2.19992 -0.606539 0
M  V30 10306 C 970.067 1.58393 0.367483 0
M  V30 10307 O 971.251 1.8644 0.277914 0
M  V30 10308 C 968.378 3.38516 0.111663 0
M  V30 10309 C 967.424 4.18579 -0.818153 0
M  V30 10310 S 968.257 4.83111 -2.31006 0
M  V30 10311 C 969.413 6.0502 -1.60317 0
M  V30 10312 H 969.646 2.57851 -1.47987 0
M  V30 10313 H 967.179 1.27604 -0.869291 0
M  V30 10314 H 969.137 4.07195 0.519829 0
M  V30 10315 H 967.798 2.99034 0.961103 0
M  V30 10316 H 966.991 5.03318 -0.262092 0
M  V30 10317 H 966.593 3.55362 -1.16592 0
M  V30 10318 H 968.885 6.71424 -0.905309 0
M  V30 10319 H 969.828 6.65164 -2.42823 0
M  V30 10320 H 970.236 5.53908 -1.08842 0
M  V30 10321 N 969.634 0.838594 1.33437 0
M  V30 10322 C 970.584 0.243681 2.26694 0
M  V30 10323 C 971.568 -0.601168 1.49247 0
M  V30 10324 O 972.76 -0.453181 1.711 0
M  V30 10325 C 969.889 -0.580525 3.38356 0
M  V30 10326 C 968.975 0.275819 4.23202 0
M  V30 10327 N 969.366 1.3544 4.87329 0
M  V30 10328 C 967.664 0.0628047 4.45956 0
M  V30 10329 C 968.365 1.87991 5.50486 0
M  V30 10330 N 967.341 1.18143 5.30607 0
M  V30 10331 H 971.143 1.06849 2.73789 0
M  V30 10332 H 968.657 0.683019 1.47338 0
M  V30 10333 H 970.654 -1.02301 4.04153 0
M  V30 10334 H 969.314 -1.40331 2.92809 0
M  V30 10335 H 970.325 1.73729 4.87892 0
M  V30 10336 H 967.002 -0.726563 4.11129 0
M  V30 10337 H 968.392 2.78312 6.11549 0
M  V30 10338 N 971.112 -1.45937 0.595003 0
M  V30 10339 C 972.36 -2.01921 0.0851368 0
M  V30 10340 C 972.681 -1.46748 -1.28413 0
M  V30 10341 O 971.951 -0.656873 -1.84559 0
M  V30 10342 H 970.531 -0.746457 0.0284826 0
M  V30 10343 H 973.193 -1.78891 0.773561 0
M  V30 10344 H 972.289 -3.1209 0.0254002 0
M  V30 10345 N 972.59 -0.333456 -1.54032 0
M  V30 10346 C 973.839 0.267081 -1.99924 0
M  V30 10347 C 974.152 1.52463 -1.22534 0
M  V30 10348 O 975.358 2.20178 -1.58852 0
M  V30 10349 C 973.814 0.526456 -3.56029 0
M  V30 10350 C 973.422 -0.714607 -4.42264 0
M  V30 10351 C 975.166 1.0864 -4.10363 0
M  V30 10352 C 973.073 -0.42659 -5.89859 0
M  V30 10353 H 972.003 0.103577 -0.746852 0
M  V30 10354 H 974.654 -0.447218 -1.77967 0
M  V30 10355 H 973.036 1.3012 -3.74012 0
M  V30 10356 H 974.21 -1.48968 -4.36056 0
M  V30 10357 H 972.525 -1.19547 -3.9887 0
M  V30 10358 H 975.122 1.31668 -5.18235 0
M  V30 10359 H 975.465 2.03884 -3.62956 0
M  V30 10360 H 975.998 0.37261 -3.96051 0
M  V30 10361 H 972.737 -1.34847 -6.4148 0
M  V30 10362 H 972.257 0.310588 -5.98995 0
M  V30 10363 H 973.936 -0.0400807 -6.46988 0
M  V30 10364 N 974.068 1.57479 -0.061844 0
M  V30 10365 C 975.314 1.93395 0.610443 0
M  V30 10366 C 975.647 0.941334 1.6986 0
M  V30 10367 O 974.922 -0.0310262 1.94475 0
M  V30 10368 C 975.205 3.39636 1.19664 0
M  V30 10369 C 975.058 4.49651 0.115805 0
M  V30 10370 C 976.377 3.86488 2.10512 0
M  V30 10371 H 973.496 0.703262 0.220436 0
M  V30 10372 H 976.138 1.89583 -0.125785 0
M  V30 10373 H 974.288 3.43015 1.82409 0
M  V30 10374 H 975.96 4.58397 -0.516728 0
M  V30 10375 H 974.203 4.30237 -0.55483 0
M  V30 10376 H 974.874 5.49089 0.566176 0
M  V30 10377 H 977.35 3.85052 1.57715 0
M  V30 10378 H 976.226 4.89444 2.48466 0
M  V30 10379 H 976.487 3.23856 3.00948 0
M  V30 10380 N 975.546 -0.211634 1.56173 0
M  V30 10381 C 976.793 -0.93455 1.79645 0
M  V30 10382 C 977.121 -1.83936 0.632294 0
M  V30 10383 O 976.376 -1.91919 -0.382841 0
M  V30 10384 C 976.675 -1.79657 3.08963 0
M  V30 10385 C 976.341 -1.04415 4.38644 0
M  V30 10386 C 975.003 -0.836351 4.73876 0
M  V30 10387 C 977.355 -0.51355 5.18664 0
M  V30 10388 C 974.683 -0.0861976 5.86637 0
M  V30 10389 C 977.035 0.223309 6.32206 0
M  V30 10390 C 975.699 0.442279 6.66033 0
M  V30 10391 H 974.969 -0.341976 0.657368 0
M  V30 10392 H 977.616 -0.202024 1.90431 0
M  V30 10393 H 975.921 -2.59726 2.93342 0
M  V30 10394 H 977.618 -2.35823 3.24328 0
M  V30 10395 H 974.208 -1.21611 4.10985 0
M  V30 10396 H 978.392 -0.661541 4.91871 0
M  V30 10397 H 973.648 0.0935866 6.11328 0
M  V30 10398 H 977.822 0.641917 6.93435 0
M  V30 10399 H 975.449 1.02547 7.53252 0
M  V30 10400 N 977.024 -1.50153 -0.478725 0
M  V30 10401 C 977.956 -1.64603 -1.59494 0
M  V30 10402 C 978.969 -0.527789 -1.54007 0
M  V30 10403 O 980.158 -0.80069 -1.59534 0
M  V30 10404 C 977.258 -1.60738 -2.98356 0
M  V30 10405 C 976.431 -2.88468 -3.28794 0
M  V30 10406 C 975.49 -2.77349 -4.47173 0
M  V30 10407 O 974.516 -3.51302 -4.47857 0
M  V30 10408 N 975.718 -1.9039 -5.4839 0
M  V30 10409 H 978.483 -2.6088 -1.47518 0
M  V30 10410 H 976.044 -1.47521 -0.667011 0
M  V30 10411 H 978.036 -1.50923 -3.75505 0
M  V30 10412 H 976.606 -0.722273 -3.04141 0
M  V30 10413 H 975.826 -3.12467 -2.40329 0
M  V30 10414 H 977.114 -3.73102 -3.45937 0
M  V30 10415 H 976.512 -1.29606 -5.50653 0
M  V30 10416 H 975.069 -1.86484 -6.24553 0
M  V30 10417 N 978.502 0.731368 -1.39602 0
M  V30 10418 C 979.75 1.48805 -1.36753 0
M  V30 10419 C 980.071 1.94969 0.034676 0
M  V30 10420 O 979.341 1.69243 0.986591 0
M  V30 10421 H 977.921 0.55203 -0.503261 0
M  V30 10422 H 980.583 0.868013 -1.74504 0
M  V30 10423 H 979.679 2.36844 -2.03252 0
M  V30 10424 N 979.98 1.24838 0.961938 0
M  V30 10425 C 980.928 1.0436 2.07874 0
M  V30 10426 C 981.922 -0.0232531 1.69384 0
M  V30 10427 O 983.128 0.131773 1.79517 0
M  V30 10428 H 979.503 0.320492 0.680286 0
M  V30 10429 H 981.474 1.99055 2.22306 0
M  V30 10430 C 980.223 0.671246 3.41159 0
M  V30 10431 H 979.546 1.48395 3.7124 0
M  V30 10432 H 980.986 0.567608 4.20184 0
M  V30 10433 C 979.445 -0.622124 3.31106 0
M  V30 10434 O 979.975 -1.66627 3.65511 0
M  V30 10435 N 978.181 -0.605009 2.84232 0
M  V30 10436 H 977.728 0.245052 2.56432 0
M  V30 10437 H 977.686 -1.47056 2.77888 0
M  V30 10438 N 981.458 -1.16348 1.06306 0
M  V30 10439 C 982.686 -1.90782 0.800614 0
M  V30 10440 C 983.101 -1.77439 -0.645033 0
M  V30 10441 O 982.458 -1.11912 -1.4416 0
M  V30 10442 C 982.509 -3.41484 1.18621 0
M  V30 10443 O 982.23 -3.54428 2.57512 0
M  V30 10444 C 983.731 -4.32968 0.951525 0
M  V30 10445 H 980.951 -0.604977 0.290247 0
M  V30 10446 H 983.495 -1.47476 1.41672 0
M  V30 10447 H 981.65 -3.82493 0.614633 0
M  V30 10448 H 982.064 -4.4788 2.72954 0
M  V30 10449 H 983.538 -5.37169 1.27095 0
M  V30 10450 H 984.015 -4.39055 -0.112734 0
M  V30 10451 H 984.621 -3.97687 1.50749 0
M  V30 10452 N 982.937 -0.845659 -1.3299 0
M  V30 10453 C 984.186 -0.440928 -1.96822 0
M  V30 10454 C 984.499 1.00668 -1.67706 0
M  V30 10455 O 985.705 1.51641 -2.25205 0
M  V30 10456 C 984.161 -0.73752 -3.52262 0
M  V30 10457 C 983.769 -2.20026 -3.90247 0
M  V30 10458 C 985.513 -0.400072 -4.22611 0
M  V30 10459 C 983.42 -2.44054 -5.38694 0
M  V30 10460 H 982.35 -0.161148 -0.736578 0
M  V30 10461 H 985.001 -1.03519 -1.51513 0
M  V30 10462 H 983.383 -0.0728025 -3.95933 0
M  V30 10463 H 984.557 -2.90602 -3.57613 0
M  V30 10464 H 982.872 -2.50135 -3.32899 0
M  V30 10465 H 985.469 -0.557136 -5.3179 0
M  V30 10466 H 985.812 0.657547 -4.11074 0
M  V30 10467 H 986.345 -1.0203 -3.84493 0
M  V30 10468 H 983.084 -3.48407 -5.55241 0
M  V30 10469 H 982.604 -1.78047 -5.72765 0
M  V30 10470 H 984.283 -2.27549 -6.05665 0
M  V30 10471 N 984.415 1.45619 -0.602734 0
M  V30 10472 C 985.365 2.27568 0.140264 0
M  V30 10473 C 986.349 1.3704 0.84314 0
M  V30 10474 O 987.541 1.61067 0.733931 0
M  V30 10475 C 984.67 3.23812 1.14019 0
M  V30 10476 C 983.756 4.21828 0.438406 0
M  V30 10477 N 984.147 5.03148 -0.517245 0
M  V30 10478 C 982.445 4.40684 0.686588 0
M  V30 10479 C 983.146 5.74229 -0.929291 0
M  V30 10480 N 982.122 5.42909 -0.274086 0
M  V30 10481 H 985.924 2.87839 -0.5938 0
M  V30 10482 H 983.438 1.56712 -0.426033 0
M  V30 10483 H 985.435 3.8125 1.68684 0
M  V30 10484 H 984.095 2.65102 1.87486 0
M  V30 10485 H 985.106 5.1013 -0.893758 0
M  V30 10486 H 981.783 3.93102 1.4063 0
M  V30 10487 H 983.173 6.49586 -1.7172 0
M  V30 10488 N 985.893 0.34162 1.53853 0
M  V30 10489 C 986.823 -0.508431 2.27897 0
M  V30 10490 C 987.804 -1.10425 1.29384 0
M  V30 10491 O 988.989 -1.126 1.58224 0
M  V30 10492 C 986.119 -1.66048 3.05034 0
M  V30 10493 C 985.073 -1.19309 4.11035 0
M  V30 10494 C 984.399 -2.4335 4.76114 0
M  V30 10495 C 985.699 -0.294952 5.21467 0
M  V30 10496 H 987.393 0.109251 2.99201 0
M  V30 10497 H 984.939 0.0539847 1.43899 0
M  V30 10498 H 986.892 -2.26158 3.5557 0
M  V30 10499 H 985.616 -2.30503 2.31379 0
M  V30 10500 H 984.275 -0.614809 3.61408 0
M  V30 10501 H 983.923 -3.06208 3.99056 0
M  V30 10502 H 983.623 -2.1276 5.47729 0
M  V30 10503 H 985.147 -3.0419 5.29434 0
M  V30 10504 H 986.561 -0.80285 5.67651 0
M  V30 10505 H 984.958 -0.0810221 6.00045 0
M  V30 10506 H 986.028 0.669433 4.80257 0
M  V30 10507 N 987.371 -1.57444 0.0701946 0
M  V30 10508 C 988.787 -1.57009 -0.286431 0
M  V30 10509 C 988.987 -1.07946 -1.70147 0
M  V30 10510 O 988.043 -0.744622 -2.41271 0
M  V30 10511 C 989.356 -3.00542 -0.0975466 0
M  V30 10512 C 990.904 -3.12553 -0.167205 0
M  V30 10513 C 991.379 -4.58 -0.00662047 0
M  V30 10514 N 992.87 -4.63158 -0.0622778 0
M  V30 10515 C 993.605 -5.73388 0.0375831 0
M  V30 10516 N 993.101 -6.92537 0.190873 0
M  V30 10517 N 994.894 -5.62097 -0.0193672 0
M  V30 10518 H 987.045 -1.87651 0.995023 0
M  V30 10519 H 989.308 -0.865006 0.387902 0
M  V30 10520 H 989.014 -3.40543 0.878822 0
M  V30 10521 H 988.888 -3.67485 -0.850547 0
M  V30 10522 H 991.275 -2.72439 -1.13406 0
M  V30 10523 H 991.356 -2.48251 0.616871 0
M  V30 10524 H 991 -4.98803 0.956992 0
M  V30 10525 H 990.93 -5.20332 -0.810081 0
M  V30 10526 H 993.421 -3.77475 -0.179229 0
M  V30 10527 H 993.734 -7.72365 0.25926 0
M  V30 10528 H 992.079 -6.94632 0.226214 0
M  V30 10529 H 995.27 -4.67897 -0.137815 0
M  V30 10530 H 995.443 -6.4797 0.0619121 0
M  V30 10531 N 988.849 0.203349 -1.56283 0
M  V30 10532 C 990.097 0.923183 -1.79782 0
M  V30 10533 C 990.418 1.84134 -0.64185 0
M  V30 10534 O 989.688 1.92922 0.340292 0
M  V30 10535 H 988.268 0.343881 -0.66314 0
M  V30 10536 H 990.93 0.210837 -1.93756 0
M  V30 10537 H 990.026 1.51921 -2.72629 0
M  V30 10538 N 990.327 1.50405 0.470755 0
M  V30 10539 C 991.555 1.65168 1.24608 0
M  V30 10540 C 991.97 0.335153 1.85801 0
M  V30 10541 O 991.327 -0.682919 1.69241 0
M  V30 10542 C 991.378 2.74305 2.35455 0
M  V30 10543 O 991.099 4.00854 1.76771 0
M  V30 10544 C 992.6 3.00044 3.26326 0
M  V30 10545 H 989.82 0.555186 0.376842 0
M  V30 10546 H 992.364 1.9663 0.56187 0
M  V30 10547 H 990.519 2.45536 2.99651 0
M  V30 10548 H 990.933 4.61211 2.49769 0
M  V30 10549 H 992.407 3.8007 4.00313 0
M  V30 10550 H 992.884 2.11128 3.85126 0
M  V30 10551 H 993.49 3.30345 2.67866 0
M  V30 10552 N 991.805 -0.723954 1.39988 0
M  V30 10553 C 992.755 -1.82943 1.36073 0
M  V30 10554 C 993.739 -1.59105 0.239682 0
M  V30 10555 O 994.931 -1.7042 0.478116 0
M  V30 10556 C 992.06 -3.20988 1.21745 0
M  V30 10557 C 991.146 -3.50618 2.38596 0
M  V30 10558 N 991.537 -3.51115 3.64077 0
M  V30 10559 C 989.835 -3.81035 2.31794 0
M  V30 10560 C 990.536 -3.78852 4.41413 0
M  V30 10561 N 989.512 -3.97182 3.71143 0
M  V30 10562 H 993.314 -1.81649 2.31043 0
M  V30 10563 H 990.828 -0.922703 1.33641 0
M  V30 10564 H 992.825 -4.00139 1.17022 0
M  V30 10565 H 991.485 -3.23513 0.277344 0
M  V30 10566 H 992.496 -3.32163 3.97351 0
M  V30 10567 H 989.173 -3.911 1.46105 0
M  V30 10568 H 990.563 -3.85612 5.5023 0
M  V30 10569 N 993.283 -1.25346 -0.955304 0
M  V30 10570 C 994.699 -1.02154 -1.22625 0
M  V30 10571 C 994.899 0.26206 -1.99789 0
M  V30 10572 O 993.955 0.974958 -2.32918 0
M  V30 10573 C 995.268 -2.2443 -2.00129 0
M  V30 10574 C 996.816 -2.29185 -2.13174 0
M  V30 10575 C 997.291 -3.51117 -2.94077 0
M  V30 10576 N 998.782 -3.51509 -3.01655 0
M  V30 10577 C 999.517 -4.42517 -3.64645 0
M  V30 10578 N 999.013 -5.43796 -4.29252 0
M  V30 10579 N 1000.81 -4.302 -3.61779 0
M  V30 10580 H 992.957 -2.07812 -0.439071 0
M  V30 10581 H 995.22 -0.91258 -0.256715 0
M  V30 10582 H 994.926 -3.17717 -1.50827 0
M  V30 10583 H 994.8 -2.27548 -3.00835 0
M  V30 10584 H 997.187 -1.36422 -2.61674 0
M  V30 10585 H 997.268 -2.30087 -1.11775 0
M  V30 10586 H 996.912 -4.44201 -2.46268 0
M  V30 10587 H 996.842 -3.4746 -3.95701 0
M  V30 10588 H 999.333 -2.78245 -2.55711 0
M  V30 10589 H 999.646 -6.09453 -4.75171 0
M  V30 10590 H 997.991 -5.4767 -4.27882 0
M  V30 10591 H 1001.18 -3.50304 -3.10491 0
M  V30 10592 H 1001.36 -5.01323 -4.10584 0
M  V30 10593 N 994.761 1.15782 -1.06922 0
M  V30 10594 C 996.038 1.8253 -0.703 0
M  V30 10595 C 996.418 1.94733 0.814994 0
M  V30 10596 O 995.766 1.49537 1.72774 0
M  V30 10597 C 995.976 3.19145 -1.41234 0
M  V30 10598 C 997.324 3.94839 -1.56164 0
M  V30 10599 O 998.348 3.28685 -1.37277 0
M  V30 10600 O 997.207 5.13436 -1.87205 0
M  V30 10601 H 994.301 0.788425 -0.24963 0
M  V30 10602 H 996.847 1.22931 -1.16988 0
M  V30 10603 H 995.619 3.05336 -2.44715 0
M  V30 10604 H 995.242 3.86427 -0.935959 0
M  V30 10605 N 996.239 0.8527 1.3254 0
M  V30 10606 C 997.464 0.468157 2.02047 0
M  V30 10607 C 997.889 -0.926967 1.63673 0
M  V30 10608 O 997.247 -1.60855 0.836378 0
M  V30 10609 C 997.295 0.612519 3.5536 0
M  V30 10610 O 996.399 -0.355506 4.10865 0
M  V30 10611 H 995.74 0.188401 0.636711 0
M  V30 10612 H 998.27 1.15135 1.6913 0
M  V30 10613 H 998.28 0.499315 4.04933 0
M  V30 10614 H 996.955 1.62988 3.82632 0
M  V30 10615 H 995.532 -0.198703 3.7237 0
M  V30 10616 N 997.718 -1.45297 0.610449 0
M  V30 10617 C 998.648 -2.33311 -0.0939698 0
M  V30 10618 C 999.629 -1.46999 -0.85588 0
M  V30 10619 O 1000.81 -1.75764 -0.825865 0
M  V30 10620 C 997.944 -3.29751 -1.09003 0
M  V30 10621 C 996.898 -4.2572 -0.441146 0
M  V30 10622 C 996.224 -5.11873 -1.54566 0
M  V30 10623 C 997.524 -5.1837 0.639489 0
M  V30 10624 H 999.218 -2.92459 0.640941 0
M  V30 10625 H 996.764 -1.40631 0.309675 0
M  V30 10626 H 998.717 -3.90195 -1.59141 0
M  V30 10627 H 997.441 -2.68768 -1.85557 0
M  V30 10628 H 996.1 -3.66579 0.0393908 0
M  V30 10629 H 995.748 -4.47256 -2.30155 0
M  V30 10630 H 995.448 -5.76886 -1.11698 0
M  V30 10631 H 996.972 -5.75185 -2.04925 0
M  V30 10632 H 998.386 -5.7287 0.22207 0
M  V30 10633 H 996.783 -5.91876 0.990089 0
M  V30 10634 H 997.853 -4.60627 1.51495 0
M  V30 10635 N 999.196 -0.349774 -1.5367 0
M  V30 10636 C 1000.16 0.491676 -2.23864 0
M  V30 10637 C 1001.16 1.02256 -1.24098 0
M  V30 10638 O 1002.35 0.910816 -1.48492 0
M  V30 10639 C 999.481 1.68557 -2.96313 0
M  V30 10640 H 1000.67 -0.12233 -2.9965 0
M  V30 10641 H 998.227 -0.101214 -1.55972 0
M  V30 10642 H 998.962 2.3381 -2.2473 0
M  V30 10643 H 998.747 1.31203 -3.69497 0
M  V30 10644 H 1000.24 2.28225 -3.49718 0
M  V30 10645 N 1000.67 1.57404 -0.0785433 0
M  V30 10646 C 1001.6 2.16131 0.883726 0
M  V30 10647 C 1002.58 1.09015 1.30575 0
M  V30 10648 O 1003.77 1.3708 1.37559 0
M  V30 10649 C 1000.9 2.72836 2.1489 0
M  V30 10650 C 999.854 3.85178 1.86605 0
M  V30 10651 C 999.18 4.28516 3.1981 0
M  V30 10652 C 1000.48 5.09118 1.16601 0
M  V30 10653 H 1002.17 2.9679 0.394484 0
M  V30 10654 H 999.72 1.42763 0.188304 0
M  V30 10655 H 1001.67 3.12567 2.8263 0
M  V30 10656 H 1000.4 1.89408 2.66068 0
M  V30 10657 H 999.056 3.45962 1.21268 0
M  V30 10658 H 998.704 3.42 3.68843 0
M  V30 10659 H 998.404 5.04249 3.01674 0
M  V30 10660 H 999.928 4.70868 3.88737 0
M  V30 10661 H 1001.34 5.46123 1.74422 0
M  V30 10662 H 999.739 5.90173 1.087 0
M  V30 10663 H 1000.81 4.8468 0.146138 0
M  V30 10664 N 1002.15 -0.195058 1.56388 0
M  V30 10665 C 1003.4 -0.915444 1.80626 0
M  V30 10666 C 1003.73 -1.83255 0.651768 0
M  V30 10667 O 1002.98 -1.92314 -0.362464 0
M  V30 10668 C 1003.28 -1.7637 3.10851 0
M  V30 10669 C 1002.95 -0.997572 4.39726 0
M  V30 10670 C 1001.61 -0.786043 4.74737 0
M  V30 10671 C 1003.96 -0.45851 5.19179 0
M  V30 10672 C 1001.29 -0.023972 5.86695 0
M  V30 10673 C 1003.64 0.29035 6.31933 0
M  V30 10674 C 1002.3 0.512895 6.65527 0
M  V30 10675 H 1001.57 -0.334985 0.660959 0
M  V30 10676 H 1004.22 -0.181815 1.90635 0
M  V30 10677 H 1002.53 -2.566 2.9608 0
M  V30 10678 H 1004.22 -2.3237 3.26811 0
M  V30 10679 H 1000.81 -1.17245 4.12252 0
M  V30 10680 H 1005 -0.609334 4.92545 0
M  V30 10681 H 1000.25 0.158421 6.11195 0
M  V30 10682 H 1004.43 0.715429 6.92715 0
M  V30 10683 H 1002.05 1.10531 7.52122 0
M  V30 10684 N 1003.63 -1.50653 -0.462772 0
M  V30 10685 C 1005.04 -1.54821 -1.04342 0
M  V30 10686 C 1005.39 -0.356595 -1.92932 0
M  V30 10687 O 1004.52 0.529579 -2.0982 0
M  V30 10688 C 1005.11 -2.80571 -1.89909 0
M  V30 10689 C 1003.67 -2.87394 -2.43067 0
M  V30 10690 C 1002.82 -2.49206 -1.21621 0
M  V30 10691 H 1005.77 -1.56797 -0.245048 0
M  V30 10692 H 1005.79 -2.62897 -2.75074 0
M  V30 10693 H 1005.3 -3.67281 -1.25405 0
M  V30 10694 H 1003.4 -2.05055 -3.111 0
M  V30 10695 H 1003.52 -3.90477 -2.77605 0
M  V30 10696 H 1001.88 -2.01829 -1.55361 0
M  V30 10697 H 1002.66 -3.38233 -0.587669 0
M  V30 10698 N 1005.11 0.71652 -1.4037 0
M  V30 10699 C 1006.06 1.82219 -1.37041 0
M  V30 10700 C 1007.04 1.58975 -0.248116 0
M  V30 10701 O 1008.23 1.70164 -0.487147 0
M  V30 10702 C 1005.36 3.20337 -1.23446 0
M  V30 10703 C 1004.45 3.49347 -2.40452 0
M  V30 10704 N 1004.84 3.49179 -3.65934 0
M  V30 10705 C 1003.14 3.798 -2.33811 0
M  V30 10706 C 1003.84 3.76506 -4.43416 0
M  V30 10707 N 1002.82 3.95209 -3.73244 0
M  V30 10708 H 1006.62 1.80421 -2.32003 0
M  V30 10709 H 1004.13 0.915603 -1.34129 0
M  V30 10710 H 1006.13 3.99513 -1.19143 0
M  V30 10711 H 1004.79 3.23362 -0.294497 0
M  V30 10712 H 1005.8 3.30051 -3.99107 0
M  V30 10713 H 1002.48 3.9032 -1.48177 0
M  V30 10714 H 1003.87 3.82689 -5.52267 0
M  V30 10715 N 1006.59 1.25851 0.948643 0
M  V30 10716 C 1007.52 1.0108 2.04593 0
M  V30 10717 C 1008.5 -0.0619691 1.62482 0
M  V30 10718 O 1009.68 0.0789196 1.88335 0
M  V30 10719 C 1006.81 0.529174 3.34541 0
M  V30 10720 C 1005.85 1.59337 3.95618 0
M  V30 10721 S 1006.69 3.18026 4.30836 0
M  V30 10722 C 1007.84 2.71613 5.63895 0
M  V30 10723 H 1008.08 1.93988 2.2529 0
M  V30 10724 H 1005.61 1.09448 1.08906 0
M  V30 10725 H 1007.57 0.25795 4.09689 0
M  V30 10726 H 1006.23 -0.37951 3.11799 0
M  V30 10727 H 1005.42 1.20722 4.89328 0
M  V30 10728 H 1005.02 1.81559 3.26975 0
M  V30 10729 H 1007.32 2.15612 6.42275 0
M  V30 10730 H 1008.26 3.63986 6.07387 0
M  V30 10731 H 1008.67 2.11417 5.23415 0
M  V30 10732 N 1008.06 -1.15214 1.07534 0
M  V30 10733 C 1009.03 -2.18209 0.701237 0
M  V30 10734 C 1010.03 -1.58693 -0.25946 0
M  V30 10735 O 1011.22 -1.74154 -0.0401744 0
M  V30 10736 C 1008.35 -3.40883 0.0338703 0
M  V30 10737 H 1009.54 -2.5282 1.61314 0
M  V30 10738 H 1007.1 -1.29707 0.872105 0
M  V30 10739 H 1007.83 -3.11843 -0.890187 0
M  V30 10740 H 1007.62 -3.85342 0.72486 0
M  V30 10741 H 1009.11 -4.17056 -0.213152 0
M  V30 10742 N 1009.54 -0.859717 -1.32086 0
M  V30 10743 C 1010.77 -0.479724 -2.01262 0
M  V30 10744 C 1011.19 0.924985 -1.64589 0
M  V30 10745 O 1010.54 1.60439 -0.869803 0
M  V30 10746 C 1010.59 -0.615128 -3.56228 0
M  V30 10747 O 1010.31 -1.96451 -3.91585 0
M  V30 10748 C 1011.82 -0.234804 -4.42678 0
M  V30 10749 H 1009.04 -0.188007 -0.644123 0
M  V30 10750 H 1011.58 -1.15805 -1.68551 0
M  V30 10751 H 1009.73 0.0155268 -3.87397 0
M  V30 10752 H 1010.15 -1.96491 -4.86304 0
M  V30 10753 H 1011.62 -0.380534 -5.50687 0
M  V30 10754 H 1012.1 0.825189 -4.31378 0
M  V30 10755 H 1012.71 -0.840739 -4.16907 0
M  V30 10756 N 1011.02 1.44971 -0.618145 0
M  V30 10757 C 1012.25 2.06527 -0.124165 0
M  V30 10758 C 1012.66 1.46097 1.19588 0
M  V30 10759 O 1012.02 0.57901 1.73071 0
M  V30 10760 C 1012.07 3.61498 0.0106701 0
M  V30 10761 O 1011.79 4.19675 -1.25716 0
M  V30 10762 C 1013.29 4.40061 0.534872 0
M  V30 10763 H 1010.51 0.666941 -0.0736935 0
M  V30 10764 H 1013.06 1.8605 -0.848871 0
M  V30 10765 H 1011.21 3.81282 0.685752 0
M  V30 10766 H 1011.63 5.12972 -1.09362 0
M  V30 10767 H 1013.1 5.48963 0.57827 0
M  V30 10768 H 1013.58 4.10587 1.55931 0
M  V30 10769 H 1014.18 4.25167 -0.10652 0
M  V30 10770 N 1012.5 0.357919 1.53482 0
M  V30 10771 C 1013.46 -0.479797 2.24122 0
M  V30 10772 C 1014.46 -1.01596 1.24639 0
M  V30 10773 O 1015.65 -0.902928 1.48973 0
M  V30 10774 C 1012.78 -1.66983 2.97203 0
M  V30 10775 H 1013.98 0.138219 2.99581 0
M  V30 10776 H 1011.53 0.109484 1.55916 0
M  V30 10777 H 1012.26 -2.32615 2.25966 0
M  V30 10778 H 1012.05 -1.29242 3.70188 0
M  V30 10779 H 1013.54 -2.26367 3.50924 0
M  V30 10780 N 1013.98 -1.5736 0.0868897 0
M  V30 10781 C 1015.22 -1.94054 -0.578741 0
M  V30 10782 C 1015.55 -0.968047 -1.68698 0
M  V30 10783 O 1014.81 0.0137824 -1.95695 0
M  V30 10784 C 1015.11 -3.37316 -1.18123 0
M  V30 10785 C 1014.77 -4.50467 -0.197607 0
M  V30 10786 C 1013.43 -4.81145 0.072952 0
M  V30 10787 C 1015.79 -5.19036 0.474473 0
M  V30 10788 C 1013.11 -5.77723 1.02242 0
M  V30 10789 C 1015.47 -6.16632 1.41236 0
M  V30 10790 C 1014.13 -6.45719 1.69124 0
M  V30 10791 H 1013.4 -0.710093 -0.211776 0
M  V30 10792 H 1016.05 -1.90822 0.160978 0
M  V30 10793 H 1014.35 -3.37085 -1.99701 0
M  V30 10794 H 1016.05 -3.63003 -1.7038 0
M  V30 10795 H 1012.64 -4.2655 -0.418669 0
M  V30 10796 H 1016.82 -4.95518 0.278581 0
M  V30 10797 H 1012.08 -5.98578 1.24557 0
M  V30 10798 H 1016.25 -6.68862 1.939 0
M  V30 10799 H 1013.88 -7.20365 2.42855 0
M  V30 10800 N 1015.45 0.186762 -1.56489 0
M  V30 10801 C 1016.39 1.25971 -1.9028 0
M  V30 10802 C 1017.37 1.43543 -0.763822 0
M  V30 10803 O 1018.55 1.58799 -1.01564 0
M  V30 10804 C 1015.68 2.62507 -2.14028 0
M  V30 10805 C 1014.72 2.61758 -3.36727 0
M  V30 10806 S 1015.56 2.12366 -4.9159 0
M  V30 10807 C 1016.71 3.5071 -5.18414 0
M  V30 10808 H 1016.94 0.971203 -2.80989 0
M  V30 10809 H 1014.48 0.390636 -1.49377 0
M  V30 10810 H 1016.44 3.41098 -2.28391 0
M  V30 10811 H 1015.1 2.88564 -1.24054 0
M  V30 10812 H 1014.29 3.62173 -3.50495 0
M  V30 10813 H 1013.89 1.91254 -3.214 0
M  V30 10814 H 1016.18 4.46622 -5.09445 0
M  V30 10815 H 1017.13 3.41829 -6.20128 0
M  V30 10816 H 1017.53 3.46008 -4.46026 0
M  V30 10817 N 1016.93 1.50896 0.454776 0
M  V30 10818 C 1017.86 1.6712 1.56855 0
M  V30 10819 C 1018.88 0.552223 1.53148 0
M  V30 10820 O 1020.07 0.825969 1.5824 0
M  V30 10821 C 1017.17 1.65464 2.95762 0
M  V30 10822 C 1016.34 2.93662 3.24163 0
M  V30 10823 C 1015.4 2.84428 4.42704 0
M  V30 10824 O 1014.42 3.58382 4.42211 0
M  V30 10825 N 1015.63 1.9909 5.45292 0
M  V30 10826 H 1018.39 2.63194 1.43349 0
M  V30 10827 H 1015.95 1.48564 0.643457 0
M  V30 10828 H 1017.94 1.56878 3.73057 0
M  V30 10829 H 1016.51 0.770568 3.02954 0
M  V30 10830 H 1015.73 3.16251 2.35328 0
M  V30 10831 H 1017.02 3.78558 3.39957 0
M  V30 10832 H 1016.42 1.3835 5.48521 0
M  V30 10833 H 1014.98 1.96396 6.21508 0
M  V30 10834 N 1018.41 -0.709066 1.40748 0
M  V30 10835 C 1019.82 -1.28847 1.35112 0
M  V30 10836 C 1020.17 -1.9618 0.0277149 0
M  V30 10837 O 1019.3 -1.97955 -0.874233 0
M  V30 10838 C 1019.89 -2.34306 2.44716 0
M  V30 10839 C 1018.45 -2.87856 2.4252 0
M  V30 10840 C 1017.6 -1.61723 2.25257 0
M  V30 10841 H 1020.55 -0.504742 1.50459 0
M  V30 10842 H 1020.57 -3.15297 2.12998 0
M  V30 10843 H 1020.08 -1.85271 3.41022 0
M  V30 10844 H 1018.18 -3.41103 1.49931 0
M  V30 10845 H 1018.3 -3.39205 3.38344 0
M  V30 10846 H 1016.66 -1.87032 1.7289 0
M  V30 10847 H 1017.44 -1.14703 3.23571 0
M  V30 10848 N 1019.89 -1.26353 -0.941956 0
M  V30 10849 C 1021.17 -1.02601 -1.6653 0
M  V30 10850 C 1021.55 0.44381 -2.06382 0
M  V30 10851 O 1020.89 1.42399 -1.78703 0
M  V30 10852 C 1021.1 -1.97401 -2.87809 0
M  V30 10853 C 1022.45 -2.25967 -3.59478 0
M  V30 10854 O 1023.48 -1.95261 -2.97912 0
M  V30 10855 O 1022.34 -2.78244 -4.70364 0
M  V30 10856 H 1019.43 -0.39007 -0.729228 0
M  V30 10857 H 1021.98 -1.37559 -0.993754 0
M  V30 10858 H 1020.75 -2.9659 -2.55245 0
M  V30 10859 H 1020.37 -1.62918 -3.62689 0
M  V30 10860 N 1021.37 1.14642 -1.08144 0
M  V30 10861 C 1022.32 2.17665 -0.678661 0
M  V30 10862 C 1023.3 1.58072 0.300336 0
M  V30 10863 O 1024.49 1.7664 0.112781 0
M  V30 10864 C 1021.62 3.43191 -0.0866362 0
M  V30 10865 C 1020.71 4.0982 -1.09126 0
M  V30 10866 N 1021.1 4.51814 -2.27372 0
M  V30 10867 C 1019.4 4.36272 -0.926411 0
M  V30 10868 C 1020.1 5.03581 -2.91172 0
M  V30 10869 N 1019.07 4.97624 -2.18795 0
M  V30 10870 H 1022.88 2.47872 -1.57914 0
M  V30 10871 H 1020.39 1.31296 -0.955772 0
M  V30 10872 H 1022.39 4.1632 0.219859 0
M  V30 10873 H 1021.05 3.14464 0.80886 0
M  V30 10874 H 1022.06 4.44941 -2.65044 0
M  V30 10875 H 1018.74 4.17414 -0.084492 0
M  V30 10876 H 1020.13 5.45969 -3.91621 0
M  V30 10877 N 1022.85 0.866709 1.31628 0
M  V30 10878 C 1023.81 0.325041 2.26883 0
M  V30 10879 C 1024.81 -0.522133 1.52087 0
M  V30 10880 O 1026 -0.331908 1.71009 0
M  V30 10881 C 1023.13 -0.538756 3.36616 0
M  V30 10882 H 1024.32 1.16592 2.76308 0
M  V30 10883 H 1021.88 0.642029 1.42505 0
M  V30 10884 H 1022.61 -1.40096 2.92478 0
M  V30 10885 H 1022.4 0.0678115 3.92041 0
M  V30 10886 H 1023.89 -0.910123 4.07562 0
M  V30 10887 N 1024.32 -1.44642 0.625825 0
M  V30 10888 C 1025.57 -2.01695 0.127948 0
M  V30 10889 C 1025.89 -1.49439 -1.25271 0
M  V30 10890 O 1025.16 -0.695873 -1.83124 0
M  V30 10891 H 1023.74 -0.745685 0.0443096 0
M  V30 10892 H 1026.4 -1.7721 0.811332 0
M  V30 10893 H 1025.5 -3.11966 0.0915933 0
M  V30 10894 N 1025.8 -0.366053 -1.5329 0
M  V30 10895 C 1027.05 0.224614 -2.00445 0
M  V30 10896 C 1027.36 1.49829 -1.2574 0
M  V30 10897 O 1028.57 2.16759 -1.63487 0
M  V30 10898 C 1027.03 0.450818 -3.57065 0
M  V30 10899 C 1026.63 -0.808257 -4.40649 0
M  V30 10900 C 1028.38 0.999116 -4.12575 0
M  V30 10901 C 1026.28 -0.551612 -5.88822 0
M  V30 10902 H 1025.21 0.0877114 -0.748881 0
M  V30 10903 H 1027.87 -0.484866 -1.76978 0
M  V30 10904 H 1026.25 1.22157 -3.76688 0
M  V30 10905 H 1027.42 -1.58184 -4.32798 0
M  V30 10906 H 1025.74 -1.27981 -3.96245 0
M  V30 10907 H 1028.33 1.20646 -5.20911 0
M  V30 10908 H 1028.68 1.96139 -3.67199 0
M  V30 10909 H 1029.21 0.288518 -3.96752 0
M  V30 10910 H 1025.95 -1.48423 -6.38475 0
M  V30 10911 H 1025.47 0.183462 -5.99519 0
M  V30 10912 H 1027.15 -0.177307 -6.46757 0
M  V30 10913 N 1027.28 1.57312 -0.0952337 0
M  V30 10914 C 1028.53 1.94358 0.568442 0
M  V30 10915 C 1028.85 0.97698 1.68182 0
M  V30 10916 O 1028.11 -0.00340398 1.957 0
M  V30 10917 C 1028.41 3.37937 1.16332 0
M  V30 10918 C 1028.07 4.50565 0.173715 0
M  V30 10919 C 1026.74 4.81099 -0.0984673 0
M  V30 10920 C 1029.09 5.18777 -0.501992 0
M  V30 10921 C 1026.42 5.77172 -1.05305 0
M  V30 10922 C 1028.77 6.15874 -1.44505 0
M  V30 10923 C 1027.43 6.44813 -1.72546 0
M  V30 10924 H 1026.7 0.711206 0.208007 0
M  V30 10925 H 1029.35 1.90734 -0.171096 0
M  V30 10926 H 1027.65 3.3814 1.97911 0
M  V30 10927 H 1029.35 3.63902 1.68453 0
M  V30 10928 H 1025.94 4.26766 0.396042 0
M  V30 10929 H 1030.13 4.95363 -0.304855 0
M  V30 10930 H 1025.38 5.97909 -1.2773 0
M  V30 10931 H 1029.56 6.67824 -1.97444 0
M  V30 10932 H 1027.18 7.19067 -2.46671 0
M  V30 10933 N 1028.76 -0.17846 1.56586 0
M  V30 10934 C 1030.17 -0.529957 1.50544 0
M  V30 10935 C 1030.37 -1.85015 0.798237 0
M  V30 10936 O 1029.43 -2.49983 0.355639 0
M  V30 10937 C 1030.74 -0.569314 2.95261 0
M  V30 10938 C 1032.29 -0.657008 3.06027 0
M  V30 10939 C 1032.77 -0.727323 4.52188 0
M  V30 10940 N 1034.26 -0.790406 4.56406 0
M  V30 10941 C 1034.99 -0.865265 5.66834 0
M  V30 10942 N 1034.49 -0.901398 6.86911 0
M  V30 10943 N 1036.28 -0.903736 5.54787 0
M  V30 10944 H 1028.43 0.687304 2.00972 0
M  V30 10945 H 1030.69 0.246936 0.915274 0
M  V30 10946 H 1030.4 0.331934 3.5013 0
M  V30 10947 H 1030.27 -1.41828 3.4952 0
M  V30 10948 H 1032.66 -1.54868 2.51197 0
M  V30 10949 H 1032.74 0.218495 2.54865 0
M  V30 10950 H 1032.39 0.160067 5.07648 0
M  V30 10951 H 1032.32 -1.61887 5.01099 0
M  V30 10952 H 1034.81 -0.771054 3.6995 0
M  V30 10953 H 1035.12 -0.959494 7.6682 0
M  V30 10954 H 1033.47 -0.869795 6.89536 0
M  V30 10955 H 1036.66 -0.872459 4.59898 0
M  V30 10956 H 1036.83 -0.958615 6.4087 0
M  V30 10957 N 1030.24 -1.51135 -0.446768 0
M  V30 10958 C 1031.48 -1.63578 -1.19875 0
M  V30 10959 C 1031.81 -0.346478 -1.91084 0
M  V30 10960 O 1031.09 0.653447 -1.83195 0
M  V30 10961 C 1031.37 -2.83275 -2.22323 0
M  V30 10962 C 1031.23 -4.22155 -1.55259 0
M  V30 10963 C 1032.54 -2.98496 -3.23401 0
M  V30 10964 H 1029.66 -0.595333 -0.434452 0
M  V30 10965 H 1032.31 -1.83593 -0.48923 0
M  V30 10966 H 1030.46 -2.6634 -2.82834 0
M  V30 10967 H 1032.13 -4.50736 -0.981571 0
M  V30 10968 H 1030.37 -4.25288 -0.855122 0
M  V30 10969 H 1031.04 -5.01882 -2.29823 0
M  V30 10970 H 1033.52 -3.14079 -2.72935 0
M  V30 10971 H 1032.39 -3.83828 -3.92386 0
M  V30 10972 H 1032.65 -2.10157 -3.88956 0
M  V30 10973 N 1031.71 0.701592 -1.41122 0
M  V30 10974 C 1032.96 1.4616 -1.40155 0
M  V30 10975 C 1033.29 1.94498 -0.00861553 0
M  V30 10976 O 1032.54 1.69484 0.978452 0
M  V30 10977 C 1032.84 2.693 -2.34973 0
M  V30 10978 C 1032.51 2.39652 -3.81939 0
M  V30 10979 C 1031.17 2.31277 -4.21977 0
M  V30 10980 C 1033.52 2.15076 -4.74755 0
M  V30 10981 C 1030.85 1.96413 -5.52846 0
M  V30 10982 C 1033.2 1.81722 -6.05937 0
M  V30 10983 C 1031.87 1.71838 -6.45002 0
M  V30 10984 H 1031.14 0.534837 -0.512865 0
M  V30 10985 H 1033.78 0.802425 -1.73878 0
M  V30 10986 H 1032.09 3.40123 -1.94484 0
M  V30 10987 H 1033.79 3.27427 -2.31501 0
M  V30 10988 H 1030.38 2.47063 -3.50226 0
M  V30 10989 H 1034.56 2.20495 -4.4463 0
M  V30 10990 H 1029.82 1.87308 -5.82001 0
M  V30 10991 H 1033.99 1.61723 -6.77362 0
M  V30 10992 H 1031.62 1.44591 -7.46323 0
M  V30 10993 N 1033.19 1.2685 0.935242 0
M  V30 10994 C 1034.43 1.13972 1.69675 0
M  V30 10995 C 1034.8 -0.310655 1.8947 0
M  V30 10996 O 1036 -0.561692 2.62866 0
M  V30 10997 C 1034.27 1.89387 3.03096 0
M  V30 10998 S 1035.83 1.92633 3.94256 0
M  V30 10999 H 1032.64 0.407009 0.582979 0
M  V30 11000 H 1035.25 1.60653 1.11404 0
M  V30 11001 H 1033.95 2.9397 2.86374 0
M  V30 11002 H 1033.48 1.43171 3.66423 0
M  V30 11003 H 1035.5 1.01732 4.85659 0
M  V30 11004 N 1034.67 -1.14067 1.0875 0
M  V30 11005 C 1035.63 -2.17453 0.724341 0
M  V30 11006 C 1036.63 -1.58959 -0.242614 0
M  V30 11007 O 1037.82 -1.74186 -0.0217008 0
M  V30 11008 C 1034.96 -3.40828 0.0700236 0
M  V30 11009 H 1036.15 -2.51094 1.63987 0
M  V30 11010 H 1033.7 -1.28775 0.885813 0
M  V30 11011 H 1034.44 -3.1277 -0.857061 0
M  V30 11012 H 1034.22 -3.84551 0.76569 0
M  V30 11013 H 1035.71 -4.17258 -0.168905 0
M  V30 11014 N 1036.15 -0.873678 -1.31166 0
M  V30 11015 C 1037.38 -0.501043 -2.00742 0
M  V30 11016 C 1037.79 0.907477 -1.65561 0
M  V30 11017 O 1037.15 1.59507 -0.886771 0
M  V30 11018 C 1037.2 -0.652877 -3.55556 0
M  V30 11019 O 1036.92 -2.00593 -3.89479 0
M  V30 11020 C 1038.42 -0.281742 -4.42404 0
M  V30 11021 H 1035.64 -0.194829 -0.642092 0
M  V30 11022 H 1038.19 -1.17587 -1.67313 0
M  V30 11023 H 1036.34 -0.0255627 -3.87392 0
M  V30 11024 H 1036.75 -2.01638 -4.84193 0
M  V30 11025 H 1038.23 -0.43892 -5.50252 0
M  V30 11026 H 1038.71 0.779389 -4.32229 0
M  V30 11027 H 1039.31 -0.88491 -4.15992 0
M  V30 11028 N 1037.63 1.44308 -0.633487 0
M  V30 11029 C 1038.56 2.27887 0.119397 0
M  V30 11030 C 1039.54 1.38676 0.848981 0
M  V30 11031 O 1040.72 1.68116 0.85259 0
M  V30 11032 C 1037.85 3.17658 1.17521 0
M  V30 11033 C 1036.89 4.22992 0.54589 0
M  V30 11034 S 1037.73 5.31345 -0.6658 0
M  V30 11035 C 1038.88 6.24684 0.389965 0
M  V30 11036 H 1039.12 2.91394 -0.589638 0
M  V30 11037 H 1036.65 1.48529 -0.421727 0
M  V30 11038 H 1038.61 3.69929 1.77941 0
M  V30 11039 H 1037.27 2.53367 1.85645 0
M  V30 11040 H 1036.46 4.85828 1.34115 0
M  V30 11041 H 1036.06 3.73996 0.0162506 0
M  V30 11042 H 1038.36 6.65645 1.26185 0
M  V30 11043 H 1039.3 7.07809 -0.202878 0
M  V30 11044 H 1039.71 5.59929 0.716922 0
M  V30 11045 N 1039.1 0.374177 1.53094 0
M  V30 11046 C 1040.52 -0.103172 1.86415 0
M  V30 11047 C 1040.87 -1.47439 1.29446 0
M  V30 11048 O 1039.99 -2.07333 0.619853 0
M  V30 11049 C 1040.59 -0.193988 3.38244 0
M  V30 11050 C 1039.15 -0.615605 3.71332 0
M  V30 11051 C 1038.29 0.23186 2.76329 0
M  V30 11052 H 1041.24 0.592644 1.47219 0
M  V30 11053 H 1041.26 -1.01597 3.66686 0
M  V30 11054 H 1040.78 0.80414 3.79678 0
M  V30 11055 H 1038.88 -1.62165 3.3546 0
M  V30 11056 H 1038.99 -0.38425 4.77557 0
M  V30 11057 H 1037.35 -0.300579 2.5292 0
M  V30 11058 H 1038.14 1.22769 3.20597 0
M  V30 11059 N 1040.58 -1.57259 0.103575 0
M  V30 11060 C 1041.53 -2.11032 -0.863101 0
M  V30 11061 C 1042.52 -1.02737 -1.2383 0
M  V30 11062 O 1043.71 -1.28997 -1.21197 0
M  V30 11063 C 1040.84 -2.70099 -2.11899 0
M  V30 11064 C 1039.92 -3.85451 -1.76885 0
M  V30 11065 N 1040.31 -4.93137 -1.12469 0
M  V30 11066 C 1038.61 -3.95346 -2.06441 0
M  V30 11067 C 1039.31 -5.73681 -0.962527 0
M  V30 11068 N 1038.29 -5.22992 -1.48258 0
M  V30 11069 H 1042.09 -2.91671 -0.361264 0
M  V30 11070 H 1039.61 -1.62096 -0.0993794 0
M  V30 11071 H 1041.6 -3.06957 -2.82104 0
M  V30 11072 H 1040.26 -1.90918 -2.62641 0
M  V30 11073 H 1041.27 -5.11832 -0.790489 0
M  V30 11074 H 1037.95 -3.27185 -2.59338 0
M  V30 11075 H 1039.34 -6.70337 -0.458098 0
M  V30 11076 N 1042.06 0.170153 -1.56679 0
M  V30 11077 C 1042.99 1.21285 -1.9953 0
M  V30 11078 C 1043.97 1.46104 -0.871071 0
M  V30 11079 O 1045.16 1.57419 -1.13724 0
M  V30 11080 C 1042.29 2.5515 -2.35618 0
M  V30 11081 C 1041.24 2.44898 -3.51011 0
M  V30 11082 C 1040.57 3.83263 -3.72845 0
M  V30 11083 C 1041.87 1.95271 -4.84424 0
M  V30 11084 H 1043.56 0.856646 -2.86883 0
M  V30 11085 H 1041.11 0.410634 -1.38021 0
M  V30 11086 H 1043.06 3.28299 -2.64193 0
M  V30 11087 H 1041.78 2.92561 -1.45175 0
M  V30 11088 H 1040.44 1.74203 -3.22566 0
M  V30 11089 H 1040.09 4.18069 -2.79691 0
M  V30 11090 H 1039.79 3.77272 -4.50488 0
M  V30 11091 H 1041.31 4.57996 -4.03822 0
M  V30 11092 H 1042.73 2.58195 -5.11867 0
M  V30 11093 H 1041.13 2.00225 -5.65712 0
M  V30 11094 H 1042.2 0.90709 -4.7634 0
M  V30 11095 N 1043.54 1.5137 0.438746 0
M  V30 11096 C 1044.76 1.68058 1.21537 0
M  V30 11097 C 1045.19 0.376787 1.84288 0
M  V30 11098 O 1044.55 -0.662911 1.68746 0
M  V30 11099 C 1044.59 2.79684 2.27616 0
M  V30 11100 O 1043.7 2.43189 3.33066 0
M  V30 11101 H 1043.04 0.560408 0.356144 0
M  V30 11102 H 1045.57 1.97926 0.518311 0
M  V30 11103 H 1045.58 3.03726 2.72423 0
M  V30 11104 H 1044.25 3.74293 1.81321 0
M  V30 11105 H 1042.83 2.29713 2.93746 0
M  V30 11106 N 1045.02 -0.694098 1.41492 0
M  V30 11107 C 1046.43 -1.00487 1.23994 0
M  V30 11108 C 1046.63 -2.01078 0.130346 0
M  V30 11109 O 1045.69 -2.47403 -0.504775 0
M  V30 11110 C 1047 -1.52808 2.58979 0
M  V30 11111 C 1048.55 -1.64684 2.66173 0
M  V30 11112 C 1049.02 -2.20406 4.01479 0
M  V30 11113 N 1050.52 -2.27765 4.03333 0
M  V30 11114 C 1051.25 -2.7191 5.04829 0
M  V30 11115 N 1050.75 -3.1565 6.16714 0
M  V30 11116 N 1052.54 -2.71487 4.9219 0
M  V30 11117 H 1044.69 -0.027746 2.12382 0
M  V30 11118 H 1046.95 -0.0748741 0.945039 0
M  V30 11119 H 1046.66 -0.863519 3.40934 0
M  V30 11120 H 1046.53 -2.50998 2.81566 0
M  V30 11121 H 1048.92 -2.30251 1.84576 0
M  V30 11122 H 1049 -0.65035 2.47395 0
M  V30 11123 H 1048.65 -1.55454 4.83525 0
M  V30 11124 H 1048.58 -3.2081 4.17599 0
M  V30 11125 H 1051.07 -1.96899 3.22551 0
M  V30 11126 H 1051.38 -3.47966 6.90029 0
M  V30 11127 H 1049.72 -3.13555 6.20248 0
M  V30 11128 H 1052.92 -2.36666 4.03865 0
M  V30 11129 H 1053.09 -3.05573 5.71427 0
M  V30 11130 N 1046.49 -1.27344 -0.928501 0
M  V30 11131 C 1047.74 -1.13411 -1.67279 0
M  V30 11132 C 1048.06 0.320698 -1.92345 0
M  V30 11133 O 1047.33 1.2245 -1.52915 0
M  V30 11134 H 1045.91 -0.416712 -0.619968 0
M  V30 11135 H 1048.58 -1.5986 -1.11493 0
M  V30 11136 H 1047.67 -1.66256 -2.64131 0
M  V30 11137 N 1047.97 1.13488 -1.09353 0
M  V30 11138 C 1048.91 2.17951 -0.67622 0
M  V30 11139 C 1049.88 1.59482 0.316906 0
M  V30 11140 O 1051.07 1.8723 0.218459 0
M  V30 11141 C 1048.19 3.387 0.00391024 0
M  V30 11142 C 1047.24 4.15764 -0.950906 0
M  V30 11143 S 1048.07 4.75517 -2.46259 0
M  V30 11144 C 1049.23 5.99613 -1.79485 0
M  V30 11145 H 1049.46 2.53012 -1.56115 0
M  V30 11146 H 1047 1.24773 -0.909447 0
M  V30 11147 H 1048.95 4.08643 0.39002 0
M  V30 11148 H 1047.61 3.01941 0.86548 0
M  V30 11149 H 1046.81 5.02229 -0.422086 0
M  V30 11150 H 1046.41 3.51473 -1.27838 0
M  V30 11151 H 1048.7 6.68204 -1.11846 0
M  V30 11152 H 1049.64 6.57102 -2.63862 0
M  V30 11153 H 1050.05 5.50165 -1.26409 0
M  V30 11154 N 1049.45 0.880621 1.30701 0
M  V30 11155 C 1050.7 0.495894 1.95922 0
M  V30 11156 C 1051.02 -0.957214 1.69889 0
M  V30 11157 O 1050.29 -1.67245 1.0201 0
M  V30 11158 H 1048.87 0.180394 0.724891 0
M  V30 11159 H 1051.53 1.12274 1.59313 0
M  V30 11160 H 1050.63 0.662508 3.04987 0
M  V30 11161 N 1050.93 -1.4397 0.641131 0
M  V30 11162 C 1051.86 -2.28997 -0.0963315 0
M  V30 11163 C 1052.87 -1.4184 -0.799071 0
M  V30 11164 O 1054.06 -1.65896 -0.658846 0
M  V30 11165 C 1051.16 -3.18465 -1.15903 0
M  V30 11166 C 1050.34 -4.34093 -0.536828 0
M  V30 11167 C 1049.4 -5.04522 -1.4948 0
M  V30 11168 O 1048.42 -5.60202 -1.00807 0
M  V30 11169 N 1049.62 -5.06899 -2.82901 0
M  V30 11170 H 1052.39 -2.9293 0.633422 0
M  V30 11171 H 1049.95 -1.54527 0.48302 0
M  V30 11172 H 1051.94 -3.62445 -1.80044 0
M  V30 11173 H 1050.51 -2.56214 -1.79089 0
M  V30 11174 H 1049.73 -3.9318 0.283414 0
M  V30 11175 H 1051.02 -5.08698 -0.101966 0
M  V30 11176 H 1050.42 -4.63012 -3.25017 0
M  V30 11177 H 1048.97 -5.54637 -3.42376 0
M  V30 11178 N 1052.41 -0.382291 -1.52893 0
M  V30 11179 C 1053.66 0.203342 -2.00672 0
M  V30 11180 C 1053.97 1.48487 -1.27322 0
M  V30 11181 O 1055.18 2.15013 -1.65776 0
M  V30 11182 C 1053.63 0.412922 -3.57523 0
M  V30 11183 C 1053.24 -0.854949 -4.39767 0
M  V30 11184 C 1054.98 0.955301 -4.13611 0
M  V30 11185 C 1052.89 -0.614033 -5.88204 0
M  V30 11186 H 1051.82 0.0797635 -0.749769 0
M  V30 11187 H 1054.47 -0.50361 -1.76454 0
M  V30 11188 H 1052.85 1.18155 -3.77962 0
M  V30 11189 H 1054.03 -1.62765 -4.31096 0
M  V30 11190 H 1052.34 -1.32176 -3.94865 0
M  V30 11191 H 1054.94 1.15114 -5.22162 0
M  V30 11192 H 1055.28 1.92233 -3.69259 0
M  V30 11193 H 1055.82 0.24642 -3.97036 0
M  V30 11194 H 1052.55 -1.55187 -6.36865 0
M  V30 11195 H 1052.07 0.119865 -5.9968 0
M  V30 11196 H 1053.75 -0.245895 -6.46533 0
M  V30 11197 N 1053.89 1.57202 -0.111913 0
M  V30 11198 C 1055.12 1.99008 0.554907 0
M  V30 11199 C 1055.52 0.990323 1.61212 0
M  V30 11200 O 1054.87 -0.0259612 1.83682 0
M  V30 11201 C 1054.93 3.37218 1.24598 0
M  V30 11202 C 1054.59 4.55752 0.337549 0
M  V30 11203 C 1055.59 5.18192 -0.421026 0
M  V30 11204 C 1053.27 5.01674 0.25069 0
M  V30 11205 C 1055.27 6.24938 -1.25426 0
M  V30 11206 C 1052.96 6.08282 -0.586186 0
M  V30 11207 C 1053.95 6.6978 -1.3373 0
M  V30 11208 O 1053.64 7.7433 -2.16029 0
M  V30 11209 H 1053.37 0.658669 0.152091 0
M  V30 11210 H 1055.93 2.04492 -0.192937 0
M  V30 11211 H 1054.16 3.28467 2.04074 0
M  V30 11212 H 1055.85 3.63359 1.809 0
M  V30 11213 H 1056.61 4.83634 -0.363752 0
M  V30 11214 H 1052.49 4.53558 0.825005 0
M  V30 11215 H 1056.04 6.72869 -1.84102 0
M  V30 11216 H 1051.93 6.42271 -0.64488 0
M  V30 11217 H 1052.7 7.91395 -2.08894 0
M  V30 11218 N 1055.36 -0.161842 1.56767 0
M  V30 11219 C 1056.27 -1.21996 2.00385 0
M  V30 11220 C 1057.29 -1.4789 0.916768 0
M  V30 11221 O 1058.47 -1.59852 1.22513 0
M  V30 11222 C 1055.53 -2.53695 2.36305 0
M  V30 11223 C 1054.59 -2.3558 3.58888 0
M  V30 11224 C 1053.82 -3.60998 3.93085 0
M  V30 11225 O 1054.05 -4.6657 3.28129 0
M  V30 11226 O 1052.98 -3.54544 4.86397 0
M  V30 11227 H 1056.81 -0.879701 2.9068 0
M  V30 11228 H 1054.39 -0.369437 1.4476 0
M  V30 11229 H 1056.27 -3.31366 2.60335 0
M  V30 11230 H 1054.95 -2.87281 1.49169 0
M  V30 11231 H 1053.86 -1.55908 3.40064 0
M  V30 11232 H 1055.19 -2.06915 4.46595 0
M  V30 11233 N 1056.84 -1.516 -0.430713 0
M  V30 11234 C 1058.09 -1.6484 -1.18134 0
M  V30 11235 C 1058.42 -0.366725 -1.90706 0
M  V30 11236 O 1057.7 0.63398 -1.83878 0
M  V30 11237 C 1057.98 -2.85617 -2.19306 0
M  V30 11238 C 1057.83 -4.23778 -1.50773 0
M  V30 11239 C 1059.15 -3.01909 -3.20217 0
M  V30 11240 H 1056.27 -0.599907 -0.428113 0
M  V30 11241 H 1058.91 -1.84102 -0.46973 0
M  V30 11242 H 1057.06 -2.69325 -2.79993 0
M  V30 11243 H 1058.73 -4.51752 -0.93371 0
M  V30 11244 H 1056.98 -4.26171 -0.809966 0
M  V30 11245 H 1057.65 -5.04291 -2.24487 0
M  V30 11246 H 1060.12 -3.16956 -2.69589 0
M  V30 11247 H 1059 -3.87968 -3.88293 0
M  V30 11248 H 1059.26 -2.1427 -3.86705 0
M  V30 11249 N 1058.32 0.686584 -1.41858 0
M  V30 11250 C 1059.54 1.4802 -1.45275 0
M  V30 11251 C 1059.97 1.87997 -0.0621297 0
M  V30 11252 O 1059.33 1.55226 0.936733 0
M  V30 11253 C 1059.38 2.7133 -2.37513 0
M  V30 11254 O 1058.48 3.69159 -1.83836 0
M  V30 11255 H 1057.82 0.445152 -0.492682 0
M  V30 11256 H 1060.35 0.843161 -1.86419 0
M  V30 11257 H 1060.36 3.19537 -2.53693 0
M  V30 11258 H 1059.04 2.41571 -3.3855 0
M  V30 11259 H 1057.61 3.28134 -1.77151 0
M  V30 11260 N 1059.8 1.27835 0.921735 0
M  V30 11261 C 1061.02 1.17465 1.70929 0
M  V30 11262 C 1061.45 -0.264171 1.86236 0
M  V30 11263 O 1060.81 -1.19124 1.36671 0
M  V30 11264 C 1060.85 1.8697 3.08342 0
M  V30 11265 O 1059.96 1.17173 3.95404 0
M  V30 11266 H 1059.3 0.408206 0.523702 0
M  V30 11267 H 1061.83 1.69013 1.15307 0
M  V30 11268 H 1061.84 1.94564 3.58621 0
M  V30 11269 H 1060.51 2.91633 2.96518 0
M  V30 11270 H 1059.09 1.17688 3.53842 0
M  V30 11271 N 1061.28 -1.12907 1.09954 0
M  V30 11272 C 1062.52 -1.8595 0.848643 0
M  V30 11273 C 1062.88 -1.81897 -0.614621 0
M  V30 11274 O 1064.08 -2.50233 -0.981667 0
M  V30 11275 C 1062.35 -3.29859 1.3758 0
M  V30 11276 S 1063.91 -4.20333 1.25959 0
M  V30 11277 H 1060.73 -0.641404 0.306793 0
M  V30 11278 H 1063.33 -1.36045 1.40399 0
M  V30 11279 H 1062.03 -3.30365 2.43489 0
M  V30 11280 H 1061.57 -3.84827 0.816806 0
M  V30 11281 H 1063.58 -4.95738 0.214038 0
M  V30 11282 N 1062.75 -0.88754 -1.30232 0
M  V30 11283 C 1064.03 -0.427249 -1.90877 0
M  V30 11284 C 1064.41 1.0922 -1.80649 0
M  V30 11285 O 1063.76 1.92866 -1.22536 0
M  V30 11286 C 1063.97 -0.928219 -3.3643 0
M  V30 11287 C 1065.32 -0.964706 -4.13496 0
M  V30 11288 O 1066.34 -0.875057 -3.45284 0
M  V30 11289 O 1065.2 -1.09754 -5.35366 0
M  V30 11290 H 1062.29 -0.131107 -0.816541 0
M  V30 11291 H 1064.84 -0.976609 -1.38782 0
M  V30 11292 H 1063.61 -1.97209 -3.37971 0
M  V30 11293 H 1063.23 -0.358169 -3.95983 0
M  V30 11294 N 1064.23 1.43628 -0.648757 0
M  V30 11295 C 1065.18 2.32529 0.057536 0
M  V30 11296 C 1066.17 1.48358 0.817699 0
M  V30 11297 O 1067.38 1.64595 0.728605 0
M  V30 11298 H 1063.76 0.75107 0.037388 0
M  V30 11299 H 1065.73 2.89829 -0.710062 0
M  V30 11300 C 1064.48 3.32605 1.01336 0
M  V30 11301 H 1063.8 3.97395 0.437855 0
M  V30 11302 H 1065.24 3.97453 1.47672 0
M  V30 11303 C 1063.7 2.62865 2.10722 0
M  V30 11304 O 1064.23 2.4408 3.19042 0
M  V30 11305 N 1062.43 2.22312 1.87152 0
M  V30 11306 H 1061.98 2.3779 0.990644 0
M  V30 11307 H 1061.94 1.75979 2.60536 0
M  V30 11308 N 1065.71 0.390394 1.52688 0
M  V30 11309 C 1067.13 0.0404028 1.59549 0
M  V30 11310 C 1067.33 -1.44503 1.40432 0
M  V30 11311 O 1066.38 -2.20968 1.22187 0
M  V30 11312 C 1067.7 0.518561 2.96195 0
M  V30 11313 C 1069.24 0.474913 3.09376 0
M  V30 11314 C 1069.72 0.929278 4.48473 0
M  V30 11315 N 1071.21 0.885335 4.5466 0
M  V30 11316 C 1071.94 1.2083 5.60524 0
M  V30 11317 N 1071.44 1.6018 6.74028 0
M  V30 11318 N 1073.23 1.12949 5.50635 0
M  V30 11319 H 1065.38 1.35743 1.63363 0
M  V30 11320 H 1067.65 0.556453 0.767505 0
M  V30 11321 H 1067.35 1.55606 3.15404 0
M  V30 11322 H 1067.23 -0.081779 3.77111 0
M  V30 11323 H 1069.61 -0.553503 2.89863 0
M  V30 11324 H 1069.7 1.11107 2.3041 0
M  V30 11325 H 1069.34 1.95593 4.68728 0
M  V30 11326 H 1069.27 0.270121 5.25907 0
M  V30 11327 H 1071.76 0.595787 3.73174 0
M  V30 11328 H 1072.07 1.83184 7.50775 0
M  V30 11329 H 1070.42 1.64067 6.75357 0
M  V30 11330 H 1073.61 0.821074 4.60843 0
M  V30 11331 H 1073.78 1.3845 6.33037 0
M  V30 11332 N 1067.19 -1.57141 0.120249 0
M  V30 11333 C 1068.47 -1.8677 -0.581075 0
M  V30 11334 C 1068.85 -1.02163 -1.84732 0
M  V30 11335 O 1068.19 -0.100897 -2.28277 0
M  V30 11336 C 1068.4 -3.37923 -0.872316 0
M  V30 11337 C 1069.75 -4.0655 -1.22483 0
M  V30 11338 O 1070.78 -3.42948 -0.962539 0
M  V30 11339 O 1069.63 -5.18821 -1.71717 0
M  V30 11340 H 1066.73 -0.773219 -0.293362 0
M  V30 11341 H 1069.27 -1.68992 0.154846 0
M  V30 11342 H 1068.05 -3.91292 0.0249416 0
M  V30 11343 H 1067.67 -3.61135 -1.66335 0
M  V30 11344 N 1068.67 0.153526 -1.5685 0
M  V30 11345 C 1070.08 0.714247 -1.72498 0
M  V30 11346 C 1070.43 1.81968 -0.733621 0
M  V30 11347 O 1069.55 2.16163 0.10118 0
M  V30 11348 C 1070.15 1.30238 -3.12767 0
M  V30 11349 C 1068.71 1.80974 -3.30038 0
M  V30 11350 C 1067.85 0.695638 -2.68433 0
M  V30 11351 H 1070.81 -0.0720733 -1.58536 0
M  V30 11352 H 1070.83 2.17217 -3.12405 0
M  V30 11353 H 1070.34 0.497605 -3.84897 0
M  V30 11354 H 1068.44 2.64039 -2.62895 0
M  V30 11355 H 1068.55 1.94294 -4.37934 0
M  V30 11356 H 1066.92 1.12061 -2.28723 0
M  V30 11357 H 1067.7 -0.0975885 -3.43161 0
M  V30 11358 N 1070.14 1.51827 0.422667 0
M  V30 11359 C 1071.37 1.69337 1.19748 0
M  V30 11360 C 1071.79 0.396312 1.83878 0
M  V30 11361 O 1071.15 -0.644976 1.6944 0
M  V30 11362 C 1071.2 2.82082 2.24637 0
M  V30 11363 O 1070.3 2.46708 3.30468 0
M  V30 11364 H 1069.65 0.564154 0.35018 0
M  V30 11365 H 1072.18 1.98465 0.497289 0
M  V30 11366 H 1072.19 3.06599 2.69186 0
M  V30 11367 H 1070.86 3.76195 1.77341 0
M  V30 11368 H 1069.44 2.32815 2.91293 0
M  V30 11369 N 1071.62 -0.679052 1.4222 0
M  V30 11370 C 1072.53 -1.82221 1.47759 0
M  V30 11371 C 1073.55 -1.70092 0.3667 0
M  V30 11372 O 1074.72 -1.91718 0.616957 0
M  V30 11373 C 1071.79 -3.18332 1.37351 0
M  V30 11374 C 1070.85 -3.42449 2.58896 0
M  V30 11375 C 1070.08 -4.72067 2.48976 0
M  V30 11376 O 1070.31 -5.49683 1.5233 0
M  V30 11377 O 1069.24 -4.97333 3.39033 0
M  V30 11378 H 1073.07 -1.80504 2.44238 0
M  V30 11379 H 1070.65 -0.834251 1.23938 0
M  V30 11380 H 1072.53 -3.99563 1.33893 0
M  V30 11381 H 1071.21 -3.20696 0.439965 0
M  V30 11382 H 1070.12 -2.61083 2.6793 0
M  V30 11383 H 1071.45 -3.44912 3.51136 0
M  V30 11384 N 1073.1 -1.28322 -0.914942 0
M  V30 11385 C 1074.03 -1.07947 -2.02188 0
M  V30 11386 C 1075.05 -0.0315743 -1.62769 0
M  V30 11387 O 1076.23 -0.274503 -1.76377 0
M  V30 11388 C 1073.33 -0.61805 -3.33217 0
M  V30 11389 C 1072.51 -1.74109 -4.01254 0
M  V30 11390 C 1071.57 -1.27325 -5.10563 0
M  V30 11391 O 1070.59 -1.97526 -5.33828 0
M  V30 11392 N 1071.79 -0.1358 -5.80341 0
M  V30 11393 H 1074.56 -2.03275 -2.20225 0
M  V30 11394 H 1072.12 -1.20059 -1.08616 0
M  V30 11395 H 1074.11 -0.288693 -4.03669 0
M  V30 11396 H 1072.68 0.242348 -3.11659 0
M  V30 11397 H 1071.9 -2.2401 -3.24366 0
M  V30 11398 H 1073.19 -2.49448 -4.43456 0
M  V30 11399 H 1072.59 0.449846 -5.63909 0
M  V30 11400 H 1071.15 0.134289 -6.51662 0
M  V30 11401 N 1074.58 1.12322 -1.10551 0
M  V30 11402 C 1075.99 1.35858 -0.837543 0
M  V30 11403 C 1076.19 1.94062 0.54241 0
M  V30 11404 O 1075.25 2.1676 1.29505 0
M  V30 11405 C 1076.56 2.299 -1.9382 0
M  V30 11406 C 1078.11 2.43488 -1.96679 0
M  V30 11407 C 1078.59 3.40846 -3.05922 0
M  V30 11408 N 1080.08 3.48404 -3.05236 0
M  V30 11409 C 1080.81 4.2365 -3.86405 0
M  V30 11410 N 1080.31 5.01951 -4.77512 0
M  V30 11411 N 1082.1 4.19068 -3.74618 0
M  V30 11412 H 1074.25 0.729002 -1.99498 0
M  V30 11413 H 1076.52 0.38339 -0.867016 0
M  V30 11414 H 1076.22 1.94309 -2.9315 0
M  V30 11415 H 1076.1 3.30033 -1.82641 0
M  V30 11416 H 1078.48 2.78359 -0.979813 0
M  V30 11417 H 1078.56 1.43239 -2.11934 0
M  V30 11418 H 1078.21 3.06704 -4.04839 0
M  V30 11419 H 1078.14 4.40927 -2.87907 0
M  V30 11420 H 1080.63 2.92545 -2.39219 0
M  V30 11421 H 1080.94 5.56707 -5.36002 0
M  V30 11422 H 1079.29 5.01143 -4.8154 0
M  V30 11423 H 1082.48 3.5698 -3.02792 0
M  V30 11424 H 1082.65 4.77455 -4.38111 0
M  V30 11425 N 1076.06 0.894434 1.2976 0
M  V30 11426 C 1077.29 0.532143 1.99629 0
M  V30 11427 C 1077.69 -0.886234 1.6716 0
M  V30 11428 O 1077.04 -1.59573 0.910065 0
M  V30 11429 C 1077.1 0.638335 3.53787 0
M  V30 11430 C 1076.76 2.02273 4.09798 0
M  V30 11431 C 1077.76 2.99327 4.25087 0
M  V30 11432 C 1075.45 2.33069 4.44954 0
M  V30 11433 C 1077.44 4.25304 4.74758 0
M  V30 11434 C 1075.13 3.59289 4.94322 0
M  V30 11435 C 1076.12 4.55222 5.09178 0
M  V30 11436 O 1075.81 5.79202 5.57477 0
M  V30 11437 H 1075.54 0.203326 0.644697 0
M  V30 11438 H 1078.1 1.2043 1.6639 0
M  V30 11439 H 1076.33 -0.0908338 3.86593 0
M  V30 11440 H 1078.02 0.285956 4.04891 0
M  V30 11441 H 1078.78 2.76849 3.9822 0
M  V30 11442 H 1074.66 1.59162 4.32653 0
M  V30 11443 H 1078.21 5.00189 4.86269 0
M  V30 11444 H 1074.1 3.816 5.20626 0
M  V30 11445 H 1074.87 5.81717 5.75802 0
M  V30 11446 N 1077.53 -1.43282 0.656365 0
M  V30 11447 C 1078.78 -2.01378 0.170702 0
M  V30 11448 C 1079.1 -1.52063 -1.22073 0
M  V30 11449 O 1078.37 -0.73456 -1.81607 0
M  V30 11450 H 1076.95 -0.744577 0.0601168 0
M  V30 11451 H 1079.62 -1.75449 0.848739 0
M  V30 11452 H 1078.71 -3.11701 0.157745 0
M  V30 11453 N 1079.01 -0.398486 -1.52479 0
M  V30 11454 C 1079.95 0.476551 -2.23169 0
M  V30 11455 C 1080.92 1.05665 -1.23587 0
M  V30 11456 O 1082.11 1.10654 -1.52604 0
M  V30 11457 C 1079.24 1.66048 -2.95204 0
M  V30 11458 C 1078.28 1.20478 -4.0913 0
M  V30 11459 S 1079.11 0.178711 -5.35202 0
M  V30 11460 C 1080.27 1.36821 -6.10762 0
M  V30 11461 H 1080.5 -0.123704 -2.97043 0
M  V30 11462 H 1078.04 -0.182722 -1.53315 0
M  V30 11463 H 1079.99 2.33942 -3.37315 0
M  V30 11464 H 1078.66 2.23206 -2.20993 0
M  V30 11465 H 1077.85 2.08901 -4.58668 0
M  V30 11466 H 1077.45 0.604632 -3.6908 0
M  V30 11467 H 1079.74 2.2937 -6.37492 0
M  V30 11468 H 1080.69 0.913579 -7.02182 0
M  V30 11469 H 1081.09 1.58919 -5.41669 0
M  V30 11470 N 1080.49 1.57075 -0.12858 0
M  V30 11471 C 1081.74 1.94695 0.526952 0
M  V30 11472 C 1082.05 1.01482 1.67215 0
M  V30 11473 O 1083.26 1.28606 2.39108 0
M  V30 11474 C 1081.72 3.4605 0.988801 0
M  V30 11475 C 1081.32 4.47816 -0.128457 0
M  V30 11476 C 1083.07 3.92572 1.61517 0
M  V30 11477 C 1080.97 5.9036 0.350628 0
M  V30 11478 H 1079.9 0.726819 0.200623 0
M  V30 11479 H 1082.56 1.82295 -0.209972 0
M  V30 11480 H 1080.94 3.53718 1.78043 0
M  V30 11481 H 1082.11 4.51826 -0.904976 0
M  V30 11482 H 1080.43 4.11103 -0.662075 0
M  V30 11483 H 1083.02 4.96493 1.98491 0
M  V30 11484 H 1083.37 3.33085 2.49721 0
M  V30 11485 H 1083.9 3.87744 0.888768 0
M  V30 11486 H 1080.64 6.53624 -0.495592 0
M  V30 11487 H 1080.16 5.89749 1.09342 0
M  V30 11488 H 1081.84 6.41926 0.808717 0
M  V30 11489 N 1081.97 -0.145205 1.5693 0
M  V30 11490 C 1083.39 -0.497905 1.51635 0
M  V30 11491 C 1083.59 -1.8328 0.837301 0
M  V30 11492 O 1082.64 -2.49172 0.408584 0
M  V30 11493 C 1083.95 -0.506557 2.96403 0
M  V30 11494 C 1085.5 -0.591947 3.07352 0
M  V30 11495 C 1085.98 -0.631244 4.53629 0
M  V30 11496 N 1087.47 -0.693417 4.5798 0
M  V30 11497 C 1088.2 -0.744836 5.68542 0
M  V30 11498 N 1087.7 -0.755492 6.88668 0
M  V30 11499 N 1089.49 -0.785854 5.5658 0
M  V30 11500 H 1081.64 0.729779 1.99469 0
M  V30 11501 H 1083.91 0.266295 0.90983 0
M  V30 11502 H 1083.61 0.406127 3.49347 0
M  V30 11503 H 1083.49 -1.34383 3.5245 0
M  V30 11504 H 1085.87 -1.49505 2.54425 0
M  V30 11505 H 1085.95 0.272507 2.54344 0
M  V30 11506 H 1085.6 0.26771 5.07194 0
M  V30 11507 H 1085.53 -1.51221 5.0442 0
M  V30 11508 H 1088.02 -0.692408 3.71503 0
M  V30 11509 H 1088.33 -0.796624 7.68683 0
M  V30 11510 H 1086.68 -0.723339 6.91226 0
M  V30 11511 H 1089.87 -0.774712 4.61645 0
M  V30 11512 H 1090.04 -0.822461 6.42759 0
M  V30 11513 N 1083.45 -1.52049 -0.414609 0
M  V30 11514 C 1084.68 -1.69679 -1.18392 0
M  V30 11515 C 1085.09 -0.403881 -1.84429 0
M  V30 11516 O 1084.45 0.619636 -1.71659 0
M  V30 11517 C 1084.5 -2.82855 -2.25112 0
M  V30 11518 O 1084.22 -4.07138 -1.61772 0
M  V30 11519 C 1085.72 -3.11948 -3.14965 0
M  V30 11520 H 1082.94 -0.56879 -0.355977 0
M  V30 11521 H 1085.48 -1.9858 -0.488505 0
M  V30 11522 H 1083.64 -2.56488 -2.90332 0
M  V30 11523 H 1084.05 -4.70163 -2.32479 0
M  V30 11524 H 1085.53 -3.94665 -3.85932 0
M  V30 11525 H 1086 -2.25276 -3.77024 0
M  V30 11526 H 1086.61 -3.40059 -2.55421 0
M  V30 11527 N 1084.93 0.6715 -1.42579 0
M  V30 11528 C 1086.17 1.43154 -1.43224 0
M  V30 11529 C 1086.5 1.94436 -0.0498695 0
M  V30 11530 O 1085.76 1.71521 0.942282 0
M  V30 11531 C 1086.05 2.64256 -2.40632 0
M  V30 11532 C 1085.72 2.31497 -3.86937 0
M  V30 11533 C 1084.38 2.22274 -4.26788 0
M  V30 11534 C 1086.73 2.04957 -4.7921 0
M  V30 11535 C 1084.06 1.84642 -5.56888 0
M  V30 11536 C 1086.41 1.68828 -6.09656 0
M  V30 11537 C 1085.08 1.58118 -6.48502 0
M  V30 11538 H 1084.35 0.523838 -0.524094 0
M  V30 11539 H 1087 0.765363 -1.7554 0
M  V30 11540 H 1085.3 3.35921 -2.01654 0
M  V30 11541 H 1087 3.22443 -2.38394 0
M  V30 11542 H 1083.59 2.39578 -3.55387 0
M  V30 11543 H 1087.77 2.11014 -4.49207 0
M  V30 11544 H 1083.03 1.74921 -5.85843 0
M  V30 11545 H 1087.2 1.47319 -6.8064 0
M  V30 11546 H 1084.83 1.28728 -7.49222 0
M  V30 11547 N 1086.4 1.28806 0.908124 0
M  V30 11548 C 1087.63 1.1898 1.689 0
M  V30 11549 C 1088.04 -0.253334 1.87496 0
M  V30 11550 O 1087.38 -1.18245 1.40584 0
M  V30 11551 C 1087.45 1.82266 3.0987 0
M  V30 11552 C 1087.11 3.31534 3.14538 0
M  V30 11553 C 1088.11 4.27886 2.95313 0
M  V30 11554 C 1085.79 3.72589 3.36872 0
M  V30 11555 C 1087.79 5.63267 2.98343 0
M  V30 11556 C 1085.47 5.08095 3.39534 0
M  V30 11557 C 1086.47 6.03244 3.2029 0
M  V30 11558 O 1086.16 7.36277 3.22724 0
M  V30 11559 H 1085.89 0.413772 0.534574 0
M  V30 11560 H 1088.45 1.7055 1.14464 0
M  V30 11561 H 1086.68 1.25197 3.65872 0
M  V30 11562 H 1088.36 1.6688 3.70008 0
M  V30 11563 H 1089.13 3.97502 2.77879 0
M  V30 11564 H 1085.01 2.98989 3.50894 0
M  V30 11565 H 1088.55 6.37511 2.83241 0
M  V30 11566 H 1084.45 5.38126 3.56497 0
M  V30 11567 H 1085.22 7.44976 3.39048 0
M  V30 11568 N 1087.88 -1.11734 1.11145 0
M  V30 11569 C 1089.13 -1.82766 0.853194 0
M  V30 11570 C 1089.44 -1.85408 -0.623168 0
M  V30 11571 O 1090.65 -2.52509 -0.997574 0
M  V30 11572 C 1089.11 -3.28215 1.47658 0
M  V30 11573 C 1088.71 -3.33911 2.98676 0
M  V30 11574 C 1090.46 -4.04168 1.29803 0
M  V30 11575 C 1088.36 -4.73739 3.54013 0
M  V30 11576 H 1087.29 -0.684807 0.315523 0
M  V30 11577 H 1089.95 -1.25756 1.33633 0
M  V30 11578 H 1088.33 -3.85138 0.921116 0
M  V30 11579 H 1089.5 -2.86887 3.606 0
M  V30 11580 H 1087.82 -2.71437 3.15771 0
M  V30 11581 H 1090.41 -5.07429 1.68582 0
M  V30 11582 H 1090.76 -4.15606 0.240302 0
M  V30 11583 H 1091.29 -3.53623 1.82196 0
M  V30 11584 H 1088.03 -4.67497 4.59485 0
M  V30 11585 H 1087.55 -5.21186 2.9686 0
M  V30 11586 H 1089.23 -5.42691 3.52271 0
M  V30 11587 N 1089.36 -0.901303 -1.29284 0
M  V30 11588 C 1090.32 -0.385081 -2.25942 0
M  V30 11589 C 1091.32 0.481626 -1.53418 0
M  V30 11590 O 1092.51 0.286451 -1.71829 0
M  V30 11591 C 1089.64 0.449319 -3.37926 0
M  V30 11592 H 1090.84 -1.23877 -2.7312 0
M  V30 11593 H 1088.39 -0.679586 -1.40753 0
M  V30 11594 H 1089.13 1.32292 -2.9609 0
M  V30 11595 H 1088.91 -0.171731 -3.91724 0
M  V30 11596 H 1090.4 0.801746 -4.09831 0
M  V30 11597 N 1090.84 1.42931 -0.663954 0
M  V30 11598 C 1091.8 2.29197 0.0117626 0
M  V30 11599 C 1092.8 1.42767 0.739875 0
M  V30 11600 O 1093.99 1.64278 0.579509 0
M  V30 11601 C 1091.12 3.2505 1.02738 0
M  V30 11602 H 1092.32 2.90438 -0.747391 0
M  V30 11603 H 1089.87 1.5039 -0.425733 0
M  V30 11604 H 1090.6 2.68726 1.8154 0
M  V30 11605 H 1090.39 3.88785 0.508809 0
M  V30 11606 H 1091.88 3.89771 1.49893 0
M  V30 11607 N 1092.32 0.406567 1.52266 0
M  V30 11608 C 1093.23 -0.4271 2.30679 0
M  V30 11609 C 1094.24 -1.0559 1.383 0
M  V30 11610 O 1095.42 -1.05797 1.71374 0
M  V30 11611 C 1092.48 -1.53008 3.1111 0
M  V30 11612 C 1091.54 -0.924604 4.19225 0
M  V30 11613 C 1090.78 -1.97502 4.95811 0
M  V30 11614 O 1091 -3.19277 4.72671 0
M  V30 11615 O 1089.93 -1.58268 5.80719 0
M  V30 11616 H 1093.76 0.212187 3.02958 0
M  V30 11617 H 1091.34 0.169835 1.48432 0
M  V30 11618 H 1093.23 -2.17046 3.61205 0
M  V30 11619 H 1091.9 -2.15401 2.41628 0
M  V30 11620 H 1090.81 -0.247009 3.73284 0
M  V30 11621 H 1092.14 -0.34463 4.90992 0
M  V30 11622 N 1093.79 -1.57004 0.136909 0
M  V30 11623 C 1094.7 -2.19807 -0.819887 0
M  V30 11624 C 1095.72 -1.17939 -1.27932 0
M  V30 11625 O 1096.9 -1.50478 -1.3386 0
M  V30 11626 C 1093.96 -2.79935 -2.04542 0
M  V30 11627 C 1093.02 -3.96897 -1.6362 0
M  V30 11628 C 1092.26 -4.54148 -2.80331 0
M  V30 11629 O 1092.48 -4.10282 -3.96264 0
M  V30 11630 O 1091.41 -5.44565 -2.56384 0
M  V30 11631 H 1095.24 -3.02058 -0.315337 0
M  V30 11632 H 1092.82 -1.49131 -0.0896151 0
M  V30 11633 H 1094.71 -3.18191 -2.76283 0
M  V30 11634 H 1093.38 -2.00703 -2.53969 0
M  V30 11635 H 1092.29 -3.63376 -0.889316 0
M  V30 11636 H 1093.62 -4.77618 -1.18918 0
M  V30 11637 N 1095.27 0.136881 -1.57004 0
M  V30 11638 C 1096.52 0.849031 -1.84172 0
M  V30 11639 C 1096.85 1.80359 -0.720027 0
M  V30 11640 O 1096.13 1.92538 0.275584 0
M  V30 11641 C 1096.41 1.61465 -3.21871 0
M  V30 11642 C 1096.26 0.680902 -4.44616 0
M  V30 11643 C 1097.58 2.57488 -3.56914 0
M  V30 11644 H 1094.7 0.307209 -0.669919 0
M  V30 11645 H 1097.34 0.113862 -1.89659 0
M  V30 11646 H 1095.49 2.24137 -3.17325 0
M  V30 11647 H 1097.16 0.0644094 -4.61255 0
M  V30 11648 H 1095.41 -0.00883629 -4.33799 0
M  V30 11649 H 1096.08 1.25286 -5.37594 0
M  V30 11650 H 1098.55 2.0493 -3.62136 0
M  V30 11651 H 1097.43 3.08101 -4.54274 0
M  V30 11652 H 1097.69 3.39321 -2.83397 0
M  V30 11653 N 1096.75 1.52266 0.40654 0
M  V30 11654 C 1097.66 1.78688 1.52012 0
M  V30 11655 C 1098.68 0.6726 1.60475 0
M  V30 11656 O 1099.85 0.95829 1.77141 0
M  V30 11657 C 1096.92 1.93434 2.87722 0
M  V30 11658 C 1095.98 3.17341 2.89125 0
M  V30 11659 C 1095.21 3.31374 4.18362 0
M  V30 11660 O 1095.43 2.50613 5.12396 0
M  V30 11661 O 1094.37 4.24539 4.26674 0
M  V30 11662 H 1098.19 2.73213 1.3262 0
M  V30 11663 H 1095.78 1.37142 0.592653 0
M  V30 11664 H 1097.66 2.04941 3.68208 0
M  V30 11665 H 1096.34 1.02099 3.07177 0
M  V30 11666 H 1095.24 3.1129 2.07483 0
M  V30 11667 H 1096.58 4.08466 2.7462 0
M  V30 11668 N 1098.23 -0.663929 1.42933 0
M  V30 11669 C 1099.47 -1.42446 1.45192 0
M  V30 11670 C 1099.83 -1.92269 0.0710678 0
M  V30 11671 O 1099.12 -1.68688 -0.908565 0
M  V30 11672 C 1099.32 -2.62976 2.4203 0
M  V30 11673 C 1099.15 -2.24948 3.89395 0
M  V30 11674 C 1097.92 -2.13786 4.57847 0
M  V30 11675 C 1100.11 -1.85907 4.79524 0
M  V30 11676 N 1098.1 -1.68976 5.90187 0
M  V30 11677 C 1099.47 -1.52099 6.01054 0
M  V30 11678 C 1101.52 -1.72995 4.6688 0
M  V30 11679 C 1100.22 -1.06673 7.11346 0
M  V30 11680 C 1102.25 -1.28975 5.77165 0
M  V30 11681 C 1101.61 -0.960968 6.97814 0
M  V30 11682 H 1097.71 -0.517312 0.58644 0
M  V30 11683 H 1100.3 -0.765097 1.79037 0
M  V30 11684 H 1098.47 -3.26586 2.10229 0
M  V30 11685 H 1100.2 -3.29624 2.34798 0
M  V30 11686 H 1096.95 -2.33203 4.12206 0
M  V30 11687 H 1097.38 -1.48964 6.60408 0
M  V30 11688 H 1102.02 -1.97057 3.7407 0
M  V30 11689 H 1099.74 -0.813591 8.03994 0
M  V30 11690 H 1103.32 -1.19489 5.69398 0
M  V30 11691 H 1102.2 -0.625522 7.81701 0
M  V30 11692 N 1099.71 -1.29285 -0.901281 0
M  V30 11693 C 1100.98 -1.07847 -1.63182 0
M  V30 11694 C 1101.36 0.377927 -2.07689 0
M  V30 11695 O 1100.71 1.36642 -1.83143 0
M  V30 11696 C 1100.92 -2.06457 -2.81383 0
M  V30 11697 C 1102.27 -2.37289 -3.52107 0
M  V30 11698 O 1103.29 -2.0464 -2.91549 0
M  V30 11699 O 1102.15 -2.93067 -4.61274 0
M  V30 11700 H 1099.25 -0.413073 -0.71645 0
M  V30 11701 H 1101.79 -1.40651 -0.949488 0
M  V30 11702 H 1100.56 -3.04561 -2.4568 0
M  V30 11703 H 1100.19 -1.74374 -3.57323 0
M  V30 11704 N 1101.18 1.11143 -1.11736 0
M  V30 11705 C 1102.41 1.86474 -0.889435 0
M  V30 11706 C 1102.82 1.80584 0.564438 0
M  V30 11707 O 1102.17 1.18743 1.40163 0
M  V30 11708 C 1102.23 3.36066 -1.27671 0
M  V30 11709 C 1101.89 3.65721 -2.74038 0
M  V30 11710 C 1102.89 3.62941 -3.7225 0
M  V30 11711 C 1100.57 3.94629 -3.10762 0
M  V30 11712 C 1102.57 3.88651 -5.05202 0
M  V30 11713 C 1100.25 4.19997 -4.43899 0
M  V30 11714 C 1101.25 4.16996 -5.40928 0
M  V30 11715 O 1100.94 4.41724 -6.71666 0
M  V30 11716 H 1100.67 0.596438 -0.318178 0
M  V30 11717 H 1103.23 1.41465 -1.48918 0
M  V30 11718 H 1101.46 3.81695 -0.620124 0
M  V30 11719 H 1103.15 3.92769 -1.02409 0
M  V30 11720 H 1103.91 3.40655 -3.45223 0
M  V30 11721 H 1099.79 3.96099 -2.35853 0
M  V30 11722 H 1103.33 3.86224 -5.80927 0
M  V30 11723 H 1099.23 4.4176 -4.70657 0
M  V30 11724 H 1100 4.59276 -6.77501 0
M  V30 11725 N 1102.66 0.908147 1.28804 0
M  V30 11726 C 1103.63 0.397058 2.25735 0
M  V30 11727 C 1104.63 -0.473483 1.53671 0
M  V30 11728 O 1105.82 -0.277335 1.71978 0
M  V30 11729 C 1102.95 -0.431392 3.38159 0
M  V30 11730 H 1104.14 1.25323 2.72459 0
M  V30 11731 H 1101.69 0.687041 1.4039 0
M  V30 11732 H 1102.43 -1.3072 2.96787 0
M  V30 11733 H 1102.21 0.192502 3.91627 0
M  V30 11734 H 1103.7 -0.78 4.10251 0
M  V30 11735 N 1104.14 -1.42577 0.671525 0
M  V30 11736 C 1105.55 -1.84736 0.270084 0
M  V30 11737 C 1105.9 -1.56212 -1.18711 0
M  V30 11738 O 1105.03 -1.02028 -1.90838 0
M  V30 11739 C 1105.62 -3.35334 0.483409 0
M  V30 11740 C 1104.18 -3.76154 0.136119 0
M  V30 11741 C 1103.33 -2.66179 0.777444 0
M  V30 11742 H 1106.28 -1.3247 0.873919 0
M  V30 11743 H 1106.3 -3.79573 -0.265483 0
M  V30 11744 H 1105.81 -3.56063 1.54405 0
M  V30 11745 H 1103.91 -3.61033 -0.921209 0
M  V30 11746 H 1104.03 -4.75645 0.574356 0
M  V30 11747 H 1102.39 -2.53841 0.209055 0
M  V30 11748 H 1103.17 -2.89732 1.84148 0
M  V30 11749 N 1105.62 -0.414636 -1.52048 0
M  V30 11750 C 1106.57 0.422766 -2.28726 0
M  V30 11751 C 1107.56 1.04099 -1.3364 0
M  V30 11752 O 1108.77 0.978559 -1.51077 0
M  V30 11753 H 1105.14 0.155123 -0.735827 0
M  V30 11754 H 1107.11 -0.245091 -2.97392 0
M  V30 11755 C 1105.86 1.52418 -3.12513 0
M  V30 11756 H 1105.18 1.05781 -3.85552 0
M  V30 11757 H 1106.62 2.08382 -3.6926 0
M  V30 11758 C 1105.08 2.49465 -2.26426 0
M  V30 11759 O 1105.61 3.53479 -1.90829 0
M  V30 11760 N 1103.82 2.19806 -1.90088 0
M  V30 11761 H 1103.37 1.35253 -2.19236 0
M  V30 11762 H 1103.32 2.84984 -1.32783 0
M  V30 11763 N 1107.1 1.56929 -0.145233 0
M  V30 11764 C 1108.04 2.16671 0.795128 0
M  V30 11765 C 1109.01 1.09908 1.24537 0
M  V30 11766 O 1110.2 1.37941 1.31821 0
M  V30 11767 C 1107.34 2.79111 2.02956 0
M  V30 11768 C 1106.45 4.00261 1.62528 0
M  V30 11769 C 1105.59 4.50705 2.81137 0
M  V30 11770 C 1104.63 5.64324 2.37075 0
M  V30 11771 N 1103.76 6.09395 3.48687 0
M  V30 11772 H 1108.6 2.96692 0.278865 0
M  V30 11773 H 1106.14 1.4656 0.125934 0
M  V30 11774 H 1108.1 3.13456 2.7532 0
M  V30 11775 H 1106.73 2.01737 2.51996 0
M  V30 11776 H 1105.78 3.71906 0.799365 0
M  V30 11777 H 1107.09 4.8258 1.26166 0
M  V30 11778 H 1106.25 4.87096 3.61693 0
M  V30 11779 H 1104.98 3.67389 3.20744 0
M  V30 11780 H 1103.99 5.27511 1.54958 0
M  V30 11781 H 1105.21 6.49425 1.98556 0
M  V30 11782 H 1103.16 5.29014 3.87917 0
M  V30 11783 H 1103.08 6.86636 3.16333 0
M  V30 11784 H 1104.35 6.50431 4.29605 0
M  V30 11785 N 1108.58 -0.128553 1.57075 0
M  V30 11786 C 1109.52 -1.17719 2.00611 0
M  V30 11787 C 1110.52 -1.43423 0.90146 0
M  V30 11788 O 1111.72 -1.43498 1.08666 0
M  V30 11789 H 1108.1 -0.396683 0.638864 0
M  V30 11790 H 1110.07 -0.783437 2.87932 0
M  V30 11791 C 1108.82 -2.49826 2.41831 0
M  V30 11792 H 1108.14 -2.30883 3.26394 0
M  V30 11793 H 1109.58 -3.21784 2.761 0
M  V30 11794 C 1108.04 -3.11712 1.27816 0
M  V30 11795 O 1108.57 -3.9736 0.588917 0
M  V30 11796 N 1106.78 -2.71442 1.03767 0
M  V30 11797 H 1106.32 -2.01891 1.59994 0
M  V30 11798 H 1106.28 -3.1318 0.276743 0
M  V30 11799 N 1110.05 -1.5248 -0.398459 0
M  V30 11800 C 1111.3 -1.68262 -1.14277 0
M  V30 11801 C 1111.65 -0.412722 -1.87921 0
M  V30 11802 O 1110.95 0.593257 -1.82184 0
M  V30 11803 C 1111.14 -2.85038 -2.15611 0
M  V30 11804 C 1110.97 -4.23262 -1.51919 0
M  V30 11805 C 1109.74 -4.88627 -1.28732 0
M  V30 11806 C 1111.94 -5.04986 -0.974349 0
M  V30 11807 N 1109.92 -6.10857 -0.610455 0
M  V30 11808 C 1111.29 -6.18542 -0.425008 0
M  V30 11809 C 1113.35 -4.90243 -0.869843 0
M  V30 11810 C 1112.05 -7.18968 0.218609 0
M  V30 11811 C 1114.08 -5.90913 -0.240063 0
M  V30 11812 C 1113.44 -7.03767 0.298552 0
M  V30 11813 H 1109.54 -0.669275 -0.404469 0
M  V30 11814 H 1112.12 -1.8981 -0.433635 0
M  V30 11815 H 1110.29 -2.65087 -2.83872 0
M  V30 11816 H 1112.02 -2.89804 -2.82481 0
M  V30 11817 H 1108.78 -4.47179 -1.55975 0
M  V30 11818 H 1109.2 -6.76386 -0.288338 0
M  V30 11819 H 1113.84 -4.0321 -1.27207 0
M  V30 11820 H 1111.56 -8.05618 0.632874 0
M  V30 11821 H 1115.15 -5.81578 -0.160576 0
M  V30 11822 H 1114.03 -7.80329 0.778185 0
M  V30 11823 N 1111.53 0.65634 -1.43283 0
M  V30 11824 C 1112.44 1.79847 -1.50639 0
M  V30 11825 C 1113.46 1.69487 -0.393714 0
M  V30 11826 O 1114.63 1.90712 -0.647379 0
M  V30 11827 C 1111.7 3.16107 -1.42398 0
M  V30 11828 C 1110.76 3.38287 -2.64312 0
M  V30 11829 C 1109.99 4.68046 -2.56454 0
M  V30 11830 O 1110.22 5.4719 -1.61056 0
M  V30 11831 O 1109.15 4.91877 -3.46902 0
M  V30 11832 H 1112.98 1.76596 -2.47078 0
M  V30 11833 H 1110.56 0.814428 -1.25249 0
M  V30 11834 H 1112.44 3.97382 -1.40233 0
M  V30 11835 H 1111.12 3.19956 -0.490929 0
M  V30 11836 H 1110.02 2.56788 -2.72049 0
M  V30 11837 H 1111.36 3.39282 -3.56579 0
M  V30 11838 N 1113.01 1.29761 0.894412 0
M  V30 11839 C 1114.26 1.18039 1.64539 0
M  V30 11840 C 1114.58 -0.26697 1.92659 0
M  V30 11841 O 1113.84 -1.20865 1.53916 0
M  V30 11842 C 1114.14 1.94458 2.99868 0
M  V30 11843 C 1113.8 3.44143 2.91336 0
M  V30 11844 C 1112.47 3.84963 2.88716 0
M  V30 11845 C 1114.82 4.39503 2.80154 0
M  V30 11846 C 1112.15 5.19451 2.72741 0
M  V30 11847 C 1114.5 5.74088 2.65718 0
M  V30 11848 C 1113.16 6.14159 2.61467 0
M  V30 11849 H 1112.43 0.431936 0.60209 0
M  V30 11850 H 1115.08 1.60758 1.04063 0
M  V30 11851 H 1113.38 1.44346 3.64241 0
M  V30 11852 H 1115.08 1.82788 3.56917 0
M  V30 11853 H 1111.67 3.11699 2.9418 0
M  V30 11854 H 1115.86 4.08915 2.81251 0
M  V30 11855 H 1111.11 5.49602 2.67858 0
M  V30 11856 H 1115.29 6.47625 2.56038 0
M  V30 11857 H 1112.91 7.18317 2.48847 0
M  V30 11858 N 1114.49 -1.10549 1.12324 0
M  V30 11859 C 1115.4 -2.20428 0.803032 0
M  V30 11860 C 1116.41 -1.72756 -0.207674 0
M  V30 11861 O 1117.59 -2.01357 -0.0415623 0
M  V30 11862 C 1114.65 -3.45716 0.261032 0
M  V30 11863 C 1113.72 -4.08129 1.33152 0
M  V30 11864 C 1112.95 -5.27436 0.815288 0
M  V30 11865 O 1113.17 -5.69317 -0.351361 0
M  V30 11866 O 1112.11 -5.80674 1.58434 0
M  V30 11867 H 1115.93 -2.50249 1.72073 0
M  V30 11868 H 1113.52 -1.19263 0.899815 0
M  V30 11869 H 1115.4 -4.21384 -0.0364007 0
M  V30 11870 H 1114.07 -3.17525 -0.629249 0
M  V30 11871 H 1112.98 -3.3415 1.6821 0
M  V30 11872 H 1114.31 -4.4052 2.19552 0
M  V30 11873 N 1115.97 -0.914965 -1.28321 0
M  V30 11874 C 1116.91 -0.402792 -2.27258 0
M  V30 11875 C 1117.88 0.523412 -1.57638 0
M  V30 11876 O 1119.07 0.445344 -1.8553 0
M  V30 11877 C 1116.21 0.349956 -3.43321 0
M  V30 11878 C 1115.32 -0.608892 -4.27687 0
M  V30 11879 C 1114.46 0.162425 -5.30952 0
M  V30 11880 C 1113.49 -0.789959 -6.06981 0
M  V30 11881 N 1112.63 -0.0520826 -7.02081 0
M  V30 11882 H 1117.47 -1.25153 -2.70446 0
M  V30 11883 H 1115.01 -0.628444 -1.33 0
M  V30 11884 H 1116.97 0.802589 -4.09407 0
M  V30 11885 H 1115.6 1.16303 -3.01121 0
M  V30 11886 H 1114.65 -1.18005 -3.61634 0
M  V30 11887 H 1115.96 -1.33727 -4.8054 0
M  V30 11888 H 1115.11 0.675563 -6.02927 0
M  V30 11889 H 1113.85 0.923851 -4.7887 0
M  V30 11890 H 1112.86 -1.31446 -5.33856 0
M  V30 11891 H 1114.08 -1.55096 -6.61152 0
M  V30 11892 H 1112.03 0.691331 -6.52347 0
M  V30 11893 H 1111.95 -0.720267 -7.52561 0
M  V30 11894 H 1113.21 0.44082 -7.78253 0
M  V30 11895 N 1117.44 1.42219 -0.679077 0
M  V30 11896 C 1118.38 2.29172 0.035583 0
M  V30 11897 C 1119.39 1.43909 0.761183 0
M  V30 11898 O 1120.58 1.67584 0.61463 0
M  V30 11899 C 1117.68 3.21426 1.07419 0
M  V30 11900 C 1116.85 4.35364 0.421547 0
M  V30 11901 C 1115.91 5.08307 1.36051 0
M  V30 11902 O 1114.94 5.62678 0.859186 0
M  V30 11903 N 1116.14 5.14222 2.69362 0
M  V30 11904 H 1118.9 2.91147 -0.710865 0
M  V30 11905 H 1116.46 1.53192 -0.523821 0
M  V30 11906 H 1118.46 3.67091 1.70371 0
M  V30 11907 H 1117.03 2.60873 1.72233 0
M  V30 11908 H 1116.25 3.9229 -0.387559 0
M  V30 11909 H 1117.53 5.08789 -0.0329421 0
M  V30 11910 H 1116.93 4.71467 3.12627 0
M  V30 11911 H 1115.49 5.63519 3.27551 0
M  V30 11912 N 1118.92 0.422693 1.51826 0
M  V30 11913 C 1119.87 -0.413725 2.24215 0
M  V30 11914 C 1120.86 -1.00228 1.2587 0
M  V30 11915 O 1122.05 -0.922845 1.51038 0
M  V30 11916 C 1119.18 -1.52244 3.07696 0
M  V30 11917 C 1118.26 -0.943999 4.1346 0
M  V30 11918 N 1118.65 -0.0934117 5.05714 0
M  V30 11919 C 1116.95 -1.21311 4.29185 0
M  V30 11920 C 1117.65 0.229891 5.81246 0
M  V30 11921 N 1116.63 -0.382753 5.42251 0
M  V30 11922 H 1120.43 0.242283 2.929 0
M  V30 11923 H 1117.94 0.233902 1.60707 0
M  V30 11924 H 1119.94 -2.13438 3.5812 0
M  V30 11925 H 1118.6 -2.18093 2.40552 0
M  V30 11926 H 1119.61 0.271932 5.17186 0
M  V30 11927 H 1116.29 -1.87018 3.7327 0
M  V30 11928 H 1117.68 0.921159 6.65556 0
M  V30 11929 N 1120.4 -1.5685 0.153553 0
M  V30 11930 C 1121.65 -1.96625 -0.49665 0
M  V30 11931 C 1121.98 -1.03877 -1.64083 0
M  V30 11932 O 1121.25 -0.0824112 -1.94325 0
M  V30 11933 C 1121.54 -3.46035 -0.996585 0
M  V30 11934 C 1121.39 -4.49561 0.146551 0
M  V30 11935 C 1122.71 -3.98104 -1.8762 0
M  V30 11936 H 1119.83 -0.714917 -0.179059 0
M  V30 11937 H 1122.47 -1.88527 0.236104 0
M  V30 11938 H 1120.62 -3.53066 -1.621 0
M  V30 11939 H 1122.29 -4.54604 0.783108 0
M  V30 11940 H 1120.53 -4.26271 0.804727 0
M  V30 11941 H 1121.21 -5.51456 -0.245078 0
M  V30 11942 H 1123.68 -3.93593 -1.34997 0
M  V30 11943 H 1122.56 -5.03098 -2.19508 0
M  V30 11944 H 1122.82 -3.40852 -2.81554 0
M  V30 11945 N 1121.88 0.120221 -1.57141 0
M  V30 11946 C 1123.15 0.858458 -1.75755 0
M  V30 11947 C 1123.53 1.98124 -0.728693 0
M  V30 11948 O 1122.88 2.27155 0.247573 0
M  V30 11949 C 1123.09 1.37627 -3.20718 0
M  V30 11950 C 1124.44 1.82909 -3.83183 0
M  V30 11951 O 1125.46 1.47309 -3.24312 0
M  V30 11952 O 1124.32 2.4865 -4.86657 0
M  V30 11953 H 1121.42 0.407583 -0.719587 0
M  V30 11954 H 1123.96 0.104057 -1.69381 0
M  V30 11955 H 1122.74 0.570651 -3.87117 0
M  V30 11956 H 1122.36 2.19341 -3.31625 0
M  V30 11957 N 1123.36 1.52689 0.390367 0
M  V30 11958 C 1124.32 1.76726 1.45947 0
M  V30 11959 C 1125.32 0.637269 1.47633 0
M  V30 11960 O 1126.51 0.905312 1.48828 0
M  V30 11961 C 1123.64 1.86678 2.85244 0
M  V30 11962 H 1124.83 2.72185 1.25918 0
M  V30 11963 H 1122.39 1.4339 0.622023 0
M  V30 11964 H 1123.12 0.931991 3.10619 0
M  V30 11965 H 1122.91 2.68843 2.85422 0
M  V30 11966 H 1124.4 2.06952 3.62713 0
M  V30 11967 N 1124.83 -0.648732 1.43629 0
M  V30 11968 C 1126.25 -0.964917 1.27128 0
M  V30 11969 C 1126.45 -2.00561 0.194251 0
M  V30 11970 O 1125.51 -2.48884 -0.42581 0
M  V30 11971 C 1126.82 -1.44491 2.6371 0
M  V30 11972 C 1128.37 -1.56133 2.71278 0
M  V30 11973 C 1128.84 -2.07521 4.08288 0
M  V30 11974 N 1130.33 -2.14817 4.10375 0
M  V30 11975 C 1131.07 -2.55712 5.13224 0
M  V30 11976 N 1130.56 -2.9587 6.26444 0
M  V30 11977 N 1132.36 -2.55691 5.00578 0
M  V30 11978 H 1124.51 0.0398357 2.12363 0
M  V30 11979 H 1126.77 -0.0447705 0.946942 0
M  V30 11980 H 1126.48 -0.754616 3.43509 0
M  V30 11981 H 1126.35 -2.41914 2.89409 0
M  V30 11982 H 1128.74 -2.24263 1.91808 0
M  V30 11983 H 1128.82 -0.571314 2.49338 0
M  V30 11984 H 1128.46 -1.39992 4.88226 0
M  V30 11985 H 1128.39 -3.07362 4.27594 0
M  V30 11986 H 1130.88 -1.86538 3.28652 0
M  V30 11987 H 1131.2 -3.25837 7.0075 0
M  V30 11988 H 1129.54 -2.93664 6.2991 0
M  V30 11989 H 1132.73 -2.23697 4.1119 0
M  V30 11990 H 1132.91 -2.87239 5.80859 0
M  V30 11991 N 1126.31 -1.30234 -0.887518 0
M  V30 11992 C 1127.56 -1.18675 -1.63587 0
M  V30 11993 C 1127.88 0.259342 -1.93268 0
M  V30 11994 O 1127.15 1.17523 -1.56733 0
M  V30 11995 H 1125.73 -0.436224 -0.606397 0
M  V30 11996 H 1128.39 -1.63326 -1.06351 0
M  V30 11997 H 1127.49 -1.74575 -2.58708 0
M  V30 11998 N 1127.79 1.09952 -1.12909 0
M  V30 11999 C 1128.7 2.19999 -0.81471 0
M  V30 12000 C 1129.72 1.72864 0.19851 0
M  V30 12001 O 1130.89 2.01376 0.0308832 0
M  V30 12002 C 1127.96 3.45573 -0.279363 0
M  V30 12003 C 1127.02 4.07417 -1.35314 0
M  V30 12004 C 1126.25 5.26996 -0.843247 0
M  V30 12005 O 1126.47 5.69495 0.321164 0
M  V30 12006 O 1125.41 5.79826 -1.61511 0
M  V30 12007 H 1129.23 2.49333 -1.73398 0
M  V30 12008 H 1126.82 1.18784 -0.906128 0
M  V30 12009 H 1128.7 4.21398 0.0140531 0
M  V30 12010 H 1127.38 3.17854 0.612401 0
M  V30 12011 H 1126.28 3.33253 -1.6998 0
M  V30 12012 H 1127.62 4.39349 -2.21885 0
M  V30 12013 N 1129.27 0.921757 1.27833 0
M  V30 12014 C 1130.68 0.621102 1.47019 0
M  V30 12015 C 1130.88 -0.831338 1.83551 0
M  V30 12016 O 1129.94 -1.60974 1.94534 0
M  V30 12017 C 1131.25 1.56588 2.56712 0
M  V30 12018 C 1132.8 1.57346 2.70576 0
M  V30 12019 C 1133.28 2.50505 3.8342 0
M  V30 12020 N 1134.77 2.48678 3.90786 0
M  V30 12021 C 1135.5 3.17454 4.77505 0
M  V30 12022 N 1135 3.95588 5.68755 0
M  V30 12023 N 1136.79 3.06501 4.71183 0
M  V30 12024 H 1128.94 1.86085 1.02403 0
M  V30 12025 H 1131.21 0.798595 0.510833 0
M  V30 12026 H 1130.91 2.60175 2.36647 0
M  V30 12027 H 1130.79 1.30305 3.53978 0
M  V30 12028 H 1133.17 0.544919 2.90025 0
M  V30 12029 H 1133.25 1.87675 1.73815 0
M  V30 12030 H 1132.9 3.53466 3.64725 0
M  V30 12031 H 1132.83 2.17474 4.79596 0
M  V30 12032 H 1135.32 1.91928 3.25534 0
M  V30 12033 H 1135.63 4.45066 6.31772 0
M  V30 12034 H 1133.98 3.99692 5.6857 0
M  V30 12035 H 1137.17 2.44958 3.9889 0
M  V30 12036 H 1137.34 3.60372 5.3855 0
M  V30 12037 N 1130.75 -1.41857 0.686609 0
M  V30 12038 C 1131.7 -2.27999 -0.00734666 0
M  V30 12039 C 1132.68 -1.41723 -0.761808 0
M  V30 12040 O 1133.87 -1.65072 -0.638776 0
M  V30 12041 C 1131 -3.29909 -0.949462 0
M  V30 12042 C 1130.09 -4.23666 -0.191722 0
M  V30 12043 N 1130.48 -4.99277 0.809715 0
M  V30 12044 C 1128.78 -4.43937 -0.428489 0
M  V30 12045 C 1129.48 -5.67834 1.2625 0
M  V30 12046 N 1128.45 -5.40387 0.590151 0
M  V30 12047 H 1132.26 -2.83887 0.760608 0
M  V30 12048 H 1129.77 -1.53962 0.516676 0
M  V30 12049 H 1131.77 -3.90436 -1.46169 0
M  V30 12050 H 1130.43 -2.75582 -1.71711 0
M  V30 12051 H 1131.44 -5.04051 1.18966 0
M  V30 12052 H 1128.11 -4.00633 -1.17472 0
M  V30 12053 H 1129.5 -6.38469 2.09301 0
M  V30 12054 N 1132.22 -0.430739 -1.51599 0
M  V30 12055 C 1133.47 0.137657 -2.01631 0
M  V30 12056 C 1133.79 1.43787 -1.31721 0
M  V30 12057 O 1133.06 1.90668 -0.449717 0
M  V30 12058 H 1131.64 0.0538611 -0.745056 0
M  V30 12059 H 1134.31 -0.571935 -1.86319 0
M  V30 12060 H 1133.4 0.318305 -3.10473 0
M  V30 12061 N 1133.7 1.56767 -0.161869 0
M  V30 12062 C 1134.98 1.88245 0.531352 0
M  V30 12063 C 1135.36 1.07025 1.81958 0
M  V30 12064 O 1134.71 0.161385 2.27929 0
M  V30 12065 C 1134.92 3.40117 0.782416 0
M  V30 12066 C 1136.27 4.09655 1.11661 0
M  V30 12067 O 1137.29 3.4538 0.871274 0
M  V30 12068 O 1136.15 5.23192 1.57901 0
M  V30 12069 H 1133.24 0.780725 0.272759 0
M  V30 12070 H 1135.79 1.68522 -0.199597 0
M  V30 12071 H 1134.56 3.91088 -0.128677 0
M  V30 12072 H 1134.18 3.65418 1.56702 0
M  V30 12073 N 1135.18 -0.111886 1.57202 0
M  V30 12074 C 1136.43 -0.817022 1.84412 0
M  V30 12075 C 1136.74 -1.80708 0.748608 0
M  V30 12076 O 1137.95 -2.55891 0.907319 0
M  V30 12077 C 1136.4 -1.50376 3.26979 0
M  V30 12078 C 1136.01 -0.554334 4.44557 0
M  V30 12079 C 1137.76 -2.19361 3.63429 0
M  V30 12080 C 1135.66 -1.24471 5.78153 0
M  V30 12081 H 1134.59 -0.308864 0.687836 0
M  V30 12082 H 1137.24 -0.0698109 1.83367 0
M  V30 12083 H 1135.63 -2.29785 3.22514 0
M  V30 12084 H 1136.8 0.207045 4.60335 0
M  V30 12085 H 1135.12 0.0289261 4.1639 0
M  V30 12086 H 1137.71 -2.71716 4.60515 0
M  V30 12087 H 1138.06 -2.97488 2.91215 0
M  V30 12088 H 1138.59 -1.46833 3.69709 0
M  V30 12089 H 1135.33 -0.504584 6.53555 0
M  V30 12090 H 1134.85 -1.97792 5.66249 0
M  V30 12091 H 1136.53 -1.77591 6.2215 0
M  V30 12092 N 1136.66 -1.52894 -0.382264 0
M  V30 12093 C 1137.91 -1.68266 -1.12663 0
M  V30 12094 C 1138.23 -0.425974 -1.89778 0
M  V30 12095 O 1137.49 0.59178 -1.86538 0
M  V30 12096 C 1137.79 -2.87309 -2.12576 0
M  V30 12097 C 1137.45 -4.24484 -1.52067 0
M  V30 12098 C 1136.12 -4.6179 -1.35292 0
M  V30 12099 C 1138.47 -5.09858 -1.08138 0
M  V30 12100 C 1135.8 -5.82123 -0.731449 0
M  V30 12101 C 1138.15 -6.30822 -0.473986 0
M  V30 12102 C 1136.81 -6.66854 -0.293585 0
M  V30 12103 H 1136.08 -0.615728 -0.412262 0
M  V30 12104 H 1138.73 -1.8705 -0.410425 0
M  V30 12105 H 1137.03 -2.62968 -2.90439 0
M  V30 12106 H 1138.73 -2.96397 -2.70092 0
M  V30 12107 H 1135.32 -3.951 -1.66114 0
M  V30 12108 H 1139.5 -4.816 -1.19898 0
M  V30 12109 H 1134.76 -6.08643 -0.579938 0
M  V30 12110 H 1138.93 -6.96287 -0.125324 0
M  V30 12111 H 1136.56 -7.59962 0.190054 0
M  V30 12112 N 1138.14 0.641106 -1.43971 0
M  V30 12113 C 1139.07 1.76599 -1.44527 0
M  V30 12114 C 1140.05 1.59709 -0.305257 0
M  V30 12115 O 1141.23 1.81728 -0.50071 0
M  V30 12116 C 1138.36 3.14052 -1.26843 0
M  V30 12117 C 1137.41 3.49615 -2.44278 0
M  V30 12118 S 1138.24 3.4822 -4.06821 0
M  V30 12119 C 1139.39 4.8831 -3.91541 0
M  V30 12120 H 1139.63 1.75858 -2.3971 0
M  V30 12121 H 1137.16 0.814834 -1.31148 0
M  V30 12122 H 1139.12 3.93376 -1.17327 0
M  V30 12123 H 1137.78 3.12342 -0.331872 0
M  V30 12124 H 1136.97 4.49611 -2.2774 0
M  V30 12125 H 1136.57 2.77732 -2.50482 0
M  V30 12126 H 1138.87 5.77282 -3.54615 0
M  V30 12127 H 1139.81 5.099 -4.91333 0
M  V30 12128 H 1140.22 4.62414 -3.2378 0
M  V30 12129 N 1139.62 1.30703 0.880598 0
M  V30 12130 C 1140.56 1.17369 2.00817 0
M  V30 12131 C 1141.56 0.0845159 1.69189 0
M  V30 12132 O 1142.76 0.245673 1.78316 0
M  V30 12133 H 1139.14 0.363107 0.658527 0
M  V30 12134 H 1141.11 2.12789 2.09197 0
M  V30 12135 C 1139.86 0.886851 3.362 0
M  V30 12136 H 1139.18 1.71704 3.61051 0
M  V30 12137 H 1140.62 0.83368 4.15723 0
M  V30 12138 C 1139.08 -0.410293 3.34392 0
M  V30 12139 O 1139.61 -1.43044 3.75368 0
M  V30 12140 N 1137.82 -0.423023 2.87505 0
M  V30 12141 H 1137.36 0.407637 2.54354 0
M  V30 12142 H 1137.32 -1.29086 2.86678 0
M  V30 12143 N 1141.09 -1.09351 1.1349 0
M  V30 12144 C 1142.51 -1.3359 0.873269 0
M  V30 12145 C 1142.71 -1.95432 -0.490767 0
M  V30 12146 O 1141.77 -2.20117 -1.23712 0
M  V30 12147 C 1143.08 -2.24681 1.99847 0
M  V30 12148 C 1144.63 -2.38188 2.03065 0
M  V30 12149 C 1145.1 -3.32615 3.14851 0
M  V30 12150 N 1146.59 -3.40188 3.14366 0
M  V30 12151 C 1147.33 -4.13256 3.97501 0
M  V30 12152 N 1146.82 -4.89114 4.90652 0
M  V30 12153 N 1148.62 -4.08988 3.85597 0
M  V30 12154 H 1140.77 -0.675852 2.0136 0
M  V30 12155 H 1143.03 -0.360268 0.876876 0
M  V30 12156 H 1142.74 -1.86469 2.98198 0
M  V30 12157 H 1142.61 -3.25075 1.91327 0
M  V30 12158 H 1145 -2.75663 1.05327 0
M  V30 12159 H 1145.08 -1.3757 2.15658 0
M  V30 12160 H 1144.72 -2.95863 4.12829 0
M  V30 12161 H 1144.65 -4.33139 2.99496 0
M  V30 12162 H 1147.14 -2.861 2.46892 0
M  V30 12163 H 1147.46 -5.423 5.50573 0
M  V30 12164 H 1145.8 -4.882 4.94657 0
M  V30 12165 H 1148.99 -3.48826 3.12151 0
M  V30 12166 H 1149.17 -4.65671 4.50615 0
M  V30 12167 N 1142.57 -0.928524 -1.27343 0
M  V30 12168 C 1143.8 -0.585734 -1.98436 0
M  V30 12169 C 1144.21 0.83644 -1.69261 0
M  V30 12170 O 1143.57 1.55603 -0.953626 0
M  V30 12171 C 1143.62 -0.803092 -3.52467 0
M  V30 12172 O 1143.34 -2.16932 -3.80621 0
M  V30 12173 C 1144.84 -0.469127 -4.40811 0
M  V30 12174 H 1142.06 -0.221887 -0.633251 0
M  V30 12175 H 1144.61 -1.24577 -1.62175 0
M  V30 12176 H 1142.76 -0.189846 -3.86935 0
M  V30 12177 H 1143.18 -2.21992 -4.75205 0
M  V30 12178 H 1144.65 -0.671906 -5.47895 0
M  V30 12179 H 1145.13 0.595365 -4.35146 0
M  V30 12180 H 1145.73 -1.06055 -4.11865 0
M  V30 12181 N 1144.05 1.41491 -0.694123 0
M  V30 12182 C 1144.96 2.34583 -0.0283414 0
M  V30 12183 C 1145.98 1.5615 0.767662 0
M  V30 12184 O 1147.15 1.88637 0.705556 0
M  V30 12185 C 1144.22 3.34876 0.897726 0
M  V30 12186 C 1143.28 4.29197 0.0940905 0
M  V30 12187 C 1142.51 5.24699 0.976051 0
M  V30 12188 O 1142.73 5.25613 2.21556 0
M  V30 12189 O 1141.67 6.00387 0.426503 0
M  V30 12190 H 1145.49 2.93092 -0.795656 0
M  V30 12191 H 1143.08 1.4232 -0.45445 0
M  V30 12192 H 1144.96 3.96438 1.4288 0
M  V30 12193 H 1143.64 2.78812 1.64456 0
M  V30 12194 H 1142.54 3.70988 -0.481552 0
M  V30 12195 H 1143.88 4.88355 -0.614045 0
M  V30 12196 N 1145.53 0.438773 1.51369 0
M  V30 12197 C 1146.48 -0.386324 2.29369 0
M  V30 12198 C 1147.47 -1.0196 1.3528 0
M  V30 12199 O 1148.68 -0.9544 1.52615 0
M  V30 12200 H 1145.05 -0.143397 0.738201 0
M  V30 12201 H 1147.02 0.292372 2.96964 0
M  V30 12202 C 1145.77 -1.47426 3.14898 0
M  V30 12203 H 1145.09 -0.996335 3.87186 0
M  V30 12204 H 1146.53 -2.02481 3.72529 0
M  V30 12205 C 1144.99 -2.45831 2.30366 0
M  V30 12206 O 1145.52 -3.50398 1.96428 0
M  V30 12207 N 1143.73 -2.16754 1.93561 0
M  V30 12208 H 1143.28 -1.31748 2.2136 0
M  V30 12209 H 1143.23 -2.82836 1.373 0
M  V30 12210 N 1147.01 -1.56678 0.170181 0
M  V30 12211 C 1148.25 -1.97913 -0.469262 0
M  V30 12212 C 1148.61 -1.05438 -1.60936 0
M  V30 12213 O 1147.9 -0.0938273 -1.9137 0
M  V30 12214 C 1148.09 -3.43103 -1.00076 0
M  V30 12215 C 1147.92 -4.49617 0.0863088 0
M  V30 12216 C 1146.69 -5.02454 0.535589 0
M  V30 12217 C 1148.89 -5.06606 0.886289 0
M  V30 12218 N 1146.87 -5.926 1.60308 0
M  V30 12219 C 1148.24 -5.93182 1.80374 0
M  V30 12220 C 1150.3 -4.89109 0.931495 0
M  V30 12221 C 1149 -6.64134 2.76257 0
M  V30 12222 C 1151.03 -5.60781 1.87827 0
M  V30 12223 C 1150.39 -6.47084 2.78319 0
M  V30 12224 H 1146.49 -0.769393 -0.139852 0
M  V30 12225 H 1149.07 -1.92817 0.270136 0
M  V30 12226 H 1147.24 -3.48747 -1.70968 0
M  V30 12227 H 1148.98 -3.71351 -1.60874 0
M  V30 12228 H 1145.73 -4.73412 0.133508 0
M  V30 12229 H 1146.15 -6.42378 2.13729 0
M  V30 12230 H 1150.8 -4.22084 0.245904 0
M  V30 12231 H 1148.51 -7.30373 3.45805 0
M  V30 12232 H 1152.1 -5.49229 1.91934 0
M  V30 12233 H 1150.98 -7.01569 3.50386 0
M  V30 12234 N 1148.48 0.103547 -1.57259 0
M  V30 12235 C 1149.73 0.807231 -1.84842 0
M  V30 12236 C 1150.05 1.80308 -0.758181 0
M  V30 12237 O 1151.25 2.55406 -0.920877 0
M  V30 12238 C 1149.71 1.4864 -3.27771 0
M  V30 12239 C 1149.32 0.53075 -4.44845 0
M  V30 12240 C 1151.06 2.17431 -3.64587 0
M  V30 12241 C 1148.97 1.21403 -5.78805 0
M  V30 12242 H 1147.9 0.305212 -0.689465 0
M  V30 12243 H 1150.55 0.0600855 -1.83402 0
M  V30 12244 H 1148.93 2.28071 -3.23728 0
M  V30 12245 H 1150.1 -0.231455 -4.60218 0
M  V30 12246 H 1148.42 -0.0510078 -4.16369 0
M  V30 12247 H 1151.02 2.6927 -4.6195 0
M  V30 12248 H 1151.36 2.9594 -2.92789 0
M  V30 12249 H 1151.89 1.4487 -3.70483 0
M  V30 12250 H 1148.63 0.469918 -6.53813 0
M  V30 12251 H 1148.15 1.94787 -5.6729 0
M  V30 12252 H 1149.83 1.74289 -6.23083 0
M  V30 12253 N 1149.96 1.53094 0.37415 0
M  V30 12254 C 1151.21 1.68527 1.11548 0
M  V30 12255 C 1151.53 0.435253 1.9008 0
M  V30 12256 O 1150.8 -0.550594 1.88003 0
M  V30 12257 H 1149.38 0.621255 0.41479 0
M  V30 12258 H 1152.04 1.90258 0.422844 0
M  V30 12259 H 1151.14 2.54248 1.81009 0
M  V30 12260 N 1151.44 -0.633461 1.44309 0
M  V30 12261 C 1152.66 -1.42527 1.50668 0
M  V30 12262 C 1153.09 -1.87637 0.131861 0
M  V30 12263 O 1152.45 -1.58595 -0.878477 0
M  V30 12264 C 1152.5 -2.62328 2.47419 0
M  V30 12265 O 1151.6 -3.62081 1.97411 0
M  V30 12266 H 1150.94 -0.426559 0.508864 0
M  V30 12267 H 1153.47 -0.773392 1.8942 0
M  V30 12268 H 1153.48 -3.09901 2.65378 0
M  V30 12269 H 1152.16 -2.2884 3.47283 0
M  V30 12270 H 1150.73 -3.21333 1.89208 0
M  V30 12271 N 1152.92 -1.31168 -0.873655 0
M  V30 12272 C 1153.85 -1.14325 -1.98651 0
M  V30 12273 C 1154.86 -0.0833421 -1.62587 0
M  V30 12274 O 1156.05 -0.330477 -1.75414 0
M  V30 12275 C 1153.15 -0.723747 -3.31082 0
M  V30 12276 C 1152.33 -1.86787 -3.95512 0
M  V30 12277 C 1151.38 -1.43503 -5.06254 0
M  V30 12278 O 1150.41 -2.14409 -5.27273 0
M  V30 12279 N 1151.61 -0.320362 -5.79615 0
M  V30 12280 H 1154.38 -2.10179 -2.13647 0
M  V30 12281 H 1151.94 -1.23454 -1.04742 0
M  V30 12282 H 1153.93 -0.416971 -4.02546 0
M  V30 12283 H 1152.5 0.143073 -3.12272 0
M  V30 12284 H 1151.72 -2.34216 -3.17075 0
M  V30 12285 H 1153.01 -2.6343 -4.35296 0
M  V30 12286 H 1152.41 0.270215 -5.65054 0
M  V30 12287 H 1150.96 -0.0731 -6.51759 0
M  V30 12288 N 1154.4 1.08748 -1.14068 0
M  V30 12289 C 1155.63 1.84546 -0.928789 0
M  V30 12290 C 1156.03 1.81741 0.526007 0
M  V30 12291 O 1155.38 1.2169 1.37613 0
M  V30 12292 C 1155.44 3.33282 -1.34771 0
M  V30 12293 C 1155.1 3.59826 -2.81734 0
M  V30 12294 C 1156.1 3.54964 -3.79864 0
M  V30 12295 C 1153.79 3.87949 -3.19063 0
M  V30 12296 C 1155.78 3.77847 -5.13332 0
M  V30 12297 C 1153.47 4.10487 -4.52707 0
M  V30 12298 C 1154.46 4.05429 -5.49651 0
M  V30 12299 O 1154.15 4.27378 -6.80884 0
M  V30 12300 H 1153.88 0.589555 -0.330758 0
M  V30 12301 H 1156.44 1.38275 -1.51886 0
M  V30 12302 H 1154.67 3.80294 -0.700948 0
M  V30 12303 H 1156.36 3.90508 -1.10718 0
M  V30 12304 H 1157.12 3.33256 -3.52371 0
M  V30 12305 H 1153 3.91007 -2.44201 0
M  V30 12306 H 1156.55 3.73815 -5.88989 0
M  V30 12307 H 1152.44 4.31677 -4.79922 0
M  V30 12308 H 1153.21 4.44802 -6.8709 0
M  V30 12309 N 1155.87 0.935264 1.26849 0
M  V30 12310 C 1156.82 0.438896 2.26588 0
M  V30 12311 C 1157.79 -0.498267 1.5845 0
M  V30 12312 O 1158.98 -0.415771 1.86215 0
M  V30 12313 C 1156.12 -0.295293 3.43834 0
M  V30 12314 C 1155.23 0.676857 4.26665 0
M  V30 12315 C 1154.36 -0.0779349 5.31143 0
M  V30 12316 C 1153.4 0.886425 6.05648 0
M  V30 12317 N 1152.54 0.163771 7.01909 0
M  V30 12318 H 1157.38 1.29439 2.6842 0
M  V30 12319 H 1154.92 0.649523 1.31983 0
M  V30 12320 H 1156.88 -0.737354 4.10632 0
M  V30 12321 H 1155.51 -1.11497 3.02933 0
M  V30 12322 H 1154.56 1.23744 3.5971 0
M  V30 12323 H 1155.87 1.41355 4.78351 0
M  V30 12324 H 1155.02 -0.579557 6.03926 0
M  V30 12325 H 1153.76 -0.84755 4.80279 0
M  V30 12326 H 1152.77 1.39923 5.31697 0
M  V30 12327 H 1153.99 1.65595 6.58601 0
M  V30 12328 H 1151.94 -0.58746 6.53364 0
M  V30 12329 H 1151.86 0.839902 7.5132 0
M  V30 12330 H 1153.12 -0.316951 7.78855 0
M  V30 12331 N 1157.35 -1.41121 0.701616 0
M  V30 12332 C 1158.3 -2.30765 0.040121 0
M  V30 12333 C 1159.27 -1.47436 -0.764975 0
M  V30 12334 O 1160.45 -1.76209 -0.731775 0
M  V30 12335 C 1157.59 -3.33535 -0.885903 0
M  V30 12336 C 1156.71 -4.3194 -0.0717765 0
M  V30 12337 C 1155.84 -5.21779 -0.995996 0
M  V30 12338 C 1154.88 -6.11849 -0.175133 0
M  V30 12339 N 1154.02 -6.94151 -1.05348 0
M  V30 12340 H 1158.86 -2.86772 0.810312 0
M  V30 12341 H 1156.4 -1.41233 0.411301 0
M  V30 12342 H 1158.35 -3.91675 -1.4369 0
M  V30 12343 H 1156.98 -2.79065 -1.62243 0
M  V30 12344 H 1156.04 -3.75698 0.596221 0
M  V30 12345 H 1157.35 -4.95597 0.56435 0
M  V30 12346 H 1156.5 -5.84782 -1.61601 0
M  V30 12347 H 1155.24 -4.58363 -1.66597 0
M  V30 12348 H 1154.25 -5.4789 0.457916 0
M  V30 12349 H 1155.47 -6.77322 0.491133 0
M  V30 12350 H 1153.42 -6.33338 -1.70936 0
M  V30 12351 H 1153.33 -7.54518 -0.473065 0
M  V30 12352 H 1154.6 -7.61617 -1.66012 0
M  V30 12353 N 1158.83 -0.446794 -1.51134 0
M  V30 12354 C 1160.08 0.116666 -2.02464 0
M  V30 12355 C 1160.41 1.41532 -1.32975 0
M  V30 12356 O 1159.68 1.89278 -0.447651 0
M  V30 12357 C 1159.97 0.325659 -3.58624 0
M  V30 12358 C 1159.82 -0.992307 -4.38718 0
M  V30 12359 C 1161.14 1.09121 -4.26357 0
M  V30 12360 H 1158.26 0.0409262 -0.735863 0
M  V30 12361 H 1160.9 -0.587641 -1.80684 0
M  V30 12362 H 1159.05 0.925585 -3.77313 0
M  V30 12363 H 1160.72 -1.62694 -4.31658 0
M  V30 12364 H 1158.97 -1.5947 -4.03425 0
M  V30 12365 H 1159.64 -0.800005 -5.46172 0
M  V30 12366 H 1162.11 0.582944 -4.11996 0
M  V30 12367 H 1160.99 1.20621 -5.35483 0
M  V30 12368 H 1161.25 2.12171 -3.87861 0
M  V30 12369 N 1160.31 1.56586 -0.178487 0
M  V30 12370 C 1161.55 1.9739 0.465306 0
M  V30 12371 C 1161.89 1.06474 1.6241 0
M  V30 12372 O 1161.16 0.113316 1.9417 0
M  V30 12373 C 1161.45 3.47577 0.941408 0
M  V30 12374 C 1161.3 4.49271 -0.218054 0
M  V30 12375 C 1162.62 4.01038 1.81263 0
M  V30 12376 H 1159.74 0.717676 0.167663 0
M  V30 12377 H 1162.38 1.88128 -0.266067 0
M  V30 12378 H 1160.53 3.556 1.56463 0
M  V30 12379 H 1162.2 4.53301 -0.855332 0
M  V30 12380 H 1160.44 4.24936 -0.872441 0
M  V30 12381 H 1161.11 5.51776 0.157315 0
M  V30 12382 H 1163.59 3.9569 1.28718 0
M  V30 12383 H 1162.47 5.06526 2.11476 0
M  V30 12384 H 1162.73 3.45288 2.76096 0
M  V30 12385 N 1161.79 -0.095206 1.57312 0
M  V30 12386 C 1163.02 -0.811092 1.90013 0
M  V30 12387 C 1163.42 -1.72807 0.770359 0
M  V30 12388 O 1162.77 -1.81755 -0.266615 0
M  V30 12389 C 1162.83 -1.67744 3.17966 0
M  V30 12390 C 1162.49 -0.932301 4.47389 0
M  V30 12391 C 1163.49 -0.262161 5.19239 0
M  V30 12392 C 1161.18 -0.906414 4.94054 0
M  V30 12393 C 1163.17 0.423898 6.35989 0
M  V30 12394 C 1160.86 -0.216569 6.10716 0
M  V30 12395 C 1161.85 0.447408 6.81533 0
M  V30 12396 O 1161.54 1.12619 7.95972 0
M  V30 12397 H 1161.27 -0.237154 0.633035 0
M  V30 12398 H 1163.83 -0.0768976 2.05256 0
M  V30 12399 H 1162.06 -2.45387 2.98868 0
M  V30 12400 H 1163.75 -2.26988 3.36498 0
M  V30 12401 H 1164.51 -0.273621 4.84228 0
M  V30 12402 H 1160.39 -1.41267 4.38822 0
M  V30 12403 H 1163.94 0.942727 6.91201 0
M  V30 12404 H 1159.83 -0.202955 6.45181 0
M  V30 12405 H 1160.6 1.03308 8.11954 0
M  V30 12406 N 1163.26 -1.53291 -0.366026 0
M  V30 12407 C 1164.68 -1.43053 -0.707669 0
M  V30 12408 C 1164.88 -0.56925 -1.93292 0
M  V30 12409 O 1163.94 -0.0515214 -2.52447 0
M  V30 12410 C 1165.25 -2.86239 -0.921292 0
M  V30 12411 C 1166.8 -2.95868 -1.02133 0
M  V30 12412 C 1167.27 -4.40114 -1.26743 0
M  V30 12413 N 1168.76 -4.43541 -1.33514 0
M  V30 12414 C 1169.5 -5.52259 -1.54264 0
M  V30 12415 N 1168.99 -6.71024 -1.72335 0
M  V30 12416 N 1170.79 -5.39836 -1.5663 0
M  V30 12417 H 1162.94 -2.07795 0.43988 0
M  V30 12418 H 1165.2 -0.938376 0.134736 0
M  V30 12419 H 1164.91 -3.51578 -0.0928042 0
M  V30 12420 H 1164.78 -3.29862 -1.82951 0
M  V30 12421 H 1167.17 -2.30683 -1.84036 0
M  V30 12422 H 1167.25 -2.5564 -0.0905097 0
M  V30 12423 H 1166.89 -5.05872 -0.453409 0
M  V30 12424 H 1166.82 -4.77914 -2.21146 0
M  V30 12425 H 1169.31 -3.57949 -1.21165 0
M  V30 12426 H 1169.63 -7.49649 -1.8774 0
M  V30 12427 H 1167.97 -6.7401 -1.69514 0
M  V30 12428 H 1171.16 -4.46017 -1.4208 0
M  V30 12429 H 1171.34 -6.24629 -1.72461 0
M  V30 12430 N 1164.74 0.6258 -1.44643 0
M  V30 12431 C 1165.65 1.76611 -1.5442 0
M  V30 12432 C 1166.67 1.68614 -0.429576 0
M  V30 12433 O 1167.84 1.89296 -0.687686 0
M  V30 12434 C 1164.91 3.13015 -1.49071 0
M  V30 12435 C 1163.97 3.32604 -2.71428 0
M  V30 12436 C 1163.2 4.62501 -2.66325 0
M  V30 12437 O 1163.43 5.43651 -1.72626 0
M  V30 12438 O 1162.36 4.84408 -3.57258 0
M  V30 12439 H 1166.19 1.71315 -2.50769 0
M  V30 12440 H 1163.77 0.787677 -1.26949 0
M  V30 12441 H 1165.65 3.94318 -1.48631 0
M  V30 12442 H 1164.33 3.18842 -0.558686 0
M  V30 12443 H 1163.24 2.50959 -2.77435 0
M  V30 12444 H 1164.57 3.31642 -3.63695 0
M  V30 12445 N 1166.22 1.31629 0.866686 0
M  V30 12446 C 1167.45 1.24293 1.6503 0
M  V30 12447 C 1167.86 -0.193556 1.88207 0
M  V30 12448 O 1167.2 -1.13712 1.44275 0
M  V30 12449 C 1167.26 1.92032 3.03914 0
M  V30 12450 C 1166.93 3.41373 3.03831 0
M  V30 12451 C 1167.92 4.37064 2.81551 0
M  V30 12452 C 1165.61 3.83118 3.24848 0
M  V30 12453 C 1167.6 5.72474 2.80272 0
M  V30 12454 C 1165.29 5.18639 3.23197 0
M  V30 12455 C 1166.29 6.13128 3.00936 0
M  V30 12456 O 1165.98 7.46172 2.99137 0
M  V30 12457 H 1165.71 0.430569 0.521139 0
M  V30 12458 H 1168.26 1.74105 1.0898 0
M  V30 12459 H 1166.49 1.36774 3.61704 0
M  V30 12460 H 1168.18 1.78567 3.64512 0
M  V30 12461 H 1168.95 4.06142 2.65093 0
M  V30 12462 H 1164.83 3.10001 3.41204 0
M  V30 12463 H 1168.37 6.46199 2.62816 0
M  V30 12464 H 1164.27 5.49196 3.39197 0
M  V30 12465 H 1165.04 7.55385 3.15175 0
M  V30 12466 N 1167.7 -1.08142 1.14644 0
M  V30 12467 C 1168.93 -1.84318 0.939926 0
M  V30 12468 C 1169.34 -1.81735 -0.511636 0
M  V30 12469 O 1168.7 -1.22297 -1.35461 0
M  V30 12470 C 1168.75 -3.31744 1.43625 0
M  V30 12471 O 1168.47 -3.3435 2.83094 0
M  V30 12472 C 1169.97 -4.24717 1.27007 0
M  V30 12473 H 1167.19 -0.581781 0.334323 0
M  V30 12474 H 1169.74 -1.36561 1.52221 0
M  V30 12475 H 1167.89 -3.7688 0.896664 0
M  V30 12476 H 1168.31 -4.26399 3.05425 0
M  V30 12477 H 1169.78 -5.26262 1.66591 0
M  V30 12478 H 1170.26 -4.38682 0.213257 0
M  V30 12479 H 1170.86 -3.85409 1.79833 0
M  V30 12480 N 1169.18 -0.941978 -1.26351 0
M  V30 12481 C 1170.45 -0.507822 -1.88893 0
M  V30 12482 C 1170.83 1.0146 -1.85119 0
M  V30 12483 O 1170.18 1.87495 -1.30606 0
M  V30 12484 C 1170.39 -1.07007 -3.3219 0
M  V30 12485 C 1171.74 -1.13922 -4.09032 0
M  V30 12486 O 1172.76 -1.02072 -3.41262 0
M  V30 12487 O 1171.62 -1.32362 -5.30229 0
M  V30 12488 H 1168.72 -0.165621 -0.810246 0
M  V30 12489 H 1171.26 -1.03459 -1.34515 0
M  V30 12490 H 1170.04 -2.11366 -3.29302 0
M  V30 12491 H 1169.66 -0.525797 -3.94108 0
M  V30 12492 N 1170.66 1.40747 -0.709091 0
M  V30 12493 C 1171.9 2.00606 -0.245324 0
M  V30 12494 C 1172.22 1.56489 1.16346 0
M  V30 12495 O 1171.49 0.801456 1.78755 0
M  V30 12496 H 1170.07 0.741833 -0.0877098 0
M  V30 12497 H 1172.74 1.72178 -0.913271 0
M  V30 12498 H 1171.83 3.10901 -0.273322 0
M  V30 12499 N 1172.13 0.454803 1.50895 0
M  V30 12500 C 1173.04 -0.353495 2.31921 0
M  V30 12501 C 1174.06 -1.01136 1.41589 0
M  V30 12502 O 1175.24 -1.00291 1.74653 0
M  V30 12503 C 1172.3 -1.43032 3.15821 0
M  V30 12504 C 1171.36 -0.790763 4.21954 0
M  V30 12505 C 1170.59 -1.81628 5.01843 0
M  V30 12506 O 1170.82 -3.04078 4.8259 0
M  V30 12507 O 1169.75 -1.39713 5.8546 0
M  V30 12508 H 1173.58 0.308463 3.02129 0
M  V30 12509 H 1171.16 0.216971 1.47816 0
M  V30 12510 H 1173.04 -2.05444 3.67927 0
M  V30 12511 H 1171.72 -2.07605 2.48358 0
M  V30 12512 H 1170.63 -0.128127 3.73881 0
M  V30 12513 H 1171.96 -0.188251 4.9184 0
M  V30 12514 N 1173.61 -1.56489 0.186789 0
M  V30 12515 C 1174.86 -1.97341 -0.454158 0
M  V30 12516 C 1175.19 -1.07337 -1.622 0
M  V30 12517 O 1174.44 -0.1107 -1.95387 0
M  V30 12518 C 1174.74 -3.44145 -0.964315 0
M  V30 12519 C 1174.41 -4.50812 0.0892734 0
M  V30 12520 C 1173.07 -4.79707 0.378794 0
M  V30 12521 C 1175.42 -5.14968 0.8036 0
M  V30 12522 C 1172.75 -5.70051 1.38776 0
M  V30 12523 C 1175.1 -6.06402 1.80166 0
M  V30 12524 C 1173.76 -6.33657 2.09847 0
M  V30 12525 H 1173.03 -0.722124 -0.166188 0
M  V30 12526 H 1175.68 -1.89412 0.282008 0
M  V30 12527 H 1173.99 -3.49103 -1.7786 0
M  V30 12528 H 1175.68 -3.73104 -1.4695 0
M  V30 12529 H 1172.27 -4.28349 -0.146552 0
M  V30 12530 H 1176.46 -4.92743 0.593147 0
M  V30 12531 H 1171.71 -5.89445 1.62373 0
M  V30 12532 H 1175.89 -6.55176 2.36045 0
M  V30 12533 H 1173.51 -7.03462 2.88175 0
M  V30 12534 N 1175.09 0.086862 -1.5736 0
M  V30 12535 C 1176.34 0.790008 -1.8678 0
M  V30 12536 C 1176.67 1.77977 -0.777042 0
M  V30 12537 O 1175.94 1.93317 0.21419 0
M  V30 12538 C 1176.23 1.51143 -3.26845 0
M  V30 12539 C 1176.08 0.539106 -4.46558 0
M  V30 12540 C 1177.4 2.46003 -3.64926 0
M  V30 12541 H 1174.52 0.285741 -0.679354 0
M  V30 12542 H 1177.16 0.0534655 -1.89925 0
M  V30 12543 H 1175.31 2.13928 -3.24295 0
M  V30 12544 H 1176.98 -0.0823679 -4.61226 0
M  V30 12545 H 1175.22 -0.146842 -4.33551 0
M  V30 12546 H 1175.9 1.0812 -5.41308 0
M  V30 12547 H 1178.37 1.93306 -3.68473 0
M  V30 12548 H 1177.25 2.93493 -4.63846 0
M  V30 12549 H 1177.51 3.30133 -2.94049 0
M  V30 12550 N 1176.57 1.53483 0.357892 0
M  V30 12551 C 1177.48 1.83434 1.4625 0
M  V30 12552 C 1178.49 0.723313 1.58254 0
M  V30 12553 O 1179.67 1.01416 1.74002 0
M  V30 12554 C 1176.73 2.0249 2.81423 0
M  V30 12555 C 1175.8 3.26378 2.78883 0
M  V30 12556 C 1175.03 3.44516 4.07608 0
M  V30 12557 O 1175.25 2.66787 5.04163 0
M  V30 12558 O 1174.19 4.37898 4.12952 0
M  V30 12559 H 1178.01 2.77294 1.23861 0
M  V30 12560 H 1175.6 1.38958 0.548722 0
M  V30 12561 H 1177.48 2.16552 3.61501 0
M  V30 12562 H 1176.15 1.11819 3.03773 0
M  V30 12563 H 1175.06 3.17733 1.97475 0
M  V30 12564 H 1176.39 4.16996 2.61486 0
M  V30 12565 N 1178.05 -0.61812 1.44973 0
M  V30 12566 C 1179.29 -1.37343 1.47715 0
M  V30 12567 C 1179.61 -1.95239 0.118784 0
M  V30 12568 O 1180.81 -2.7149 0.0237981 0
M  V30 12569 C 1179.27 -2.48732 2.60116 0
M  V30 12570 C 1178.88 -1.97294 4.02218 0
M  V30 12571 C 1180.62 -3.25831 2.72093 0
M  V30 12572 C 1178.53 -3.06102 5.06019 0
M  V30 12573 H 1177.46 -0.516175 0.549617 0
M  V30 12574 H 1180.11 -0.663617 1.7108 0
M  V30 12575 H 1178.49 -3.2235 2.30014 0
M  V30 12576 H 1179.67 -1.30455 4.41948 0
M  V30 12577 H 1177.98 -1.32972 3.94598 0
M  V30 12578 H 1180.58 -4.06968 3.46815 0
M  V30 12579 H 1180.92 -3.76156 1.7836 0
M  V30 12580 H 1181.45 -2.59309 3.01668 0
M  V30 12581 H 1178.19 -2.60706 6.01426 0
M  V30 12582 H 1177.71 -3.71541 4.70869 0
M  V30 12583 H 1179.39 -3.70662 5.30301 0
M  V30 12584 N 1179.52 -1.32087 -0.859693 0
M  V30 12585 C 1180.47 -1.20601 -1.96784 0
M  V30 12586 C 1181.44 -0.089355 -1.65859 0
M  V30 12587 O 1182.63 -0.264022 -1.88964 0
M  V30 12588 C 1179.77 -0.929872 -3.32336 0
M  V30 12589 C 1178.88 -2.13084 -3.75791 0
M  V30 12590 C 1178.01 -1.79061 -5.00111 0
M  V30 12591 C 1177.05 -2.95507 -5.36043 0
M  V30 12592 N 1176.19 -2.61611 -6.5154 0
M  V30 12593 H 1181.03 -2.1539 -2.0594 0
M  V30 12594 H 1178.57 -1.07131 -1.00803 0
M  V30 12595 H 1180.52 -0.750285 -4.10398 0
M  V30 12596 H 1179.15 -0.0187929 -3.22795 0
M  V30 12597 H 1178.21 -2.42086 -2.93425 0
M  V30 12598 H 1179.52 -3.00205 -3.98344 0
M  V30 12599 H 1178.67 -1.57625 -5.85866 0
M  V30 12600 H 1177.41 -0.891459 -4.79483 0
M  V30 12601 H 1176.42 -3.17581 -4.48801 0
M  V30 12602 H 1177.64 -3.86147 -5.5863 0
M  V30 12603 H 1175.59 -1.74231 -6.32439 0
M  V30 12604 H 1175.5 -3.42262 -6.74087 0
M  V30 12605 H 1176.77 -2.43592 -7.40461 0
M  V30 12606 N 1181 1.07532 -1.15215 0
M  V30 12607 C 1181.96 2.1286 -0.84989 0
M  V30 12608 C 1182.96 1.60103 0.149524 0
M  V30 12609 O 1184.15 1.74017 -0.0798918 0
M  V30 12610 C 1181.29 3.3984 -0.268617 0
M  V30 12611 H 1182.48 2.41106 -1.78347 0
M  V30 12612 H 1180.03 1.23392 -0.959386 0
M  V30 12613 H 1180.77 3.17235 0.67325 0
M  V30 12614 H 1180.55 3.79433 -0.988592 0
M  V30 12615 H 1182.04 4.17533 -0.0746554 0
M  V30 12616 N 1182.48 0.948665 1.2585 0
M  V30 12617 C 1183.9 0.652147 1.45668 0
M  V30 12618 C 1184.1 -0.792217 1.85273 0
M  V30 12619 O 1183.15 -1.56812 1.97905 0
M  V30 12620 C 1184.47 1.61998 2.53332 0
M  V30 12621 C 1186.01 1.6305 2.67178 0
M  V30 12622 C 1186.49 2.58582 3.78021 0
M  V30 12623 N 1187.98 2.56911 3.85423 0
M  V30 12624 C 1188.71 3.27511 4.70664 0
M  V30 12625 N 1188.21 4.07563 5.60236 0
M  V30 12626 N 1190 3.16427 4.64576 0
M  V30 12627 H 1182.15 1.88215 0.984325 0
M  V30 12628 H 1184.42 0.809251 0.493778 0
M  V30 12629 H 1184.12 2.65137 2.31075 0
M  V30 12630 H 1184 1.37784 3.51134 0
M  V30 12631 H 1186.38 0.606315 2.88804 0
M  V30 12632 H 1186.47 1.9132 1.69795 0
M  V30 12633 H 1186.11 3.61122 3.57146 0
M  V30 12634 H 1186.04 2.27598 4.74875 0
M  V30 12635 H 1188.53 1.9879 3.21389 0
M  V30 12636 H 1188.84 4.58367 6.22189 0
M  V30 12637 H 1187.19 4.11662 5.59964 0
M  V30 12638 H 1190.38 2.53364 3.93604 0
M  V30 12639 H 1190.55 3.71714 5.30785 0
M  V30 12640 N 1183.96 -1.40369 0.716545 0
M  V30 12641 C 1185.37 -1.83783 0.328719 0
M  V30 12642 C 1185.72 -1.5991 -1.13681 0
M  V30 12643 O 1184.85 -1.08048 -1.87496 0
M  V30 12644 C 1185.44 -3.33626 0.589848 0
M  V30 12645 C 1184 -3.7553 0.25572 0
M  V30 12646 C 1183.15 -2.63571 0.861733 0
M  V30 12647 H 1186.1 -1.29623 0.915621 0
M  V30 12648 H 1186.12 -3.80225 -0.14459 0
M  V30 12649 H 1185.63 -3.5097 1.65655 0
M  V30 12650 H 1183.73 -3.63781 -0.805883 0
M  V30 12651 H 1183.84 -4.73577 0.725388 0
M  V30 12652 H 1182.21 -2.53047 0.289706 0
M  V30 12653 H 1182.99 -2.83727 1.93272 0
M  V30 12654 N 1185.44 -0.462799 -1.50652 0
M  V30 12655 C 1186.85 -0.00568907 -1.86699 0
M  V30 12656 C 1187.2 1.39641 -1.37822 0
M  V30 12657 O 1186.32 2.03366 -0.739679 0
M  V30 12658 C 1186.92 -0.00354783 -3.388 0
M  V30 12659 C 1185.48 0.398061 -3.74289 0
M  V30 12660 C 1184.62 -0.392574 -2.74507 0
M  V30 12661 H 1187.58 -0.677469 -1.43513 0
M  V30 12662 H 1187.6 0.800456 -3.71985 0
M  V30 12663 H 1187.11 -1.02414 -3.74344 0
M  V30 12664 H 1185.21 1.42331 -3.44344 0
M  V30 12665 H 1185.32 0.105168 -4.78985 0
M  V30 12666 H 1183.69 0.152608 -2.54242 0
M  V30 12667 H 1184.47 -1.41252 -3.12894 0
M  V30 12668 N 1186.91 1.56388 -0.195085 0
M  V30 12669 C 1188.33 1.58788 0.160758 0
M  V30 12670 C 1188.53 1.21125 1.61031 0
M  V30 12671 O 1187.59 0.933994 2.34591 0
M  V30 12672 C 1188.9 3.00366 -0.141588 0
M  V30 12673 C 1190.45 3.12893 -0.0816947 0
M  V30 12674 C 1190.92 4.56604 -0.35735 0
M  V30 12675 N 1192.41 4.62188 -0.305968 0
M  V30 12676 C 1193.15 5.71276 -0.493108 0
M  V30 12677 N 1192.64 6.8883 -0.740595 0
M  V30 12678 N 1194.44 5.60473 -0.427365 0
M  V30 12679 H 1186.59 1.79151 -1.14099 0
M  V30 12680 H 1188.85 0.831446 -0.455413 0
M  V30 12681 H 1188.56 3.32483 -1.14666 0
M  V30 12682 H 1188.43 3.73082 0.555834 0
M  V30 12683 H 1190.82 2.80589 0.913978 0
M  V30 12684 H 1190.9 2.42564 -0.812193 0
M  V30 12685 H 1190.54 4.8962 -1.35034 0
M  V30 12686 H 1190.47 5.25124 0.394036 0
M  V30 12687 H 1192.96 3.77705 -0.121298 0
M  V30 12688 H 1193.28 7.67862 -0.872201 0
M  V30 12689 H 1191.62 6.90637 -0.777488 0
M  V30 12690 H 1194.81 4.67513 -0.234436 0
M  V30 12691 H 1194.99 6.45429 -0.576627 0
M  V30 12692 N 1188.39 -0.0785156 1.57404 0
M  V30 12693 C 1189.3 -1.11203 2.0657 0
M  V30 12694 C 1190.32 -1.42822 0.993872 0
M  V30 12695 O 1191.49 -1.53133 1.30814 0
M  V30 12696 C 1188.56 -2.40812 2.4942 0
M  V30 12697 C 1187.62 -2.16225 3.70871 0
M  V30 12698 C 1186.85 -3.39654 4.11668 0
M  V30 12699 O 1187.08 -4.48521 3.524 0
M  V30 12700 O 1186.01 -3.28263 5.04507 0
M  V30 12701 H 1189.84 -0.724381 2.94935 0
M  V30 12702 H 1187.42 -0.292184 1.46515 0
M  V30 12703 H 1189.3 -3.17101 2.77534 0
M  V30 12704 H 1187.98 -2.7897 1.64187 0
M  V30 12705 H 1186.89 -1.37663 3.4785 0
M  V30 12706 H 1188.22 -1.82951 4.56935 0
M  V30 12707 N 1189.87 -1.5367 -0.349747 0
M  V30 12708 C 1190.78 -1.84207 -1.45275 0
M  V30 12709 C 1191.8 -0.731695 -1.57868 0
M  V30 12710 O 1192.97 -1.02337 -1.73462 0
M  V30 12711 C 1190.04 -2.0398 -2.80345 0
M  V30 12712 C 1189.1 -3.27853 -2.77148 0
M  V30 12713 C 1188.33 -3.46673 -4.05775 0
M  V30 12714 O 1188.55 -2.69457 -5.02741 0
M  V30 12715 O 1187.49 -4.40082 -4.10623 0
M  V30 12716 H 1191.31 -2.77947 -1.22389 0
M  V30 12717 H 1188.9 -1.39247 -0.541345 0
M  V30 12718 H 1190.78 -2.18466 -3.60348 0
M  V30 12719 H 1189.46 -1.13429 -3.03176 0
M  V30 12720 H 1188.36 -3.18776 -1.95787 0
M  V30 12721 H 1189.7 -4.18377 -2.59271 0
M  V30 12722 N 1191.35 0.610423 -1.45298 0
M  V30 12723 C 1192.3 1.71552 -1.5018 0
M  V30 12724 C 1193.28 1.56697 -0.365357 0
M  V30 12725 O 1194.47 1.66082 -0.612029 0
M  V30 12726 C 1191.6 3.10298 -1.46867 0
M  V30 12727 C 1190.69 3.30549 -2.65703 0
M  V30 12728 N 1191.08 3.21073 -3.90827 0
M  V30 12729 C 1189.38 3.6141 -2.6134 0
M  V30 12730 C 1190.08 3.42577 -4.70123 0
M  V30 12731 N 1189.06 3.66434 -4.01531 0
M  V30 12732 H 1192.86 1.62714 -2.44747 0
M  V30 12733 H 1190.37 0.813587 -1.40551 0
M  V30 12734 H 1192.37 3.89575 -1.48449 0
M  V30 12735 H 1191.03 3.20286 -0.533548 0
M  V30 12736 H 1192.04 2.99537 -4.2249 0
M  V30 12737 H 1188.72 3.78253 -1.76722 0
M  V30 12738 H 1190.11 3.40669 -5.79132 0
M  V30 12739 N 1192.83 1.32541 0.852676 0
M  V30 12740 C 1193.76 1.24254 1.97694 0
M  V30 12741 C 1194.74 0.125971 1.69633 0
M  V30 12742 O 1195.92 0.31347 1.91653 0
M  V30 12743 C 1193.05 0.966874 3.3357 0
M  V30 12744 C 1192.01 2.0449 3.75989 0
M  V30 12745 C 1191.33 1.6216 5.09518 0
M  V30 12746 C 1192.63 3.46013 3.91244 0
M  V30 12747 H 1194.33 2.18317 2.04886 0
M  V30 12748 H 1191.87 1.05101 0.984371 0
M  V30 12749 H 1193.83 0.895444 4.11776 0
M  V30 12750 H 1192.55 -0.0093893 3.26599 0
M  V30 12751 H 1191.21 2.10651 3.00036 0
M  V30 12752 H 1190.86 0.632729 4.99005 0
M  V30 12753 H 1190.56 2.3429 5.38871 0
M  V30 12754 H 1192.08 1.56457 5.90215 0
M  V30 12755 H 1193.49 3.4243 4.59799 0
M  V30 12756 H 1191.89 4.1651 4.32017 0
M  V30 12757 H 1192.96 3.8553 2.941 0
M  V30 12758 N 1194.3 -1.0692 1.15784 0
M  V30 12759 C 1195.21 -2.17762 0.872753 0
M  V30 12760 C 1196.23 -1.73329 -0.152608 0
M  V30 12761 O 1197.41 -2.01387 0.022519 0
M  V30 12762 C 1194.47 -3.4471 0.370887 0
M  V30 12763 C 1193.53 -4.03686 1.46069 0
M  V30 12764 C 1192.77 -5.24575 0.982675 0
M  V30 12765 O 1192.99 -5.70146 -0.17006 0
M  V30 12766 O 1191.92 -5.7534 1.76828 0
M  V30 12767 H 1195.75 -2.44648 1.79948 0
M  V30 12768 H 1193.33 -1.1634 0.937303 0
M  V30 12769 H 1195.22 -4.21287 0.0976779 0
M  V30 12770 H 1193.89 -3.19366 -0.527912 0
M  V30 12771 H 1192.8 -3.28629 1.78756 0
M  V30 12772 H 1194.13 -4.33312 2.33456 0
M  V30 12773 N 1195.78 -0.955326 -1.25345 0
M  V30 12774 C 1196.71 -0.494145 -2.28211 0
M  V30 12775 C 1197.69 0.459875 -1.63766 0
M  V30 12776 O 1198.88 0.358679 -1.90859 0
M  V30 12777 C 1196.01 0.228228 -3.46549 0
M  V30 12778 C 1194.96 -0.640601 -4.23179 0
M  V30 12779 C 1194.29 0.212553 -5.34277 0
M  V30 12780 C 1195.59 -1.91906 -4.85767 0
M  V30 12781 H 1197.28 -1.35391 -2.67039 0
M  V30 12782 H 1194.83 -0.652462 -1.2837 0
M  V30 12783 H 1196.78 0.561995 -4.17636 0
M  V30 12784 H 1195.51 1.12224 -3.06714 0
M  V30 12785 H 1194.16 -0.957462 -3.53876 0
M  V30 12786 H 1193.81 1.10634 -4.90682 0
M  V30 12787 H 1193.51 -0.365473 -5.86462 0
M  V30 12788 H 1195.04 0.541271 -6.08196 0
M  V30 12789 H 1196.45 -1.65165 -5.48993 0
M  V30 12790 H 1194.85 -2.44279 -5.48131 0
M  V30 12791 H 1195.92 -2.62173 -4.07914 0
M  V30 12792 N 1197.26 1.39987 -0.723979 0
M  V30 12793 C 1198.19 2.3332 -0.0917282 0
M  V30 12794 C 1199.17 1.53335 0.736361 0
M  V30 12795 O 1200.36 1.81771 0.683582 0
M  V30 12796 C 1197.49 3.3737 0.824549 0
M  V30 12797 C 1196.44 4.2788 0.101452 0
M  V30 12798 C 1195.77 5.22536 1.13401 0
M  V30 12799 C 1197.07 5.11649 -1.04939 0
M  V30 12800 H 1198.76 2.86441 -0.871318 0
M  V30 12801 H 1196.31 1.37725 -0.420448 0
M  V30 12802 H 1198.26 4.01607 1.27631 0
M  V30 12803 H 1196.98 2.82663 1.63613 0
M  V30 12804 H 1195.64 3.65107 -0.330569 0
M  V30 12805 H 1195.29 4.64131 1.93886 0
M  V30 12806 H 1194.99 5.83938 0.65502 0
M  V30 12807 H 1196.52 5.89651 1.58569 0
M  V30 12808 H 1197.93 5.69293 -0.6766 0
M  V30 12809 H 1196.33 5.82137 -1.45729 0
M  V30 12810 H 1197.4 4.47132 -1.8762 0
M  V30 12811 N 1198.74 0.470782 1.50404 0
M  V30 12812 C 1199.99 -0.0841494 2.01925 0
M  V30 12813 C 1200.31 -1.40244 1.35487 0
M  V30 12814 O 1199.58 -1.89409 0.500111 0
M  V30 12815 H 1198.16 -0.0340884 0.746222 0
M  V30 12816 H 1200.82 0.621133 1.84738 0
M  V30 12817 H 1199.92 -0.235877 3.11207 0
M  V30 12818 N 1200.22 -1.56282 0.203376 0
M  V30 12819 C 1201.63 -1.84146 -0.307752 0
M  V30 12820 C 1201.98 -1.12429 -1.60792 0
M  V30 12821 O 1201.1 -0.387852 -2.12896 0
M  V30 12822 C 1201.7 -3.34053 -0.565152 0
M  V30 12823 C 1200.26 -3.62298 -1.02063 0
M  V30 12824 C 1199.41 -2.77202 -0.0737343 0
M  V30 12825 H 1202.36 -1.52848 0.426983 0
M  V30 12826 H 1202.38 -3.53273 -1.41345 0
M  V30 12827 H 1201.89 -3.86222 0.381301 0
M  V30 12828 H 1199.99 -3.1557 -1.98107 0
M  V30 12829 H 1200.1 -4.70424 -0.907614 0
M  V30 12830 H 1198.47 -2.48074 -0.577169 0
M  V30 12831 H 1199.25 -3.32164 0.86731 0
M  V30 12832 N 1201.7 0.070167 -1.57444 0
M  V30 12833 C 1202.63 1.11509 -1.991 0
M  V30 12834 C 1203.61 1.37481 -0.868194 0
M  V30 12835 O 1204.79 1.50827 -1.13064 0
M  V30 12836 C 1201.92 2.45908 -2.3291 0
M  V30 12837 C 1200.96 2.36059 -3.55216 0
M  V30 12838 S 1201.8 1.75316 -5.05989 0
M  V30 12839 C 1202.95 3.11289 -5.43001 0
M  V30 12840 H 1203.19 0.760096 -2.87419 0
M  V30 12841 H 1200.72 0.278756 -1.51863 0
M  V30 12842 H 1202.68 3.23217 -2.53063 0
M  V30 12843 H 1201.34 2.78567 -1.45117 0
M  V30 12844 H 1200.53 3.35176 -3.76395 0
M  V30 12845 H 1200.13 1.66886 -3.34701 0
M  V30 12846 H 1202.42 4.07603 -5.41171 0
M  V30 12847 H 1203.37 2.94888 -6.43775 0
M  V30 12848 H 1203.78 3.11969 -4.70463 0
M  V30 12849 N 1203.17 1.53854 0.341593 0
M  V30 12850 C 1204.42 1.7041 1.07905 0
M  V30 12851 C 1204.74 0.475039 1.89744 0
M  V30 12852 O 1205.94 0.521589 2.66443 0
M  V30 12853 C 1204.4 3.01342 1.96776 0
M  V30 12854 C 1204.01 4.31592 1.20135 0
M  V30 12855 C 1205.75 3.27264 2.70367 0
M  V30 12856 C 1203.66 5.53598 2.08047 0
M  V30 12857 H 1202.59 0.635005 0.406553 0
M  V30 12858 H 1205.24 1.80353 0.338409 0
M  V30 12859 H 1203.62 2.85261 2.74667 0
M  V30 12860 H 1204.79 4.58382 0.471404 0
M  V30 12861 H 1203.11 4.12298 0.583039 0
M  V30 12862 H 1205.71 4.15607 3.36415 0
M  V30 12863 H 1206.05 2.44357 3.37039 0
M  V30 12864 H 1206.58 3.4413 1.99548 0
M  V30 12865 H 1203.32 6.39053 1.45914 0
M  V30 12866 H 1202.84 5.31052 2.78825 0
M  V30 12867 H 1204.52 5.89314 2.67055 0
M  V30 12868 N 1204.65 -0.602709 1.4562 0
M  V30 12869 C 1205.6 -1.70753 1.51088 0
M  V30 12870 C 1206.59 -1.56501 0.373662 0
M  V30 12871 O 1207.78 -1.65755 0.620828 0
M  V30 12872 C 1204.91 -3.09515 1.48511 0
M  V30 12873 C 1203.99 -3.29135 2.67453 0
M  V30 12874 N 1204.38 -3.18996 3.92524 0
M  V30 12875 C 1202.68 -3.60019 2.63253 0
M  V30 12876 C 1203.38 -3.40079 4.71933 0
M  V30 12877 N 1202.36 -3.64299 4.03469 0
M  V30 12878 H 1206.16 -1.61414 2.45607 0
M  V30 12879 H 1203.67 -0.806122 1.4098 0
M  V30 12880 H 1205.67 -3.88782 1.50513 0
M  V30 12881 H 1204.33 -3.19999 0.550526 0
M  V30 12882 H 1205.34 -2.97292 4.24073 0
M  V30 12883 H 1202.02 -3.77311 1.78725 0
M  V30 12884 H 1203.41 -3.37593 5.80931 0
M  V30 12885 N 1206.13 -1.32992 -0.845635 0
M  V30 12886 C 1207.09 -1.22607 -1.9365 0
M  V30 12887 C 1208.09 -0.146812 -1.60128 0
M  V30 12888 O 1209.28 -0.397863 -1.69596 0
M  V30 12889 C 1206.41 -0.887677 -3.2914 0
M  V30 12890 H 1207.61 -2.19563 -2.04285 0
M  V30 12891 H 1205.16 -1.16952 -1.03691 0
M  V30 12892 H 1205.9 0.0796777 -3.24202 0
M  V30 12893 H 1205.68 -1.66808 -3.54849 0
M  V30 12894 H 1207.17 -0.83958 -4.09073 0
M  V30 12895 N 1207.61 1.06304 -1.1635 0
M  V30 12896 C 1208.52 2.17296 -0.884289 0
M  V30 12897 C 1209.53 1.73408 0.143414 0
M  V30 12898 O 1210.71 2.01373 -0.0331987 0
M  V30 12899 C 1207.77 3.44509 -0.389163 0
M  V30 12900 C 1206.84 4.02906 -1.48208 0
M  V30 12901 C 1206.07 5.24047 -1.01048 0
M  V30 12902 O 1206.29 5.70229 0.139821 0
M  V30 12903 O 1205.23 5.74394 -1.79876 0
M  V30 12904 H 1209.05 2.4369 -1.81243 0
M  V30 12905 H 1206.64 1.15841 -0.943459 0
M  V30 12906 H 1208.52 4.21229 -0.120018 0
M  V30 12907 H 1207.19 3.19642 0.510968 0
M  V30 12908 H 1206.1 3.27677 -1.80496 0
M  V30 12909 H 1207.43 4.32068 -2.35751 0
M  V30 12910 N 1209.09 0.96196 1.24836 0
M  V30 12911 C 1210.33 0.621634 1.93038 0
M  V30 12912 C 1210.66 -0.840257 1.75081 0
M  V30 12913 O 1209.94 -1.60381 1.10038 0
M  V30 12914 C 1210.22 0.990107 3.46221 0
M  V30 12915 C 1210.08 2.50827 3.73371 0
M  V30 12916 C 1211.39 0.520478 4.37011 0
M  V30 12917 H 1208.51 0.227312 0.701069 0
M  V30 12918 H 1211.16 1.19993 1.47315 0
M  V30 12919 H 1209.31 0.498008 3.85295 0
M  V30 12920 H 1210.98 3.07469 3.4389 0
M  V30 12921 H 1209.22 2.94277 3.18722 0
M  V30 12922 H 1209.89 2.71659 4.80526 0
M  V30 12923 H 1212.37 0.942703 4.05281 0
M  V30 12924 H 1211.24 0.806918 5.42937 0
M  V30 12925 H 1211.5 -0.579507 4.38285 0
M  V30 12926 N 1210.56 -1.39601 0.731392 0
M  V30 12927 C 1211.81 -2.0019 0.277208 0
M  V30 12928 C 1212.13 -1.5832 -1.13841 0
M  V30 12929 O 1211.4 -0.829793 -1.77458 0
M  V30 12930 H 1209.98 -0.740344 0.0995006 0
M  V30 12931 H 1212.64 -1.70704 0.940547 0
M  V30 12932 H 1211.74 -3.10427 0.322749 0
M  V30 12933 N 1212.04 -0.478751 -1.50152 0
M  V30 12934 C 1212.99 0.325375 -2.30313 0
M  V30 12935 C 1213.98 0.983372 -1.37935 0
M  V30 12936 O 1215.19 0.913601 -1.55091 0
M  V30 12937 H 1211.57 0.123775 -0.741744 0
M  V30 12938 H 1213.54 -0.371004 -2.96085 0
M  V30 12939 C 1212.29 1.39026 -3.18696 0
M  V30 12940 H 1211.61 0.893329 -3.89692 0
M  V30 12941 H 1213.05 1.92533 -3.77766 0
M  V30 12942 C 1211.51 2.39637 -2.36803 0
M  V30 12943 O 1212.04 3.45067 -2.05649 0
M  V30 12944 N 1210.24 2.11546 -1.9924 0
M  V30 12945 H 1209.79 1.25832 -2.24775 0
M  V30 12946 H 1209.75 2.79096 -1.44751 0
M  V30 12947 N 1213.52 1.56172 -0.211661 0
M  V30 12948 C 1214.75 2.02428 0.427843 0
M  V30 12949 C 1215.16 1.09162 1.54043 0
M  V30 12950 O 1214.52 0.0994249 1.82229 0
M  V30 12951 C 1214.57 3.48279 0.968728 0
M  V30 12952 O 1214.29 4.37987 -0.0994841 0
M  V30 12953 C 1215.79 4.10132 1.68246 0
M  V30 12954 H 1213.01 0.662611 0.10577 0
M  V30 12955 H 1215.56 2.01897 -0.32522 0
M  V30 12956 H 1213.71 3.49456 1.6721 0
M  V30 12957 H 1214.13 5.23609 0.305558 0
M  V30 12958 H 1215.6 5.13985 2.01304 0
M  V30 12959 H 1216.08 3.54552 2.5921 0
M  V30 12960 H 1216.68 4.12775 1.02453 0
M  V30 12961 N 1215 -0.0618163 1.57479 0
M  V30 12962 C 1216.24 -0.760193 1.88013 0
M  V30 12963 C 1216.58 -1.76718 0.805258 0
M  V30 12964 O 1215.85 -1.93633 -0.183408 0
M  V30 12965 C 1216.14 -1.45924 3.29208 0
M  V30 12966 C 1215.99 -0.467994 4.47359 0
M  V30 12967 C 1217.31 -2.40166 3.68793 0
M  V30 12968 H 1214.43 -0.274896 0.683814 0
M  V30 12969 H 1217.07 -0.0232433 1.89986 0
M  V30 12970 H 1215.22 -2.08741 3.27657 0
M  V30 12971 H 1216.89 0.155735 4.61037 0
M  V30 12972 H 1215.13 0.215797 4.33263 0
M  V30 12973 H 1215.8 -0.994942 5.42959 0
M  V30 12974 H 1218.28 -1.87419 3.71501 0
M  V30 12975 H 1217.16 -2.86076 4.68457 0
M  V30 12976 H 1217.42 -3.25413 2.99264 0
M  V30 12977 N 1216.48 -1.54033 -0.333429 0
M  V30 12978 C 1217.41 -1.85719 -1.4153 0
M  V30 12979 C 1218.39 -0.713144 -1.54429 0
M  V30 12980 O 1219.57 -0.965984 -1.68471 0
M  V30 12981 C 1216.7 -2.07578 -2.78439 0
M  V30 12982 C 1215.66 -3.23411 -2.80338 0
M  V30 12983 C 1214.98 -3.30622 -4.2023 0
M  V30 12984 C 1216.28 -4.6129 -2.44968 0
M  V30 12985 H 1217.98 -2.76325 -1.15261 0
M  V30 12986 H 1215.52 -1.32957 -0.55303 0
M  V30 12987 H 1217.48 -2.28329 -3.5418 0
M  V30 12988 H 1216.2 -1.13713 -3.06165 0
M  V30 12989 H 1214.86 -3.02531 -2.07052 0
M  V30 12990 H 1214.51 -2.34333 -4.45081 0
M  V30 12991 H 1214.21 -4.08466 -4.22409 0
M  V30 12992 H 1215.73 -3.53596 -4.97798 0
M  V30 12993 H 1217.14 -4.81987 -3.10421 0
M  V30 12994 H 1215.54 -5.41611 -2.58414 0
M  V30 12995 H 1216.61 -4.6421 -1.40134 0
M  V30 12996 N 1217.95 0.594978 -1.45938 0
M  V30 12997 C 1219.2 1.34976 -1.49881 0
M  V30 12998 C 1219.52 1.95025 -0.14983 0
M  V30 12999 O 1220.72 2.71417 -0.0669868 0
M  V30 13000 C 1219.18 2.44563 -2.6404 0
M  V30 13001 C 1218.79 1.9087 -4.05306 0
M  V30 13002 C 1220.53 3.21461 -2.77242 0
M  V30 13003 C 1218.44 2.98013 -5.10825 0
M  V30 13004 H 1217.37 0.507366 -0.55776 0
M  V30 13005 H 1220.02 0.636316 -1.72114 0
M  V30 13006 H 1218.4 3.1865 -2.35114 0
M  V30 13007 H 1219.57 1.23408 -4.43968 0
M  V30 13008 H 1217.89 1.26678 -3.96663 0
M  V30 13009 H 1220.49 4.01399 -3.53246 0
M  V30 13010 H 1220.83 3.73271 -1.84321 0
M  V30 13011 H 1221.36 2.54477 -3.05756 0
M  V30 13012 H 1218.1 2.51104 -6.05497 0
M  V30 13013 H 1217.62 3.64003 -4.7672 0
M  V30 13014 H 1219.3 3.62178 -5.36131 0
M  V30 13015 N 1219.43 1.33438 0.838571 0
M  V30 13016 C 1220.68 1.24259 1.58879 0
M  V30 13017 C 1220.99 -0.189957 1.94675 0
M  V30 13018 O 1222.2 -0.40376 2.68481 0
M  V30 13019 C 1220.66 2.1773 2.86569 0
M  V30 13020 C 1220.26 3.66156 2.58135 0
M  V30 13021 C 1222.01 2.17424 3.64591 0
M  V30 13022 C 1219.92 4.5154 3.81923 0
M  V30 13023 H 1218.85 0.461534 0.59624 0
M  V30 13024 H 1221.5 1.58504 0.924588 0
M  V30 13025 H 1219.88 1.76418 3.54532 0
M  V30 13026 H 1221.05 4.1591 1.98382 0
M  V30 13027 H 1219.37 3.68754 1.93416 0
M  V30 13028 H 1221.96 2.78446 4.56478 0
M  V30 13029 H 1222.31 1.16939 3.99539 0
M  V30 13030 H 1222.84 2.571 3.03553 0
M  V30 13031 H 1219.58 5.52902 3.52107 0
M  V30 13032 H 1219.1 4.06529 4.41015 0
M  V30 13033 H 1220.78 4.65359 4.495 0
M  V30 13034 N 1220.91 -1.05686 1.16912 0
M  V30 13035 C 1222.16 -1.78597 0.954425 0
M  V30 13036 C 1222.49 -1.87494 -0.517315 0
M  V30 13037 O 1221.74 -1.36736 -1.40006 0
M  V30 13038 C 1222.04 -3.22779 1.53455 0
M  V30 13039 C 1221.71 -3.3395 3.02965 0
M  V30 13040 C 1220.37 -3.36706 3.43777 0
M  V30 13041 C 1222.72 -3.35371 3.98969 0
M  V30 13042 C 1220.05 -3.38506 4.79198 0
M  V30 13043 C 1222.4 -3.38708 5.34284 0
M  V30 13044 C 1221.06 -3.39749 5.74567 0
M  V30 13045 H 1220.33 -0.653534 0.349249 0
M  V30 13046 H 1222.98 -1.24245 1.45723 0
M  V30 13047 H 1221.29 -3.80025 0.953331 0
M  V30 13048 H 1222.98 -3.77805 1.34404 0
M  V30 13049 H 1219.57 -3.32515 2.70429 0
M  V30 13050 H 1223.76 -3.32447 3.685 0
M  V30 13051 H 1219.01 -3.37619 5.09729 0
M  V30 13052 H 1223.19 -3.38755 6.08455 0
M  V30 13053 H 1220.81 -3.40897 6.7948 0
M  V30 13054 N 1222.39 -0.968567 -1.24324 0
M  V30 13055 C 1223.34 -0.498817 -2.25345 0
M  V30 13056 C 1224.31 0.456082 -1.59716 0
M  V30 13057 O 1225.49 0.366254 -1.87252 0
M  V30 13058 C 1222.63 0.204027 -3.44496 0
M  V30 13059 C 1221.74 -0.789741 -4.2472 0
M  V30 13060 C 1220.88 -0.0629156 -5.31163 0
M  V30 13061 C 1219.92 -1.04669 -6.03084 0
M  V30 13062 N 1219.05 -0.349812 -7.01228 0
M  V30 13063 H 1223.89 -1.36511 -2.64894 0
M  V30 13064 H 1221.43 -0.684288 -1.30215 0
M  V30 13065 H 1223.39 0.628223 -4.12443 0
M  V30 13066 H 1222.02 1.03426 -3.05782 0
M  V30 13067 H 1221.07 -1.33237 -3.56303 0
M  V30 13068 H 1222.38 -1.53988 -4.74436 0
M  V30 13069 H 1221.54 0.419233 -6.0525 0
M  V30 13070 H 1220.28 0.719915 -4.82357 0
M  V30 13071 H 1219.28 -1.53971 -5.278 0
M  V30 13072 H 1220.51 -1.82998 -6.53979 0
M  V30 13073 H 1218.45 0.414026 -6.54692 0
M  V30 13074 H 1218.37 -1.03881 -7.48829 0
M  V30 13075 H 1219.64 0.11034 -7.79422 0
M  V30 13076 N 1223.87 1.39211 -0.738786 0
M  V30 13077 C 1224.81 2.32424 -0.0904601 0
M  V30 13078 C 1225.81 1.53258 0.721694 0
M  V30 13079 O 1227.01 1.68895 0.622454 0
M  V30 13080 H 1223.39 0.751927 -0.010453 0
M  V30 13081 H 1225.36 2.84726 -0.892945 0
M  V30 13082 C 1224.11 3.38377 0.799783 0
M  V30 13083 H 1223.43 3.99375 0.18424 0
M  V30 13084 H 1224.87 4.0604 1.22096 0
M  V30 13085 C 1223.33 2.75734 1.93578 0
M  V30 13086 O 1223.86 2.63876 3.02874 0
M  V30 13087 N 1222.07 2.33764 1.72634 0
M  V30 13088 H 1221.61 2.43609 0.837413 0
M  V30 13089 H 1221.57 1.92191 2.48817 0
M  V30 13090 N 1225.34 0.486708 1.49896 0
M  V30 13091 C 1226.29 -0.299294 2.28851 0
M  V30 13092 C 1227.26 -0.973251 1.346 0
M  V30 13093 O 1228.45 -0.982678 1.63548 0
M  V30 13094 C 1225.59 -1.36624 3.16904 0
M  V30 13095 C 1224.7 -0.705492 4.262 0
M  V30 13096 C 1223.83 -1.75165 5.01488 0
M  V30 13097 C 1222.87 -1.072 6.0264 0
M  V30 13098 N 1222.01 -2.06172 6.71147 0
M  V30 13099 H 1226.85 0.380272 2.95564 0
M  V30 13100 H 1224.39 0.199377 1.45743 0
M  V30 13101 H 1226.35 -1.99666 3.66319 0
M  V30 13102 H 1224.98 -2.01476 2.52205 0
M  V30 13103 H 1224.03 0.0378757 3.80381 0
M  V30 13104 H 1225.34 -0.169774 4.98511 0
M  V30 13105 H 1224.49 -2.45749 5.547 0
M  V30 13106 H 1223.23 -2.3212 4.28919 0
M  V30 13107 H 1222.24 -0.351868 5.48673 0
M  V30 13108 H 1223.46 -0.509139 6.77189 0
M  V30 13109 H 1221.41 -2.62115 6.01358 0
M  V30 13110 H 1221.33 -1.57627 7.39385 0
M  V30 13111 H 1222.59 -2.76088 7.28969 0
M  V30 13112 N 1226.82 -1.56058 0.219941 0
M  V30 13113 C 1227.79 -2.18964 -0.677303 0
M  V30 13114 C 1228.79 -1.15105 -1.12283 0
M  V30 13115 O 1229.98 -1.40348 -1.03189 0
M  V30 13116 C 1227.11 -2.81167 -1.92764 0
M  V30 13117 H 1228.3 -2.99623 -0.128877 0
M  V30 13118 H 1225.85 -1.56272 -0.0296744 0
M  V30 13119 H 1226.59 -2.04374 -2.51797 0
M  V30 13120 H 1226.37 -3.5722 -1.61666 0
M  V30 13121 H 1227.86 -3.29391 -2.56693 0
M  V30 13122 N 1228.3 0.053464 -1.57509 0
M  V30 13123 C 1229.53 0.765301 -1.92764 0
M  V30 13124 C 1229.95 1.69385 -0.817943 0
M  V30 13125 O 1229.31 1.7986 0.228075 0
M  V30 13126 C 1229.36 1.51938 -3.27028 0
M  V30 13127 O 1228.46 2.63121 -3.17555 0
M  V30 13128 H 1227.8 0.207567 -0.630723 0
M  V30 13129 H 1230.33 0.0162254 -2.04594 0
M  V30 13130 H 1230.34 1.89466 -3.6134 0
M  V30 13131 H 1229.02 0.838207 -4.07366 0
M  V30 13132 H 1227.59 2.28316 -2.94832 0
M  V30 13133 N 1229.78 1.54207 0.325255 0
M  V30 13134 C 1231.2 1.44879 0.669492 0
M  V30 13135 C 1231.4 0.620298 1.91715 0
M  V30 13136 O 1230.45 0.118435 2.52222 0
M  V30 13137 C 1231.76 2.88581 0.845077 0
M  V30 13138 C 1233.31 2.98472 0.942527 0
M  V30 13139 C 1233.79 4.4332 1.15029 0
M  V30 13140 N 1235.28 4.46925 1.21707 0
M  V30 13141 C 1236.01 5.56155 1.39568 0
M  V30 13142 N 1235.51 6.75357 1.54483 0
M  V30 13143 N 1237.3 5.43799 1.42263 0
M  V30 13144 H 1229.45 2.06556 -0.494819 0
M  V30 13145 H 1231.72 0.934474 -0.159568 0
M  V30 13146 H 1231.42 3.517 -0.000442996 0
M  V30 13147 H 1231.3 3.34596 1.74141 0
M  V30 13148 H 1233.68 2.35481 1.77855 0
M  V30 13149 H 1233.76 2.5579 0.0226995 0
M  V30 13150 H 1233.41 5.06896 0.319127 0
M  V30 13151 H 1233.34 4.8361 2.08397 0
M  V30 13152 H 1235.83 3.61036 1.11632 0
M  V30 13153 H 1236.14 7.54363 1.67799 0
M  V30 13154 H 1234.49 6.78268 1.51584 0
M  V30 13155 H 1237.68 4.49627 1.30205 0
M  V30 13156 H 1237.85 6.28982 1.5584 0
M  V30 13157 N 1231.26 -0.58723 1.46251 0
M  V30 13158 C 1232.67 -1.16933 1.45546 0
M  V30 13159 C 1233.02 -1.9524 0.193879 0
M  V30 13160 O 1232.14 -2.04652 -0.70332 0
M  V30 13161 C 1232.74 -2.12723 2.63693 0
M  V30 13162 C 1231.3 -2.66267 2.66043 0
M  V30 13163 C 1230.45 -1.42051 2.38153 0
M  V30 13164 H 1233.4 -0.375411 1.54196 0
M  V30 13165 H 1233.42 -2.96111 2.38953 0
M  V30 13166 H 1232.93 -1.55703 3.55497 0
M  V30 13167 H 1231.03 -3.2717 1.783 0
M  V30 13168 H 1231.14 -3.0931 3.65874 0
M  V30 13169 H 1229.51 -1.71707 1.88119 0
M  V30 13170 H 1230.29 -0.868675 3.32128 0
M  V30 13171 N 1232.74 -1.33881 -0.831482 0
M  V30 13172 C 1233.97 -1.28625 -1.61676 0
M  V30 13173 C 1234.37 0.143588 -1.88654 0
M  V30 13174 O 1233.72 1.09847 -1.47239 0
M  V30 13175 C 1233.78 -2.00022 -2.98716 0
M  V30 13176 C 1233.44 -3.49309 -2.94674 0
M  V30 13177 C 1234.44 -4.44375 -2.69864 0
M  V30 13178 C 1232.12 -3.91596 -3.14576 0
M  V30 13179 C 1234.12 -5.79703 -2.64996 0
M  V30 13180 C 1231.81 -5.27026 -3.09333 0
M  V30 13181 C 1232.8 -6.20892 -2.84575 0
M  V30 13182 O 1232.49 -7.53841 -2.79248 0
M  V30 13183 H 1232.22 -0.444235 -0.50954 0
M  V30 13184 H 1234.78 -1.76933 -1.04326 0
M  V30 13185 H 1233.01 -1.46316 -3.57951 0
M  V30 13186 H 1234.7 -1.88168 -3.59649 0
M  V30 13187 H 1235.46 -4.13027 -2.54231 0
M  V30 13188 H 1231.34 -3.18938 -3.32865 0
M  V30 13189 H 1234.89 -6.5294 -2.45591 0
M  V30 13190 H 1230.78 -5.57996 -3.24516 0
M  V30 13191 H 1231.55 -7.63476 -2.95037 0
M  V30 13192 N 1234.21 1.05064 -1.1747 0
M  V30 13193 C 1235.44 1.82299 -0.98903 0
M  V30 13194 C 1235.86 1.82441 0.457907 0
M  V30 13195 O 1235.22 1.23433 1.32793 0
M  V30 13196 C 1235.27 3.26239 -1.53624 0
M  V30 13197 O 1234.37 4.05507 -0.750857 0
M  V30 13198 H 1233.71 0.563601 -0.35107 0
M  V30 13199 H 1236.24 1.32386 -1.55997 0
M  V30 13200 H 1236.25 3.77038 -1.55906 0
M  V30 13201 H 1234.93 3.25451 -2.58949 0
M  V30 13202 H 1233.51 3.64227 -0.799548 0
M  V30 13203 N 1235.69 0.975146 1.23809 0
M  V30 13204 C 1236.94 0.636678 1.91388 0
M  V30 13205 C 1237.25 -0.832876 1.76982 0
M  V30 13206 O 1238.46 -1.28218 2.39316 0
M  V30 13207 C 1236.92 1.08813 3.43057 0
M  V30 13208 C 1236.52 2.58165 3.66135 0
M  V30 13209 C 1238.27 0.823154 4.16443 0
M  V30 13210 C 1236.17 2.97004 5.11412 0
M  V30 13211 H 1235.1 0.234424 0.716632 0
M  V30 13212 H 1237.76 1.18235 1.40331 0
M  V30 13213 H 1236.14 0.470709 3.93192 0
M  V30 13214 H 1237.31 3.25101 3.26567 0
M  V30 13215 H 1235.63 2.82353 3.06049 0
M  V30 13216 H 1238.22 1.08925 5.23488 0
M  V30 13217 H 1238.57 -0.240705 4.15604 0
M  V30 13218 H 1239.1 1.4019 3.72279 0
M  V30 13219 H 1235.84 4.02492 5.17378 0
M  V30 13220 H 1235.36 2.34759 5.51949 0
M  V30 13221 H 1237.04 2.8732 5.79704 0
M  V30 13222 N 1237.17 -1.38817 0.746158 0
M  V30 13223 C 1238.39 -2.05096 0.308302 0
M  V30 13224 C 1238.82 -1.55902 -1.05244 0
M  V30 13225 O 1238.18 -0.707685 -1.66918 0
M  V30 13226 C 1238.23 -3.59068 0.332016 0
M  V30 13227 O 1237.33 -4.06813 -0.676547 0
M  V30 13228 H 1236.67 -0.649523 0.1379 0
M  V30 13229 H 1239.2 -1.77637 1.0152 0
M  V30 13230 H 1239.21 -4.07601 0.180293 0
M  V30 13231 H 1237.89 -3.94234 1.32487 0
M  V30 13232 H 1236.46 -3.69666 -0.490046 0
M  V30 13233 N 1238.65 -0.49465 -1.49636 0
M  V30 13234 C 1239.61 0.276064 -2.27531 0
M  V30 13235 C 1240.61 0.899619 -1.3328 0
M  V30 13236 O 1241.8 0.765136 -1.56497 0
M  V30 13237 C 1238.93 1.39547 -3.1103 0
M  V30 13238 H 1240.13 -0.407381 -2.9712 0
M  V30 13239 H 1237.68 -0.249416 -1.54297 0
M  V30 13240 H 1238.41 2.11326 -2.45992 0
M  V30 13241 H 1238.2 0.953877 -3.8032 0
M  V30 13242 H 1239.69 1.93853 -3.69879 0
M  V30 13243 N 1240.13 1.55939 -0.228214 0
M  V30 13244 C 1241.06 2.17874 0.711589 0
M  V30 13245 C 1242.07 1.14969 1.15265 0
M  V30 13246 O 1243.26 1.41919 1.08265 0
M  V30 13247 C 1240.36 2.75294 1.97652 0
M  V30 13248 C 1239.53 4.03435 1.68994 0
M  V30 13249 C 1238.59 4.45354 2.8026 0
M  V30 13250 O 1237.62 5.12117 2.48445 0
M  V30 13251 N 1238.82 4.11588 4.0936 0
M  V30 13252 H 1241.58 2.99148 0.181757 0
M  V30 13253 H 1239.15 1.6183 -0.0474567 0
M  V30 13254 H 1241.14 3.00305 2.71292 0
M  V30 13255 H 1239.71 1.98285 2.41665 0
M  V30 13256 H 1238.93 3.8621 0.789657 0
M  V30 13257 H 1240.22 4.87015 1.47287 0
M  V30 13258 H 1239.61 3.57953 4.38048 0
M  V30 13259 H 1238.17 4.41477 4.79522 0
M  V30 13260 N 1241.6 -0.0451101 1.57535 0
M  V30 13261 C 1242.85 -0.737654 1.88157 0
M  V30 13262 C 1243.17 -1.76743 0.823817 0
M  V30 13263 O 1242.44 -1.95366 -0.144503 0
M  V30 13264 H 1241.02 -0.275431 0.694368 0
M  V30 13265 H 1243.69 -0.0148651 1.94894 0
M  V30 13266 H 1242.78 -1.23726 2.86528 0
M  V30 13267 N 1243.08 -1.54377 -0.317073 0
M  V30 13268 C 1244.33 -1.73149 -1.05581 0
M  V30 13269 C 1244.66 -0.507176 -1.8746 0
M  V30 13270 O 1243.94 0.495837 -1.88074 0
M  V30 13271 C 1244.22 -3.01098 -1.97515 0
M  V30 13272 C 1244.07 -4.33794 -1.18922 0
M  V30 13273 C 1245.39 -3.24831 -2.9694 0
M  V30 13274 H 1242.51 -0.630011 -0.382434 0
M  V30 13275 H 1245.15 -1.87079 -0.331873 0
M  V30 13276 H 1243.3 -2.89352 -2.59244 0
M  V30 13277 H 1244.97 -4.57433 -0.596039 0
M  V30 13278 H 1243.22 -4.31005 -0.491612 0
M  V30 13279 H 1243.89 -5.19554 -1.86462 0
M  V30 13280 H 1246.36 -3.3608 -2.45335 0
M  V30 13281 H 1245.24 -4.15702 -3.58445 0
M  V30 13282 H 1245.5 -2.42365 -3.69745 0
M  V30 13283 N 1244.56 0.579466 -1.4656 0
M  V30 13284 C 1245.47 1.71609 -1.59961 0
M  V30 13285 C 1246.49 1.67162 -0.483002 0
M  V30 13286 O 1247.66 1.87012 -0.747561 0
M  V30 13287 C 1244.73 3.08114 -1.58954 0
M  V30 13288 C 1243.79 3.238 -2.81872 0
M  V30 13289 C 1243.02 4.53794 -2.80904 0
M  V30 13290 O 1243.24 5.37884 -1.89835 0
M  V30 13291 O 1242.18 4.72796 -3.72488 0
M  V30 13292 H 1246 1.6325 -2.56092 0
M  V30 13293 H 1243.59 0.746891 -1.2939 0
M  V30 13294 H 1245.47 3.8939 -1.611 0
M  V30 13295 H 1244.15 3.16903 -0.65984 0
M  V30 13296 H 1243.05 2.42006 -2.85279 0
M  V30 13297 H 1244.39 3.19904 -3.74062 0
M  V30 13298 N 1246.04 1.3432 0.824371 0
M  V30 13299 C 1246.95 1.27847 1.96704 0
M  V30 13300 C 1247.96 0.18641 1.72999 0
M  V30 13301 O 1249.14 0.412623 1.97128 0
M  V30 13302 C 1246.21 1.03231 3.30975 0
M  V30 13303 C 1245.27 2.21579 3.67697 0
M  V30 13304 C 1244.5 1.98128 4.95561 0
M  V30 13305 O 1244.72 0.938798 5.62621 0
M  V30 13306 O 1243.66 2.85041 5.30128 0
M  V30 13307 H 1247.48 2.23974 2.05108 0
M  V30 13308 H 1245.07 1.14512 0.959554 0
M  V30 13309 H 1246.95 0.912784 4.11395 0
M  V30 13310 H 1245.62 0.101425 3.23541 0
M  V30 13311 H 1244.53 2.3909 2.87727 0
M  V30 13312 H 1245.86 3.13052 3.79815 0
M  V30 13313 N 1247.52 -1.0444 1.18026 0
M  V30 13314 C 1248.45 -2.11888 0.847277 0
M  V30 13315 C 1249.43 -1.61496 -0.189171 0
M  V30 13316 O 1250.61 -1.88374 -0.0689859 0
M  V30 13317 C 1247.74 -3.3766 0.26525 0
M  V30 13318 C 1246.78 -4.06893 1.27829 0
M  V30 13319 S 1247.62 -4.54445 2.83267 0
M  V30 13320 C 1248.77 -5.83454 2.26565 0
M  V30 13321 H 1249.01 -2.39806 1.75727 0
M  V30 13322 H 1246.54 -1.17152 1.00572 0
M  V30 13323 H 1248.5 -4.1045 -0.0640578 0
M  V30 13324 H 1247.16 -3.07864 -0.622806 0
M  V30 13325 H 1246.35 -4.97287 0.819849 0
M  V30 13326 H 1245.95 -3.40203 1.55364 0
M  V30 13327 H 1248.25 -6.57203 1.64591 0
M  V30 13328 H 1249.19 -6.34056 3.15244 0
M  V30 13329 H 1249.6 -5.3838 1.69728 0
M  V30 13330 N 1248.99 -0.981699 -1.2329 0
M  V30 13331 C 1250.27 -0.567659 -1.87182 0
M  V30 13332 C 1250.65 0.955194 -1.88253 0
M  V30 13333 O 1250 1.83245 -1.36504 0
M  V30 13334 C 1250.21 -1.17522 -3.28618 0
M  V30 13335 C 1251.56 -1.26877 -4.052 0
M  V30 13336 O 1252.58 -1.12877 -3.37842 0
M  V30 13337 O 1251.44 -1.49163 -5.2575 0
M  V30 13338 H 1248.53 -0.191315 -0.804567 0
M  V30 13339 H 1251.08 -1.07686 -1.31155 0
M  V30 13340 H 1249.85 -2.21735 -3.22411 0
M  V30 13341 H 1249.48 -0.650913 -3.92236 0
M  V30 13342 N 1250.47 1.3842 -0.753509 0
M  V30 13343 C 1251.7 2.04929 -0.319174 0
M  V30 13344 C 1252.12 1.56457 1.04416 0
M  V30 13345 O 1251.48 0.716527 1.6654 0
M  V30 13346 C 1251.53 3.58887 -0.351054 0
M  V30 13347 O 1250.63 4.07166 0.654963 0
M  V30 13348 H 1249.97 0.648782 -0.141343 0
M  V30 13349 H 1252.5 1.77096 -1.02461 0
M  V30 13350 H 1252.51 4.075 -0.201907 0
M  V30 13351 H 1251.19 3.93525 -1.34576 0
M  V30 13352 H 1249.77 3.69921 0.470435 0
M  V30 13353 N 1251.95 0.502579 1.49372 0
M  V30 13354 C 1253.2 -0.0412993 2.02058 0
M  V30 13355 C 1253.52 -1.37338 1.38431 0
M  V30 13356 O 1252.79 -1.88305 0.540175 0
M  V30 13357 H 1251.37 -0.0182522 0.746777 0
M  V30 13358 H 1254.03 0.660179 1.83378 0
M  V30 13359 H 1253.13 -0.169812 3.11638 0
M  V30 13360 N 1253.43 -1.55816 0.23648 0
M  V30 13361 C 1254.38 -2.20938 -0.66745 0
M  V30 13362 C 1255.35 -1.16982 -1.17917 0
M  V30 13363 O 1256.53 -1.45392 -1.23555 0
M  V30 13364 C 1253.67 -2.90469 -1.86337 0
M  V30 13365 C 1252.78 -4.09056 -1.38915 0
M  V30 13366 C 1251.92 -4.6633 -2.54382 0
M  V30 13367 C 1250.96 -5.77187 -2.0377 0
M  V30 13368 N 1250.09 -6.28688 -3.12564 0
M  V30 13369 H 1254.93 -2.97814 -0.105411 0
M  V30 13370 H 1252.47 -1.47045 -0.0402712 0
M  V30 13371 H 1254.43 -3.28975 -2.56576 0
M  V30 13372 H 1253.06 -2.16086 -2.39806 0
M  V30 13373 H 1252.11 -3.75934 -0.581173 0
M  V30 13374 H 1253.42 -4.89115 -0.978152 0
M  V30 13375 H 1252.58 -5.07355 -3.32679 0
M  V30 13376 H 1251.32 -3.85464 -2.98778 0
M  V30 13377 H 1250.32 -5.35648 -1.23939 0
M  V30 13378 H 1251.55 -6.59896 -1.60355 0
M  V30 13379 H 1249.49 -5.50731 -3.56414 0
M  V30 13380 H 1249.41 -7.03911 -2.75762 0
M  V30 13381 H 1250.68 -6.74371 -3.90952 0
M  V30 13382 N 1254.91 0.036755 -1.57557 0
M  V30 13383 C 1255.84 1.06718 -2.0284 0
M  V30 13384 C 1256.85 1.32926 -0.939917 0
M  V30 13385 O 1258.04 1.30549 -1.21734 0
M  V30 13386 C 1255.14 2.41054 -2.38214 0
M  V30 13387 C 1254.31 2.3431 -3.69347 0
M  V30 13388 C 1253.37 3.51034 -3.91997 0
M  V30 13389 O 1252.4 3.30875 -4.63152 0
M  V30 13390 N 1253.6 4.72634 -3.37042 0
M  V30 13391 H 1256.37 0.681275 -2.91854 0
M  V30 13392 H 1253.93 0.224836 -1.60331 0
M  V30 13393 H 1255.92 3.17847 -2.5051 0
M  V30 13394 H 1254.49 2.71517 -1.5491 0
M  V30 13395 H 1253.71 1.42668 -3.67477 0
M  V30 13396 H 1255 2.2694 -4.55385 0
M  V30 13397 H 1254.39 4.91914 -2.79352 0
M  V30 13398 H 1252.95 5.46818 -3.5473 0
M  V30 13399 N 1256.39 1.54543 0.308881 0
M  V30 13400 C 1257.63 1.73449 1.04506 0
M  V30 13401 C 1257.96 0.516034 1.8753 0
M  V30 13402 O 1257.22 -0.502106 1.89149 0
M  V30 13403 C 1257.51 2.97124 1.98626 0
M  V30 13404 C 1257.18 4.31256 1.31641 0
M  V30 13405 C 1255.84 4.67719 1.13105 0
M  V30 13406 C 1258.19 5.14437 0.836888 0
M  V30 13407 C 1255.52 5.84949 0.452878 0
M  V30 13408 C 1257.87 6.32365 0.172473 0
M  V30 13409 C 1256.54 6.67495 -0.0249143 0
M  V30 13410 H 1255.81 0.634697 0.382415 0
M  V30 13411 H 1258.46 1.88795 0.320714 0
M  V30 13412 H 1256.76 2.76526 2.77562 0
M  V30 13413 H 1258.46 3.08946 2.55643 0
M  V30 13414 H 1255.05 4.02576 1.47074 0
M  V30 13415 H 1259.23 4.86772 0.967834 0
M  V30 13416 H 1254.49 6.10717 0.288886 0
M  V30 13417 H 1258.66 6.96092 -0.207027 0
M  V30 13418 H 1256.29 7.5819 -0.552425 0
M  V30 13419 N 1257.86 -0.571685 1.46866 0
M  V30 13420 C 1258.8 -1.69475 1.54307 0
M  V30 13421 C 1259.81 -1.57006 0.430449 0
M  V30 13422 O 1261 -1.64229 0.69936 0
M  V30 13423 C 1258.1 -3.07824 1.41766 0
M  V30 13424 C 1257.27 -3.46189 2.67342 0
M  V30 13425 C 1256.33 -4.63642 2.48843 0
M  V30 13426 O 1255.36 -4.68949 3.22608 0
M  V30 13427 N 1256.56 -5.59223 1.55724 0
M  V30 13428 H 1259.32 -1.63543 2.51145 0
M  V30 13429 H 1256.88 -0.757957 1.43062 0
M  V30 13430 H 1258.88 -3.84208 1.27146 0
M  V30 13431 H 1257.45 -3.08063 0.530667 0
M  V30 13432 H 1256.67 -2.59399 2.96826 0
M  V30 13433 H 1257.95 -3.68591 3.50739 0
M  V30 13434 H 1257.35 -5.5768 0.949175 0
M  V30 13435 H 1255.91 -6.34993 1.47063 0
M  V30 13436 N 1259.34 -1.34755 -0.817236 0
M  V30 13437 C 1260.59 -1.2762 -1.5761 0
M  V30 13438 C 1260.92 0.152017 -1.93604 0
M  V30 13439 O 1260.2 1.09881 -1.60488 0
M  V30 13440 C 1260.48 -2.17251 -2.87183 0
M  V30 13441 C 1260.33 -3.68638 -2.57733 0
M  V30 13442 C 1261.65 -2.06206 -3.88802 0
M  V30 13443 H 1258.77 -0.464933 -0.571845 0
M  V30 13444 H 1261.41 -1.6506 -0.941028 0
M  V30 13445 H 1259.56 -1.85452 -3.41379 0
M  V30 13446 H 1261.23 -4.10829 -2.09802 0
M  V30 13447 H 1259.48 -3.89445 -1.91089 0
M  V30 13448 H 1260.15 -4.26726 -3.50156 0
M  V30 13449 H 1262.62 -2.34137 -3.43975 0
M  V30 13450 H 1261.5 -2.71136 -4.77259 0
M  V30 13451 H 1261.76 -1.04075 -4.29675 0
M  V30 13452 N 1260.82 1.03812 -1.18578 0
M  V30 13453 C 1262.23 1.58509 -0.986496 0
M  V30 13454 C 1262.58 1.90655 0.463136 0
M  V30 13455 O 1261.71 1.69847 1.34093 0
M  V30 13456 C 1262.3 2.88 -1.78441 0
M  V30 13457 C 1260.86 3.39304 -1.6294 0
M  V30 13458 C 1260.01 2.12857 -1.77727 0
M  V30 13459 H 1262.96 0.864528 -1.33085 0
M  V30 13460 H 1262.98 3.58502 -1.27501 0
M  V30 13461 H 1262.49 2.64572 -2.83942 0
M  V30 13462 H 1260.59 3.6774 -0.599864 0
M  V30 13463 H 1260.71 4.12959 -2.42902 0
M  V30 13464 H 1259.07 2.24285 -1.20699 0
M  V30 13465 H 1259.85 1.91882 -2.84669 0
M  V30 13466 N 1262.3 0.988223 1.22768 0
M  V30 13467 C 1263.23 0.47962 2.23103 0
M  V30 13468 C 1264.21 -0.457546 1.5603 0
M  V30 13469 O 1265.39 -0.384178 1.84544 0
M  V30 13470 C 1262.52 -0.305248 3.37322 0
M  V30 13471 C 1261.57 0.577215 4.22576 0
M  V30 13472 S 1262.4 2.02974 4.95542 0
M  V30 13473 C 1263.55 1.25423 6.13205 0
M  V30 13474 H 1263.79 1.32985 2.65899 0
M  V30 13475 H 1261.32 0.794824 1.3237 0
M  V30 13476 H 1263.28 -0.752057 4.03552 0
M  V30 13477 H 1261.94 -1.1307 2.93043 0
M  V30 13478 H 1261.13 -0.0264391 5.03993 0
M  V30 13479 H 1260.73 0.960593 3.61453 0
M  V30 13480 H 1263.03 0.519499 6.75505 0
M  V30 13481 H 1263.97 2.04351 6.77972 0
M  V30 13482 H 1264.38 0.769573 5.5923 0
M  V30 13483 N 1263.78 -1.38018 0.760839 0
M  V30 13484 C 1265 -2.04231 0.331285 0
M  V30 13485 C 1265.42 -1.57385 -1.04285 0
M  V30 13486 O 1264.78 -0.750168 -1.66369 0
M  V30 13487 C 1264.83 -3.59772 0.353021 0
M  V30 13488 O 1264.55 -4.049 1.67294 0
M  V30 13489 C 1266.05 -4.4321 -0.0894942 0
M  V30 13490 H 1263.27 -0.656145 0.140408 0
M  V30 13491 H 1265.81 -1.76567 1.03172 0
M  V30 13492 H 1263.97 -3.86246 -0.298735 0
M  V30 13493 H 1264.38 -4.99369 1.60408 0
M  V30 13494 H 1265.86 -5.51995 -0.0231262 0
M  V30 13495 H 1266.33 -4.2419 -1.13839 0
M  V30 13496 H 1266.94 -4.21939 0.533661 0
M  V30 13497 N 1265.25 -0.510493 -1.49103 0
M  V30 13498 C 1266.2 0.262848 -2.29298 0
M  V30 13499 C 1267.17 0.951714 -1.36131 0
M  V30 13500 O 1268.36 0.956534 -1.65091 0
M  V30 13501 C 1265.5 1.31565 -3.19037 0
M  V30 13502 C 1264.61 0.637598 -4.27269 0
M  V30 13503 C 1263.74 1.67165 -5.04212 0
M  V30 13504 C 1262.78 0.975992 -6.04269 0
M  V30 13505 N 1261.92 1.95468 -6.74342 0
M  V30 13506 H 1266.76 -0.427246 -2.94921 0
M  V30 13507 H 1264.3 -0.222538 -1.45407 0
M  V30 13508 H 1266.25 1.93813 -3.69449 0
M  V30 13509 H 1264.88 1.97438 -2.55379 0
M  V30 13510 H 1263.94 -0.0983863 -3.80273 0
M  V30 13511 H 1265.25 0.0904435 -4.98718 0
M  V30 13512 H 1264.4 2.36893 -5.5854 0
M  V30 13513 H 1263.14 2.25267 -4.32557 0
M  V30 13514 H 1262.15 0.264534 -5.49163 0
M  V30 13515 H 1263.37 0.40134 -6.77913 0
M  V30 13516 H 1261.32 2.52515 -6.05452 0
M  V30 13517 H 1261.23 1.45845 -7.41799 0
M  V30 13518 H 1262.5 2.64455 -7.33269 0
M  V30 13519 N 1266.73 1.55688 -0.24474 0
M  V30 13520 C 1268.14 1.84897 0.25882 0
M  V30 13521 C 1268.49 1.16653 1.57755 0
M  V30 13522 O 1267.62 0.444162 2.11793 0
M  V30 13523 C 1268.21 3.35434 0.476385 0
M  V30 13524 C 1266.77 3.64877 0.924213 0
M  V30 13525 C 1265.92 2.773 0.00021322 0
M  V30 13526 H 1268.87 1.51662 -0.467358 0
M  V30 13527 H 1268.89 3.56896 1.31929 0
M  V30 13528 H 1268.4 3.85076 -0.483567 0
M  V30 13529 H 1266.5 3.20711 1.89671 0
M  V30 13530 H 1266.62 4.72665 0.78257 0
M  V30 13531 H 1264.98 2.49517 0.511194 0
M  V30 13532 H 1265.76 3.29747 -0.955072 0
M  V30 13533 N 1268.21 -0.0283989 1.57574 0
M  V30 13534 C 1269.46 -0.717656 1.88929 0
M  V30 13535 C 1269.78 -1.7586 0.842517 0
M  V30 13536 O 1269.05 -1.95509 -0.123774 0
M  V30 13537 H 1267.63 -0.268051 0.69725 0
M  V30 13538 H 1270.29 0.00580691 1.94899 0
M  V30 13539 H 1269.39 -1.2068 2.87824 0
M  V30 13540 N 1269.69 -1.54705 -0.300681 0
M  V30 13541 C 1270.6 -1.88736 -1.39341 0
M  V30 13542 C 1271.61 -0.78155 -1.5546 0
M  V30 13543 O 1272.79 -1.07804 -1.70118 0
M  V30 13544 C 1269.85 -2.12795 -2.73713 0
M  V30 13545 C 1268.92 -3.36504 -2.66577 0
M  V30 13546 C 1268.15 -3.59407 -3.94541 0
M  V30 13547 O 1268.37 -2.85315 -4.93914 0
M  V30 13548 O 1267.31 -4.52923 -3.96415 0
M  V30 13549 H 1271.13 -2.817 -1.13484 0
M  V30 13550 H 1268.72 -1.40899 -0.496771 0
M  V30 13551 H 1270.6 -2.29819 -3.53215 0
M  V30 13552 H 1269.27 -1.23017 -2.99414 0
M  V30 13553 H 1268.18 -3.24844 -1.85546 0
M  V30 13554 H 1269.51 -4.26414 -2.45829 0
M  V30 13555 N 1271.17 0.563888 -1.47167 0
M  V30 13556 C 1272.41 1.32331 -1.53676 0
M  V30 13557 C 1272.75 1.93213 -0.195593 0
M  V30 13558 O 1272.02 1.77508 0.795068 0
M  V30 13559 C 1272.3 2.43848 -2.64972 0
M  V30 13560 C 1272.16 1.8788 -4.08682 0
M  V30 13561 C 1273.48 3.45809 -2.72221 0
M  V30 13562 H 1270.59 0.479791 -0.559437 0
M  V30 13563 H 1273.24 0.631669 -1.79192 0
M  V30 13564 H 1271.39 3.02846 -2.43345 0
M  V30 13565 H 1273.06 1.33195 -4.41652 0
M  V30 13566 H 1271.3 1.18593 -4.17275 0
M  V30 13567 H 1271.97 2.68465 -4.82318 0
M  V30 13568 H 1274.45 2.9672 -2.91713 0
M  V30 13569 H 1273.32 4.21272 -3.51882 0
M  V30 13570 H 1273.59 4.04236 -1.79014 0
M  V30 13571 N 1272.64 1.35187 0.810078 0
M  V30 13572 C 1273.59 1.27822 1.92173 0
M  V30 13573 C 1274.56 0.150851 1.65414 0
M  V30 13574 O 1275.75 0.333973 1.87854 0
M  V30 13575 C 1272.89 1.05258 3.28656 0
M  V30 13576 C 1272 2.26884 3.67624 0
M  V30 13577 C 1271.13 1.97499 4.9312 0
M  V30 13578 C 1270.17 3.15198 5.24706 0
M  V30 13579 N 1269.31 2.85612 6.41381 0
M  V30 13580 H 1274.15 2.22884 1.97804 0
M  V30 13581 H 1271.69 1.10799 0.967577 0
M  V30 13582 H 1273.65 0.902084 4.07331 0
M  V30 13583 H 1272.28 0.138583 3.22502 0
M  V30 13584 H 1271.33 2.5281 2.84238 0
M  V30 13585 H 1272.64 3.14783 3.86928 0
M  V30 13586 H 1271.79 1.7926 5.79613 0
M  V30 13587 H 1270.53 1.0688 4.75844 0
M  V30 13588 H 1269.54 3.34019 4.36705 0
M  V30 13589 H 1270.76 4.06614 5.43913 0
M  V30 13590 H 1268.71 1.97583 6.25537 0
M  V30 13591 H 1268.63 3.67044 6.60919 0
M  V30 13592 H 1269.89 2.70906 7.3091 0
M  V30 13593 N 1274.12 -1.03182 1.19127 0
M  V30 13594 C 1275.35 -1.80165 1.01726 0
M  V30 13595 C 1275.77 -1.83742 -0.434095 0
M  V30 13596 O 1275.12 -1.27932 -1.30152 0
M  V30 13597 C 1275.17 -3.25354 1.57566 0
M  V30 13598 O 1274.89 -3.22042 2.9702 0
M  V30 13599 C 1276.4 -4.18948 1.44906 0
M  V30 13600 H 1273.62 -0.567078 0.358698 0
M  V30 13601 H 1276.16 -1.29982 1.57877 0
M  V30 13602 H 1274.31 -3.72738 1.0557 0
M  V30 13603 H 1274.73 -4.13061 3.23235 0
M  V30 13604 H 1276.2 -5.18723 1.88762 0
M  V30 13605 H 1276.68 -4.37383 0.399125 0
M  V30 13606 H 1277.29 -3.77435 1.96018 0
M  V30 13607 N 1275.6 -0.99472 -1.22242 0
M  V30 13608 C 1276.83 -0.689096 -1.94769 0
M  V30 13609 C 1277.24 0.750597 -1.73674 0
M  V30 13610 O 1276.58 1.51836 -1.03399 0
M  V30 13611 C 1276.64 -0.917454 -3.47596 0
M  V30 13612 C 1276.31 -2.34198 -3.92429 0
M  V30 13613 C 1277.3 -3.3216 -3.99957 0
M  V30 13614 C 1274.99 -2.6769 -4.25026 0
M  V30 13615 C 1276.98 -4.61686 -4.3946 0
M  V30 13616 C 1274.67 -3.97435 -4.64208 0
M  V30 13617 C 1275.67 -4.94244 -4.71394 0
M  V30 13618 O 1275.36 -6.2167 -5.09688 0
M  V30 13619 H 1275.09 -0.253914 -0.626501 0
M  V30 13620 H 1277.64 -1.33271 -1.56294 0
M  V30 13621 H 1275.87 -0.21666 -3.86093 0
M  V30 13622 H 1277.56 -0.6068 -4.01339 0
M  V30 13623 H 1278.33 -3.07619 -3.74961 0
M  V30 13624 H 1274.21 -1.93039 -4.18637 0
M  V30 13625 H 1277.75 -5.37248 -4.44983 0
M  V30 13626 H 1273.65 -4.21765 -4.88656 0
M  V30 13627 H 1274.42 -6.25634 -5.27755 0
M  V30 13628 N 1277.08 1.37613 -0.768148 0
M  V30 13629 C 1278.49 1.53202 -0.44737 0
M  V30 13630 C 1278.69 1.72736 1.03752 0
M  V30 13631 O 1277.75 1.74667 1.8234 0
M  V30 13632 C 1279.06 2.7306 -1.25931 0
M  V30 13633 C 1280.61 2.8692 -1.25084 0
M  V30 13634 C 1281.09 4.09757 -2.04605 0
M  V30 13635 N 1282.58 4.16862 -2.0194 0
M  V30 13636 C 1283.31 5.10936 -2.60254 0
M  V30 13637 N 1282.81 6.1059 -3.27341 0
M  V30 13638 N 1284.6 5.03393 -2.50104 0
M  V30 13639 H 1276.75 1.23184 -1.7303 0
M  V30 13640 H 1279.02 0.599541 -0.73434 0
M  V30 13641 H 1278.72 2.65078 -2.31141 0
M  V30 13642 H 1278.6 3.66646 -0.886036 0
M  V30 13643 H 1280.98 2.94375 -0.206736 0
M  V30 13644 H 1281.06 1.94303 -1.66373 0
M  V30 13645 H 1280.71 4.03063 -3.09035 0
M  V30 13646 H 1280.64 5.01481 -1.60701 0
M  V30 13647 H 1283.13 3.455 -1.53096 0
M  V30 13648 H 1283.44 6.78893 -3.6922 0
M  V30 13649 H 1281.79 6.10879 -3.31439 0
M  V30 13650 H 1284.98 4.24483 -1.9731 0
M  V30 13651 H 1285.15 5.76524 -2.95844 0
M  V30 13652 N 1278.56 0.518393 1.4883 0
M  V30 13653 C 1279.8 -0.0118581 2.03397 0
M  V30 13654 C 1280.16 -1.33082 1.3895 0
M  V30 13655 O 1279.45 -1.8435 0.522066 0
M  V30 13656 C 1279.64 -0.203001 3.56823 0
M  V30 13657 C 1279.47 1.09588 4.36143 0
M  V30 13658 C 1278.24 1.65254 4.77514 0
M  V30 13659 C 1280.44 2.00358 4.73668 0
M  V30 13660 N 1278.42 2.89551 5.41326 0
M  V30 13661 C 1279.79 3.09233 5.37378 0
M  V30 13662 C 1281.85 2.00826 4.55602 0
M  V30 13663 C 1280.55 4.18623 5.84933 0
M  V30 13664 C 1282.58 3.09203 5.0413 0
M  V30 13665 C 1281.94 4.16796 5.67856 0
M  V30 13666 H 1278.04 0.0368733 0.78113 0
M  V30 13667 H 1280.62 0.697108 1.81792 0
M  V30 13668 H 1278.79 -0.881039 3.78275 0
M  V30 13669 H 1280.53 -0.731818 3.98028 0
M  V30 13670 H 1277.28 1.19541 4.58265 0
M  V30 13671 H 1277.71 3.52802 5.77806 0
M  V30 13672 H 1282.35 1.18942 4.05725 0
M  V30 13673 H 1280.07 5.01293 6.33823 0
M  V30 13674 H 1283.65 3.10605 4.91951 0
M  V30 13675 H 1282.53 4.99275 6.04726 0
M  V30 13676 N 1280.03 -1.55556 0.252993 0
M  V30 13677 C 1280.98 -2.23035 -0.660161 0
M  V30 13678 C 1281.98 -1.21994 -1.17532 0
M  V30 13679 O 1283.18 -1.39989 -1.13151 0
M  V30 13680 H 1279.56 -0.715516 -0.23139 0
M  V30 13681 H 1281.53 -2.98323 -0.0679506 0
M  V30 13682 C 1280.28 -2.94817 -1.84332 0
M  V30 13683 H 1279.6 -3.72342 -1.45607 0
M  V30 13684 H 1281.04 -3.45386 -2.45936 0
M  V30 13685 C 1279.5 -1.99033 -2.71822 0
M  V30 13686 O 1280.03 -1.5273 -3.71533 0
M  V30 13687 N 1278.24 -1.66004 -2.38518 0
M  V30 13688 H 1277.78 -2.03853 -1.57485 0
M  V30 13689 H 1277.74 -1.02183 -2.97331 0
M  V30 13690 N 1281.51 0.0200419 -1.57587 0
M  V30 13691 C 1282.76 0.708115 -1.88861 0
M  V30 13692 C 1283.07 1.76036 -0.852693 0
M  V30 13693 O 1284.28 2.50165 -1.05497 0
M  V30 13694 C 1282.74 1.31057 -3.3519 0
M  V30 13695 C 1282.34 0.294202 -4.47033 0
M  V30 13696 C 1284.09 1.97799 -3.756 0
M  V30 13697 C 1282 0.905508 -5.84427 0
M  V30 13698 H 1280.93 0.268236 -0.704674 0
M  V30 13699 H 1283.58 -0.0372162 -1.83462 0
M  V30 13700 H 1281.96 2.1059 -3.35362 0
M  V30 13701 H 1283.13 -0.475081 -4.58344 0
M  V30 13702 H 1281.45 -0.271644 -4.15513 0
M  V30 13703 H 1284.04 2.44404 -4.75574 0
M  V30 13704 H 1284.39 2.80004 -3.08064 0
M  V30 13705 H 1284.92 1.25028 -3.77641 0
M  V30 13706 H 1281.66 0.122685 -6.55385 0
M  V30 13707 H 1281.18 1.64442 -5.76818 0
M  V30 13708 H 1282.86 1.41016 -6.31446 0
M  V30 13709 N 1282.99 1.54862 0.292472 0
M  V30 13710 C 1284.4 1.65459 0.864891 0
M  V30 13711 C 1284.75 0.568808 1.87774 0
M  V30 13712 O 1283.88 -0.293107 2.14406 0
M  V30 13713 C 1284.47 2.99939 1.5755 0
M  V30 13714 C 1283.03 3.12628 2.09621 0
M  V30 13715 C 1282.18 2.61179 0.931713 0
M  V30 13716 H 1285.13 1.58549 0.0692679 0
M  V30 13717 H 1285.15 2.91839 2.44152 0
M  V30 13718 H 1284.66 3.78943 0.838088 0
M  V30 13719 H 1282.76 2.3836 2.86383 0
M  V30 13720 H 1282.88 4.18911 2.32488 0
M  V30 13721 H 1281.24 2.17846 1.31967 0
M  V30 13722 H 1282.02 3.42669 0.208121 0
M  V30 13723 N 1284.47 -0.556076 1.47464 0
M  V30 13724 C 1285.42 -1.66304 1.60036 0
M  V30 13725 C 1286.39 -1.60074 0.443348 0
M  V30 13726 O 1287.57 -1.7889 0.663545 0
M  V30 13727 C 1284.71 -3.04624 1.62167 0
M  V30 13728 C 1283.82 -3.21283 2.88793 0
M  V30 13729 C 1282.96 -4.50008 2.82252 0
M  V30 13730 C 1282 -4.60103 4.03698 0
M  V30 13731 N 1281.13 -5.80184 3.95387 0
M  V30 13732 H 1285.97 -1.54897 2.5458 0
M  V30 13733 H 1283.51 -0.754533 1.26274 0
M  V30 13734 H 1285.47 -3.84721 1.61386 0
M  V30 13735 H 1284.1 -3.14865 0.711348 0
M  V30 13736 H 1283.15 -2.34611 2.99436 0
M  V30 13737 H 1284.46 -3.24607 3.78724 0
M  V30 13738 H 1283.62 -5.38366 2.79726 0
M  V30 13739 H 1282.36 -4.49165 1.90005 0
M  V30 13740 H 1281.36 -3.70157 4.06527 0
M  V30 13741 H 1282.59 -4.62704 4.97073 0
M  V30 13742 H 1280.53 -5.80288 3.05944 0
M  V30 13743 H 1280.45 -5.8489 4.78998 0
M  V30 13744 H 1281.72 -6.709 3.96879 0
M  V30 13745 N 1285.95 -1.35615 -0.802897 0
M  V30 13746 C 1287.36 -1.15733 -1.099 0
M  V30 13747 C 1287.56 0.0277094 -2.01481 0
M  V30 13748 O 1286.62 0.697196 -2.42684 0
M  V30 13749 C 1287.93 -2.46201 -1.72643 0
M  V30 13750 C 1289.48 -2.52442 -1.85046 0
M  V30 13751 C 1289.96 -3.82962 -2.51205 0
M  V30 13752 N 1291.45 -3.84234 -2.58686 0
M  V30 13753 C 1292.18 -4.81956 -3.10654 0
M  V30 13754 N 1291.68 -5.90068 -3.63032 0
M  V30 13755 N 1293.47 -4.69389 -3.09241 0
M  V30 13756 H 1285.62 -2.11511 -0.194177 0
M  V30 13757 H 1287.88 -0.936259 -0.148739 0
M  V30 13758 H 1287.59 -3.33114 -1.12817 0
M  V30 13759 H 1287.46 -2.6102 -2.72302 0
M  V30 13760 H 1289.85 -1.65955 -2.44014 0
M  V30 13761 H 1289.93 -2.41534 -0.842316 0
M  V30 13762 H 1289.58 -4.69848 -1.92885 0
M  V30 13763 H 1289.51 -3.9116 -3.52564 0
M  V30 13764 H 1292 -3.0612 -2.21582 0
M  V30 13765 H 1292.31 -6.60623 -4.00996 0
M  V30 13766 H 1290.66 -5.93755 -3.6122 0
M  V30 13767 H 1293.85 -3.84066 -2.67602 0
M  V30 13768 H 1294.02 -5.4571 -3.49435 0
M  V30 13769 N 1287.43 1.02549 -1.19673 0
M  V30 13770 C 1288.65 1.8016 -1.02748 0
M  V30 13771 C 1289.08 1.83372 0.419105 0
M  V30 13772 O 1288.43 1.26222 1.30144 0
M  V30 13773 C 1288.48 3.22907 -1.60509 0
M  V30 13774 O 1287.59 4.03823 -0.836702 0
M  V30 13775 H 1286.93 0.556027 -0.362946 0
M  V30 13776 H 1289.46 1.29047 -1.5877 0
M  V30 13777 H 1289.47 3.73646 -1.63868 0
M  V30 13778 H 1288.14 3.19885 -2.65794 0
M  V30 13779 H 1286.72 3.6245 -0.876626 0
M  V30 13780 N 1288.9 1.00119 1.21713 0
M  V30 13781 C 1290.15 0.680377 1.90303 0
M  V30 13782 C 1290.47 -0.790927 1.7824 0
M  V30 13783 O 1289.74 -1.5676 1.17486 0
M  V30 13784 H 1288.32 0.248665 0.704397 0
M  V30 13785 H 1290.98 1.26948 1.47886 0
M  V30 13786 H 1290.08 0.950188 2.97284 0
M  V30 13787 N 1290.38 -1.37203 0.775435 0
M  V30 13788 C 1291.79 -1.82224 0.406372 0
M  V30 13789 C 1292.14 -1.64587 -1.06796 0
M  V30 13790 O 1291.27 -1.15903 -1.82744 0
M  V30 13791 C 1291.86 -3.30824 0.730819 0
M  V30 13792 C 1290.42 -3.74108 0.414766 0
M  V30 13793 C 1289.57 -2.59679 0.972747 0
M  V30 13794 H 1292.52 -1.25623 0.969775 0
M  V30 13795 H 1292.54 -3.80496 0.0168066 0
M  V30 13796 H 1292.05 -3.43628 1.80392 0
M  V30 13797 H 1290.15 -3.66871 -0.650866 0
M  V30 13798 H 1290.27 -4.70074 0.925595 0
M  V30 13799 H 1288.63 -2.51591 0.396772 0
M  V30 13800 H 1289.41 -2.75274 2.05132 0
M  V30 13801 N 1291.86 -0.526279 -1.48553 0
M  V30 13802 C 1293.11 0.00914839 -2.02098 0
M  V30 13803 C 1293.43 1.35119 -1.40598 0
M  V30 13804 O 1292.7 1.87422 -0.570065 0
M  V30 13805 H 1291.28 0.00636935 -0.746973 0
M  V30 13806 H 1293.94 -0.689269 -1.82305 0
M  V30 13807 H 1293.04 0.120212 -3.11868 0
M  V30 13808 N 1293.34 1.5542 -0.261239 0
M  V30 13809 C 1294.75 1.85161 0.239195 0
M  V30 13810 C 1295.1 1.18319 1.56509 0
M  V30 13811 O 1294.22 0.4666 2.1131 0
M  V30 13812 C 1294.82 3.3592 0.440781 0
M  V30 13813 C 1293.38 3.65837 0.885461 0
M  V30 13814 C 1292.53 2.77285 -0.0291982 0
M  V30 13815 H 1295.48 1.51158 -0.483417 0
M  V30 13816 H 1295.5 3.58276 1.28136 0
M  V30 13817 H 1295.01 3.84541 -0.524382 0
M  V30 13818 H 1293.11 3.22705 1.86259 0
M  V30 13819 H 1293.22 4.73469 0.732394 0
M  V30 13820 H 1291.59 2.50045 0.484701 0
M  V30 13821 H 1292.37 3.28716 -0.989992 0
M  V30 13822 N 1294.82 -0.0116844 1.57596 0
M  V30 13823 C 1296.04 -0.713924 1.94725 0
M  V30 13824 C 1296.47 -1.67157 0.862565 0
M  V30 13825 O 1295.82 -1.80401 -0.180308 0
M  V30 13826 C 1295.87 -1.43214 3.30941 0
M  V30 13827 O 1294.98 -2.5461 3.24419 0
M  V30 13828 H 1294.32 -0.190772 0.636005 0
M  V30 13829 H 1296.85 0.0380247 2.04565 0
M  V30 13830 H 1296.86 -1.79819 3.66237 0
M  V30 13831 H 1295.53 -0.729906 4.09445 0
M  V30 13832 H 1294.11 -2.20419 3.00782 0
M  V30 13833 N 1296.29 -1.55015 -0.284256 0
M  V30 13834 C 1297.57 -1.6579 -1.03794 0
M  V30 13835 C 1297.95 -0.517029 -2.04671 0
M  V30 13836 O 1297.3 0.484287 -2.23309 0
M  V30 13837 C 1297.51 -3.04527 -1.70483 0
M  V30 13838 C 1298.86 -3.61903 -2.22062 0
M  V30 13839 O 1299.88 -3.07087 -1.80488 0
M  V30 13840 O 1298.74 -4.57917 -2.98286 0
M  V30 13841 H 1295.83 -0.672906 -0.480757 0
M  V30 13842 H 1298.38 -1.67357 -0.281009 0
M  V30 13843 H 1297.15 -3.79004 -0.973238 0
M  V30 13844 H 1296.77 -3.0681 -2.5289 0
M  V30 13845 N 1297.77 0.548248 -1.47757 0
M  V30 13846 C 1299.18 1.13033 -1.48595 0
M  V30 13847 C 1299.53 1.94657 -0.245575 0
M  V30 13848 O 1298.66 2.06445 0.648813 0
M  V30 13849 C 1299.25 2.05657 -2.69241 0
M  V30 13850 C 1297.81 2.59119 -2.73009 0
M  V30 13851 C 1296.96 1.35686 -2.41836 0
M  V30 13852 H 1299.91 0.334397 -1.55137 0
M  V30 13853 H 1299.93 2.89671 -2.4672 0
M  V30 13854 H 1299.44 1.46222 -3.595 0
M  V30 13855 H 1297.54 3.22327 -1.86912 0
M  V30 13856 H 1297.66 2.99501 -3.73946 0
M  V30 13857 H 1296.02 1.66659 -1.92606 0
M  V30 13858 H 1296.8 0.780311 -3.34314 0
M  V30 13859 N 1299.25 1.36039 0.795694 0
M  V30 13860 C 1300.2 1.29902 1.92946 0
M  V30 13861 C 1301.19 0.191943 1.68309 0
M  V30 13862 O 1302.4 0.358577 1.76392 0
M  V30 13863 H 1298.77 0.404252 0.634101 0
M  V30 13864 H 1300.74 2.25663 1.95241 0
M  V30 13865 C 1299.49 1.09887 3.29879 0
M  V30 13866 H 1298.82 1.94318 3.494 0
M  V30 13867 H 1300.26 1.09638 4.0958 0
M  V30 13868 C 1298.71 -0.196802 3.36325 0
M  V30 13869 O 1299.24 -1.18883 3.83705 0
M  V30 13870 N 1297.45 -0.239325 2.89613 0
M  V30 13871 H 1297 0.568571 2.51247 0
M  V30 13872 H 1296.96 -1.10593 2.94307 0
M  V30 13873 N 1300.73 -1.01913 1.20215 0
M  V30 13874 C 1301.97 -1.77015 1.02202 0
M  V30 13875 C 1302.33 -1.86927 -0.43845 0
M  V30 13876 O 1303.53 -2.58451 -0.73869 0
M  V30 13877 C 1301.8 -3.15244 1.68393 0
M  V30 13878 S 1303.36 -4.06414 1.65449 0
M  V30 13879 H 1300.18 -0.609242 0.366531 0
M  V30 13880 H 1302.78 -1.22044 1.52727 0
M  V30 13881 H 1301.49 -3.05653 2.73869 0
M  V30 13882 H 1301.02 -3.7529 1.17988 0
M  V30 13883 H 1303.03 -4.91441 0.685571 0
M  V30 13884 N 1302.21 -1.00763 -1.2118 0
M  V30 13885 C 1303.46 -0.687197 -1.89633 0
M  V30 13886 C 1303.77 0.78566 -1.79128 0
M  V30 13887 O 1304.97 1.21828 -2.42632 0
M  V30 13888 C 1303.43 -1.1787 -3.40051 0
M  V30 13889 C 1303.04 -2.67782 -3.59161 0
M  V30 13890 C 1304.78 -0.933277 -4.14114 0
M  V30 13891 C 1302.69 -3.10459 -5.03358 0
M  V30 13892 H 1301.62 -0.253342 -0.710165 0
M  V30 13893 H 1304.27 -1.21914 -1.37147 0
M  V30 13894 H 1302.65 -0.574791 -3.91806 0
M  V30 13895 H 1303.83 -3.33645 -3.17833 0
M  V30 13896 H 1302.14 -2.90368 -2.98455 0
M  V30 13897 H 1304.74 -1.22766 -5.20416 0
M  V30 13898 H 1305.08 0.130431 -4.16096 0
M  V30 13899 H 1305.61 -1.50011 -3.68431 0
M  V30 13900 H 1302.35 -4.16068 -5.06525 0
M  V30 13901 H 1301.87 -2.4931 -5.45531 0
M  V30 13902 H 1303.55 -3.02589 -5.71882 0
M  V30 13903 N 1303.68 1.3679 -0.7827 0
M  V30 13904 C 1305.1 1.82006 -0.41603 0
M  V30 13905 C 1305.45 1.65151 1.05922 0
M  V30 13906 O 1304.57 1.1687 1.82127 0
M  V30 13907 C 1305.17 3.30432 -0.748353 0
M  V30 13908 C 1303.73 3.73883 -0.4346 0
M  V30 13909 C 1302.87 2.59159 -0.986505 0
M  V30 13910 H 1305.82 1.25107 -0.976423 0
M  V30 13911 H 1305.84 3.80482 -0.036985 0
M  V30 13912 H 1305.36 3.42667 -1.82212 0
M  V30 13913 H 1303.46 3.67211 0.631401 0
M  V30 13914 H 1303.57 4.69577 -0.950511 0
M  V30 13915 H 1301.93 2.51377 -0.410108 0
M  V30 13916 H 1302.72 2.74182 -2.06589 0
M  V30 13917 N 1305.16 0.53415 1.48272 0
M  V30 13918 C 1306.41 0.00971554 2.03398 0
M  V30 13919 C 1306.76 -1.316 1.40353 0
M  V30 13920 O 1306.06 -1.83786 0.541589 0
M  V30 13921 C 1306.25 -0.165144 3.57018 0
M  V30 13922 C 1306.08 1.14208 4.34956 0
M  V30 13923 C 1304.85 1.70309 4.75734 0
M  V30 13924 C 1307.05 2.05371 4.71516 0
M  V30 13925 N 1305.03 2.95276 5.38224 0
M  V30 13926 C 1306.4 3.14915 5.34068 0
M  V30 13927 C 1308.46 2.05647 4.53447 0
M  V30 13928 C 1307.16 4.24804 5.8046 0
M  V30 13929 C 1309.18 3.14533 5.00823 0
M  V30 13930 C 1308.55 4.22795 5.63404 0
M  V30 13931 H 1304.65 0.0451562 0.780695 0
M  V30 13932 H 1307.23 0.71635 1.81043 0
M  V30 13933 H 1305.4 -0.840869 3.79189 0
M  V30 13934 H 1307.13 -0.68956 3.98782 0
M  V30 13935 H 1303.89 1.24395 4.56971 0
M  V30 13936 H 1304.31 3.58911 5.74031 0
M  V30 13937 H 1308.95 1.23239 4.0444 0
M  V30 13938 H 1306.67 5.07987 6.2847 0
M  V30 13939 H 1310.26 3.15806 4.88629 0
M  V30 13940 H 1309.14 5.05661 5.99397 0
M  V30 13941 N 1306.64 -1.55279 0.269478 0
M  V30 13942 C 1307.89 -1.99767 -0.34943 0
M  V30 13943 C 1308.22 -1.15762 -1.55926 0
M  V30 13944 O 1307.49 -0.22633 -1.93179 0
M  V30 13945 C 1307.78 -3.52474 -0.73716 0
M  V30 13946 C 1307.63 -4.47236 0.479621 0
M  V30 13947 C 1308.95 -4.10924 -1.57573 0
M  V30 13948 H 1306.07 -0.72623 -0.125535 0
M  V30 13949 H 1308.71 -1.86257 0.375298 0
M  V30 13950 H 1306.86 -3.64118 -1.35464 0
M  V30 13951 H 1308.53 -4.47543 1.11816 0
M  V30 13952 H 1306.78 -4.19127 1.11871 0
M  V30 13953 H 1307.45 -5.51754 0.164653 0
M  V30 13954 H 1309.92 -4.02522 -1.05429 0
M  V30 13955 H 1308.8 -5.17995 -1.81584 0
M  V30 13956 H 1309.06 -3.60798 -2.55495 0
M  V30 13957 N 1308.12 0.00332656 -1.576 0
M  V30 13958 C 1309.35 0.69893 -1.94418 0
M  V30 13959 C 1309.76 1.68021 -0.8698 0
M  V30 13960 O 1309.1 1.83 0.160193 0
M  V30 13961 C 1309.16 1.4892 -3.27205 0
M  V30 13962 C 1308.83 0.669874 -4.52064 0
M  V30 13963 C 1309.82 -0.0410157 -5.19884 0
M  V30 13964 C 1307.51 0.616824 -4.98498 0
M  V30 13965 C 1309.5 -0.793976 -6.32436 0
M  V30 13966 C 1307.19 -0.139864 -6.1094 0
M  V30 13967 C 1308.19 -0.844001 -6.77765 0
M  V30 13968 O 1307.87 -1.58835 -7.88052 0
M  V30 13969 H 1307.61 0.199843 -0.645785 0
M  V30 13970 H 1310.16 -0.0429034 -2.05355 0
M  V30 13971 H 1308.39 2.27544 -3.12667 0
M  V30 13972 H 1310.08 2.06983 -3.4916 0
M  V30 13973 H 1310.85 -0.00916281 -4.84999 0
M  V30 13974 H 1306.72 1.15442 -4.46312 0
M  V30 13975 H 1310.27 -1.34411 -6.84529 0
M  V30 13976 H 1306.17 -0.173549 -6.45267 0
M  V30 13977 H 1306.93 -1.50471 -8.0455 0
M  V30 13978 N 1309.6 1.55164 0.276031 0
M  V30 13979 C 1310.83 1.79388 1.02486 0
M  V30 13980 C 1311.23 0.565884 1.80539 0
M  V30 13981 O 1310.58 -0.47449 1.77466 0
M  V30 13982 C 1310.64 2.96494 2.03302 0
M  V30 13983 C 1310.3 4.33649 1.44214 0
M  V30 13984 C 1311.3 5.12749 0.859355 0
M  V30 13985 C 1308.99 4.80301 1.47026 0
M  V30 13986 C 1310.98 6.36633 0.312548 0
M  V30 13987 C 1308.67 6.04141 0.919587 0
M  V30 13988 C 1309.66 6.82145 0.341729 0
M  V30 13989 O 1309.35 8.0365 -0.200517 0
M  V30 13990 H 1309.08 0.601454 0.308592 0
M  V30 13991 H 1311.64 2.02999 0.313148 0
M  V30 13992 H 1309.87 2.68568 2.78223 0
M  V30 13993 H 1311.56 3.08069 2.64288 0
M  V30 13994 H 1312.32 4.77839 0.830353 0
M  V30 13995 H 1308.2 4.19597 1.90942 0
M  V30 13996 H 1311.75 6.97461 -0.139131 0
M  V30 13997 H 1307.64 6.38533 0.945819 0
M  V30 13998 H 1308.41 8.18451 -0.0895877 0
M  V30 13999 N 1311.07 -0.540404 1.48045 0
M  V30 14000 C 1312.3 -1.32656 1.59427 0
M  V30 14001 C 1312.72 -1.86419 0.250924 0
M  V30 14002 O 1312.08 -1.63861 -0.775838 0
M  V30 14003 C 1312.13 -2.46062 2.63602 0
M  V30 14004 O 1311.23 -3.48794 2.20038 0
M  V30 14005 H 1310.58 -0.393334 0.534962 0
M  V30 14006 H 1313.11 -0.651363 1.93955 0
M  V30 14007 H 1313.12 -2.92396 2.84549 0
M  V30 14008 H 1311.79 -2.06291 3.61133 0
M  V30 14009 H 1310.37 -3.0865 2.0926 0
M  V30 14010 N 1312.55 -1.36459 -0.788468 0
M  V30 14011 C 1313.78 -1.33898 -1.57731 0
M  V30 14012 C 1314.2 0.0795471 -1.88632 0
M  V30 14013 O 1313.55 1.03671 -1.50195 0
M  V30 14014 C 1313.6 -2.16134 -2.89773 0
M  V30 14015 O 1313.32 -3.52457 -2.60203 0
M  V30 14016 C 1314.83 -2.21364 -3.84074 0
M  V30 14017 H 1312.05 -0.459269 -0.489197 0
M  V30 14018 H 1314.59 -1.79569 -0.978526 0
M  V30 14019 H 1312.74 -1.74015 -3.46118 0
M  V30 14020 H 1313.16 -3.95378 -3.4464 0
M  V30 14021 H 1314.63 -2.83261 -4.7378 0
M  V30 14022 H 1315.11 -1.21736 -4.21992 0
M  V30 14023 H 1315.72 -2.63723 -3.33662 0
M  V30 14024 N 1314.03 1.01274 -1.20754 0
M  V30 14025 C 1315.28 1.75191 -1.02156 0
M  V30 14026 C 1315.61 1.89038 0.444791 0
M  V30 14027 O 1314.88 1.41903 1.33018 0
M  V30 14028 C 1315.17 3.16892 -1.71031 0
M  V30 14029 C 1315.02 3.10816 -3.25136 0
M  V30 14030 C 1316.34 4.15648 -1.44654 0
M  V30 14031 H 1313.46 0.635922 -0.372521 0
M  V30 14032 H 1316.1 1.18119 -1.48822 0
M  V30 14033 H 1314.25 3.6562 -1.31357 0
M  V30 14034 H 1315.92 2.69863 -3.74128 0
M  V30 14035 H 1314.17 2.48113 -3.5584 0
M  V30 14036 H 1314.84 4.11001 -3.68487 0
M  V30 14037 H 1317.31 3.75592 -1.7908 0
M  V30 14038 H 1316.19 5.12954 -1.95371 0
M  V30 14039 H 1316.45 4.40507 -0.37494 0
M  V30 14040 N 1315.51 1.01404 1.20644 0
M  V30 14041 C 1316.46 0.575388 2.25371 0
M  V30 14042 C 1317.45 -0.384598 1.64976 0
M  V30 14043 O 1318.66 -0.2548 1.78187 0
M  V30 14044 H 1315.03 0.167752 0.733051 0
M  V30 14045 H 1317 1.46964 2.597 0
M  V30 14046 C 1315.75 -0.0731257 3.47623 0
M  V30 14047 H 1315.08 0.656551 3.94372 0
M  V30 14048 H 1316.52 -0.343203 4.22609 0
M  V30 14049 C 1314.97 -1.31515 3.1017 0
M  V30 14050 O 1315.5 -2.40869 3.21473 0
M  V30 14051 N 1313.71 -1.19829 2.64744 0
M  V30 14052 H 1313.26 -0.308463 2.55746 0
M  V30 14053 H 1313.22 -2.0303 2.40054 0
M  V30 14054 N 1316.99 -1.36373 0.789944 0
M  V30 14055 C 1318.23 -1.99227 0.362582 0
M  V30 14056 C 1318.56 -1.62694 -1.06587 0
M  V30 14057 O 1317.82 -0.873748 -1.75112 0
M  V30 14058 C 1318.12 -3.54243 0.474025 0
M  V30 14059 C 1317.78 -4.10597 1.86336 0
M  V30 14060 C 1316.44 -4.257 2.24349 0
M  V30 14061 C 1318.8 -4.41306 2.77306 0
M  V30 14062 C 1316.12 -4.68824 3.52734 0
M  V30 14063 C 1318.48 -4.85861 4.05119 0
M  V30 14064 C 1317.14 -4.9917 4.43154 0
M  V30 14065 H 1316.41 -0.729025 0.132678 0
M  V30 14066 H 1319.06 -1.62854 1.00751 0
M  V30 14067 H 1317.36 -3.90973 -0.254399 0
M  V30 14068 H 1319.06 -4.00807 0.124384 0
M  V30 14069 H 1315.65 -3.99281 1.55797 0
M  V30 14070 H 1319.83 -4.29205 2.49191 0
M  V30 14071 H 1315.09 -4.77315 3.82073 0
M  V30 14072 H 1319.26 -5.08587 4.75723 0
M  V30 14073 H 1316.89 -5.32344 5.42692 0
M  V30 14074 N 1318.47 -0.542005 -1.47987 0
M  V30 14075 C 1319.71 -0.0123299 -2.02796 0
M  V30 14076 C 1320.04 1.32789 -1.41707 0
M  V30 14077 O 1319.32 1.86048 -0.567119 0
M  V30 14078 C 1319.6 0.0969277 -3.5997 0
M  V30 14079 C 1319.46 -1.26931 -4.31519 0
M  V30 14080 C 1320.77 0.817854 -4.32434 0
M  V30 14081 H 1317.89 -0.00595479 -0.736976 0
M  V30 14082 H 1320.54 -0.70136 -1.76581 0
M  V30 14083 H 1318.69 0.683755 -3.82436 0
M  V30 14084 H 1320.36 -1.89817 -4.20437 0
M  V30 14085 H 1318.6 -1.84804 -3.92467 0
M  V30 14086 H 1319.27 -1.14573 -5.39979 0
M  V30 14087 H 1321.75 0.319749 -4.1487 0
M  V30 14088 H 1320.62 0.863225 -5.4207 0
M  V30 14089 H 1320.88 1.87075 -4.00569 0
M  V30 14090 N 1319.94 1.55134 -0.277709 0
M  V30 14091 C 1320.89 2.2263 0.608637 0
M  V30 14092 C 1321.86 1.20067 1.14774 0
M  V30 14093 O 1323.05 1.48617 1.19657 0
M  V30 14094 C 1320.19 2.95308 1.78571 0
M  V30 14095 C 1319.3 4.12595 1.28021 0
M  V30 14096 C 1318.43 4.7291 2.41929 0
M  V30 14097 C 1317.47 5.82386 1.88395 0
M  V30 14098 N 1316.61 6.36754 2.95786 0
M  V30 14099 H 1321.45 2.97988 0.0264138 0
M  V30 14100 H 1318.99 1.471 0.00127068 0
M  V30 14101 H 1320.94 3.35662 2.47764 0
M  V30 14102 H 1319.57 2.22368 2.33992 0
M  V30 14103 H 1318.63 3.77343 0.481297 0
M  V30 14104 H 1319.94 4.91537 0.848128 0
M  V30 14105 H 1319.09 5.15997 3.1911 0
M  V30 14106 H 1317.83 3.93251 2.88453 0
M  V30 14107 H 1316.84 5.38746 1.09694 0
M  V30 14108 H 1318.06 6.63916 1.42803 0
M  V30 14109 H 1316.01 5.59987 3.41687 0
M  V30 14110 H 1315.92 7.10975 2.57002 0
M  V30 14111 H 1317.19 6.845 3.72935 0
M  V30 14112 N 1321.42 0.00503138 1.57599 0
M  V30 14113 C 1322.7 -0.716079 1.82021 0
M  V30 14114 C 1323.08 -1.91707 0.883829 0
M  V30 14115 O 1322.43 -2.28404 -0.0662812 0
M  V30 14116 C 1322.64 -1.11706 3.3064 0
M  V30 14117 C 1323.98 -1.51881 3.96506 0
M  V30 14118 O 1325.01 -1.21071 3.34993 0
M  V30 14119 O 1323.87 -2.09191 5.04877 0
M  V30 14120 H 1320.96 -0.349112 0.7497 0
M  V30 14121 H 1323.51 0.030871 1.69672 0
M  V30 14122 H 1322.28 -0.261223 3.90427 0
M  V30 14123 H 1321.9 -1.92295 3.48006 0
M  V30 14124 N 1322.9 -1.55308 -0.267798 0
M  V30 14125 C 1324.13 -1.80191 -1.01681 0
M  V30 14126 C 1324.54 -0.57783 -1.7974 0
M  V30 14127 O 1323.9 0.4532 -1.76783 0
M  V30 14128 C 1323.95 -3.03023 -1.97127 0
M  V30 14129 O 1323.67 -4.20704 -1.22229 0
M  V30 14130 C 1325.17 -3.40549 -2.83798 0
M  V30 14131 H 1322.39 -0.60013 -0.300142 0
M  V30 14132 H 1324.94 -2.02332 -0.297007 0
M  V30 14133 H 1323.09 -2.82993 -2.64563 0
M  V30 14134 H 1323.51 -4.90181 -1.86608 0
M  V30 14135 H 1324.98 -4.29653 -3.46557 0
M  V30 14136 H 1325.46 -2.60186 -3.53836 0
M  V30 14137 H 1326.06 -3.62856 -2.21846 0
M  V30 14138 N 1324.38 0.532545 -1.4833 0
M  V30 14139 C 1325.61 1.31141 -1.59642 0
M  V30 14140 C 1326.02 1.87476 -0.254835 0
M  V30 14141 O 1325.36 1.66985 0.765622 0
M  V30 14142 C 1325.42 2.50182 -2.58165 0
M  V30 14143 C 1325.08 2.14953 -4.03292 0
M  V30 14144 C 1326.08 1.70777 -4.91051 0
M  V30 14145 C 1323.77 2.25555 -4.4881 0
M  V30 14146 C 1325.76 1.37665 -6.22356 0
M  V30 14147 C 1323.45 1.92055 -5.80136 0
M  V30 14148 C 1324.45 1.48181 -6.66732 0
M  V30 14149 O 1324.13 1.15119 -7.95615 0
M  V30 14150 H 1323.87 0.405164 -0.541127 0
M  V30 14151 H 1326.42 0.649423 -1.94863 0
M  V30 14152 H 1324.65 3.19353 -2.1806 0
M  V30 14153 H 1326.34 3.12246 -2.5934 0
M  V30 14154 H 1327.1 1.62059 -4.57124 0
M  V30 14155 H 1322.98 2.5866 -3.81597 0
M  V30 14156 H 1326.53 1.03348 -6.89902 0
M  V30 14157 H 1322.42 2.00413 -6.136 0
M  V30 14158 H 1323.19 1.28539 -8.08344 0
M  V30 14159 N 1325.86 1.36875 0.78122 0
M  V30 14160 C 1327.08 1.349 1.57533 0
M  V30 14161 C 1327.51 -0.0655249 1.87986 0
M  V30 14162 O 1326.86 -1.03986 1.48515 0
M  V30 14163 C 1326.91 2.18562 2.86815 0
M  V30 14164 O 1326.02 1.58374 3.80777 0
M  V30 14165 H 1325.36 0.461355 0.477543 0
M  V30 14166 H 1327.89 1.80271 0.96766 0
M  V30 14167 H 1327.9 2.31436 3.36008 0
M  V30 14168 H 1326.57 3.21385 2.63978 0
M  V30 14169 H 1325.15 1.54487 3.39394 0
M  V30 14170 N 1327.33 -1.00632 1.21289 0
M  V30 14171 C 1328.58 -1.74044 1.02728 0
M  V30 14172 C 1328.9 -1.89963 -0.440351 0
M  V30 14173 O 1328.17 -1.44958 -1.31772 0
M  V30 14174 H 1326.75 -0.644813 0.377127 0
M  V30 14175 H 1329.41 -1.21272 1.52575 0
M  V30 14176 H 1328.51 -2.74011 1.49413 0
M  V30 14177 N 1328.81 -1.02043 -1.20104 0
M  V30 14178 C 1329.74 -0.614421 -2.25271 0
M  V30 14179 C 1330.72 0.37242 -1.65973 0
M  V30 14180 O 1331.91 0.257005 -1.92492 0
M  V30 14181 C 1329.04 0.0442085 -3.47272 0
M  V30 14182 C 1327.99 -0.864019 -4.19188 0
M  V30 14183 C 1327.32 -0.0709551 -5.34653 0
M  V30 14184 C 1328.62 -2.17385 -4.74912 0
M  V30 14185 H 1330.31 -1.49355 -2.59487 0
M  V30 14186 H 1327.86 -0.719591 -1.24731 0
M  V30 14187 H 1329.81 0.339825 -4.20028 0
M  V30 14188 H 1328.53 0.958082 -3.12231 0
M  V30 14189 H 1327.19 -1.1437 -3.48303 0
M  V30 14190 H 1326.84 0.844688 -4.95857 0
M  V30 14191 H 1326.54 -0.67583 -5.83701 0
M  V30 14192 H 1328.07 0.218118 -6.1021 0
M  V30 14193 H 1329.48 -1.94034 -5.39466 0
M  V30 14194 H 1327.88 -2.72991 -5.34412 0
M  V30 14195 H 1328.95 -2.83427 -3.93443 0
M  V30 14196 N 1330.29 1.35952 -0.797165 0
M  V30 14197 C 1331.22 2.27728 -0.146693 0
M  V30 14198 C 1332.2 1.47616 0.68178 0
M  V30 14199 O 1333.39 1.76898 0.651094 0
M  V30 14200 C 1330.51 3.29179 0.797442 0
M  V30 14201 C 1329.56 4.26471 0.0497851 0
M  V30 14202 S 1330.39 5.19982 -1.2798 0
M  V30 14203 C 1331.55 6.24977 -0.339864 0
M  V30 14204 H 1331.78 2.82549 -0.924834 0
M  V30 14205 H 1329.31 1.4261 -0.591759 0
M  V30 14206 H 1331.27 3.88127 1.33669 0
M  V30 14207 H 1329.93 2.73255 1.54889 0
M  V30 14208 H 1329.13 4.98138 0.766487 0
M  V30 14209 H 1328.73 3.71643 -0.419219 0
M  V30 14210 H 1331.02 6.75809 0.478412 0
M  V30 14211 H 1331.96 7.00636 -1.02544 0
M  V30 14212 H 1332.37 5.64468 0.0602491 0
M  V30 14213 N 1331.77 0.549846 1.47697 0
M  V30 14214 C 1333.02 0.0230048 2.02087 0
M  V30 14215 C 1333.34 -1.32865 1.4273 0
M  V30 14216 O 1332.61 -1.86492 0.59981 0
M  V30 14217 H 1331.19 0.00551514 0.74698 0
M  V30 14218 H 1333.85 0.718185 1.81185 0
M  V30 14219 H 1332.95 -0.0705813 3.1202 0
M  V30 14220 N 1333.25 -1.54984 0.285932 0
M  V30 14221 C 1334.66 -1.85519 -0.209707 0
M  V30 14222 C 1335.01 -1.20794 -1.54606 0
M  V30 14223 O 1334.13 -0.500159 -2.10541 0
M  V30 14224 C 1334.73 -3.36579 -0.387283 0
M  V30 14225 C 1333.29 -3.67199 -0.827148 0
M  V30 14226 C 1332.43 -2.77203 0.073308 0
M  V30 14227 H 1335.39 -1.5037 0.507404 0
M  V30 14228 H 1335.41 -3.60269 -1.2242 0
M  V30 14229 H 1334.92 -3.83658 0.585493 0
M  V30 14230 H 1333.02 -3.25627 -1.81101 0
M  V30 14231 H 1333.13 -4.74574 -0.656976 0
M  V30 14232 H 1331.5 -2.50785 -0.444859 0
M  V30 14233 H 1332.28 -3.27099 1.04216 0
M  V30 14234 N 1334.72 -0.0133892 -1.57594 0
M  V30 14235 C 1335.65 0.972341 -2.12292 0
M  V30 14236 C 1336.64 1.34971 -1.03522 0
M  V30 14237 O 1337.82 1.4311 -1.31275 0
M  V30 14238 C 1334.95 2.25988 -2.63717 0
M  V30 14239 C 1333.9 2.02373 -3.77133 0
M  V30 14240 C 1333.23 3.37256 -4.14925 0
M  V30 14241 C 1334.53 1.37553 -5.03861 0
M  V30 14242 H 1336.22 0.516869 -2.94905 0
M  V30 14243 H 1333.77 0.247176 -1.41863 0
M  V30 14244 H 1335.72 2.95313 -3.00613 0
M  V30 14245 H 1334.45 2.73672 -1.78244 0
M  V30 14246 H 1333.11 1.3547 -3.40651 0
M  V30 14247 H 1332.75 3.82669 -3.26456 0
M  V30 14248 H 1332.45 3.22267 -4.91343 0
M  V30 14249 H 1333.98 4.07875 -4.5439 0
M  V30 14250 H 1335.39 1.96855 -5.38443 0
M  V30 14251 H 1333.79 1.33011 -5.85174 0
M  V30 14252 H 1334.86 0.346429 -4.83661 0
M  V30 14253 N 1336.2 1.55448 0.259558 0
M  V30 14254 C 1337.45 1.7589 0.987201 0
M  V30 14255 C 1337.76 0.574951 1.86959 0
M  V30 14256 O 1338.97 0.662091 2.63303 0
M  V30 14257 C 1337.43 3.11349 1.80526 0
M  V30 14258 C 1337.03 4.37353 0.970882 0
M  V30 14259 C 1338.78 3.41136 2.5264 0
M  V30 14260 C 1336.69 5.63847 1.7841 0
M  V30 14261 H 1335.62 0.655662 0.372321 0
M  V30 14262 H 1338.27 1.81893 0.242332 0
M  V30 14263 H 1336.65 2.9942 2.5916 0
M  V30 14264 H 1337.82 4.60237 0.227763 0
M  V30 14265 H 1336.14 4.14809 0.363669 0
M  V30 14266 H 1338.73 4.32855 3.13912 0
M  V30 14267 H 1339.08 2.61879 3.23612 0
M  V30 14268 H 1339.61 3.54224 1.81026 0
M  V30 14269 H 1336.35 6.4589 1.11834 0
M  V30 14270 H 1335.87 5.45086 2.50283 0
M  V30 14271 H 1337.55 6.02641 2.35441 0
M  V30 14272 N 1337.68 -0.524672 1.4861 0
M  V30 14273 C 1338.91 -1.30482 1.60568 0
M  V30 14274 C 1339.32 -1.86889 0.267952 0
M  V30 14275 O 1338.68 -1.66669 -0.743488 0
M  V30 14276 C 1338.73 -2.45191 2.65638 0
M  V30 14277 O 1338.45 -1.91107 3.9422 0
M  V30 14278 C 1339.95 -3.36931 2.88084 0
M  V30 14279 H 1337.17 -0.396612 0.541239 0
M  V30 14280 H 1339.72 -0.632392 1.94476 0
M  V30 14281 H 1337.87 -3.08308 2.34574 0
M  V30 14282 H 1338.29 -2.66234 4.51907 0
M  V30 14283 H 1339.76 -4.13755 3.65391 0
M  V30 14284 H 1340.24 -3.92487 1.97106 0
M  V30 14285 H 1340.84 -2.79601 3.20473 0
M  V30 14286 N 1339.16 -1.37287 -0.77395 0
M  V30 14287 C 1340.4 -1.33771 -1.54547 0
M  V30 14288 C 1340.76 0.0778134 -1.91842 0
M  V30 14289 O 1341.96 0.237682 -2.67747 0
M  V30 14290 C 1340.23 -2.24859 -2.77801 0
M  V30 14291 S 1341.79 -2.39172 -3.67889 0
M  V30 14292 H 1338.61 -0.474918 -0.529126 0
M  V30 14293 H 1341.21 -1.73015 -0.910287 0
M  V30 14294 H 1339.92 -3.2663 -2.48478 0
M  V30 14295 H 1339.45 -1.86691 -3.4628 0
M  V30 14296 H 1341.46 -1.60068 -4.69673 0
M  V30 14297 N 1340.64 0.999871 -1.21821 0
M  V30 14298 C 1342.05 1.26228 -0.976664 0
M  V30 14299 C 1342.25 1.98714 0.333915 0
M  V30 14300 O 1341.31 2.29252 1.05829 0
M  V30 14301 C 1342.62 2.08089 -2.1707 0
M  V30 14302 C 1344.17 2.21298 -2.21351 0
M  V30 14303 C 1344.64 3.06544 -3.40287 0
M  V30 14304 N 1346.14 3.14131 -3.40405 0
M  V30 14305 C 1346.87 3.80362 -4.29083 0
M  V30 14306 N 1346.37 4.48577 -5.27968 0
M  V30 14307 N 1348.16 3.77053 -4.16878 0
M  V30 14308 H 1340.31 0.513704 -2.06094 0
M  V30 14309 H 1342.57 0.289447 -0.902732 0
M  V30 14310 H 1342.28 1.62183 -3.12073 0
M  V30 14311 H 1342.15 3.08843 -2.16554 0
M  V30 14312 H 1344.54 2.66422 -1.269 0
M  V30 14313 H 1344.62 1.19997 -2.25908 0
M  V30 14314 H 1344.27 2.62122 -4.35034 0
M  V30 14315 H 1344.2 4.0797 -3.32969 0
M  V30 14316 H 1346.69 2.65576 -2.68846 0
M  V30 14317 H 1347 4.96833 -5.91926 0
M  V30 14318 H 1345.34 4.47348 -5.31888 0
M  V30 14319 H 1348.54 3.22918 -3.38883 0
M  V30 14320 H 1348.71 4.2839 -4.86195 0
M  V30 14321 N 1342.11 1.02678 1.19562 0
M  V30 14322 C 1343.06 0.605764 2.22709 0
M  V30 14323 C 1344.03 -0.37936 1.6171 0
M  V30 14324 O 1345.22 -0.276496 1.88786 0
M  V30 14325 C 1342.36 -0.0394312 3.45077 0
M  V30 14326 C 1341.47 0.991481 4.20468 0
M  V30 14327 C 1340.6 0.316269 5.30258 0
M  V30 14328 C 1339.64 1.33324 5.97404 0
M  V30 14329 N 1338.78 0.683979 6.9876 0
M  V30 14330 H 1343.62 1.48994 2.58079 0
M  V30 14331 H 1341.16 0.745636 1.26802 0
M  V30 14332 H 1343.12 -0.430726 4.14971 0
M  V30 14333 H 1341.75 -0.887193 3.10369 0
M  V30 14334 H 1340.8 1.50085 3.49541 0
M  V30 14335 H 1342.11 1.76449 4.66548 0
M  V30 14336 H 1341.26 -0.129983 6.06561 0
M  V30 14337 H 1340 -0.488956 4.85243 0
M  V30 14338 H 1339.01 1.78977 5.19853 0
M  V30 14339 H 1340.23 2.13992 6.44503 0
M  V30 14340 H 1338.18 -0.101192 6.55922 0
M  V30 14341 H 1338.1 1.3949 7.4302 0
M  V30 14342 H 1339.36 0.261658 7.79061 0
M  V30 14343 N 1343.59 -1.35528 0.804364 0
M  V30 14344 C 1344.84 -1.98439 0.382934 0
M  V30 14345 C 1345.16 -1.64132 -1.05289 0
M  V30 14346 O 1344.43 -0.922693 -1.7281 0
M  V30 14347 H 1343.01 -0.734028 0.138605 0
M  V30 14348 H 1345.67 -1.65478 1.02971 0
M  V30 14349 H 1344.77 -3.08279 0.486846 0
M  V30 14350 N 1345.07 -0.557671 -1.47404 0
M  V30 14351 C 1346.32 -0.0338384 -2.02772 0
M  V30 14352 C 1346.65 1.31278 -1.43107 0
M  V30 14353 O 1345.93 1.85436 -0.58682 0
M  V30 14354 C 1346.21 0.0587427 -3.60052 0
M  V30 14355 C 1346.06 -1.315 -4.30148 0
M  V30 14356 C 1347.38 0.771942 -4.33277 0
M  V30 14357 H 1344.5 -0.0137711 -0.736871 0
M  V30 14358 H 1347.14 -0.720049 -1.75827 0
M  V30 14359 H 1345.29 0.643154 -3.83139 0
M  V30 14360 H 1346.96 -1.94265 -4.184 0
M  V30 14361 H 1345.21 -1.88956 -3.90484 0
M  V30 14362 H 1345.88 -1.20294 -5.38733 0
M  V30 14363 H 1348.35 0.275729 -4.15185 0
M  V30 14364 H 1347.23 0.805683 -5.42955 0
M  V30 14365 H 1347.49 1.82816 -4.0253 0
M  V30 14366 N 1346.55 1.54831 -0.294147 0
M  V30 14367 C 1347.48 2.26226 0.57827 0
M  V30 14368 C 1348.46 1.25928 1.14351 0
M  V30 14369 O 1349.65 1.54687 1.17412 0
M  V30 14370 C 1346.78 2.99783 1.75349 0
M  V30 14371 C 1345.73 4.07171 1.31892 0
M  V30 14372 C 1345.06 4.68406 2.57876 0
M  V30 14373 C 1346.36 5.20313 0.455167 0
M  V30 14374 H 1348.05 2.99395 -0.0171936 0
M  V30 14375 H 1345.6 1.43997 -0.00970944 0
M  V30 14376 H 1347.55 3.48448 2.36986 0
M  V30 14377 H 1346.27 2.24181 2.37509 0
M  V30 14378 H 1344.93 3.59346 0.725653 0
M  V30 14379 H 1344.58 3.89451 3.18335 0
M  V30 14380 H 1344.28 5.40927 2.29502 0
M  V30 14381 H 1345.8 5.1983 3.20327 0
M  V30 14382 H 1347.22 5.64913 0.977026 0
M  V30 14383 H 1345.61 5.99512 0.265501 0
M  V30 14384 H 1346.68 4.82088 -0.521434 0
M  V30 14385 N 1348.03 0.0217466 1.57585 0
M  V30 14386 C 1348.98 -0.980624 2.10918 0
M  V30 14387 C 1349.97 -1.34178 1.03406 0
M  V30 14388 O 1351.18 -1.32487 1.21849 0
M  V30 14389 H 1347.55 -0.333984 0.673764 0
M  V30 14390 H 1349.52 -0.505431 2.94088 0
M  V30 14391 C 1348.27 -2.25639 2.64542 0
M  V30 14392 H 1347.59 -1.98722 3.46914 0
M  V30 14393 H 1349.03 -2.94003 3.05513 0
M  V30 14394 C 1347.49 -2.98111 1.56945 0
M  V30 14395 O 1348.02 -3.89937 0.964975 0
M  V30 14396 N 1346.23 -2.60316 1.29166 0
M  V30 14397 H 1345.78 -1.85722 1.78508 0
M  V30 14398 H 1345.73 -3.09116 0.573987 0
M  V30 14399 N 1349.51 -1.55583 -0.251311 0
M  V30 14400 C 1350.42 -1.93073 -1.33266 0
M  V30 14401 C 1351.43 -0.830612 -1.52895 0
M  V30 14402 O 1352.61 -1.13162 -1.66602 0
M  V30 14403 C 1349.67 -2.21396 -2.66805 0
M  V30 14404 C 1348.73 -3.44815 -2.55737 0
M  V30 14405 C 1347.97 -3.71777 -3.82907 0
M  V30 14406 O 1348.19 -3.00884 -4.84587 0
M  V30 14407 O 1347.12 -4.65305 -3.81805 0
M  V30 14408 H 1350.95 -2.85168 -1.04465 0
M  V30 14409 H 1348.53 -1.42408 -0.451693 0
M  V30 14410 H 1350.42 -2.4094 -3.45725 0
M  V30 14411 H 1349.09 -1.3248 -2.95348 0
M  V30 14412 H 1348 -3.30582 -1.75118 0
M  V30 14413 H 1349.33 -4.34019 -2.32139 0
M  V30 14414 N 1350.98 0.516783 -1.48886 0
M  V30 14415 C 1351.93 1.62003 -1.64389 0
M  V30 14416 C 1352.9 1.58842 -0.485633 0
M  V30 14417 O 1354.09 1.77068 -0.710742 0
M  V30 14418 C 1351.23 3.00218 -1.70186 0
M  V30 14419 C 1350.34 3.13513 -2.97209 0
M  V30 14420 C 1349.47 4.42366 -2.94084 0
M  V30 14421 C 1348.51 4.49238 -4.15754 0
M  V30 14422 N 1347.65 5.69497 -4.10631 0
M  V30 14423 H 1352.49 1.48093 -2.58597 0
M  V30 14424 H 1350.03 0.720788 -1.2823 0
M  V30 14425 H 1351.98 3.80307 -1.71529 0
M  V30 14426 H 1350.61 3.12868 -0.794578 0
M  V30 14427 H 1349.67 2.26589 -3.05551 0
M  V30 14428 H 1350.98 3.14451 -3.87197 0
M  V30 14429 H 1350.13 5.3076 -2.93902 0
M  V30 14430 H 1348.87 4.43969 -2.01847 0
M  V30 14431 H 1347.88 3.59248 -4.16198 0
M  V30 14432 H 1349.1 4.49363 -5.09166 0
M  V30 14433 H 1347.05 5.71973 -3.21222 0
M  V30 14434 H 1346.96 5.71985 -4.94337 0
M  V30 14435 H 1348.23 6.60142 -4.14527 0
M  V30 14436 N 1352.46 1.37696 0.766659 0
M  V30 14437 C 1353.71 1.32922 1.52237 0
M  V30 14438 C 1354.03 -0.0842833 1.94818 0
M  V30 14439 O 1353.3 -1.02934 1.66677 0
M  V30 14440 H 1351.88 0.489049 0.564659 0
M  V30 14441 H 1354.54 1.72238 0.912142 0
M  V30 14442 H 1353.64 1.97158 2.4194 0
M  V30 14443 N 1353.94 -0.993397 1.22349 0
M  V30 14444 C 1355.36 -1.25708 0.983345 0
M  V30 14445 C 1355.56 -1.98888 -0.323372 0
M  V30 14446 O 1354.61 -2.2981 -1.04612 0
M  V30 14447 C 1355.92 -2.06935 2.1817 0
M  V30 14448 C 1357.47 -2.20121 2.22521 0
M  V30 14449 C 1357.95 -3.04735 3.41907 0
M  V30 14450 N 1359.44 -3.12322 3.42066 0
M  V30 14451 C 1360.17 -3.78081 4.31095 0
M  V30 14452 N 1359.67 -4.45771 5.3034 0
M  V30 14453 N 1361.46 -3.74837 4.18872 0
M  V30 14454 H 1353.61 -0.502767 2.06364 0
M  V30 14455 H 1355.88 -0.284656 0.904254 0
M  V30 14456 H 1355.58 -1.60525 3.12929 0
M  V30 14457 H 1355.46 -3.0769 2.18189 0
M  V30 14458 H 1357.84 -2.65745 1.28311 0
M  V30 14459 H 1357.92 -1.18798 2.26541 0
M  V30 14460 H 1357.57 -2.59811 4.36418 0
M  V30 14461 H 1357.5 -4.06198 3.35128 0
M  V30 14462 H 1359.99 -2.64146 2.7025 0
M  V30 14463 H 1360.3 -4.93687 5.94553 0
M  V30 14464 H 1358.65 -4.44521 5.34253 0
M  V30 14465 H 1361.84 -3.21116 3.40591 0
M  V30 14466 H 1362.01 -4.25806 4.8846 0
M  V30 14467 N 1355.42 -1.03311 -1.19015 0
M  V30 14468 C 1356.83 -0.750946 -1.4083 0
M  V30 14469 C 1357.03 0.662704 -1.90291 0
M  V30 14470 O 1356.09 1.42806 -2.08237 0
M  V30 14471 C 1357.4 -1.79064 -2.41571 0
M  V30 14472 C 1358.95 -1.81068 -2.55311 0
M  V30 14473 C 1359.43 -2.84008 -3.59309 0
M  V30 14474 N 1360.92 -2.82852 -3.6681 0
M  V30 14475 C 1361.65 -3.59156 -4.46984 0
M  V30 14476 N 1361.15 -4.45188 -5.30829 0
M  V30 14477 N 1362.94 -3.47679 -4.41674 0
M  V30 14478 H 1355.09 -1.94548 -0.852329 0
M  V30 14479 H 1357.35 -0.841344 -0.436858 0
M  V30 14480 H 1357.06 -2.80425 -2.12261 0
M  V30 14481 H 1356.93 -1.61646 -3.40809 0
M  V30 14482 H 1359.32 -0.803825 -2.83941 0
M  V30 14483 H 1359.4 -2.02562 -1.56212 0
M  V30 14484 H 1359.05 -3.84867 -3.3142 0
M  V30 14485 H 1358.98 -2.59771 -4.58069 0
M  V30 14486 H 1361.47 -2.20457 -3.06932 0
M  V30 14487 H 1361.78 -5.00139 -5.89135 0
M  V30 14488 H 1360.13 -4.49259 -5.30275 0
M  V30 14489 H 1363.32 -2.79876 -3.75216 0
M  V30 14490 H 1363.49 -4.07396 -5.03917 0
M  V30 14491 N 1356.9 1.35099 -0.81154 0
M  V30 14492 C 1358.12 2.03391 -0.405805 0
M  V30 14493 C 1358.55 1.60745 0.97686 0
M  V30 14494 O 1357.9 0.786518 1.63351 0
M  V30 14495 C 1357.95 3.57075 -0.502954 0
M  V30 14496 O 1357.06 4.09577 0.481681 0
M  V30 14497 H 1356.4 0.642203 -0.168733 0
M  V30 14498 H 1358.93 1.72591 -1.0988 0
M  V30 14499 H 1358.94 4.06277 -0.37456 0
M  V30 14500 H 1357.61 3.87463 -1.51145 0
M  V30 14501 H 1356.19 3.71583 0.313115 0
M  V30 14502 N 1358.37 0.56548 1.47106 0
M  V30 14503 C 1359.65 -0.0215358 1.95588 0
M  V30 14504 C 1360.03 -1.47712 1.50813 0
M  V30 14505 O 1359.38 -2.15814 0.750776 0
M  V30 14506 C 1359.59 0.132552 3.48748 0
M  V30 14507 C 1360.94 -0.00853591 4.24599 0
M  V30 14508 O 1361.96 0.0605142 3.56149 0
M  V30 14509 O 1360.82 -0.158519 5.4627 0
M  V30 14510 H 1357.91 -0.0595011 0.824857 0
M  V30 14511 H 1360.46 0.632586 1.57469 0
M  V30 14512 H 1359.23 1.14511 3.7417 0
M  V30 14513 H 1358.85 -0.558801 3.93654 0
M  V30 14514 N 1359.85 -1.54672 0.302354 0
M  V30 14515 C 1361.1 -2.00463 -0.306978 0
M  V30 14516 C 1361.43 -1.19043 -1.53435 0
M  V30 14517 O 1360.71 -0.267255 -1.92655 0
M  V30 14518 C 1360.99 -3.53958 -0.662229 0
M  V30 14519 C 1360.84 -4.46118 0.574378 0
M  V30 14520 C 1362.16 -4.14174 -1.48821 0
M  V30 14521 H 1359.28 -0.728729 -0.110102 0
M  V30 14522 H 1361.92 -1.85419 0.414722 0
M  V30 14523 H 1360.07 -3.66909 -1.2771 0
M  V30 14524 H 1361.74 -4.45071 1.21284 0
M  V30 14525 H 1359.99 -4.1666 1.20736 0
M  V30 14526 H 1360.66 -5.51281 0.281651 0
M  V30 14527 H 1363.13 -4.04668 -0.968674 0
M  V30 14528 H 1362.01 -5.2173 -1.70556 0
M  V30 14529 H 1362.27 -3.66136 -2.47784 0
M  V30 14530 N 1361.33 -0.0301034 -1.57571 0
M  V30 14531 C 1362.61 0.68703 -1.83137 0
M  V30 14532 C 1362.99 1.90277 -0.914216 0
M  V30 14533 O 1362.34 2.2848 0.0299358 0
M  V30 14534 C 1362.55 1.06431 -3.32375 0
M  V30 14535 C 1363.89 1.45554 -3.98873 0
M  V30 14536 O 1364.92 1.15727 -3.36877 0
M  V30 14537 O 1363.78 2.01133 -5.08142 0
M  V30 14538 H 1360.87 0.337141 -0.755159 0
M  V30 14539 H 1363.42 -0.0578604 -1.69601 0
M  V30 14540 H 1362.19 0.199077 -3.90793 0
M  V30 14541 H 1361.81 1.86734 -3.51022 0
M  V30 14542 N 1362.81 1.55714 0.243056 0
M  V30 14543 C 1364.04 1.81522 0.986577 0
M  V30 14544 C 1364.45 0.604051 1.79298 0
M  V30 14545 O 1363.79 -0.43674 1.78433 0
M  V30 14546 C 1363.85 3.0074 1.96967 0
M  V30 14547 C 1363.52 4.3661 1.34983 0
M  V30 14548 C 1364.51 5.14456 0.7504 0
M  V30 14549 C 1362.2 4.83311 1.36805 0
M  V30 14550 C 1364.19 6.37153 0.177438 0
M  V30 14551 C 1361.88 6.05956 0.791233 0
M  V30 14552 C 1362.88 6.82716 0.196959 0
M  V30 14553 O 1362.56 8.03044 -0.370938 0
M  V30 14554 H 1362.3 0.607864 0.295765 0
M  V30 14555 H 1364.85 2.03617 0.270018 0
M  V30 14556 H 1363.08 2.74409 2.72464 0
M  V30 14557 H 1364.77 3.13606 2.57694 0
M  V30 14558 H 1365.54 4.79493 0.728809 0
M  V30 14559 H 1361.41 4.23553 1.81999 0
M  V30 14560 H 1364.96 6.97009 -0.287042 0
M  V30 14561 H 1360.86 6.40396 0.810164 0
M  V30 14562 H 1361.62 8.18077 -0.263173 0
M  V30 14563 N 1364.29 -0.50888 1.49158 0
M  V30 14564 C 1365.2 -1.63782 1.67966 0
M  V30 14565 C 1366.21 -1.64667 0.562207 0
M  V30 14566 O 1367.39 -1.83232 0.835935 0
M  V30 14567 C 1364.45 -3.00179 1.73474 0
M  V30 14568 C 1363.51 -3.09983 2.97 0
M  V30 14569 C 1362.75 -4.39875 3.02235 0
M  V30 14570 O 1362.97 -5.28214 2.15282 0
M  V30 14571 O 1361.9 -4.54486 3.94621 0
M  V30 14572 H 1365.73 -1.50846 2.63589 0
M  V30 14573 H 1363.32 -0.684306 1.32807 0
M  V30 14574 H 1365.2 -3.8126 1.79495 0
M  V30 14575 H 1363.87 -3.13394 0.810287 0
M  V30 14576 H 1362.78 -2.28119 2.965 0
M  V30 14577 H 1364.11 -3.01693 3.88899 0
M  V30 14578 N 1365.76 -1.381 -0.759346 0
M  V30 14579 C 1367.01 -1.33992 -1.5183 0
M  V30 14580 C 1367.34 0.0718172 -1.94367 0
M  V30 14581 O 1366.59 1.0477 -1.65293 0
M  V30 14582 C 1366.89 -2.23636 -2.78786 0
M  V30 14583 C 1366.56 -3.71703 -2.5524 0
M  V30 14584 C 1365.22 -4.12053 -2.48528 0
M  V30 14585 C 1367.57 -4.65455 -2.34523 0
M  V30 14586 C 1364.9 -5.44252 -2.19105 0
M  V30 14587 C 1367.25 -5.97905 -2.06622 0
M  V30 14588 C 1365.92 -6.37345 -1.98362 0
M  V30 14589 H 1365.19 -0.490311 -0.555587 0
M  V30 14590 H 1367.83 -1.70411 -0.873637 0
M  V30 14591 H 1366.14 -1.80253 -3.47874 0
M  V30 14592 H 1367.84 -2.17764 -3.36719 0
M  V30 14593 H 1364.43 -3.3971 -2.61333 0
M  V30 14594 H 1368.61 -4.35132 -2.38691 0
M  V30 14595 H 1363.87 -5.73758 -2.11214 0
M  V30 14596 H 1368.04 -6.70095 -1.89594 0
M  V30 14597 H 1365.67 -7.39706 -1.75328 0
M  V30 14598 N 1367.24 0.986894 -1.22875 0
M  V30 14599 C 1368.21 2.0597 -1.00544 0
M  V30 14600 C 1369.21 1.60771 0.0303509 0
M  V30 14601 O 1370.4 1.72945 -0.208753 0
M  V30 14602 C 1367.53 3.36911 -0.519962 0
M  V30 14603 H 1368.72 2.27213 -1.9574 0
M  V30 14604 H 1366.27 1.15935 -1.04827 0
M  V30 14605 H 1367.01 3.21355 0.436078 0
M  V30 14606 H 1366.79 3.71054 -1.26732 0
M  V30 14607 H 1368.28 4.15829 -0.384166 0
M  V30 14608 N 1368.72 1.0394 1.18466 0
M  V30 14609 C 1369.65 0.650182 2.24265 0
M  V30 14610 C 1370.63 -0.345968 1.66545 0
M  V30 14611 O 1371.82 -0.226348 1.92876 0
M  V30 14612 C 1368.95 0.0110451 3.47298 0
M  V30 14613 C 1367.9 0.930599 4.17761 0
M  V30 14614 C 1367.23 0.156005 5.34472 0
M  V30 14615 C 1368.53 2.24913 4.71393 0
M  V30 14616 H 1370.22 1.53465 2.57078 0
M  V30 14617 H 1367.77 0.739343 1.23571 0
M  V30 14618 H 1369.72 -0.272959 4.20515 0
M  V30 14619 H 1368.44 -0.908288 3.13716 0
M  V30 14620 H 1367.1 1.19897 3.4644 0
M  V30 14621 H 1366.75 -0.765695 4.97138 0
M  V30 14622 H 1366.45 0.768606 5.82551 0
M  V30 14623 H 1367.97 -0.121011 6.1048 0
M  V30 14624 H 1369.39 2.02592 5.36311 0
M  V30 14625 H 1367.79 2.81459 5.30001 0
M  V30 14626 H 1368.86 2.8965 3.88884 0
M  V30 14627 N 1370.2 -1.34667 0.818693 0
M  V30 14628 C 1371.13 -2.32134 0.252239 0
M  V30 14629 C 1372.11 -1.58044 -0.628982 0
M  V30 14630 O 1373.29 -1.86049 -0.55674 0
M  V30 14631 C 1370.42 -3.42249 -0.590183 0
M  V30 14632 C 1369.38 -4.27562 0.193547 0
M  V30 14633 C 1368.7 -5.29107 -0.771349 0
M  V30 14634 C 1370 -5.03205 1.39936 0
M  V30 14635 H 1371.7 -2.79758 1.06657 0
M  V30 14636 H 1369.24 -1.34502 0.514325 0
M  V30 14637 H 1371.2 -4.09445 -0.996616 0
M  V30 14638 H 1369.92 -2.93262 -1.43752 0
M  V30 14639 H 1368.58 -3.61962 0.581297 0
M  V30 14640 H 1368.23 -4.76384 -1.61453 0
M  V30 14641 H 1367.93 -5.87063 -0.251201 0
M  V30 14642 H 1369.45 -5.99174 -1.17573 0
M  V30 14643 H 1370.87 -5.6328 1.06717 0
M  V30 14644 H 1369.26 -5.70715 1.85485 0
M  V30 14645 H 1370.33 -4.33145 2.17976 0
M  V30 14646 N 1371.68 -0.573274 -1.46804 0
M  V30 14647 C 1372.92 -0.0552613 -2.02425 0
M  V30 14648 C 1373.25 1.30098 -1.44585 0
M  V30 14649 O 1372.51 1.86366 -0.597166 0
M  V30 14650 C 1372.81 0.0704285 -3.57331 0
M  V30 14651 C 1372.47 -1.217 -4.34166 0
M  V30 14652 C 1371.13 -1.56973 -4.54877 0
M  V30 14653 C 1373.49 -2.06939 -4.78357 0
M  V30 14654 C 1370.81 -2.77302 -5.1703 0
M  V30 14655 C 1373.17 -3.26486 -5.41839 0
M  V30 14656 C 1371.83 -3.62053 -5.6078 0
M  V30 14657 H 1371.1 -0.0202215 -0.740724 0
M  V30 14658 H 1373.75 -0.748016 -1.76287 0
M  V30 14659 H 1372.05 0.846254 -3.82552 0
M  V30 14660 H 1373.75 0.486841 -3.98034 0
M  V30 14661 H 1370.34 -0.932374 -4.18336 0
M  V30 14662 H 1374.52 -1.80992 -4.62121 0
M  V30 14663 H 1369.78 -3.05008 -5.29887 0
M  V30 14664 H 1373.95 -3.92811 -5.75042 0
M  V30 14665 H 1371.58 -4.55385 -6.08711 0
M  V30 14666 N 1373.15 1.5451 -0.310553 0
M  V30 14667 C 1374.08 2.26827 0.554243 0
M  V30 14668 C 1375.07 1.27133 1.13009 0
M  V30 14669 O 1376.25 1.55923 1.15765 0
M  V30 14670 C 1373.38 3.01626 1.7216 0
M  V30 14671 C 1372.33 4.08547 1.27566 0
M  V30 14672 C 1371.66 4.71115 2.52893 0
M  V30 14673 C 1372.96 5.20766 0.399955 0
M  V30 14674 H 1374.65 2.9936 -0.0489475 0
M  V30 14675 H 1372.2 1.43978 -0.0249817 0
M  V30 14676 H 1374.15 3.50942 2.33276 0
M  V30 14677 H 1372.88 2.26688 2.35118 0
M  V30 14678 H 1371.54 3.60096 0.687499 0
M  V30 14679 H 1371.18 3.92805 3.14186 0
M  V30 14680 H 1370.88 5.43331 2.23752 0
M  V30 14681 H 1372.41 5.23198 3.14796 0
M  V30 14682 H 1373.82 5.65918 0.917054 0
M  V30 14683 H 1372.22 5.9976 0.2019 0
M  V30 14684 H 1373.29 4.81508 -0.572537 0
M  V30 14685 N 1374.63 0.0384594 1.57553 0
M  V30 14686 C 1375.88 -0.639085 1.92467 0
M  V30 14687 C 1376.21 -1.71239 0.916014 0
M  V30 14688 O 1375.49 -1.94408 -0.0598928 0
M  V30 14689 C 1375.77 -1.24693 3.37822 0
M  V30 14690 C 1375.62 -0.182544 4.49429 0
M  V30 14691 C 1376.94 -2.16226 3.8332 0
M  V30 14692 H 1374.06 -0.230852 0.699912 0
M  V30 14693 H 1376.7 0.0976276 1.89749 0
M  V30 14694 H 1374.85 -1.87481 3.40269 0
M  V30 14695 H 1376.53 0.448622 4.59113 0
M  V30 14696 H 1374.77 0.4909 4.31013 0
M  V30 14697 H 1375.44 -0.647626 5.48188 0
M  V30 14698 H 1377.92 -1.63413 3.82669 0
M  V30 14699 H 1376.79 -2.55705 4.85702 0
M  V30 14700 H 1377.05 -3.05722 3.19353 0
M  V30 14701 N 1376.11 -1.55841 -0.234795 0
M  V30 14702 C 1377.36 -1.78238 -0.961116 0
M  V30 14703 C 1377.69 -0.604919 -1.84854 0
M  V30 14704 O 1376.94 0.411289 -1.91329 0
M  V30 14705 C 1377.24 -3.06262 -1.84223 0
M  V30 14706 C 1376.91 -4.37045 -1.10916 0
M  V30 14707 C 1375.57 -4.72582 -0.906606 0
M  V30 14708 C 1377.92 -5.17844 -0.59049 0
M  V30 14709 C 1375.25 -5.86444 -0.173275 0
M  V30 14710 C 1377.6 -6.32468 0.129433 0
M  V30 14711 C 1376.26 -6.66616 0.343357 0
M  V30 14712 H 1375.53 -0.652219 -0.351697 0
M  V30 14713 H 1378.18 -1.9011 -0.230272 0
M  V30 14714 H 1376.49 -2.89454 -2.64052 0
M  V30 14715 H 1378.18 -3.20791 -2.40612 0
M  V30 14716 H 1374.77 -4.09134 -1.27699 0
M  V30 14717 H 1378.96 -4.90835 -0.734487 0
M  V30 14718 H 1374.21 -6.114 0.00282409 0
M  V30 14719 H 1378.39 -6.94312 0.538905 0
M  V30 14720 H 1376.01 -7.54691 0.913538 0
M  V30 14721 N 1377.59 0.500963 -1.49426 0
M  V30 14722 C 1378.54 1.62335 -1.66584 0
M  V30 14723 C 1379.53 1.60837 -0.531773 0
M  V30 14724 O 1380.74 1.65345 -0.711408 0
M  V30 14725 H 1377.11 0.538131 -0.52528 0
M  V30 14726 H 1379.08 1.45016 -2.60793 0
M  V30 14727 C 1377.83 3.00469 -1.74968 0
M  V30 14728 H 1377.16 3.02328 -2.61607 0
M  V30 14729 H 1378.6 3.78539 -1.91008 0
M  V30 14730 C 1377.05 3.33251 -0.49451 0
M  V30 14731 O 1377.58 3.99901 0.379783 0
M  V30 14732 N 1375.79 2.88393 -0.357445 0
M  V30 14733 H 1375.34 2.3433 -1.06991 0
M  V30 14734 H 1375.3 3.10694 0.481287 0
M  V30 14735 N 1379.07 1.38501 0.752011 0
M  V30 14736 C 1379.98 1.38094 1.8965 0
M  V30 14737 C 1380.99 0.277851 1.71767 0
M  V30 14738 O 1382.17 0.516536 1.94663 0
M  V30 14739 C 1379.23 1.2063 3.25037 0
M  V30 14740 C 1378.3 2.40758 3.55435 0
M  V30 14741 C 1377.53 2.24118 4.84362 0
M  V30 14742 O 1377.75 1.23571 5.56854 0
M  V30 14743 O 1376.69 3.12741 5.14273 0
M  V30 14744 H 1380.51 2.34532 1.92947 0
M  V30 14745 H 1378.1 1.19437 0.897504 0
M  V30 14746 H 1379.98 1.12957 4.05979 0
M  V30 14747 H 1378.65 0.272785 3.22549 0
M  V30 14748 H 1377.56 2.54006 2.74648 0
M  V30 14749 H 1378.89 3.32745 3.62686 0
M  V30 14750 N 1380.55 -0.980364 1.23396 0
M  V30 14751 C 1381.49 -2.09401 1.01262 0
M  V30 14752 C 1382.49 -1.69331 -0.0483957 0
M  V30 14753 O 1383.69 -1.79693 0.105109 0
M  V30 14754 H 1380.07 -0.684969 0.310358 0
M  V30 14755 H 1382.04 -2.25236 1.95732 0
M  V30 14756 C 1380.79 -3.42118 0.620526 0
M  V30 14757 H 1380.11 -3.73402 1.42868 0
M  V30 14758 H 1381.55 -4.2098 0.505169 0
M  V30 14759 C 1380.01 -3.30146 -0.671208 0
M  V30 14760 O 1380.54 -3.62997 -1.72034 0
M  V30 14761 N 1378.75 -2.83303 -0.647137 0
M  V30 14762 H 1378.29 -2.56767 0.206957 0
M  V30 14763 H 1378.25 -2.75675 -1.51165 0
M  V30 14764 N 1382.02 -1.04567 -1.17913 0
M  V30 14765 C 1382.93 -0.651674 -2.25367 0
M  V30 14766 C 1383.95 0.32437 -1.7095 0
M  V30 14767 O 1385.13 0.178039 -2.00612 0
M  V30 14768 C 1382.19 -0.0259452 -3.4669 0
M  V30 14769 C 1381.25 -1.05163 -4.1622 0
M  V30 14770 C 1380.48 -0.45567 -5.31751 0
M  V30 14771 O 1380.71 0.736698 -5.65623 0
M  V30 14772 O 1379.64 -1.18684 -5.90083 0
M  V30 14773 H 1383.47 -1.54704 -2.61344 0
M  V30 14774 H 1381.05 -0.816852 -1.25092 0
M  V30 14775 H 1382.93 0.322126 -4.20167 0
M  V30 14776 H 1381.61 0.843165 -3.12526 0
M  V30 14777 H 1380.52 -1.45159 -3.44789 0
M  V30 14778 H 1381.85 -1.89168 -4.54397 0
M  V30 14779 N 1383.5 1.34231 -0.825823 0
M  V30 14780 C 1384.73 2.02949 -0.427354 0
M  V30 14781 C 1385.15 1.61772 0.959755 0
M  V30 14782 O 1384.51 0.803799 1.62508 0
M  V30 14783 C 1384.56 3.56522 -0.540799 0
M  V30 14784 O 1383.66 4.10065 0.438213 0
M  V30 14785 H 1383 0.640378 -0.175535 0
M  V30 14786 H 1385.53 1.71416 -1.11704 0
M  V30 14787 H 1385.54 4.05857 -0.41763 0
M  V30 14788 H 1384.22 3.85839 -1.55246 0
M  V30 14789 H 1382.79 3.71894 0.273687 0
M  V30 14790 N 1384.98 0.581051 1.46498 0
M  V30 14791 C 1386.23 0.07442 2.03264 0
M  V30 14792 C 1386.58 -1.27069 1.44469 0
M  V30 14793 O 1385.87 -1.8197 0.599785 0
M  V30 14794 C 1386.07 -0.0514774 3.57363 0
M  V30 14795 C 1385.9 1.27988 4.31102 0
M  V30 14796 C 1384.67 1.85358 4.70075 0
M  V30 14797 C 1386.86 2.20268 4.64743 0
M  V30 14798 N 1384.85 3.1225 5.28558 0
M  V30 14799 C 1386.22 3.31746 5.23779 0
M  V30 14800 C 1388.27 2.19969 4.46675 0
M  V30 14801 C 1386.98 4.43056 5.66652 0
M  V30 14802 C 1389 3.30307 4.90562 0
M  V30 14803 C 1388.36 4.40505 5.49667 0
M  V30 14804 H 1384.46 0.0699705 0.778863 0
M  V30 14805 H 1387.05 0.773585 1.78672 0
M  V30 14806 H 1385.22 -0.719807 3.81672 0
M  V30 14807 H 1386.95 -0.562342 4.00774 0
M  V30 14808 H 1383.7 1.3887 4.52782 0
M  V30 14809 H 1384.13 3.76992 5.62322 0
M  V30 14810 H 1388.77 1.36044 4.00315 0
M  V30 14811 H 1386.49 5.27724 6.11991 0
M  V30 14812 H 1390.07 3.31191 4.78334 0
M  V30 14813 H 1388.95 5.24475 5.83006 0
M  V30 14814 N 1386.46 -1.54343 0.318742 0
M  V30 14815 C 1387.69 -2.04597 -0.286961 0
M  V30 14816 C 1388.1 -1.19474 -1.46706 0
M  V30 14817 O 1387.44 -0.217082 -1.82413 0
M  V30 14818 C 1387.5 -3.50729 -0.789262 0
M  V30 14819 C 1387.16 -4.56214 0.267888 0
M  V30 14820 C 1388.16 -5.08079 1.10235 0
M  V30 14821 C 1385.85 -5.00585 0.414691 0
M  V30 14822 C 1387.84 -6.02872 2.06938 0
M  V30 14823 C 1385.53 -5.95195 1.38515 0
M  V30 14824 C 1386.53 -6.46224 2.21097 0
M  V30 14825 O 1386.21 -7.38976 3.16495 0
M  V30 14826 H 1385.95 -0.672994 -0.0636843 0
M  V30 14827 H 1388.5 -2.00147 0.461569 0
M  V30 14828 H 1386.73 -3.52562 -1.58862 0
M  V30 14829 H 1388.42 -3.84084 -1.31278 0
M  V30 14830 H 1389.18 -4.74581 0.999893 0
M  V30 14831 H 1385.06 -4.60483 -0.21819 0
M  V30 14832 H 1388.61 -6.42627 2.71435 0
M  V30 14833 H 1384.5 -6.28109 1.48826 0
M  V30 14834 H 1385.27 -7.56835 3.11678 0
M  V30 14835 N 1387.94 -0.0468143 -1.5753 0
M  V30 14836 C 1388.87 0.927092 -2.14306 0
M  V30 14837 C 1389.85 1.32745 -1.06362 0
M  V30 14838 O 1391.03 1.40293 -1.34281 0
M  V30 14839 C 1388.16 2.20343 -2.68452 0
M  V30 14840 C 1387.12 1.94328 -3.81341 0
M  V30 14841 C 1386.44 3.28379 -4.21985 0
M  V30 14842 C 1387.74 1.26835 -5.06666 0
M  V30 14843 H 1389.44 0.454199 -2.95935 0
M  V30 14844 H 1386.98 0.217029 -1.42355 0
M  V30 14845 H 1388.93 2.8887 -3.0681 0
M  V30 14846 H 1387.66 2.6983 -1.84009 0
M  V30 14847 H 1386.32 1.28214 -3.43448 0
M  V30 14848 H 1385.97 3.75658 -3.34499 0
M  V30 14849 H 1385.67 3.11772 -4.98068 0
M  V30 14850 H 1387.19 3.98145 -4.6294 0
M  V30 14851 H 1388.6 1.85389 -5.42498 0
M  V30 14852 H 1387 1.20569 -5.87863 0
M  V30 14853 H 1388.07 0.243759 -4.84287 0
M  V30 14854 N 1389.41 1.55964 0.226527 0
M  V30 14855 C 1390.69 1.69528 0.975689 0
M  V30 14856 C 1391.07 0.592635 2.02611 0
M  V30 14857 O 1390.42 -0.401073 2.24953 0
M  V30 14858 C 1390.63 3.10644 1.59063 0
M  V30 14859 C 1391.98 3.69895 2.08478 0
M  V30 14860 O 1393 3.13574 1.68966 0
M  V30 14861 O 1391.86 4.68672 2.81085 0
M  V30 14862 H 1388.95 0.690285 0.455451 0
M  V30 14863 H 1391.5 1.68285 0.218702 0
M  V30 14864 H 1390.27 3.82355 0.831903 0
M  V30 14865 H 1389.9 3.15984 2.41329 0
M  V30 14866 N 1390.89 -0.493031 1.4969 0
M  V30 14867 C 1392.17 -1.25436 1.50084 0
M  V30 14868 C 1392.55 -2.0981 0.233038 0
M  V30 14869 O 1391.9 -2.14617 -0.784342 0
M  V30 14870 C 1392.11 -2.10425 2.78428 0
M  V30 14871 C 1393.46 -2.69349 3.28232 0
M  V30 14872 O 1394.48 -2.20686 2.796 0
M  V30 14873 O 1393.34 -3.57956 4.12953 0
M  V30 14874 H 1390.43 -0.568044 0.601045 0
M  V30 14875 H 1392.98 -0.506648 1.6196 0
M  V30 14876 H 1391.75 -1.48108 3.62187 0
M  V30 14877 H 1391.37 -2.92374 2.6945 0
M  V30 14878 N 1392.37 -1.38898 -0.744656 0
M  V30 14879 C 1393.32 -1.36974 -1.87992 0
M  V30 14880 C 1394.31 -0.254277 -1.67481 0
M  V30 14881 O 1395.52 -0.423797 -1.7494 0
M  V30 14882 H 1391.89 -0.427508 -0.618661 0
M  V30 14883 H 1393.86 -2.32754 -1.86731 0
M  V30 14884 C 1392.61 -1.22054 -3.25573 0
M  V30 14885 H 1391.94 -2.07152 -3.41947 0
M  V30 14886 H 1393.38 -1.24763 -4.05228 0
M  V30 14887 C 1391.84 0.0718413 -3.36823 0
M  V30 14888 O 1392.37 1.0456 -3.87853 0
M  V30 14889 N 1390.57 0.131672 -2.90302 0
M  V30 14890 H 1390.12 -0.661428 -2.48964 0
M  V30 14891 H 1390.08 0.995936 -2.98209 0
M  V30 14892 N 1393.85 0.973806 -1.23914 0
M  V30 14893 C 1395.1 1.71027 -1.06923 0
M  V30 14894 C 1395.41 1.91612 0.392947 0
M  V30 14895 O 1396.62 2.62771 0.682927 0
M  V30 14896 C 1395.07 3.07811 -1.86496 0
M  V30 14897 C 1394.68 2.9509 -3.37085 0
M  V30 14898 C 1396.42 3.85371 -1.78015 0
M  V30 14899 C 1394.33 4.27145 -4.09024 0
M  V30 14900 H 1393.26 0.641329 -0.396501 0
M  V30 14901 H 1395.91 1.08562 -1.47941 0
M  V30 14902 H 1394.29 3.71069 -1.38288 0
M  V30 14903 H 1395.47 2.4088 -3.92827 0
M  V30 14904 H 1393.78 2.30999 -3.46451 0
M  V30 14905 H 1396.38 4.83147 -2.2907 0
M  V30 14906 H 1396.72 4.09594 -0.744196 0
M  V30 14907 H 1397.26 3.28827 -2.23869 0
M  V30 14908 H 1394 4.08117 -5.12953 0
M  V30 14909 H 1393.52 4.81194 -3.58068 0
M  V30 14910 H 1395.19 4.95798 -4.15685 0
M  V30 14911 N 1395.33 1.05191 1.17357 0
M  V30 14912 C 1396.27 0.652868 2.21374 0
M  V30 14913 C 1397.24 -0.344974 1.62478 0
M  V30 14914 O 1398.43 -0.23639 1.8933 0
M  V30 14915 C 1395.57 0.0337737 3.45083 0
M  V30 14916 C 1394.68 1.08045 4.18271 0
M  V30 14917 C 1393.82 0.428673 5.29468 0
M  V30 14918 C 1392.86 1.45966 5.94441 0
M  V30 14919 N 1391.99 0.832042 6.97152 0
M  V30 14920 H 1396.83 1.54434 2.54861 0
M  V30 14921 H 1394.37 0.772365 1.25192 0
M  V30 14922 H 1396.33 -0.342607 4.15791 0
M  V30 14923 H 1394.96 -0.821159 3.12181 0
M  V30 14924 H 1394.01 1.57466 3.46278 0
M  V30 14925 H 1395.32 1.86305 4.62701 0
M  V30 14926 H 1394.48 -0.00129344 6.067 0
M  V30 14927 H 1393.21 -0.385919 4.86171 0
M  V30 14928 H 1392.22 1.89964 5.1594 0
M  V30 14929 H 1393.44 2.27615 6.39819 0
M  V30 14930 H 1391.39 0.0379612 6.55989 0
M  V30 14931 H 1391.31 1.55219 7.39894 0
M  V30 14932 H 1392.58 0.42685 7.7833 0
M  V30 14933 N 1396.8 -1.33791 0.83293 0
M  V30 14934 C 1397.75 -2.29332 0.25989 0
M  V30 14935 C 1398.72 -1.54056 -0.620965 0
M  V30 14936 O 1399.91 -1.82382 -0.560492 0
M  V30 14937 C 1397.05 -3.40461 -0.563964 0
M  V30 14938 C 1396.16 -4.30658 0.34025 0
M  V30 14939 C 1395.29 -5.28897 -0.494134 0
M  V30 14940 C 1394.33 -6.10733 0.408842 0
M  V30 14941 N 1393.47 -7.01032 -0.38706 0
M  V30 14942 H 1398.31 -2.77743 1.07996 0
M  V30 14943 H 1395.85 -1.3667 0.544043 0
M  V30 14944 H 1397.81 -4.03587 -1.05704 0
M  V30 14945 H 1396.44 -2.93258 -1.34905 0
M  V30 14946 H 1395.49 -3.68305 0.9516 0
M  V30 14947 H 1396.8 -4.87962 1.03415 0
M  V30 14948 H 1395.95 -5.97522 -1.05128 0
M  V30 14949 H 1394.69 -4.72155 -1.2215 0
M  V30 14950 H 1393.7 -5.41031 0.978046 0
M  V30 14951 H 1394.92 -6.69557 1.13448 0
M  V30 14952 H 1392.87 -6.46747 -1.09792 0
M  V30 14953 H 1392.79 -7.55592 0.248249 0
M  V30 14954 H 1394.05 -7.73973 -0.926631 0
M  V30 14955 N 1398.28 -0.588812 -1.46187 0
M  V30 14956 C 1399.51 -0.0824104 -2.06436 0
M  V30 14957 C 1399.92 1.23054 -1.43716 0
M  V30 14958 O 1399.26 1.7562 -0.538825 0
M  V30 14959 C 1399.33 0.151307 -3.59181 0
M  V30 14960 C 1398.99 -1.07697 -4.44129 0
M  V30 14961 C 1399.99 -1.99053 -4.80285 0
M  V30 14962 C 1397.67 -1.30053 -4.85172 0
M  V30 14963 C 1399.67 -3.11108 -5.56319 0
M  V30 14964 C 1397.35 -2.42412 -5.60963 0
M  V30 14965 C 1398.35 -3.32769 -5.96451 0
M  V30 14966 O 1398.04 -4.43175 -6.70709 0
M  V30 14967 H 1397.77 -0.0573231 -0.673565 0
M  V30 14968 H 1400.32 -0.811012 -1.88711 0
M  V30 14969 H 1398.55 0.934591 -3.75236 0
M  V30 14970 H 1400.24 0.606973 -4.01336 0
M  V30 14971 H 1401.01 -1.83 -4.4915 0
M  V30 14972 H 1396.89 -0.606295 -4.56996 0
M  V30 14973 H 1400.43 -3.81659 -5.83937 0
M  V30 14974 H 1396.33 -2.58426 -5.91512 0
M  V30 14975 H 1397.1 -4.4162 -6.8914 0
M  V30 14976 N 1399.76 1.54172 -0.326923 0
M  V30 14977 C 1400.69 2.27402 0.530154 0
M  V30 14978 C 1401.67 1.28325 1.11655 0
M  V30 14979 O 1402.86 1.57142 1.14105 0
M  V30 14980 C 1399.99 3.03435 1.68951 0
M  V30 14981 C 1398.94 4.09877 1.23226 0
M  V30 14982 C 1398.27 4.7377 2.47882 0
M  V30 14983 C 1399.57 5.21161 0.344698 0
M  V30 14984 H 1401.26 2.99291 -0.0806959 0
M  V30 14985 H 1398.81 1.43944 -0.0402511 0
M  V30 14986 H 1400.76 3.53396 2.29541 0
M  V30 14987 H 1399.48 2.29169 2.327 0
M  V30 14988 H 1398.14 3.60805 0.649267 0
M  V30 14989 H 1397.79 3.96116 3.10002 0
M  V30 14990 H 1397.49 5.45674 2.17977 0
M  V30 14991 H 1399.01 5.26507 3.09229 0
M  V30 14992 H 1400.43 5.66859 0.856979 0
M  V30 14993 H 1398.83 5.99941 0.138276 0
M  V30 14994 H 1399.9 4.80874 -0.623575 0
M  V30 14995 N 1401.24 0.0551678 1.57503 0
M  V30 14996 C 1402.19 -0.935665 2.12951 0
M  V30 14997 C 1403.18 -1.31954 1.06229 0
M  V30 14998 O 1404.39 -1.29873 1.24632 0
M  V30 14999 H 1400.76 -0.319618 0.680697 0
M  V30 15000 H 1402.73 -0.442937 2.95094 0
M  V30 15001 C 1401.48 -2.19977 2.69268 0
M  V30 15002 H 1400.8 -1.91319 3.51051 0
M  V30 15003 H 1402.24 -2.87456 3.11681 0
M  V30 15004 C 1400.7 -2.94714 1.63233 0
M  V30 15005 O 1401.23 -3.87803 1.04747 0
M  V30 15006 N 1399.44 -2.57518 1.34659 0
M  V30 15007 H 1398.99 -1.81894 1.82407 0
M  V30 15008 H 1398.94 -3.07829 0.639425 0
M  V30 15009 N 1402.72 -1.56081 -0.218252 0
M  V30 15010 C 1403.66 -1.92684 -1.27049 0
M  V30 15011 C 1404.63 -0.784441 -1.46409 0
M  V30 15012 O 1405.82 -1.04062 -1.59924 0
M  V30 15013 C 1402.96 -2.25174 -2.61516 0
M  V30 15014 C 1402.07 -3.52364 -2.49927 0
M  V30 15015 C 1401.21 -3.74286 -3.7694 0
M  V30 15016 C 1400.25 -4.94979 -3.60087 0
M  V30 15017 N 1399.38 -5.13273 -4.79057 0
M  V30 15018 H 1404.22 -2.82406 -0.951347 0
M  V30 15019 H 1401.76 -1.39774 -0.458441 0
M  V30 15020 H 1403.72 -2.42022 -3.39825 0
M  V30 15021 H 1402.35 -1.38621 -2.9152 0
M  V30 15022 H 1401.4 -3.43691 -1.63036 0
M  V30 15023 H 1402.71 -4.40826 -2.33397 0
M  V30 15024 H 1401.87 -3.91248 -4.63692 0
M  V30 15025 H 1400.6 -2.84111 -3.96399 0
M  V30 15026 H 1399.61 -4.77963 -2.71719 0
M  V30 15027 H 1400.83 -5.86641 -3.42095 0
M  V30 15028 H 1398.78 -4.26041 -4.98824 0
M  V30 15029 H 1398.7 -5.95873 -4.65265 0
M  V30 15030 H 1399.97 -5.34673 -5.67226 0
M  V30 15031 N 1404.2 0.485086 -1.49949 0
M  V30 15032 C 1405.47 1.24639 -1.50747 0
M  V30 15033 C 1405.85 2.09683 -0.244162 0
M  V30 15034 O 1405.2 2.1503 0.772949 0
M  V30 15035 C 1405.41 2.08946 -2.7954 0
M  V30 15036 C 1406.76 2.67604 -3.29656 0
M  V30 15037 O 1407.78 2.192 -2.80766 0
M  V30 15038 O 1406.64 3.55761 -4.14845 0
M  V30 15039 H 1403.74 0.564849 -0.604049 0
M  V30 15040 H 1406.28 0.498052 -1.62227 0
M  V30 15041 H 1405.05 1.46185 -3.62968 0
M  V30 15042 H 1404.68 2.90941 -2.70997 0
M  V30 15043 N 1405.67 1.39291 0.737279 0
M  V30 15044 C 1407.08 1.32489 1.31543 0
M  V30 15045 C 1407.44 -0.0118162 1.96196 0
M  V30 15046 O 1406.56 -0.913938 1.96153 0
M  V30 15047 C 1407.16 2.39946 2.39189 0
M  V30 15048 C 1405.71 2.36671 2.92684 0
M  V30 15049 C 1404.86 2.21953 1.66229 0
M  V30 15050 H 1407.81 1.49412 0.534954 0
M  V30 15051 H 1407.83 2.06603 3.19524 0
M  V30 15052 H 1407.35 3.3722 1.92104 0
M  V30 15053 H 1405.45 1.43028 3.44055 0
M  V30 15054 H 1405.56 3.31441 3.45953 0
M  V30 15055 H 1403.92 1.69087 1.90478 0
M  V30 15056 H 1404.71 3.21194 1.21199 0
M  V30 15057 N 1407.15 -0.967221 1.24429 0
M  V30 15058 C 1408.57 -1.23594 1.00979 0
M  V30 15059 C 1408.77 -1.99529 -0.281112 0
M  V30 15060 O 1407.82 -2.31977 -0.997139 0
M  V30 15061 C 1409.14 -2.02261 2.22511 0
M  V30 15062 C 1410.68 -2.15352 2.2714 0
M  V30 15063 C 1411.16 -2.97414 3.48294 0
M  V30 15064 N 1412.65 -3.04996 3.48614 0
M  V30 15065 C 1413.39 -3.68851 4.39017 0
M  V30 15066 N 1412.88 -4.34421 5.39676 0
M  V30 15067 N 1414.67 -3.65868 4.26728 0
M  V30 15068 H 1406.83 -0.458881 2.07384 0
M  V30 15069 H 1409.09 -0.265411 0.910088 0
M  V30 15070 H 1408.79 -1.53852 3.16263 0
M  V30 15071 H 1408.67 -3.02993 2.24667 0
M  V30 15072 H 1411.06 -2.62964 1.33919 0
M  V30 15073 H 1411.14 -1.13966 2.2901 0
M  V30 15074 H 1410.78 -2.50495 4.41831 0
M  V30 15075 H 1410.71 -3.98998 3.43668 0
M  V30 15076 H 1413.2 -2.58354 2.75793 0
M  V30 15077 H 1413.51 -4.80965 6.04891 0
M  V30 15078 H 1411.86 -4.33089 5.43562 0
M  V30 15079 H 1415.05 -3.13819 3.47325 0
M  V30 15080 H 1415.22 -4.15349 4.97382 0
M  V30 15081 N 1408.63 -1.05812 -1.16797 0
M  V30 15082 C 1409.91 -0.685551 -1.83193 0
M  V30 15083 C 1410.29 0.833539 -1.93947 0
M  V30 15084 O 1409.63 1.74193 -1.47882 0
M  V30 15085 C 1409.84 -1.38183 -3.20479 0
M  V30 15086 C 1411.19 -1.52389 -3.96311 0
M  V30 15087 O 1412.22 -1.34134 -3.2998 0
M  V30 15088 O 1411.08 -1.82297 -5.15199 0
M  V30 15089 H 1408.17 -0.242095 -0.790771 0
M  V30 15090 H 1410.72 -1.15809 -1.24041 0
M  V30 15091 H 1409.49 -2.41791 -3.07657 0
M  V30 15092 H 1409.11 -0.899043 -3.87302 0
M  V30 15093 N 1410.11 1.33347 -0.840014 0
M  V30 15094 C 1411.35 1.97745 -0.436274 0
M  V30 15095 C 1411.68 1.66538 1.00475 0
M  V30 15096 O 1410.94 0.938137 1.71748 0
M  V30 15097 C 1411.24 3.52239 -0.605173 0
M  V30 15098 C 1410.9 4.03398 -2.01446 0
M  V30 15099 C 1409.56 4.1708 -2.39994 0
M  V30 15100 C 1411.92 4.3071 -2.93494 0
M  V30 15101 C 1409.24 4.55409 -3.69891 0
M  V30 15102 C 1411.6 4.70491 -4.22873 0
M  V30 15103 C 1410.26 4.82379 -4.61375 0
M  V30 15104 H 1409.53 0.723599 -0.159644 0
M  V30 15105 H 1412.18 1.59003 -1.06725 0
M  V30 15106 H 1410.48 3.91648 0.109116 0
M  V30 15107 H 1412.18 4.00069 -0.273056 0
M  V30 15108 H 1408.77 3.93224 -1.70508 0
M  V30 15109 H 1412.95 4.19661 -2.64949 0
M  V30 15110 H 1408.21 4.62806 -3.99525 0
M  V30 15111 H 1412.38 4.9058 -4.94271 0
M  V30 15112 H 1410.01 5.11835 -5.62075 0
M  V30 15113 N 1411.59 0.596556 1.45873 0
M  V30 15114 C 1412.53 -0.128713 2.30441 0
M  V30 15115 C 1413.5 -0.870727 1.41448 0
M  V30 15116 O 1414.69 -0.858654 1.70387 0
M  V30 15117 C 1411.83 -1.1274 3.26165 0
M  V30 15118 C 1410.94 -0.387403 4.30259 0
M  V30 15119 C 1410.08 -1.37484 5.131 0
M  V30 15120 C 1409.11 -0.622025 6.08931 0
M  V30 15121 N 1408.25 -1.5582 6.84591 0
M  V30 15122 H 1413.09 0.598466 2.91929 0
M  V30 15123 H 1410.63 0.306936 1.43862 0
M  V30 15124 H 1412.59 -1.71943 3.8012 0
M  V30 15125 H 1411.22 -1.82213 2.66455 0
M  V30 15126 H 1410.27 0.319929 3.79052 0
M  V30 15127 H 1411.58 0.200477 4.98397 0
M  V30 15128 H 1410.73 -2.03926 5.71401 0
M  V30 15129 H 1409.47 -1.99665 4.44955 0
M  V30 15130 H 1408.48 0.0560936 5.49771 0
M  V30 15131 H 1409.7 -0.00541426 6.791 0
M  V30 15132 H 1407.65 -2.16786 6.19145 0
M  V30 15133 H 1407.57 -1.02347 7.4904 0
M  V30 15134 H 1408.83 -2.21254 7.4744 0
M  V30 15135 N 1413.06 -1.53996 0.335095 0
M  V30 15136 C 1414.48 -1.59591 -0.0171422 0
M  V30 15137 C 1414.68 -1.35132 -1.49471 0
M  V30 15138 O 1413.74 -1.14141 -2.25229 0
M  V30 15139 C 1415.05 -2.97872 0.411443 0
M  V30 15140 C 1416.6 -3.10887 0.363072 0
M  V30 15141 C 1417.07 -4.51532 0.766995 0
M  V30 15142 N 1418.56 -4.57557 0.72085 0
M  V30 15143 C 1419.3 -5.64516 1.00544 0
M  V30 15144 N 1418.79 -6.79365 1.35777 0
M  V30 15145 N 1420.59 -5.54349 0.930243 0
M  V30 15146 H 1412.74 -1.68151 1.29766 0
M  V30 15147 H 1415 -0.787067 0.528422 0
M  V30 15148 H 1414.71 -3.20809 1.44134 0
M  V30 15149 H 1414.58 -3.76571 -0.217678 0
M  V30 15150 H 1416.97 -2.87679 -0.657642 0
M  V30 15151 H 1417.05 -2.34266 1.02728 0
M  V30 15152 H 1416.69 -4.75474 1.78568 0
M  V30 15153 H 1416.62 -5.26539 0.0803511 0
M  V30 15154 H 1419.11 -3.75079 0.460867 0
M  V30 15155 H 1419.43 -7.56891 1.55999 0
M  V30 15156 H 1417.77 -6.80833 1.39614 0
M  V30 15157 H 1420.96 -4.63503 0.654402 0
M  V30 15158 H 1421.14 -6.37616 1.15539 0
M  V30 15159 N 1414.54 -0.0635198 -1.57472 0
M  V30 15160 C 1415.77 0.616735 -1.97494 0
M  V30 15161 C 1416.18 1.63646 -0.941568 0
M  V30 15162 O 1415.54 1.82355 0.0727768 0
M  V30 15163 C 1415.59 1.29268 -3.37597 0
M  V30 15164 O 1415.31 0.313781 -4.36975 0
M  V30 15165 C 1416.81 2.06154 -3.92448 0
M  V30 15166 H 1414.03 0.167753 -0.649692 0
M  V30 15167 H 1416.58 -0.133475 -2.04064 0
M  V30 15168 H 1414.73 1.99404 -3.3214 0
M  V30 15169 H 1415.15 0.797723 -5.18398 0
M  V30 15170 H 1416.62 2.48853 -4.92723 0
M  V30 15171 H 1417.1 2.91474 -3.28541 0
M  V30 15172 H 1417.7 1.40903 -4.01281 0
M  V30 15173 N 1416.02 1.56195 0.209972 0
M  V30 15174 C 1417.3 1.70553 0.957653 0
M  V30 15175 C 1417.68 0.614091 2.01971 0
M  V30 15176 O 1417.02 -0.377192 2.25365 0
M  V30 15177 C 1417.23 3.12314 1.55759 0
M  V30 15178 C 1418.58 3.72085 2.04543 0
M  V30 15179 O 1419.61 3.15349 1.65631 0
M  V30 15180 O 1418.47 4.71627 2.76099 0
M  V30 15181 H 1415.56 0.695077 0.448104 0
M  V30 15182 H 1418.11 1.68507 0.20084 0
M  V30 15183 H 1416.88 3.83215 0.791302 0
M  V30 15184 H 1416.5 3.18526 2.37964 0
M  V30 15185 N 1417.5 -0.477127 1.50204 0
M  V30 15186 C 1418.77 -1.23837 1.51406 0
M  V30 15187 C 1419.15 -2.09551 0.255278 0
M  V30 15188 O 1418.5 -2.15437 -0.761535 0
M  V30 15189 C 1418.71 -2.0746 2.80644 0
M  V30 15190 C 1420.06 -2.65852 3.31071 0
M  V30 15191 O 1421.08 -2.17708 2.81925 0
M  V30 15192 O 1419.94 -3.53556 4.16726 0
M  V30 15193 H 1417.04 -0.561638 0.607036 0
M  V30 15194 H 1419.58 -0.489442 1.62489 0
M  V30 15195 H 1418.36 -1.44258 3.63738 0
M  V30 15196 H 1417.98 -2.895 2.72536 0
M  V30 15197 N 1418.98 -1.3968 -0.729882 0
M  V30 15198 C 1420.22 -1.37182 -1.48954 0
M  V30 15199 C 1420.55 0.0305728 -1.94476 0
M  V30 15200 O 1419.81 1.0124 -1.67478 0
M  V30 15201 C 1420.11 -2.29499 -2.7398 0
M  V30 15202 C 1419.77 -3.77034 -2.47298 0
M  V30 15203 C 1418.43 -4.17232 -2.39731 0
M  V30 15204 C 1420.79 -4.70325 -2.24597 0
M  V30 15205 C 1418.11 -5.48777 -2.07511 0
M  V30 15206 C 1420.47 -6.02153 -1.93893 0
M  V30 15207 C 1419.13 -6.41409 -1.84798 0
M  V30 15208 H 1418.4 -0.501985 -0.545061 0
M  V30 15209 H 1421.05 -1.72226 -0.837294 0
M  V30 15210 H 1419.35 -1.87592 -3.43972 0
M  V30 15211 H 1421.05 -2.24857 -3.32024 0
M  V30 15212 H 1417.64 -3.45177 -2.54069 0
M  V30 15213 H 1421.82 -4.40097 -2.29408 0
M  V30 15214 H 1417.08 -5.78109 -1.98996 0
M  V30 15215 H 1421.25 -6.73966 -1.75337 0
M  V30 15216 H 1418.88 -7.43258 -1.59598 0
M  V30 15217 N 1420.45 0.960609 -1.2494 0
M  V30 15218 C 1421.36 2.0902 -1.06527 0
M  V30 15219 C 1422.38 1.74 -0.00406641 0
M  V30 15220 O 1423.56 2.00367 -0.203744 0
M  V30 15221 C 1420.62 3.39971 -0.679736 0
M  V30 15222 C 1419.68 3.88895 -1.81821 0
M  V30 15223 C 1418.92 5.13597 -1.45098 0
M  V30 15224 O 1419.14 5.69362 -0.343954 0
M  V30 15225 O 1418.07 5.57083 -2.27909 0
M  V30 15226 H 1421.9 2.27453 -2.01243 0
M  V30 15227 H 1419.48 1.07429 -1.03824 0
M  V30 15228 H 1421.37 4.18696 -0.47658 0
M  V30 15229 H 1420.04 3.22822 0.238231 0
M  V30 15230 H 1418.95 3.11201 -2.07617 0
M  V30 15231 H 1420.28 4.10533 -2.7152 0
M  V30 15232 N 1421.93 1.0643 1.16234 0
M  V30 15233 C 1422.84 0.687446 2.24302 0
M  V30 15234 C 1423.86 -0.297132 1.71444 0
M  V30 15235 O 1425.03 -0.146101 2.00869 0
M  V30 15236 C 1422.1 0.0810973 3.46605 0
M  V30 15237 C 1421.16 1.11772 4.14494 0
M  V30 15238 C 1420.39 0.54021 5.30959 0
M  V30 15239 O 1420.62 -0.646619 5.66723 0
M  V30 15240 O 1419.55 1.28057 5.8812 0
M  V30 15241 H 1423.38 1.58842 2.58849 0
M  V30 15242 H 1420.96 0.836649 1.23776 0
M  V30 15243 H 1422.84 -0.25524 4.20626 0
M  V30 15244 H 1421.52 -0.793338 3.13828 0
M  V30 15245 H 1420.43 1.50626 3.42436 0
M  V30 15246 H 1421.76 1.96373 4.5133 0
M  V30 15247 N 1423.41 -1.329 0.847073 0
M  V30 15248 C 1424.64 -2.02244 0.459588 0
M  V30 15249 C 1425.06 -1.63279 -0.933897 0
M  V30 15250 O 1424.42 -0.829551 -1.61208 0
M  V30 15251 C 1424.47 -3.55616 0.59745 0
M  V30 15252 O 1423.57 -4.1071 -0.372919 0
M  V30 15253 H 1422.91 -0.637504 0.1857 0
M  V30 15254 H 1425.44 -1.69617 1.14417 0
M  V30 15255 H 1425.45 -4.05141 0.482145 0
M  V30 15256 H 1424.13 -3.8332 1.61365 0
M  V30 15257 H 1422.7 -3.72283 -0.214487 0
M  V30 15258 N 1424.89 -0.604284 -1.45555 0
M  V30 15259 C 1425.84 0.129013 -2.32242 0
M  V30 15260 C 1426.83 0.862933 -1.45773 0
M  V30 15261 O 1428.04 0.778874 -1.62276 0
M  V30 15262 H 1424.41 0.0604661 -0.749565 0
M  V30 15263 H 1426.38 -0.620603 -2.91875 0
M  V30 15264 C 1425.13 1.11516 -3.29332 0
M  V30 15265 H 1424.45 0.559849 -3.95861 0
M  V30 15266 H 1425.89 1.59824 -3.92724 0
M  V30 15267 C 1424.35 2.18706 -2.5626 0
M  V30 15268 O 1424.88 3.26397 -2.34154 0
M  V30 15269 N 1423.09 1.93899 -2.16452 0
M  V30 15270 H 1422.64 1.0633 -2.34631 0
M  V30 15271 H 1422.59 2.65824 -1.67884 0
M  V30 15272 N 1426.37 1.53816 -0.343257 0
M  V30 15273 C 1427.78 1.59598 0.00867849 0
M  V30 15274 C 1427.98 1.35922 1.48753 0
M  V30 15275 O 1427.04 1.15334 2.2462 0
M  V30 15276 C 1428.35 2.97649 -0.427234 0
M  V30 15277 C 1429.9 3.1069 -0.379554 0
M  V30 15278 C 1430.37 4.51119 -0.79093 0
M  V30 15279 N 1431.87 4.57168 -0.745105 0
M  V30 15280 C 1432.6 5.63975 -1.03537 0
M  V30 15281 N 1432.1 6.78635 -1.39377 0
M  V30 15282 N 1433.89 5.53848 -0.959628 0
M  V30 15283 H 1426.04 1.6746 -1.30656 0
M  V30 15284 H 1428.3 0.784254 -0.532588 0
M  V30 15285 H 1428.01 3.2004 -1.45834 0
M  V30 15286 H 1427.88 3.76682 0.197704 0
M  V30 15287 H 1430.27 2.88024 0.642376 0
M  V30 15288 H 1430.35 2.33718 -1.03969 0
M  V30 15289 H 1430 4.74521 -1.81087 0
M  V30 15290 H 1429.93 5.26489 -0.108274 0
M  V30 15291 H 1432.42 3.7483 -0.480752 0
M  V30 15292 H 1432.73 7.56053 -1.60011 0
M  V30 15293 H 1431.07 6.80083 -1.43222 0
M  V30 15294 H 1434.27 4.6315 -0.678974 0
M  V30 15295 H 1434.44 6.36995 -1.18919 0
M  V30 15296 N 1427.84 0.0718701 1.57436 0
M  V30 15297 C 1428.78 -0.931304 2.08331 0
M  V30 15298 C 1429.76 -1.29106 0.988448 0
M  V30 15299 O 1430.94 -1.40035 1.26184 0
M  V30 15300 C 1428.07 -2.23939 2.54104 0
M  V30 15301 C 1427.11 -2.03119 3.75026 0
M  V30 15302 S 1427.95 -1.29048 5.19718 0
M  V30 15303 C 1429.1 -2.61136 5.68822 0
M  V30 15304 H 1429.33 -0.498236 2.93095 0
M  V30 15305 H 1426.87 -0.140897 1.53756 0
M  V30 15306 H 1428.83 -2.9912 2.81136 0
M  V30 15307 H 1427.49 -2.64371 1.69608 0
M  V30 15308 H 1426.68 -2.99927 4.05043 0
M  V30 15309 H 1426.28 -1.36074 3.48367 0
M  V30 15310 H 1428.57 -3.57224 5.75671 0
M  V30 15311 H 1429.52 -2.35729 6.67711 0
M  V30 15312 H 1429.92 -2.68345 4.9664 0
M  V30 15313 N 1429.32 -1.56304 -0.201686 0
M  V30 15314 C 1430.27 -1.90422 -1.25393 0
M  V30 15315 C 1431.26 -0.769236 -1.41321 0
M  V30 15316 O 1432.45 -1.03199 -1.43802 0
M  V30 15317 C 1429.58 -2.24157 -2.60016 0
M  V30 15318 C 1428.66 -3.44097 -2.47908 0
M  V30 15319 N 1429.05 -4.62185 -2.05471 0
M  V30 15320 C 1427.35 -3.48105 -2.78817 0
M  V30 15321 C 1428.05 -5.44345 -2.05095 0
M  V30 15322 N 1427.03 -4.84576 -2.46346 0
M  V30 15323 H 1430.83 -2.79227 -0.917045 0
M  V30 15324 H 1428.35 -1.57135 -0.410157 0
M  V30 15325 H 1430.34 -2.46782 -3.36012 0
M  V30 15326 H 1429 -1.36676 -2.94533 0
M  V30 15327 H 1430.01 -4.86974 -1.76285 0
M  V30 15328 H 1426.69 -2.71022 -3.17574 0
M  V30 15329 H 1428.08 -6.48914 -1.74242 0
M  V30 15330 N 1430.8 0.469154 -1.50455 0
M  V30 15331 C 1431.76 1.5493 -1.68906 0
M  V30 15332 C 1432.76 1.50744 -0.559721 0
M  V30 15333 O 1433.95 1.5333 -0.826781 0
M  V30 15334 C 1431.09 2.94556 -1.71609 0
M  V30 15335 H 1432.28 1.39887 -2.65276 0
M  V30 15336 H 1429.83 0.695667 -1.39965 0
M  V30 15337 H 1430.57 3.15041 -0.769382 0
M  V30 15338 H 1430.35 2.99002 -2.53654 0
M  V30 15339 H 1431.84 3.72973 -1.87831 0
M  V30 15340 N 1432.28 1.40065 0.722464 0
M  V30 15341 C 1433.53 1.37277 1.47776 0
M  V30 15342 C 1433.84 -0.0242852 1.95585 0
M  V30 15343 O 1435.05 -0.174769 2.70937 0
M  V30 15344 C 1433.5 2.41233 2.67085 0
M  V30 15345 C 1433.11 3.86716 2.26174 0
M  V30 15346 C 1434.85 2.47541 3.44853 0
M  V30 15347 C 1432.76 4.82284 3.42281 0
M  V30 15348 H 1431.69 0.510405 0.55498 0
M  V30 15349 H 1434.34 1.6577 0.786928 0
M  V30 15350 H 1432.72 2.0583 3.38305 0
M  V30 15351 H 1433.9 4.31227 1.6242 0
M  V30 15352 H 1432.21 3.83819 1.61468 0
M  V30 15353 H 1434.81 3.16131 4.31237 0
M  V30 15354 H 1435.15 1.50379 3.8819 0
M  V30 15355 H 1435.69 2.81901 2.80672 0
M  V30 15356 H 1432.43 5.80754 3.03982 0
M  V30 15357 H 1431.95 4.42443 4.04975 0
M  V30 15358 H 1433.62 5.0178 4.08443 0
M  V30 15359 N 1433.76 -0.95397 1.25448 0
M  V30 15360 C 1434.71 -2.07206 1.05681 0
M  V30 15361 C 1435.7 -1.69395 -0.0124672 0
M  V30 15362 O 1436.91 -1.79429 0.143201 0
M  V30 15363 H 1433.28 -0.678231 0.324817 0
M  V30 15364 H 1435.25 -2.21034 2.00466 0
M  V30 15365 C 1434 -3.40725 0.692955 0
M  V30 15366 H 1433.32 -3.70287 1.50756 0
M  V30 15367 H 1434.76 -4.19814 0.594351 0
M  V30 15368 C 1433.22 -3.31495 -0.601028 0
M  V30 15369 O 1433.75 -3.66565 -1.64296 0
M  V30 15370 N 1431.96 -2.84612 -0.586899 0
M  V30 15371 H 1431.51 -2.56271 0.261375 0
M  V30 15372 H 1431.46 -2.78819 -1.45284 0
M  V30 15373 N 1435.24 -1.07045 -1.15668 0
M  V30 15374 C 1436.48 -0.790172 -1.86013 0
M  V30 15375 C 1436.8 0.685663 -1.82548 0
M  V30 15376 O 1436.07 1.49644 -1.26426 0
M  V30 15377 H 1434.65 -0.28931 -0.688701 0
M  V30 15378 H 1437.32 -1.35354 -1.40233 0
M  V30 15379 H 1436.41 -1.1219 -2.91239 0
M  V30 15380 N 1436.71 1.32449 -0.85411 0
M  V30 15381 C 1437.66 2.2889 -0.296341 0
M  V30 15382 C 1438.63 1.55024 0.596378 0
M  V30 15383 O 1439.82 1.8325 0.531406 0
M  V30 15384 C 1436.96 3.41315 0.509729 0
M  V30 15385 C 1436.07 4.30062 -0.40872 0
M  V30 15386 C 1435.2 5.29616 0.409928 0
M  V30 15387 C 1434.24 6.10005 -0.505953 0
M  V30 15388 N 1433.38 7.01559 0.275483 0
M  V30 15389 H 1438.22 2.75989 -1.12401 0
M  V30 15390 H 1435.76 1.35787 -0.565717 0
M  V30 15391 H 1437.71 4.05218 0.992697 0
M  V30 15392 H 1436.34 2.95367 1.30223 0
M  V30 15393 H 1435.4 3.66745 -1.01007 0
M  V30 15394 H 1436.71 4.86255 -1.11165 0
M  V30 15395 H 1435.86 5.99119 0.956083 0
M  V30 15396 H 1434.6 4.74039 1.14623 0
M  V30 15397 H 1433.61 5.39406 -1.064 0
M  V30 15398 H 1434.83 6.67667 -1.24086 0
M  V30 15399 H 1432.78 6.48412 0.994887 0
M  V30 15400 H 1432.69 7.55102 -0.368426 0
M  V30 15401 H 1433.96 7.75349 0.803382 0
M  V30 15402 N 1438.19 0.611994 1.45232 0
M  V30 15403 C 1439.44 0.106467 2.01419 0
M  V30 15404 C 1439.75 -1.2723 1.48566 0
M  V30 15405 O 1440.96 -1.8708 1.96757 0
M  V30 15406 C 1439.42 0.139639 3.59629 0
M  V30 15407 C 1439.02 1.51853 4.21479 0
M  V30 15408 C 1440.77 -0.310417 4.23364 0
M  V30 15409 C 1438.67 1.50785 5.71855 0
M  V30 15410 H 1437.6 0.0360345 0.753138 0
M  V30 15411 H 1440.26 0.767974 1.66657 0
M  V30 15412 H 1438.64 -0.588606 3.91601 0
M  V30 15413 H 1439.81 2.26884 4.01074 0
M  V30 15414 H 1438.13 1.91105 3.69956 0
M  V30 15415 H 1440.72 -0.337656 5.33633 0
M  V30 15416 H 1441.07 -1.33398 3.94348 0
M  V30 15417 H 1441.6 0.364704 3.96125 0
M  V30 15418 H 1438.34 2.50916 6.05575 0
M  V30 15419 H 1437.86 0.800195 5.94438 0
M  V30 15420 H 1439.54 1.23341 6.35135 0
M  V30 15421 N 1439.67 -1.53632 0.351409 0
M  V30 15422 C 1440.92 -2.0104 -0.242687 0
M  V30 15423 C 1441.24 -1.23906 -1.49925 0
M  V30 15424 O 1440.5 -0.316927 -1.93117 0
M  V30 15425 C 1440.8 -3.5242 -0.594561 0
M  V30 15426 C 1440.46 -4.47333 0.566031 0
M  V30 15427 C 1439.13 -4.73001 0.884515 0
M  V30 15428 C 1441.48 -5.03566 1.34426 0
M  V30 15429 C 1438.81 -5.52156 1.98346 0
M  V30 15430 C 1441.16 -5.8392 2.43351 0
M  V30 15431 C 1439.82 -6.0788 2.7575 0
M  V30 15432 H 1439.09 -0.735659 -0.0888056 0
M  V30 15433 H 1441.74 -1.85362 0.480948 0
M  V30 15434 H 1440.04 -3.65971 -1.39902 0
M  V30 15435 H 1441.74 -3.86565 -1.06625 0
M  V30 15436 H 1438.33 -4.27494 0.307751 0
M  V30 15437 H 1442.52 -4.83694 1.11146 0
M  V30 15438 H 1437.77 -5.68942 2.23863 0
M  V30 15439 H 1441.95 -6.26505 3.04079 0
M  V30 15440 H 1439.57 -6.69001 3.61029 0
M  V30 15441 N 1441.15 -0.0802183 -1.57396 0
M  V30 15442 C 1442.4 0.585802 -1.93424 0
M  V30 15443 C 1442.72 1.69638 -0.961662 0
M  V30 15444 O 1441.99 1.95897 -0.011202 0
M  V30 15445 H 1440.57 0.219382 -0.714059 0
M  V30 15446 H 1443.23 -0.140055 -1.94396 0
M  V30 15447 H 1442.32 1.00566 -2.95454 0
M  V30 15448 N 1442.63 1.56409 0.193394 0
M  V30 15449 C 1443.57 1.95572 1.25914 0
M  V30 15450 C 1444.57 0.841384 1.47028 0
M  V30 15451 O 1445.77 1.0264 1.47868 0
M  V30 15452 H 1442.15 0.621914 0.422761 0
M  V30 15453 H 1444.12 2.84446 0.901827 0
M  V30 15454 C 1442.87 2.31293 2.59613 0
M  V30 15455 H 1442.19 3.16568 2.44182 0
M  V30 15456 H 1443.63 2.62558 3.32926 0
M  V30 15457 C 1442.09 1.14818 3.16731 0
M  V30 15458 O 1442.62 0.424105 3.99455 0
M  V30 15459 N 1440.83 0.924536 2.75501 0
M  V30 15460 H 1440.37 1.51509 2.08334 0
M  V30 15461 H 1440.33 0.147006 3.14056 0
M  V30 15462 N 1444.1 -0.461169 1.50702 0
M  V30 15463 C 1445.03 -1.56576 1.73223 0
M  V30 15464 C 1446.01 -1.59855 0.581401 0
M  V30 15465 O 1447.2 -1.75964 0.821602 0
M  V30 15466 C 1444.33 -2.94835 1.83548 0
M  V30 15467 C 1443.28 -3.06421 2.98815 0
M  V30 15468 C 1442.61 -4.46425 2.94293 0
M  V30 15469 C 1443.91 -2.82714 4.3917 0
M  V30 15470 H 1445.6 -1.37982 2.65709 0
M  V30 15471 H 1443.15 -0.662362 1.27862 0
M  V30 15472 H 1445.1 -3.72047 1.97887 0
M  V30 15473 H 1443.83 -3.14608 0.876906 0
M  V30 15474 H 1442.49 -2.31644 2.84142 0
M  V30 15475 H 1442.13 -4.63131 1.96262 0
M  V30 15476 H 1441.83 -4.55111 3.71682 0
M  V30 15477 H 1443.36 -5.25644 3.10695 0
M  V30 15478 H 1444.77 -3.4967 4.54317 0
M  V30 15479 H 1443.17 -3.02835 5.18084 0
M  V30 15480 H 1444.24 -1.78492 4.50853 0
M  V30 15481 N 1445.58 -1.40446 -0.715026 0
M  V30 15482 C 1446.53 -1.37235 -1.82073 0
M  V30 15483 C 1447.52 -0.249808 -1.58949 0
M  V30 15484 O 1448.71 -0.488958 -1.70112 0
M  V30 15485 C 1445.84 -1.23786 -3.20206 0
M  V30 15486 C 1444.92 -2.40824 -3.49091 0
M  V30 15487 N 1445.31 -3.66305 -3.4879 0
M  V30 15488 C 1443.61 -2.34215 -3.79551 0
M  V30 15489 C 1444.31 -4.43817 -3.76034 0
M  V30 15490 N 1443.29 -3.73664 -3.94811 0
M  V30 15491 H 1447.09 -2.32195 -1.80174 0
M  V30 15492 H 1444.6 -1.34226 -0.914175 0
M  V30 15493 H 1446.6 -1.19568 -3.99386 0
M  V30 15494 H 1445.26 -0.297938 -3.2333 0
M  V30 15495 H 1446.27 -3.99458 -3.29626 0
M  V30 15496 H 1442.95 -1.48592 -3.90162 0
M  V30 15497 H 1444.34 -5.52674 -3.82101 0
M  V30 15498 N 1447.06 0.947303 -1.25952 0
M  V30 15499 C 1448.31 1.68945 -1.10915 0
M  V30 15500 C 1448.63 1.91848 0.349216 0
M  V30 15501 O 1447.9 1.5108 1.24706 0
M  V30 15502 H 1446.48 0.626086 -0.407462 0
M  V30 15503 H 1449.14 1.13854 -1.58187 0
M  V30 15504 H 1448.24 2.6657 -1.62317 0
M  V30 15505 N 1448.54 1.07657 1.15099 0
M  V30 15506 C 1449.47 0.721201 2.22083 0
M  V30 15507 C 1450.45 -0.292808 1.67561 0
M  V30 15508 O 1451.63 -0.164872 1.93499 0
M  V30 15509 C 1448.76 0.12153 3.47087 0
M  V30 15510 C 1447.72 1.06303 4.14588 0
M  V30 15511 C 1447.04 0.325964 5.33706 0
M  V30 15512 C 1448.34 2.39796 4.63999 0
M  V30 15513 H 1450.04 1.61566 2.52065 0
M  V30 15514 H 1447.58 0.778282 1.21156 0
M  V30 15515 H 1449.54 -0.139037 4.21171 0
M  V30 15516 H 1448.26 -0.808022 3.16447 0
M  V30 15517 H 1446.92 1.30858 3.4245 0
M  V30 15518 H 1446.57 -0.607147 4.99322 0
M  V30 15519 H 1446.27 0.953552 5.79811 0
M  V30 15520 H 1447.79 0.0732695 6.10556 0
M  V30 15521 H 1449.21 2.19552 5.29594 0
M  V30 15522 H 1447.6 2.98178 5.20778 0
M  V30 15523 H 1448.67 3.01876 3.79472 0
M  V30 15524 N 1450.02 -1.31994 0.861122 0
M  V30 15525 C 1451.27 -1.96294 0.463868 0
M  V30 15526 C 1451.58 -1.68869 -0.98704 0
M  V30 15527 O 1452.78 -2.26959 -1.49003 0
M  V30 15528 C 1451.24 -3.51377 0.77858 0
M  V30 15529 C 1450.85 -3.87653 2.24565 0
M  V30 15530 C 1452.59 -4.22115 0.449365 0
M  V30 15531 C 1450.5 -5.35809 2.50324 0
M  V30 15532 H 1449.43 -0.734647 0.169733 0
M  V30 15533 H 1452.08 -1.50294 1.0528 0
M  V30 15534 H 1450.46 -3.95821 0.119005 0
M  V30 15535 H 1451.64 -3.54197 2.94755 0
M  V30 15536 H 1449.95 -3.29957 2.54003 0
M  V30 15537 H 1452.55 -5.31103 0.61916 0
M  V30 15538 H 1452.89 -4.11814 -0.609528 0
M  V30 15539 H 1453.42 -3.83276 1.06511 0
M  V30 15540 H 1450.16 -5.51138 3.54863 0
M  V30 15541 H 1449.68 -5.70648 1.84719 0
M  V30 15542 H 1451.36 -6.02968 2.34602 0
M  V30 15543 N 1451.49 -0.619688 -1.44906 0
M  V30 15544 C 1452.43 0.141137 -2.27763 0
M  V30 15545 C 1453.41 0.862176 -1.3786 0
M  V30 15546 O 1454.59 0.868593 -1.67295 0
M  V30 15547 C 1451.72 1.20547 -3.16522 0
M  V30 15548 C 1450.76 0.586228 -4.22452 0
M  V30 15549 S 1451.6 -0.615067 -5.31956 0
M  V30 15550 C 1452.75 0.449556 -6.24283 0
M  V30 15551 H 1452.98 -0.561806 -2.91944 0
M  V30 15552 H 1450.52 -0.407535 -1.48925 0
M  V30 15553 H 1452.48 1.81463 -3.68214 0
M  V30 15554 H 1451.14 1.88054 -2.51584 0
M  V30 15555 H 1450.33 1.38744 -4.84527 0
M  V30 15556 H 1449.93 0.0519375 -3.73964 0
M  V30 15557 H 1452.22 1.32531 -6.64411 0
M  V30 15558 H 1453.17 -0.135328 -7.07971 0
M  V30 15559 H 1453.57 0.770319 -5.59219 0
M  V30 15560 N 1452.97 1.53444 -0.359552 0
M  V30 15561 C 1453.92 2.27053 0.504949 0
M  V30 15562 C 1454.91 1.29801 1.08849 0
M  V30 15563 O 1456.12 1.47451 1.03239 0
M  V30 15564 H 1452.5 0.729756 0.181549 0
M  V30 15565 H 1454.47 2.98082 -0.137719 0
M  V30 15566 C 1453.22 3.06815 1.63585 0
M  V30 15567 H 1452.54 3.81488 1.19611 0
M  V30 15568 H 1453.98 3.61508 2.21558 0
M  V30 15569 C 1452.44 2.17286 2.57466 0
M  V30 15570 O 1452.97 1.77961 3.60129 0
M  V30 15571 N 1451.17 1.82041 2.26516 0
M  V30 15572 H 1450.72 2.14218 1.43068 0
M  V30 15573 H 1450.68 1.22423 2.89586 0
M  V30 15574 N 1454.45 0.0885642 1.57351 0
M  V30 15575 C 1455.36 -0.887092 2.17182 0
M  V30 15576 C 1456.38 -1.31498 1.13949 0
M  V30 15577 O 1457.55 -1.38424 1.4629 0
M  V30 15578 C 1454.62 -2.13053 2.73513 0
M  V30 15579 C 1453.68 -1.75747 3.91678 0
M  V30 15580 C 1452.91 -2.94163 4.45313 0
M  V30 15581 O 1453.13 -4.08693 3.97903 0
M  V30 15582 O 1452.07 -2.73008 5.36424 0
M  V30 15583 H 1455.89 -0.408073 3.00946 0
M  V30 15584 H 1453.48 -0.135431 1.48785 0
M  V30 15585 H 1455.36 -2.85937 3.09545 0
M  V30 15586 H 1454.04 -2.6002 1.92798 0
M  V30 15587 H 1452.94 -1.00064 3.60469 0
M  V30 15588 H 1454.28 -1.33549 4.73736 0
M  V30 15589 N 1455.93 -1.56509 -0.185096 0
M  V30 15590 C 1457.21 -1.72055 -0.930398 0
M  V30 15591 C 1457.59 -0.646145 -2.00968 0
M  V30 15592 O 1456.93 0.34129 -2.25937 0
M  V30 15593 C 1457.14 -3.14752 -1.50771 0
M  V30 15594 C 1458.49 -3.75292 -1.98597 0
M  V30 15595 O 1459.52 -3.17944 -1.60593 0
M  V30 15596 O 1458.37 -4.7596 -2.68561 0
M  V30 15597 H 1455.47 -0.702118 -0.436989 0
M  V30 15598 H 1458.01 -1.68806 -0.174007 0
M  V30 15599 H 1456.79 -3.84426 -0.730236 0
M  V30 15600 H 1456.41 -3.22272 -2.32866 0
M  V30 15601 N 1457.41 0.45317 -1.50944 0
M  V30 15602 C 1458.63 1.22672 -1.66611 0
M  V30 15603 C 1459.05 1.85398 -0.356814 0
M  V30 15604 O 1458.41 1.70026 0.663122 0
M  V30 15605 C 1458.46 2.32238 -2.77034 0
M  V30 15606 O 1458.18 1.72081 -4.02889 0
M  V30 15607 C 1459.68 3.22802 -3.03832 0
M  V30 15608 H 1456.9 0.370337 -0.559546 0
M  V30 15609 H 1459.44 0.538884 -1.97272 0
M  V30 15610 H 1457.6 2.96765 -2.49017 0
M  V30 15611 H 1458.01 2.4437 -4.64095 0
M  V30 15612 H 1459.49 3.95851 -3.84716 0
M  V30 15613 H 1459.96 3.82636 -2.15608 0
M  V30 15614 H 1460.57 2.63993 -3.33449 0
M  V30 15615 N 1458.88 1.40823 0.707568 0
M  V30 15616 C 1459.82 1.36132 1.83149 0
M  V30 15617 C 1460.8 0.230423 1.60959 0
M  V30 15618 O 1461.98 0.415391 1.83866 0
M  V30 15619 C 1459.11 1.12055 3.19627 0
M  V30 15620 C 1458.15 2.27703 3.6063 0
M  V30 15621 S 1458.99 3.90134 3.66818 0
M  V30 15622 C 1460.14 3.68336 5.06043 0
M  V30 15623 H 1460.37 2.31246 1.86849 0
M  V30 15624 H 1457.91 1.27204 0.875126 0
M  V30 15625 H 1459.87 0.988486 3.98421 0
M  V30 15626 H 1458.53 0.185809 3.1355 0
M  V30 15627 H 1457.72 2.06519 4.59746 0
M  V30 15628 H 1457.32 2.37254 2.89114 0
M  V30 15629 H 1459.61 3.27299 5.93196 0
M  V30 15630 H 1460.56 4.67012 5.32265 0
M  V30 15631 H 1460.96 3.01856 4.77015 0
M  V30 15632 N 1460.36 -0.94061 1.26453 0
M  V30 15633 C 1461.59 -1.72123 1.1481 0
M  V30 15634 C 1462.01 -1.86456 -0.296604 0
M  V30 15635 O 1461.36 -1.37234 -1.20304 0
M  V30 15636 C 1461.41 -3.1277 1.81266 0
M  V30 15637 O 1461.13 -2.99122 3.2009 0
M  V30 15638 C 1462.64 -4.07045 1.75584 0
M  V30 15639 H 1459.86 -0.538908 0.399774 0
M  V30 15640 H 1462.4 -1.17913 1.67083 0
M  V30 15641 H 1460.55 -3.6388 1.32928 0
M  V30 15642 H 1460.97 -3.87946 3.52984 0
M  V30 15643 H 1462.44 -5.03292 2.26719 0
M  V30 15644 H 1462.92 -4.33217 0.722466 0
M  V30 15645 H 1463.53 -3.61855 2.23475 0
M  V30 15646 N 1461.84 -1.08266 -1.14527 0
M  V30 15647 C 1462.79 -0.705807 -2.21633 0
M  V30 15648 C 1463.78 0.287758 -1.66938 0
M  V30 15649 O 1464.99 0.150479 -1.7937 0
M  V30 15650 H 1461.36 -0.210206 -0.722023 0
M  V30 15651 H 1463.33 -1.61855 -2.5069 0
M  V30 15652 C 1462.08 -0.129673 -3.47458 0
M  V30 15653 H 1461.41 -0.885365 -3.89873 0
M  V30 15654 H 1462.85 0.0962264 -4.23891 0
M  V30 15655 C 1461.31 1.13208 -3.1731 0
M  V30 15656 O 1461.84 2.21717 -3.34969 0
M  V30 15657 N 1460.04 1.0419 -2.7128 0
M  V30 15658 H 1459.59 0.15883 -2.5711 0
M  V30 15659 H 1459.55 1.88689 -2.51483 0
M  V30 15660 N 1463.32 1.31536 -0.86811 0
M  V30 15661 C 1464.57 1.97456 -0.488147 0
M  V30 15662 C 1464.92 1.67384 0.948709 0
M  V30 15663 O 1464.21 0.958924 1.65877 0
M  V30 15664 C 1464.41 3.50876 -0.679752 0
M  V30 15665 C 1464.24 3.95859 -2.13368 0
M  V30 15666 C 1463.01 4.22288 -2.77491 0
M  V30 15667 C 1465.2 4.09936 -3.10575 0
M  V30 15668 N 1463.19 4.53611 -4.13655 0
M  V30 15669 C 1464.56 4.44949 -4.31764 0
M  V30 15670 C 1466.61 3.92309 -3.06591 0
M  V30 15671 C 1465.32 4.64176 -5.49485 0
M  V30 15672 C 1467.34 4.12728 -4.23568 0
M  V30 15673 C 1466.7 4.48071 -5.43518 0
M  V30 15674 H 1462.8 0.748137 -0.227628 0
M  V30 15675 H 1465.39 1.59098 -1.12232 0
M  V30 15676 H 1463.56 3.88327 -0.0751875 0
M  V30 15677 H 1465.29 4.03809 -0.26836 0
M  V30 15678 H 1462.04 4.14858 -2.28451 0
M  V30 15679 H 1462.47 4.73435 -4.8393 0
M  V30 15680 H 1467.11 3.64075 -2.14964 0
M  V30 15681 H 1464.83 4.91259 -6.41631 0
M  V30 15682 H 1468.41 4.00577 -4.21935 0
M  V30 15683 H 1467.29 4.6355 -6.32527 0
M  V30 15684 N 1464.8 0.627364 1.44575 0
M  V30 15685 C 1466.03 0.137114 2.06145 0
M  V30 15686 C 1466.44 -1.19201 1.46928 0
M  V30 15687 O 1465.78 -1.7413 0.585199 0
M  V30 15688 C 1465.84 -0.0560229 3.59456 0
M  V30 15689 C 1465.5 1.19435 4.41117 0
M  V30 15690 C 1466.5 2.11717 4.74839 0
M  V30 15691 C 1464.19 1.42871 4.81553 0
M  V30 15692 C 1466.18 3.25749 5.47875 0
M  V30 15693 C 1463.87 2.572 5.54339 0
M  V30 15694 C 1464.87 3.48466 5.87419 0
M  V30 15695 O 1464.55 4.60802 6.58723 0
M  V30 15696 H 1464.29 0.0751614 0.671809 0
M  V30 15697 H 1466.84 0.86076 1.86494 0
M  V30 15698 H 1465.07 -0.834775 3.77582 0
M  V30 15699 H 1466.76 -0.500352 4.02804 0
M  V30 15700 H 1467.52 1.94844 4.44141 0
M  V30 15701 H 1463.4 0.727246 4.55228 0
M  V30 15702 H 1466.95 3.97007 5.73612 0
M  V30 15703 H 1462.84 2.74018 5.84452 0
M  V30 15704 H 1463.61 4.59736 6.77189 0
M  V30 15705 N 1466.28 -1.53251 0.367684 0
M  V30 15706 C 1467.21 -2.28728 -0.469676 0
M  V30 15707 C 1468.19 -1.3124 -1.08213 0
M  V30 15708 O 1469.37 -1.60112 -1.09898 0
M  V30 15709 C 1466.5 -3.07808 -1.60846 0
M  V30 15710 C 1465.46 -4.13 -1.12315 0
M  V30 15711 C 1464.78 -4.80176 -2.35234 0
M  V30 15712 C 1466.08 -5.21892 -0.2064 0
M  V30 15713 H 1467.78 -2.98972 0.160019 0
M  V30 15714 H 1465.32 -1.43786 0.0784011 0
M  V30 15715 H 1467.27 -3.59358 -2.20091 0
M  V30 15716 H 1466 -2.35258 -2.26542 0
M  V30 15717 H 1464.66 -3.62399 -0.553378 0
M  V30 15718 H 1464.31 -4.04196 -2.99391 0
M  V30 15719 H 1464.01 -5.51261 -2.03433 0
M  V30 15720 H 1465.53 -5.34521 -2.9516 0
M  V30 15721 H 1466.94 -5.68932 -0.706386 0
M  V30 15722 H 1465.34 -6.00096 0.0208362 0
M  V30 15723 H 1466.41 -4.79051 0.750851 0
M  V30 15724 N 1467.75 -0.0969077 -1.57302 0
M  V30 15725 C 1468.68 0.858443 -2.17147 0
M  V30 15726 C 1469.66 1.29294 -1.10531 0
M  V30 15727 O 1470.85 1.3595 -1.38676 0
M  V30 15728 C 1467.98 2.11691 -2.75326 0
M  V30 15729 C 1466.93 1.82097 -3.8733 0
M  V30 15730 C 1466.26 3.14787 -4.32219 0
M  V30 15731 C 1467.56 1.10651 -5.10444 0
M  V30 15732 H 1469.25 0.35982 -2.9723 0
M  V30 15733 H 1466.8 0.17163 -1.42974 0
M  V30 15734 H 1468.75 2.78963 -3.15844 0
M  V30 15735 H 1467.48 2.63839 -1.925 0
M  V30 15736 H 1466.14 1.17222 -3.47354 0
M  V30 15737 H 1465.78 3.64826 -3.46281 0
M  V30 15738 H 1465.48 2.95769 -5.07735 0
M  V30 15739 H 1467.01 3.83215 -4.75372 0
M  V30 15740 H 1468.42 1.68036 -5.48121 0
M  V30 15741 H 1466.82 1.01805 -5.91401 0
M  V30 15742 H 1467.89 0.0895634 -4.84817 0
M  V30 15743 N 1469.23 1.56605 0.176793 0
M  V30 15744 C 1470.48 1.81324 0.892535 0
M  V30 15745 C 1470.8 0.67301 1.83018 0
M  V30 15746 O 1470.07 -0.307498 1.93472 0
M  V30 15747 H 1468.65 0.668881 0.332576 0
M  V30 15748 H 1471.31 1.94086 0.17792 0
M  V30 15749 H 1470.41 2.75168 1.47272 0
M  V30 15750 N 1470.71 -0.445159 1.51182 0
M  V30 15751 C 1471.96 -1.19215 1.62698 0
M  V30 15752 C 1472.27 -1.92529 0.345249 0
M  V30 15753 O 1473.48 -2.69367 0.33967 0
M  V30 15754 C 1471.93 -2.16762 2.87302 0
M  V30 15755 C 1471.54 -1.49131 4.2245 0
M  V30 15756 C 1473.29 -2.91942 3.08172 0
M  V30 15757 C 1471.19 -2.45117 5.38212 0
M  V30 15758 H 1470.12 -0.448687 0.605967 0
M  V30 15759 H 1472.77 -0.459956 1.77642 0
M  V30 15760 H 1471.16 -2.93383 2.65975 0
M  V30 15761 H 1472.33 -0.781222 4.54129 0
M  V30 15762 H 1470.64 -0.861342 4.07394 0
M  V30 15763 H 1473.24 -3.6383 3.91832 0
M  V30 15764 H 1473.58 -3.52837 2.20934 0
M  V30 15765 H 1474.12 -2.22429 3.29803 0
M  V30 15766 H 1470.86 -1.88923 6.27685 0
M  V30 15767 H 1470.38 -3.14202 5.10918 0
M  V30 15768 H 1472.06 -3.06411 5.69843 0
M  V30 15769 N 1472.19 -1.41197 -0.700089 0
M  V30 15770 C 1473.44 -1.40034 -1.45722 0
M  V30 15771 C 1473.76 -0.00876281 -1.94998 0
M  V30 15772 O 1473.03 0.948647 -1.71399 0
M  V30 15773 H 1471.61 -0.515433 -0.540683 0
M  V30 15774 H 1474.27 -1.76394 -0.828926 0
M  V30 15775 H 1473.36 -2.08477 -2.32258 0
M  V30 15776 N 1473.67 0.933891 -1.2695 0
M  V30 15777 C 1474.89 1.72042 -1.15828 0
M  V30 15778 C 1475.32 1.85975 0.28193 0
M  V30 15779 O 1474.67 1.35528 1.20423 0
M  V30 15780 C 1474.72 3.10112 -1.84019 0
M  V30 15781 O 1473.83 3.96504 -1.13394 0
M  V30 15782 H 1473.17 0.527573 -0.40319 0
M  V30 15783 H 1475.7 1.16914 -1.67905 0
M  V30 15784 H 1475.71 3.60461 -1.91133 0
M  V30 15785 H 1474.38 2.99287 -2.8879 0
M  V30 15786 H 1472.96 3.54948 -1.14307 0
M  V30 15787 N 1475.14 1.08871 1.13951 0
M  V30 15788 C 1476.05 0.734869 2.22793 0
M  V30 15789 C 1477.07 -0.260699 1.72036 0
M  V30 15790 O 1478.25 -0.103461 2.01134 0
M  V30 15791 C 1475.31 0.154599 3.46355 0
M  V30 15792 C 1474.37 1.20539 4.1203 0
M  V30 15793 C 1473.6 0.652712 5.29694 0
M  V30 15794 O 1473.83 -0.526264 5.67967 0
M  V30 15795 O 1472.76 1.40503 5.85271 0
M  V30 15796 H 1476.59 1.64297 2.55422 0
M  V30 15797 H 1474.17 0.862716 1.21974 0
M  V30 15798 H 1476.05 -0.165962 4.21073 0
M  V30 15799 H 1474.73 -0.726592 3.1544 0
M  V30 15800 H 1473.64 1.57855 3.39164 0
M  V30 15801 H 1474.97 2.05902 4.47063 0
M  V30 15802 N 1476.62 -1.31073 0.875073 0
M  V30 15803 C 1477.87 -1.96809 0.489273 0
M  V30 15804 C 1478.2 -1.68979 -0.957073 0
M  V30 15805 O 1477.48 -0.989061 -1.67475 0
M  V30 15806 C 1477.76 -3.52139 0.752998 0
M  V30 15807 C 1477.61 -3.89524 2.24925 0
M  V30 15808 C 1478.93 -4.39535 0.222871 0
M  V30 15809 H 1476.05 -0.714873 0.179238 0
M  V30 15810 H 1478.69 -1.55114 1.09725 0
M  V30 15811 H 1476.84 -3.87785 0.23553 0
M  V30 15812 H 1478.51 -3.63953 2.83436 0
M  V30 15813 H 1476.76 -3.37948 2.71981 0
M  V30 15814 H 1477.43 -4.97845 2.38441 0
M  V30 15815 H 1479.9 -4.10741 0.665645 0
M  V30 15816 H 1478.78 -5.47159 0.436806 0
M  V30 15817 H 1479.04 -4.33346 -0.875445 0
M  V30 15818 N 1478.1 -0.635022 -1.4424 0
M  V30 15819 C 1479.38 -0.0718064 -1.95468 0
M  V30 15820 C 1479.76 1.40348 -1.57689 0
M  V30 15821 O 1479.11 2.11986 -0.852888 0
M  V30 15822 C 1479.32 -0.298793 -3.47719 0
M  V30 15823 C 1480.66 -0.194056 -4.24156 0
M  V30 15824 O 1481.69 -0.230368 -3.55454 0
M  V30 15825 O 1480.55 -0.102294 -5.46404 0
M  V30 15826 H 1477.64 0.0200784 -0.826756 0
M  V30 15827 H 1480.19 -0.706996 -1.54271 0
M  V30 15828 H 1478.96 -1.32233 -3.6828 0
M  V30 15829 H 1478.58 0.370347 -3.95871 0
M  V30 15830 N 1479.58 1.53054 -0.375806 0
M  V30 15831 C 1480.83 2.00584 0.211847 0
M  V30 15832 C 1481.14 1.26692 1.49025 0
M  V30 15833 O 1482.35 1.64863 2.15713 0
M  V30 15834 C 1480.8 3.57345 0.428074 0
M  V30 15835 C 1480.41 4.40125 -0.836299 0
M  V30 15836 C 1482.15 4.13203 0.972825 0
M  V30 15837 C 1480.06 5.88459 -0.589093 0
M  V30 15838 H 1478.99 0.749424 0.0829412 0
M  V30 15839 H 1481.64 1.76666 -0.496126 0
M  V30 15840 H 1480.02 3.77458 1.19756 0
M  V30 15841 H 1481.2 4.31782 -1.60936 0
M  V30 15842 H 1479.51 3.95422 -1.30501 0
M  V30 15843 H 1482.11 5.21669 1.17326 0
M  V30 15844 H 1482.45 3.68441 1.93797 0
M  V30 15845 H 1482.99 3.96928 0.263249 0
M  V30 15846 H 1479.73 6.37517 -1.52485 0
M  V30 15847 H 1479.25 5.99624 0.145285 0
M  V30 15848 H 1480.92 6.46631 -0.218485 0
M  V30 15849 N 1481.06 0.105248 1.57248 0
M  V30 15850 C 1482.01 -0.860855 2.11124 0
M  V30 15851 C 1482.99 -1.23721 1.02868 0
M  V30 15852 O 1484.18 -1.2106 1.29126 0
M  V30 15853 C 1481.31 -2.11612 2.70325 0
M  V30 15854 C 1480.4 -1.76474 3.85639 0
M  V30 15855 N 1480.79 -1.11944 4.93257 0
M  V30 15856 C 1479.09 -2.0602 3.95565 0
M  V30 15857 C 1479.79 -0.956421 5.73783 0
M  V30 15858 N 1478.76 -1.47701 5.23149 0
M  V30 15859 H 1482.57 -0.35816 2.91709 0
M  V30 15860 H 1480.08 -0.0976543 1.62106 0
M  V30 15861 H 1482.08 -2.81778 3.07257 0
M  V30 15862 H 1480.74 -2.62438 1.91198 0
M  V30 15863 H 1481.75 -0.785042 5.11916 0
M  V30 15864 H 1478.42 -2.58989 3.27461 0
M  V30 15865 H 1479.81 -0.450964 6.70385 0
M  V30 15866 N 1482.53 -1.56697 -0.168486 0
M  V30 15867 C 1483.76 -1.86292 -0.900152 0
M  V30 15868 C 1484.18 -0.690968 -1.75702 0
M  V30 15869 O 1483.53 0.339855 -1.79308 0
M  V30 15870 C 1483.59 -3.14946 -1.77457 0
M  V30 15871 O 1483.31 -4.27625 -0.952267 0
M  V30 15872 C 1484.81 -3.57908 -2.61566 0
M  V30 15873 H 1482.03 -0.618003 -0.261369 0
M  V30 15874 H 1484.57 -2.03811 -0.16773 0
M  V30 15875 H 1482.73 -2.99246 -2.4603 0
M  V30 15876 H 1483.14 -5.01057 -1.55056 0
M  V30 15877 H 1484.61 -4.50823 -3.18532 0
M  V30 15878 H 1485.09 -2.82162 -3.36573 0
M  V30 15879 H 1485.7 -3.7623 -1.98321 0
M  V30 15880 N 1484.01 0.437135 -1.51416 0
M  V30 15881 C 1485.26 1.1835 -1.63328 0
M  V30 15882 C 1485.57 1.92343 -0.355455 0
M  V30 15883 O 1486.78 2.69183 -0.353951 0
M  V30 15884 C 1485.24 2.15235 -2.88447 0
M  V30 15885 C 1484.84 1.46889 -4.23235 0
M  V30 15886 C 1486.59 2.90303 -3.09716 0
M  V30 15887 C 1484.5 2.42259 -5.39504 0
M  V30 15888 H 1483.43 0.445467 -0.608338 0
M  V30 15889 H 1486.08 0.450528 -1.77883 0
M  V30 15890 H 1484.46 2.91968 -2.67527 0
M  V30 15891 H 1485.63 0.757128 -4.54537 0
M  V30 15892 H 1483.95 0.839725 -4.07845 0
M  V30 15893 H 1486.54 3.61747 -3.93756 0
M  V30 15894 H 1486.89 3.5166 -2.22802 0
M  V30 15895 H 1487.42 2.20677 -3.30978 0
M  V30 15896 H 1484.16 1.85591 -6.28678 0
M  V30 15897 H 1483.68 3.11488 -5.12577 0
M  V30 15898 H 1485.36 3.03384 -5.7146 0
M  V30 15899 N 1485.49 1.41566 0.692592 0
M  V30 15900 C 1486.44 1.40114 1.79867 0
M  V30 15901 C 1487.42 0.275064 1.58531 0
M  V30 15902 O 1488.62 0.515959 1.69313 0
M  V30 15903 C 1485.75 1.28865 3.18196 0
M  V30 15904 C 1484.83 2.46347 3.45216 0
M  V30 15905 N 1485.22 3.71808 3.42918 0
M  V30 15906 C 1483.52 2.40224 3.75777 0
M  V30 15907 C 1484.22 4.49743 3.68926 0
M  V30 15908 N 1483.2 3.79898 3.88817 0
M  V30 15909 H 1487 2.35032 1.76457 0
M  V30 15910 H 1484.51 1.35663 0.892705 0
M  V30 15911 H 1486.51 1.25907 3.97433 0
M  V30 15912 H 1485.17 0.349339 3.22815 0
M  V30 15913 H 1486.18 4.04652 3.2323 0
M  V30 15914 H 1482.86 1.54781 3.87749 0
M  V30 15915 H 1484.25 5.58683 3.7326 0
M  V30 15916 N 1486.97 -0.927146 1.27443 0
M  V30 15917 C 1488.2 -1.70648 1.1646 0
M  V30 15918 C 1488.61 -1.871 -0.28114 0
M  V30 15919 O 1487.95 -1.38813 -1.20319 0
M  V30 15920 C 1488.01 -3.12542 1.77646 0
M  V30 15921 C 1487.68 -3.19425 3.26828 0
M  V30 15922 C 1488.67 -3.01633 4.23454 0
M  V30 15923 C 1486.36 -3.42366 3.67547 0
M  V30 15924 C 1488.35 -3.06672 5.58776 0
M  V30 15925 C 1486.04 -3.47039 5.02998 0
M  V30 15926 C 1487.04 -3.2921 5.98423 0
M  V30 15927 O 1486.72 -3.33619 7.31405 0
M  V30 15928 H 1486.46 -0.540657 0.40579 0
M  V30 15929 H 1489.01 -1.16983 1.68832 0
M  V30 15930 H 1487.24 -3.67691 1.19752 0
M  V30 15931 H 1488.93 -3.72445 1.61369 0
M  V30 15932 H 1489.7 -2.8375 3.93333 0
M  V30 15933 H 1485.57 -3.55294 2.93747 0
M  V30 15934 H 1489.12 -2.92674 6.33236 0
M  V30 15935 H 1485.02 -3.64446 5.32775 0
M  V30 15936 H 1485.78 -3.5007 7.3986 0
M  V30 15937 N 1488.45 -1.09474 -1.13372 0
M  V30 15938 C 1489.4 -0.704018 -2.16858 0
M  V30 15939 C 1490.38 0.281867 -1.58412 0
M  V30 15940 O 1491.57 0.0921582 -1.7676 0
M  V30 15941 C 1488.7 -0.126682 -3.43066 0
M  V30 15942 C 1487.79 -1.13901 -4.08518 0
M  V30 15943 N 1488.18 -2.3263 -4.49129 0
M  V30 15944 C 1486.48 -0.977263 -4.35162 0
M  V30 15945 C 1487.18 -2.9703 -5.00148 0
M  V30 15946 N 1486.15 -2.24588 -4.95037 0
M  V30 15947 H 1489.96 -1.60796 -2.46012 0
M  V30 15948 H 1487.47 -0.97103 -1.30172 0
M  V30 15949 H 1489.47 0.171257 -4.16548 0
M  V30 15950 H 1488.13 0.772105 -3.15386 0
M  V30 15951 H 1489.14 -2.70218 -4.41817 0
M  V30 15952 H 1485.81 -0.1332 -4.17287 0
M  V30 15953 H 1487.2 -3.97966 -5.41362 0
M  V30 15954 N 1489.92 1.30607 -0.882012 0
M  V30 15955 C 1490.89 2.26489 -0.351498 0
M  V30 15956 C 1491.89 1.52686 0.504348 0
M  V30 15957 O 1493.08 1.71385 0.311928 0
M  V30 15958 C 1490.21 3.37222 0.499435 0
M  V30 15959 H 1491.4 2.74929 -1.19809 0
M  V30 15960 H 1488.96 1.41746 -0.658616 0
M  V30 15961 H 1489.69 2.94093 1.36673 0
M  V30 15962 H 1489.48 3.91936 -0.11356 0
M  V30 15963 H 1490.97 4.08596 0.862497 0
M  V30 15964 N 1491.4 0.642663 1.43901 0
M  V30 15965 C 1492.31 -0.0562462 2.34533 0
M  V30 15966 C 1493.33 -0.823457 1.53281 0
M  V30 15967 O 1494.5 -0.773103 1.85971 0
M  V30 15968 C 1491.57 -1.01787 3.31422 0
M  V30 15969 C 1490.63 -0.248759 4.28579 0
M  V30 15970 C 1489.86 -1.16458 5.20839 0
M  V30 15971 O 1490.09 -2.40361 5.17284 0
M  V30 15972 O 1489.02 -0.642671 5.98459 0
M  V30 15973 H 1492.85 0.689476 2.9577 0
M  V30 15974 H 1490.43 0.402847 1.43866 0
M  V30 15975 H 1492.31 -1.5708 3.91029 0
M  V30 15976 H 1490.99 -1.744 2.72702 0
M  V30 15977 H 1489.9 0.347495 3.72483 0
M  V30 15978 H 1491.23 0.437589 4.90251 0
M  V30 15979 N 1492.88 -1.52852 0.383918 0
M  V30 15980 C 1494.11 -2.06406 -0.202764 0
M  V30 15981 C 1494.53 -1.25421 -1.40183 0
M  V30 15982 O 1493.89 -0.277876 -1.79158 0
M  V30 15983 C 1493.94 -3.56281 -0.556414 0
M  V30 15984 O 1493.04 -3.77904 -1.65113 0
M  V30 15985 H 1492.38 -0.663523 -0.0251737 0
M  V30 15986 H 1494.91 -1.97074 0.54983 0
M  V30 15987 H 1494.92 -3.99629 -0.822249 0
M  V30 15988 H 1493.6 -4.14665 0.320253 0
M  V30 15989 H 1492.17 -3.46448 -1.37943 0
M  V30 15990 N 1494.36 -0.113586 -1.5719 0
M  V30 15991 C 1495.61 0.54572 -1.95008 0
M  V30 15992 C 1495.93 1.67031 -0.996541 0
M  V30 15993 O 1495.19 1.9569 -0.0194353 0
M  V30 15994 C 1495.49 1.1238 -3.39272 0
M  V30 15995 C 1495.15 0.12112 -4.50737 0
M  V30 15996 C 1493.82 -0.154607 -4.80952 0
M  V30 15997 C 1496.17 -0.562502 -5.18156 0
M  V30 15998 C 1493.5 -1.12033 -5.75904 0
M  V30 15999 C 1495.85 -1.51682 -6.14146 0
M  V30 16000 C 1494.51 -1.80059 -6.42756 0
M  V30 16001 H 1493.78 0.199693 -0.713585 0
M  V30 16002 H 1496.43 -0.193344 -1.90521 0
M  V30 16003 H 1494.73 1.93951 -3.40426 0
M  V30 16004 H 1496.43 1.64195 -3.65843 0
M  V30 16005 H 1493.02 0.34621 -4.27199 0
M  V30 16006 H 1497.21 -0.362645 -4.94973 0
M  V30 16007 H 1492.46 -1.34699 -5.96377 0
M  V30 16008 H 1496.64 -2.05225 -6.65474 0
M  V30 16009 H 1494.26 -2.55046 -7.16139 0
M  V30 16010 N 1495.84 1.56784 0.160173 0
M  V30 16011 C 1496.77 2.00298 1.20012 0
M  V30 16012 C 1497.75 0.880356 1.45546 0
M  V30 16013 O 1498.93 1.14724 1.56691 0
M  V30 16014 C 1496.06 2.37238 2.53645 0
M  V30 16015 C 1495.02 3.52563 2.42658 0
M  V30 16016 C 1494.34 3.75278 3.80881 0
M  V30 16017 C 1495.64 4.85657 1.92183 0
M  V30 16018 H 1497.34 2.87423 0.838362 0
M  V30 16019 H 1494.88 1.3828 0.401838 0
M  V30 16020 H 1496.84 2.66278 3.2661 0
M  V30 16021 H 1495.56 1.47035 2.9163 0
M  V30 16022 H 1494.22 3.23669 1.72146 0
M  V30 16023 H 1493.87 2.82347 4.1628 0
M  V30 16024 H 1493.57 4.52882 3.74396 0
M  V30 16025 H 1495.09 4.0673 4.55415 0
M  V30 16026 H 1496.51 5.13501 2.54931 0
M  V30 16027 H 1494.9 5.66975 1.96619 0
M  V30 16028 H 1495.97 4.76908 0.876742 0
M  V30 16029 N 1497.32 -0.429099 1.51646 0
M  V30 16030 C 1498.56 -1.17784 1.64722 0
M  V30 16031 C 1498.89 -1.90998 0.367415 0
M  V30 16032 O 1498.15 -1.8463 -0.648862 0
M  V30 16033 C 1498.44 -2.2131 2.80636 0
M  V30 16034 C 1498.11 -1.65048 4.19607 0
M  V30 16035 C 1496.77 -1.49428 4.57411 0
M  V30 16036 C 1499.12 -1.23765 5.06292 0
M  V30 16037 C 1496.45 -0.910109 5.79598 0
M  V30 16038 C 1498.8 -0.667743 6.29066 0
M  V30 16039 C 1497.47 -0.498507 6.65636 0
M  V30 16040 H 1496.74 -0.431001 0.60276 0
M  V30 16041 H 1499.39 -0.46775 1.857 0
M  V30 16042 H 1497.69 -2.98388 2.53913 0
M  V30 16043 H 1499.39 -2.79079 2.87951 0
M  V30 16044 H 1495.98 -1.78185 3.89805 0
M  V30 16045 H 1500.16 -1.3465 4.77685 0
M  V30 16046 H 1495.42 -0.766825 6.06572 0
M  V30 16047 H 1499.59 -0.339377 6.95573 0
M  V30 16048 H 1497.22 -0.0437292 7.60187 0
M  V30 16049 N 1498.79 -1.41931 -0.685074 0
M  V30 16050 C 1499.74 -1.44604 -1.79884 0
M  V30 16051 C 1500.71 -0.299166 -1.63384 0
M  V30 16052 O 1501.9 -0.501749 -1.84085 0
M  V30 16053 C 1499.04 -1.3442 -3.17845 0
M  V30 16054 C 1498.15 -2.59061 -3.45704 0
M  V30 16055 C 1497.28 -2.41094 -4.73336 0
M  V30 16056 C 1496.32 -3.61159 -4.94197 0
M  V30 16057 N 1495.46 -3.42198 -6.13062 0
M  V30 16058 H 1500.3 -2.39788 -1.76934 0
M  V30 16059 H 1497.84 -1.1906 -0.863891 0
M  V30 16060 H 1499.79 -1.26515 -3.97555 0
M  V30 16061 H 1498.42 -0.42838 -3.19945 0
M  V30 16062 H 1497.48 -2.77374 -2.60322 0
M  V30 16063 H 1498.79 -3.48341 -3.57016 0
M  V30 16064 H 1497.94 -2.30717 -5.61119 0
M  V30 16065 H 1496.68 -1.49288 -4.64289 0
M  V30 16066 H 1495.69 -3.7198 -4.04859 0
M  V30 16067 H 1496.91 -4.53933 -5.05096 0
M  V30 16068 H 1494.86 -2.531 -6.05208 0
M  V30 16069 H 1494.77 -4.25059 -6.25189 0
M  V30 16070 H 1496.04 -3.35612 -7.03551 0
M  V30 16071 N 1500.27 0.920374 -1.27933 0
M  V30 16072 C 1501.52 1.66338 -1.14081 0
M  V30 16073 C 1501.83 1.93107 0.311324 0
M  V30 16074 O 1503.04 2.65431 0.570862 0
M  V30 16075 C 1501.5 2.99624 -1.99383 0
M  V30 16076 C 1501.1 2.80527 -3.49297 0
M  V30 16077 C 1502.85 3.77474 -1.94199 0
M  V30 16078 C 1500.75 4.09413 -4.26773 0
M  V30 16079 H 1499.68 0.623935 -0.423346 0
M  V30 16080 H 1502.34 1.0219 -1.52412 0
M  V30 16081 H 1500.72 3.6487 -1.53902 0
M  V30 16082 H 1501.89 2.24002 -4.02691 0
M  V30 16083 H 1500.21 2.16097 -3.55937 0
M  V30 16084 H 1502.8 4.72997 -2.49356 0
M  V30 16085 H 1503.15 4.06069 -0.917249 0
M  V30 16086 H 1503.68 3.19036 -2.37614 0
M  V30 16087 H 1500.42 3.85994 -5.29801 0
M  V30 16088 H 1499.94 4.65574 -3.78155 0
M  V30 16089 H 1501.62 4.77721 -4.36339 0
M  V30 16090 N 1501.75 1.10074 1.1279 0
M  V30 16091 C 1503.03 0.753069 1.80522 0
M  V30 16092 C 1503.41 -0.760982 1.96907 0
M  V30 16093 O 1502.75 -1.68584 1.54245 0
M  V30 16094 C 1502.96 1.49982 3.15129 0
M  V30 16095 C 1504.31 1.66993 3.90382 0
M  V30 16096 O 1505.34 1.46289 3.24774 0
M  V30 16097 O 1504.2 2.01293 5.08078 0
M  V30 16098 H 1501.29 0.271277 0.781241 0
M  V30 16099 H 1503.84 1.20333 1.19658 0
M  V30 16100 H 1502.61 2.53043 2.98471 0
M  V30 16101 H 1502.23 1.04217 3.83699 0
M  V30 16102 N 1503.23 -1.30138 0.888926 0
M  V30 16103 C 1504.17 -2.28023 0.356923 0
M  V30 16104 C 1505.14 -1.56551 -0.555066 0
M  V30 16105 O 1506.33 -1.84595 -0.482633 0
M  V30 16106 C 1503.47 -3.42546 -0.419056 0
M  V30 16107 C 1502.58 -4.28827 0.5226 0
M  V30 16108 C 1501.72 -5.30517 -0.269366 0
M  V30 16109 C 1500.76 -6.08449 0.667507 0
M  V30 16110 N 1499.89 -7.02043 -0.08938 0
M  V30 16111 H 1504.73 -2.72912 1.19678 0
M  V30 16112 H 1502.27 -1.34239 0.60152 0
M  V30 16113 H 1504.23 -4.07707 -0.884911 0
M  V30 16114 H 1502.86 -2.98716 -1.22346 0
M  V30 16115 H 1501.91 -3.63938 1.10695 0
M  V30 16116 H 1503.22 -4.83136 1.24018 0
M  V30 16117 H 1502.38 -6.01444 -0.796901 0
M  V30 16118 H 1501.12 -4.76911 -1.02014 0
M  V30 16119 H 1500.12 -5.36396 1.20664 0
M  V30 16120 H 1501.35 -6.64143 1.41744 0
M  V30 16121 H 1499.29 -6.50822 -0.822622 0
M  V30 16122 H 1499.21 -7.53859 0.568499 0
M  V30 16123 H 1500.48 -7.77206 -0.597529 0
M  V30 16124 N 1504.71 -0.650285 -1.43559 0
M  V30 16125 C 1505.93 -0.168483 -2.06715 0
M  V30 16126 C 1506.36 1.15576 -1.48404 0
M  V30 16127 O 1505.71 1.71333 -0.592842 0
M  V30 16128 C 1505.76 -0.0877095 -3.60493 0
M  V30 16129 O 1504.87 0.950915 -4.01287 0
M  V30 16130 H 1504.21 -0.0935281 -0.65738 0
M  V30 16131 H 1506.74 -0.892381 -1.84113 0
M  V30 16132 H 1506.75 0.0965825 -4.07886 0
M  V30 16133 H 1505.42 -1.05442 -4.02312 0
M  V30 16134 H 1504 0.739648 -3.65491 0
M  V30 16135 N 1506.18 1.52647 -0.392018 0
M  V30 16136 C 1507.41 2.05734 0.189018 0
M  V30 16137 C 1507.82 1.26338 1.40838 0
M  V30 16138 O 1507.16 0.303866 1.81169 0
M  V30 16139 C 1507.23 3.54095 0.621026 0
M  V30 16140 C 1506.89 4.54416 -0.485249 0
M  V30 16141 C 1507.89 5.02241 -1.3435 0
M  V30 16142 C 1505.57 4.98037 -0.653055 0
M  V30 16143 C 1507.57 5.92313 -2.35467 0
M  V30 16144 C 1505.25 5.87908 -1.66755 0
M  V30 16145 C 1506.25 6.34939 -2.51677 0
M  V30 16146 O 1505.94 7.23034 -3.51392 0
M  V30 16147 H 1505.67 0.675266 0.0315024 0
M  V30 16148 H 1508.23 1.97717 -0.556535 0
M  V30 16149 H 1506.46 3.5974 1.4186 0
M  V30 16150 H 1508.14 3.8991 1.12804 0
M  V30 16151 H 1508.91 4.6927 -1.22518 0
M  V30 16152 H 1504.79 4.61 -0.00176071 0
M  V30 16153 H 1508.33 6.28944 -3.01786 0
M  V30 16154 H 1504.23 6.20293 -1.78624 0
M  V30 16155 H 1505 7.41102 -3.47433 0
M  V30 16156 N 1507.66 0.121921 1.57128 0
M  V30 16157 C 1509.08 -0.234655 1.57866 0
M  V30 16158 C 1509.28 -1.66506 1.13482 0
M  V30 16159 O 1508.33 -2.38692 0.823544 0
M  V30 16160 C 1509.65 0.00131784 3.007 0
M  V30 16161 C 1511.2 -0.0643537 3.12934 0
M  V30 16162 C 1511.67 0.143964 4.57774 0
M  V30 16163 N 1513.16 0.0900323 4.63112 0
M  V30 16164 C 1513.9 0.22608 5.72954 0
M  V30 16165 N 1513.39 0.418461 6.91535 0
M  V30 16166 N 1515.19 0.165449 5.61856 0
M  V30 16167 H 1507.34 1.05618 1.84279 0
M  V30 16168 H 1509.6 0.416132 0.851785 0
M  V30 16169 H 1509.31 0.99031 3.3747 0
M  V30 16170 H 1509.18 -0.729266 3.70083 0
M  V30 16171 H 1511.57 -1.04387 2.7602 0
M  V30 16172 H 1511.65 0.698157 2.46088 0
M  V30 16173 H 1511.29 1.12047 4.95387 0
M  V30 16174 H 1511.22 -0.638569 5.22714 0
M  V30 16175 H 1513.71 -0.0550269 3.7786 0
M  V30 16176 H 1514.03 0.513057 7.71095 0
M  V30 16177 H 1512.37 0.454471 6.93512 0
M  V30 16178 H 1515.56 0.0160945 4.68097 0
M  V30 16179 H 1515.73 0.274917 6.47417 0
M  V30 16180 N 1509.14 -1.56867 -0.151857 0
M  V30 16181 C 1510.05 -2.01157 -1.20718 0
M  V30 16182 C 1511.07 -0.926166 -1.47303 0
M  V30 16183 O 1512.24 -1.23528 -1.59069 0
M  V30 16184 C 1509.31 -2.37915 -2.52185 0
M  V30 16185 C 1508.37 -3.60381 -2.3329 0
M  V30 16186 C 1507.6 -3.95376 -3.58488 0
M  V30 16187 O 1507.82 -3.31093 -4.64471 0
M  V30 16188 O 1506.76 -4.88645 -3.5144 0
M  V30 16189 H 1510.58 -2.91234 -0.861175 0
M  V30 16190 H 1508.17 -1.44993 -0.360213 0
M  V30 16191 H 1510.05 -2.6244 -3.29702 0
M  V30 16192 H 1508.73 -1.50995 -2.86325 0
M  V30 16193 H 1507.63 -3.4105 -1.5374 0
M  V30 16194 H 1508.97 -4.47903 -2.04067 0
M  V30 16195 N 1510.62 0.421051 -1.51871 0
M  V30 16196 C 1511.9 1.18133 -1.55897 0
M  V30 16197 C 1512.28 2.08459 -0.332876 0
M  V30 16198 O 1511.62 2.18114 0.681052 0
M  V30 16199 C 1511.83 1.96902 -2.88151 0
M  V30 16200 C 1513.18 2.53382 -3.4071 0
M  V30 16201 O 1514.21 2.07095 -2.89811 0
M  V30 16202 O 1513.06 3.37846 -4.29561 0
M  V30 16203 H 1510.16 0.538721 -0.627462 0
M  V30 16204 H 1512.7 0.428798 -1.64193 0
M  V30 16205 H 1511.48 1.30659 -3.68841 0
M  V30 16206 H 1511.1 2.79185 -2.83093 0
M  V30 16207 N 1512.1 1.42293 0.677538 0
M  V30 16208 C 1513.34 1.42827 1.43973 0
M  V30 16209 C 1513.68 0.0435041 1.94151 0
M  V30 16210 O 1512.95 -0.931794 1.70727 0
M  V30 16211 C 1513.23 2.45037 2.63873 0
M  V30 16212 C 1513.09 3.92694 2.19344 0
M  V30 16213 C 1514.41 2.4427 3.66087 0
M  V30 16214 H 1511.52 0.520097 0.522176 0
M  V30 16215 H 1514.17 1.73688 0.770219 0
M  V30 16216 H 1512.32 2.18851 3.20993 0
M  V30 16217 H 1513.99 4.2985 1.67412 0
M  V30 16218 H 1512.23 4.06692 1.50944 0
M  V30 16219 H 1512.9 4.59784 3.05455 0
M  V30 16220 H 1515.38 2.67551 3.18678 0
M  V30 16221 H 1514.25 3.17769 4.47564 0
M  V30 16222 H 1514.52 1.46769 4.17027 0
M  V30 16223 N 1513.57 -0.913576 1.28419 0
M  V30 16224 C 1514.8 -1.69403 1.18263 0
M  V30 16225 C 1515.21 -1.87387 -0.26128 0
M  V30 16226 O 1514.56 -1.40082 -1.18839 0
M  V30 16227 C 1514.62 -3.1064 1.80951 0
M  V30 16228 C 1514.28 -3.15941 3.30198 0
M  V30 16229 C 1515.28 -2.97124 4.2663 0
M  V30 16230 C 1512.96 -3.38449 3.71157 0
M  V30 16231 C 1514.96 -3.00728 5.61998 0
M  V30 16232 C 1512.64 -3.41685 5.06651 0
M  V30 16233 C 1513.64 -3.22845 6.01881 0
M  V30 16234 O 1513.33 -3.25842 7.34903 0
M  V30 16235 H 1513.06 -0.536323 0.411502 0
M  V30 16236 H 1515.62 -1.15186 1.70063 0
M  V30 16237 H 1513.85 -3.664 1.23645 0
M  V30 16238 H 1515.54 -3.70712 1.6531 0
M  V30 16239 H 1516.3 -2.79562 3.96321 0
M  V30 16240 H 1512.18 -3.52158 2.97499 0
M  V30 16241 H 1515.72 -2.85941 6.36304 0
M  V30 16242 H 1511.62 -3.58775 5.3661 0
M  V30 16243 H 1512.39 -3.42203 7.43532 0
M  V30 16244 N 1515.05 -1.1067 -1.12204 0
M  V30 16245 C 1516.33 -0.762632 -1.8012 0
M  V30 16246 C 1516.71 0.750529 -1.97308 0
M  V30 16247 O 1516.06 1.67764 -1.55137 0
M  V30 16248 C 1516.27 -1.51651 -3.14329 0
M  V30 16249 C 1517.62 -1.69061 -3.89491 0
M  V30 16250 O 1518.64 -1.48009 -3.23994 0
M  V30 16251 O 1517.5 -2.03984 -5.07004 0
M  V30 16252 H 1514.59 -0.275417 -0.779791 0
M  V30 16253 H 1517.14 -1.20966 -1.19018 0
M  V30 16254 H 1515.91 -2.54622 -2.97125 0
M  V30 16255 H 1515.53 -1.0625 -3.83141 0
M  V30 16256 N 1516.53 1.29665 -0.895815 0
M  V30 16257 C 1517.46 2.30268 -0.387151 0
M  V30 16258 C 1518.44 1.61442 0.535768 0
M  V30 16259 O 1519.63 1.88978 0.447321 0
M  V30 16260 C 1516.76 3.45107 0.389639 0
M  V30 16261 C 1515.71 4.25706 -0.442498 0
M  V30 16262 C 1515.04 5.32704 0.461552 0
M  V30 16263 C 1516.34 4.9419 -1.69036 0
M  V30 16264 H 1518.03 2.73064 -1.22786 0
M  V30 16265 H 1515.58 1.31274 -0.591869 0
M  V30 16266 H 1517.53 4.14559 0.756203 0
M  V30 16267 H 1516.25 3.01145 1.2641 0
M  V30 16268 H 1514.91 3.57957 -0.791343 0
M  V30 16269 H 1514.56 4.84987 1.33403 0
M  V30 16270 H 1514.26 5.87529 -0.0915006 0
M  V30 16271 H 1515.78 6.05009 0.824395 0
M  V30 16272 H 1517.2 5.561 -1.39376 0
M  V30 16273 H 1515.6 5.5893 -2.18444 0
M  V30 16274 H 1516.67 4.19699 -2.42859 0
M  V30 16275 N 1518.01 0.657889 1.43212 0
M  V30 16276 C 1519.26 0.173187 2.01758 0
M  V30 16277 C 1519.58 -1.21447 1.51924 0
M  V30 16278 O 1518.84 -1.82568 0.704807 0
M  V30 16279 C 1519.14 0.138025 3.57133 0
M  V30 16280 C 1518.8 1.46806 4.26332 0
M  V30 16281 C 1517.47 1.83227 4.44951 0
M  V30 16282 C 1519.82 2.34476 4.65478 0
M  V30 16283 C 1517.15 3.06975 4.99983 0
M  V30 16284 C 1519.5 3.57521 5.21883 0
M  V30 16285 C 1518.16 3.94132 5.38717 0
M  V30 16286 H 1517.43 0.0633735 0.738285 0
M  V30 16287 H 1520.08 0.849524 1.71626 0
M  V30 16288 H 1518.38 -0.621776 3.86835 0
M  V30 16289 H 1520.08 -0.253948 4.00195 0
M  V30 16290 H 1516.67 1.17469 4.12188 0
M  V30 16291 H 1520.85 2.07628 4.50782 0
M  V30 16292 H 1516.11 3.35383 5.11202 0
M  V30 16293 H 1520.28 4.25669 5.51161 0
M  V30 16294 H 1517.91 4.901 5.81125 0
M  V30 16295 N 1519.49 -1.52437 0.400108 0
M  V30 16296 C 1520.9 -1.86563 -0.0715162 0
M  V30 16297 C 1521.25 -1.3193 -1.4522 0
M  V30 16298 O 1520.37 -0.654955 -2.06251 0
M  V30 16299 C 1520.97 -3.38525 -0.13655 0
M  V30 16300 C 1519.53 -3.72323 -0.55249 0
M  V30 16301 C 1518.67 -2.75896 0.278729 0
M  V30 16302 H 1521.63 -1.46192 0.617547 0
M  V30 16303 H 1521.65 -3.68357 -0.953588 0
M  V30 16304 H 1521.16 -3.78258 0.868468 0
M  V30 16305 H 1519.26 -3.38164 -1.56448 0
M  V30 16306 H 1519.37 -4.7814 -0.303139 0
M  V30 16307 H 1517.74 -2.53394 -0.257608 0
M  V30 16308 H 1518.52 -3.18467 1.28193 0
M  V30 16309 N 1520.96 -0.130252 -1.57061 0
M  V30 16310 C 1522.21 0.523969 -1.9519 0
M  V30 16311 C 1522.53 1.66493 -1.01514 0
M  V30 16312 O 1521.8 1.95762 -0.0735194 0
M  V30 16313 H 1520.38 0.196553 -0.720677 0
M  V30 16314 H 1523.05 -0.20183 -1.93852 0
M  V30 16315 H 1522.14 0.911156 -2.98504 0
M  V30 16316 N 1522.44 1.56945 0.143535 0
M  V30 16317 C 1523.67 1.87701 0.870401 0
M  V30 16318 C 1524.09 0.718833 1.7458 0
M  V30 16319 O 1523.44 -0.311286 1.79826 0
M  V30 16320 C 1523.49 3.1773 1.72424 0
M  V30 16321 O 1523.22 4.29086 0.884115 0
M  V30 16322 C 1524.72 3.62024 2.55839 0
M  V30 16323 H 1521.94 0.622083 0.251504 0
M  V30 16324 H 1524.48 2.04052 0.135285 0
M  V30 16325 H 1522.64 3.03122 2.41238 0
M  V30 16326 H 1523.05 5.0346 1.47065 0
M  V30 16327 H 1524.52 4.55834 3.11319 0
M  V30 16328 H 1525 2.87481 3.32041 0
M  V30 16329 H 1525.61 3.79338 1.9231 0
M  V30 16330 N 1523.92 -0.412991 1.52093 0
M  V30 16331 C 1525.17 -1.1603 1.65962 0
M  V30 16332 C 1525.5 -1.90598 0.387652 0
M  V30 16333 O 1524.75 -1.85308 -0.629243 0
M  V30 16334 C 1525.05 -2.18321 2.82968 0
M  V30 16335 C 1524.72 -1.60589 4.21334 0
M  V30 16336 C 1523.38 -1.44568 4.5897 0
M  V30 16337 C 1525.73 -1.18388 5.07576 0
M  V30 16338 C 1523.06 -0.848584 5.80531 0
M  V30 16339 C 1525.41 -0.600985 6.29739 0
M  V30 16340 C 1524.07 -0.42788 6.66127 0
M  V30 16341 H 1523.34 -0.424583 0.607297 0
M  V30 16342 H 1525.99 -0.448028 1.86185 0
M  V30 16343 H 1524.3 -2.95678 2.57063 0
M  V30 16344 H 1525.99 -2.76009 2.90895 0
M  V30 16345 H 1522.58 -1.7404 3.91673 0
M  V30 16346 H 1526.77 -1.29576 4.79086 0
M  V30 16347 H 1522.02 -0.702447 6.07351 0
M  V30 16348 H 1526.2 -0.265583 6.95893 0
M  V30 16349 H 1523.82 0.0369013 7.60191 0
M  V30 16350 N 1525.4 -1.4265 -0.669982 0
M  V30 16351 C 1526.33 -1.42457 -1.79551 0
M  V30 16352 C 1527.34 -0.322966 -1.59564 0
M  V30 16353 O 1528.53 -0.586359 -1.68594 0
M  V30 16354 C 1525.63 -1.20561 -3.16731 0
M  V30 16355 C 1524.81 -2.43246 -3.63525 0
M  V30 16356 C 1523.87 -2.16823 -4.79452 0
M  V30 16357 O 1522.89 -2.90058 -4.8975 0
M  V30 16358 N 1524.09 -1.17436 -5.68497 0
M  V30 16359 H 1526.86 -2.39474 -1.80201 0
M  V30 16360 H 1524.42 -1.37591 -0.853244 0
M  V30 16361 H 1526.41 -1.00794 -3.91947 0
M  V30 16362 H 1524.98 -0.320497 -3.10953 0
M  V30 16363 H 1524.2 -2.78549 -2.78934 0
M  V30 16364 H 1525.49 -3.24931 -3.91532 0
M  V30 16365 H 1524.89 -0.568736 -5.62834 0
M  V30 16366 H 1523.44 -1.03655 -6.43505 0
M  V30 16367 N 1526.88 0.906753 -1.28902 0
M  V30 16368 C 1528.11 1.69019 -1.19333 0
M  V30 16369 C 1528.52 1.87176 0.247065 0
M  V30 16370 O 1527.88 1.40376 1.16623 0
M  V30 16371 C 1527.93 3.07854 -1.89495 0
M  V30 16372 O 1527.65 2.90531 -3.27908 0
M  V30 16373 C 1529.15 4.02246 -1.86314 0
M  V30 16374 H 1526.37 0.528119 -0.413922 0
M  V30 16375 H 1528.91 1.13441 -1.70151 0
M  V30 16376 H 1527.07 3.60228 -1.42529 0
M  V30 16377 H 1527.48 3.78451 -3.63146 0
M  V30 16378 H 1528.96 4.97104 -2.39983 0
M  V30 16379 H 1529.43 4.31149 -0.837071 0
M  V30 16380 H 1530.04 3.55803 -2.3299 0
M  V30 16381 N 1528.36 1.11264 1.11616 0
M  V30 16382 C 1529.6 0.855139 1.82675 0
M  V30 16383 C 1529.92 -0.621194 1.85474 0
M  V30 16384 O 1531.12 -0.994886 2.52615 0
M  V30 16385 C 1529.58 1.48007 3.28058 0
M  V30 16386 C 1529.19 2.99031 3.33593 0
M  V30 16387 C 1530.93 1.30233 4.04029 0
M  V30 16388 C 1528.84 3.54517 4.73362 0
M  V30 16389 H 1527.77 0.316252 0.684471 0
M  V30 16390 H 1530.42 1.33766 1.25614 0
M  V30 16391 H 1528.8 0.925214 3.8504 0
M  V30 16392 H 1529.98 3.60905 2.86503 0
M  V30 16393 H 1528.29 3.16059 2.711 0
M  V30 16394 H 1530.89 1.69122 5.07249 0
M  V30 16395 H 1531.23 0.244724 4.1558 0
M  V30 16396 H 1531.76 1.82573 3.53429 0
M  V30 16397 H 1528.5 4.59982 4.67008 0
M  V30 16398 H 1528.02 2.97414 5.20869 0
M  V30 16399 H 1529.7 3.52848 5.42316 0
M  V30 16400 N 1529.83 -1.29188 0.902679 0
M  V30 16401 C 1530.74 -2.3138 0.387363 0
M  V30 16402 C 1531.76 -1.66067 -0.519396 0
M  V30 16403 O 1532.94 -1.97219 -0.408257 0
M  V30 16404 C 1530 -3.44675 -0.374137 0
M  V30 16405 C 1529.06 -4.25572 0.564503 0
M  V30 16406 C 1528.29 -5.33458 -0.160748 0
M  V30 16407 O 1528.52 -5.53349 -1.38423 0
M  V30 16408 O 1527.45 -5.99834 0.498259 0
M  V30 16409 H 1531.28 -2.77444 1.23525 0
M  V30 16410 H 1528.86 -1.33679 0.667106 0
M  V30 16411 H 1530.74 -4.13647 -0.80464 0
M  V30 16412 H 1529.42 -3.00714 -1.19804 0
M  V30 16413 H 1528.33 -3.59232 1.04418 0
M  V30 16414 H 1529.66 -4.73184 1.3549 0
M  V30 16415 N 1531.31 -0.665475 -1.42861 0
M  V30 16416 C 1532.24 0.00482845 -2.335 0
M  V30 16417 C 1533.22 0.799135 -1.50159 0
M  V30 16418 O 1534.41 0.75816 -1.78789 0
M  V30 16419 C 1531.54 0.963347 -3.33672 0
M  V30 16420 C 1530.49 0.278294 -4.27094 0
M  V30 16421 C 1529.82 1.34911 -5.174 0
M  V30 16422 C 1531.12 -0.836925 -5.15551 0
M  V30 16423 H 1532.81 -0.752129 -2.89799 0
M  V30 16424 H 1530.36 -0.363139 -1.39346 0
M  V30 16425 H 1532.31 1.44128 -3.95986 0
M  V30 16426 H 1531.03 1.75161 -2.75656 0
M  V30 16427 H 1529.69 -0.179314 -3.66161 0
M  V30 16428 H 1529.34 2.12912 -4.55716 0
M  V30 16429 H 1529.04 0.895919 -5.8073 0
M  V30 16430 H 1530.57 1.82816 -5.8259 0
M  V30 16431 H 1531.98 -0.440617 -5.71604 0
M  V30 16432 H 1530.38 -1.21533 -5.87665 0
M  V30 16433 H 1531.45 -1.6897 -4.54507 0
M  V30 16434 N 1532.79 1.52222 -0.408187 0
M  V30 16435 C 1534.04 2.01803 0.167905 0
M  V30 16436 C 1534.36 1.29385 1.45223 0
M  V30 16437 O 1533.62 0.388383 1.91807 0
M  V30 16438 C 1533.92 3.54384 0.463353 0
M  V30 16439 C 1533.58 4.44924 -0.731665 0
M  V30 16440 C 1532.25 4.69392 -1.05946 0
M  V30 16441 C 1534.6 4.9823 -1.53023 0
M  V30 16442 C 1531.93 5.44414 -2.18702 0
M  V30 16443 C 1534.28 5.74486 -2.64855 0
M  V30 16444 C 1532.94 5.97227 -2.98121 0
M  V30 16445 H 1532.21 0.738448 0.0614409 0
M  V30 16446 H 1534.86 1.83449 -0.549412 0
M  V30 16447 H 1533.16 3.70911 1.26223 0
M  V30 16448 H 1534.86 3.90256 0.922042 0
M  V30 16449 H 1531.45 4.26057 -0.4662 0
M  V30 16450 H 1535.64 4.79236 -1.29022 0
M  V30 16451 H 1530.89 5.60242 -2.44824 0
M  V30 16452 H 1535.07 6.14788 -3.27122 0
M  V30 16453 H 1532.69 6.5514 -3.8561 0
M  V30 16454 N 1534.27 0.138579 1.5699 0
M  V30 16455 C 1535.23 -0.79013 2.1515 0
M  V30 16456 C 1536.23 -1.1811 1.09117 0
M  V30 16457 O 1537.42 -1.1034 1.34798 0
M  V30 16458 C 1534.55 -2.07109 2.70774 0
M  V30 16459 H 1535.75 -0.284343 2.98549 0
M  V30 16460 H 1533.3 -0.11081 1.55907 0
M  V30 16461 H 1534.03 -2.62074 1.91018 0
M  V30 16462 H 1533.82 -1.80004 3.4834 0
M  V30 16463 H 1535.31 -2.73456 3.15613 0
M  V30 16464 N 1535.75 -1.57019 -0.13521 0
M  V30 16465 C 1537.02 -1.74928 -0.875189 0
M  V30 16466 C 1537.4 -0.709755 -1.98811 0
M  V30 16467 O 1536.75 0.269237 -2.26908 0
M  V30 16468 C 1536.96 -3.1939 -1.40681 0
M  V30 16469 C 1538.31 -3.8142 -1.86557 0
M  V30 16470 O 1539.33 -3.22892 -1.50397 0
M  V30 16471 O 1538.19 -4.84263 -2.53282 0
M  V30 16472 H 1535.29 -0.715665 -0.414431 0
M  V30 16473 H 1537.83 -1.69274 -0.120215 0
M  V30 16474 H 1536.6 -3.86554 -0.607564 0
M  V30 16475 H 1536.23 -3.29517 -2.22496 0
M  V30 16476 N 1537.22 0.404919 -1.52309 0
M  V30 16477 C 1538.17 1.49281 -1.72334 0
M  V30 16478 C 1539.16 1.50188 -0.577267 0
M  V30 16479 O 1540.35 1.56093 -0.834497 0
M  V30 16480 C 1537.48 2.87166 -1.88123 0
M  V30 16481 C 1536.57 2.90891 -3.08615 0
M  V30 16482 N 1536.96 2.64307 -4.31249 0
M  V30 16483 C 1535.25 3.2206 -3.08535 0
M  V30 16484 C 1535.96 2.74708 -5.12748 0
M  V30 16485 N 1534.93 3.07766 -4.48086 0
M  V30 16486 H 1538.73 1.2753 -2.64789 0
M  V30 16487 H 1536.25 0.61268 -1.50399 0
M  V30 16488 H 1538.24 3.65473 -2.00587 0
M  V30 16489 H 1536.9 3.09913 -0.968712 0
M  V30 16490 H 1537.92 2.38624 -4.59651 0
M  V30 16491 H 1534.59 3.50373 -2.27035 0
M  V30 16492 H 1535.98 2.57835 -6.2046 0
M  V30 16493 N 1538.7 1.43003 0.662408 0
M  V30 16494 C 1540.11 1.39275 1.24336 0
M  V30 16495 C 1540.46 0.0921999 1.95983 0
M  V30 16496 O 1539.59 -0.808677 2.00722 0
M  V30 16497 C 1540.18 2.52287 2.26134 0
M  V30 16498 C 1538.74 2.51853 2.79727 0
M  V30 16499 C 1537.89 2.30453 1.5423 0
M  V30 16500 H 1540.84 1.52038 0.455002 0
M  V30 16501 H 1540.86 2.23249 3.08123 0
M  V30 16502 H 1540.37 3.46929 1.73959 0
M  V30 16503 H 1538.48 1.61064 3.3599 0
M  V30 16504 H 1538.59 3.49313 3.27898 0
M  V30 16505 H 1536.95 1.78946 1.81247 0
M  V30 16506 H 1537.74 3.27167 1.04003 0
M  V30 16507 N 1540.18 -0.899904 1.29381 0
M  V30 16508 C 1541.43 -1.64712 1.17109 0
M  V30 16509 C 1541.75 -1.93011 -0.277772 0
M  V30 16510 O 1541.02 -1.55604 -1.19013 0
M  V30 16511 H 1539.6 -0.610532 0.430418 0
M  V30 16512 H 1542.26 -1.07905 1.62304 0
M  V30 16513 H 1541.36 -2.60362 1.72098 0
M  V30 16514 N 1541.66 -1.11854 -1.11024 0
M  V30 16515 C 1542.89 -0.892714 -1.8665 0
M  V30 16516 C 1543.3 0.557721 -1.80374 0
M  V30 16517 O 1542.66 1.3853 -1.1881 0
M  V30 16518 C 1542.71 -1.35135 -3.35292 0
M  V30 16519 O 1542.43 -2.74493 -3.41446 0
M  V30 16520 C 1543.93 -1.16157 -4.27811 0
M  V30 16521 H 1541.15 -0.319409 -0.590101 0
M  V30 16522 H 1543.7 -1.48697 -1.40391 0
M  V30 16523 H 1541.85 -0.80046 -3.7904 0
M  V30 16524 H 1542.26 -2.94474 -4.34034 0
M  V30 16525 H 1543.74 -1.53144 -5.30331 0
M  V30 16526 H 1544.22 -0.101546 -4.39083 0
M  V30 16527 H 1544.82 -1.69966 -3.89861 0
M  V30 16528 N 1543.14 1.28707 -0.909517 0
M  V30 16529 C 1544.38 1.95803 -0.550719 0
M  V30 16530 C 1544.74 1.70317 0.894977 0
M  V30 16531 O 1544.03 1.01121 1.62742 0
M  V30 16532 C 1544.22 3.48536 -0.791037 0
M  V30 16533 C 1544.05 3.8887 -2.25854 0
M  V30 16534 C 1542.82 4.13246 -2.90785 0
M  V30 16535 C 1545.02 3.99848 -3.2346 0
M  V30 16536 N 1543 4.40221 -4.27877 0
M  V30 16537 C 1544.37 4.30988 -4.45701 0
M  V30 16538 C 1546.43 3.82357 -3.18916 0
M  V30 16539 C 1545.13 4.46459 -5.63974 0
M  V30 16540 C 1547.16 3.99043 -4.36484 0
M  V30 16541 C 1546.52 4.30552 -5.57498 0
M  V30 16542 H 1542.62 0.740517 -0.251314 0
M  V30 16543 H 1545.2 1.55447 -1.17237 0
M  V30 16544 H 1543.37 3.87891 -0.198693 0
M  V30 16545 H 1545.11 4.02751 -0.396693 0
M  V30 16546 H 1541.86 4.0738 -2.41534 0
M  V30 16547 H 1542.29 4.578 -4.98747 0
M  V30 16548 H 1546.93 3.57052 -2.26438 0
M  V30 16549 H 1544.65 4.70598 -6.56935 0
M  V30 16550 H 1548.23 3.86951 -4.34466 0
M  V30 16551 H 1547.11 4.43192 -6.46955 0
M  V30 16552 N 1544.61 0.673042 1.42506 0
M  V30 16553 C 1545.54 0.00755467 2.33499 0
M  V30 16554 C 1546.53 -0.791161 1.50581 0
M  V30 16555 O 1547.71 -0.748668 1.79189 0
M  V30 16556 C 1544.84 -0.945638 3.34178 0
M  V30 16557 C 1543.79 -0.25564 4.27236 0
M  V30 16558 C 1543.12 -1.32165 5.18109 0
M  V30 16559 C 1544.42 0.864254 5.151 0
M  V30 16560 H 1546.11 0.767487 2.89396 0
M  V30 16561 H 1543.66 0.370524 1.39151 0
M  V30 16562 H 1545.61 -1.42026 3.96745 0
M  V30 16563 H 1544.34 -1.73697 2.76581 0
M  V30 16564 H 1543 0.19873 3.66061 0
M  V30 16565 H 1542.64 -2.10492 4.56839 0
M  V30 16566 H 1542.34 -0.865109 5.81197 0
M  V30 16567 H 1543.87 -1.79724 5.83551 0
M  V30 16568 H 1545.28 0.470924 5.71363 0
M  V30 16569 H 1543.68 1.24648 5.87012 0
M  V30 16570 H 1544.75 1.71378 4.53605 0
M  V30 16571 N 1546.09 -1.52004 0.416254 0
M  V30 16572 C 1547.02 -2.30106 -0.396671 0
M  V30 16573 C 1548 -1.34616 -1.03983 0
M  V30 16574 O 1549.19 -1.63528 -1.04749 0
M  V30 16575 C 1546.32 -3.12769 -1.50972 0
M  V30 16576 C 1545.27 -4.16365 -0.99119 0
M  V30 16577 C 1544.6 -4.87417 -2.19838 0
M  V30 16578 C 1545.9 -5.22284 -0.0402599 0
M  V30 16579 H 1547.59 -2.98312 0.255054 0
M  V30 16580 H 1545.14 -1.43464 0.124106 0
M  V30 16581 H 1547.09 -3.66178 -2.08547 0
M  V30 16582 H 1545.82 -2.42346 -2.18943 0
M  V30 16583 H 1544.47 -3.63976 -0.437803 0
M  V30 16584 H 1544.12 -4.13516 -2.8638 0
M  V30 16585 H 1543.82 -5.57454 -1.85792 0
M  V30 16586 H 1545.35 -5.43641 -2.78006 0
M  V30 16587 H 1546.76 -5.70891 -0.525027 0
M  V30 16588 H 1545.16 -5.99726 0.211742 0
M  V30 16589 H 1546.23 -4.7642 0.902877 0
M  V30 16590 N 1547.57 -0.146903 -1.56914 0
M  V30 16591 C 1548.52 0.804576 -2.13332 0
M  V30 16592 C 1549.5 1.2095 -1.06112 0
M  V30 16593 O 1550.7 1.17594 -1.3229 0
M  V30 16594 C 1547.83 2.0437 -2.7584 0
M  V30 16595 C 1546.91 1.66188 -3.90183 0
M  V30 16596 N 1547.3 0.988267 -4.96051 0
M  V30 16597 C 1545.6 1.9546 -4.00888 0
M  V30 16598 C 1546.3 0.803957 -5.76118 0
M  V30 16599 N 1545.28 1.33779 -5.26882 0
M  V30 16600 H 1549.08 0.280693 -2.92557 0
M  V30 16601 H 1546.59 0.0546404 -1.62308 0
M  V30 16602 H 1548.59 2.73532 -3.1462 0
M  V30 16603 H 1547.25 2.57276 -1.98089 0
M  V30 16604 H 1548.26 0.64904 -5.13817 0
M  V30 16605 H 1544.94 2.50216 -3.34213 0
M  V30 16606 H 1546.33 0.273065 -6.71345 0
M  V30 16607 N 1549.05 1.57088 0.126881 0
M  V30 16608 C 1550.29 1.8625 0.842031 0
M  V30 16609 C 1550.65 0.733868 1.77421 0
M  V30 16610 O 1551.85 0.907051 2.53034 0
M  V30 16611 C 1550.12 3.2063 1.57897 0
M  V30 16612 S 1551.68 3.71403 2.33677 0
M  V30 16613 H 1548.5 0.653034 0.28119 0
M  V30 16614 H 1551.1 1.9524 0.100825 0
M  V30 16615 H 1549.81 4.00722 0.885982 0
M  V30 16616 H 1549.34 3.14698 2.3607 0
M  V30 16617 H 1551.35 3.42274 3.59253 0
M  V30 16618 N 1550.53 -0.396836 1.52522 0
M  V30 16619 C 1551.48 -1.48365 1.73123 0
M  V30 16620 C 1552.46 -1.4988 0.585224 0
M  V30 16621 O 1553.65 -1.55649 0.842763 0
M  V30 16622 C 1550.78 -2.86165 1.89644 0
M  V30 16623 C 1549.87 -2.8925 3.10153 0
M  V30 16624 N 1550.26 -2.62017 4.32644 0
M  V30 16625 C 1548.56 -3.20419 3.10238 0
M  V30 16626 C 1549.26 -2.71985 5.14197 0
M  V30 16627 N 1548.23 -3.05385 4.49712 0
M  V30 16628 H 1552.04 -1.26124 2.65462 0
M  V30 16629 H 1549.55 -0.604696 1.50722 0
M  V30 16630 H 1551.55 -3.64404 2.02522 0
M  V30 16631 H 1550.21 -3.09395 0.985134 0
M  V30 16632 H 1551.22 -2.36183 4.6091 0
M  V30 16633 H 1547.89 -3.49164 2.2889 0
M  V30 16634 H 1549.28 -2.54541 6.21819 0
M  V30 16635 N 1552.01 -1.43353 -0.654814 0
M  V30 16636 C 1553.25 -1.451 -1.41682 0
M  V30 16637 C 1553.58 -0.0743864 -1.94057 0
M  V30 16638 O 1552.86 0.904515 -1.72188 0
M  V30 16639 C 1553.14 -2.49204 -2.59941 0
M  V30 16640 C 1553 -3.96134 -2.13069 0
M  V30 16641 C 1554.31 -2.50064 -3.62155 0
M  V30 16642 H 1551.43 -0.528339 -0.513836 0
M  V30 16643 H 1554.08 -1.74892 -0.742489 0
M  V30 16644 H 1552.23 -2.2393 -3.1747 0
M  V30 16645 H 1553.9 -4.32459 -1.60552 0
M  V30 16646 H 1552.14 -4.09042 -1.44455 0
M  V30 16647 H 1552.81 -4.64585 -2.98101 0
M  V30 16648 H 1555.29 -2.72587 -3.14382 0
M  V30 16649 H 1554.16 -3.24849 -4.42452 0
M  V30 16650 H 1554.42 -1.53385 -4.14639 0
M  V30 16651 N 1553.48 0.89303 -1.29857 0
M  V30 16652 C 1554.71 1.6827 -1.21243 0
M  V30 16653 C 1555.13 1.86778 0.222621 0
M  V30 16654 O 1554.49 1.39291 1.1605 0
M  V30 16655 C 1554.54 3.041 -1.93792 0
M  V30 16656 O 1553.64 3.92696 -1.25951 0
M  V30 16657 H 1552.98 0.514479 -0.419771 0
M  V30 16658 H 1555.51 1.11513 -1.7154 0
M  V30 16659 H 1555.52 3.54198 -2.02504 0
M  V30 16660 H 1554.2 2.89948 -2.98166 0
M  V30 16661 H 1552.78 3.51132 -1.25541 0
M  V30 16662 N 1554.96 1.12442 1.10429 0
M  V30 16663 C 1556.24 0.791191 1.78884 0
M  V30 16664 C 1556.62 -0.719044 1.98477 0
M  V30 16665 O 1555.97 -1.65275 1.57786 0
M  V30 16666 C 1556.18 1.56632 3.11877 0
M  V30 16667 C 1557.52 1.75236 3.86752 0
M  V30 16668 O 1558.55 1.53145 3.21598 0
M  V30 16669 O 1557.41 2.12025 5.03694 0
M  V30 16670 H 1554.5 0.287788 0.775311 0
M  V30 16671 H 1557.05 1.22844 1.17078 0
M  V30 16672 H 1555.82 2.59317 2.93037 0
M  V30 16673 H 1555.44 1.12332 3.81402 0
M  V30 16674 N 1556.44 -1.28223 0.91633 0
M  V30 16675 C 1557.39 -2.24848 0.377829 0
M  V30 16676 C 1558.37 -1.52553 -0.511507 0
M  V30 16677 O 1559.57 -1.73489 -0.350808 0
M  V30 16678 C 1556.69 -3.41206 -0.378635 0
M  V30 16679 C 1555.78 -4.20818 0.526567 0
M  V30 16680 N 1556.17 -4.78429 1.64132 0
M  V30 16681 C 1554.47 -4.44796 0.327436 0
M  V30 16682 C 1555.17 -5.38355 2.20339 0
M  V30 16683 N 1554.15 -5.22657 1.49434 0
M  V30 16684 H 1557.95 -2.66963 1.22914 0
M  V30 16685 H 1555.46 -1.43024 0.769282 0
M  V30 16686 H 1557.46 -4.09514 -0.781283 0
M  V30 16687 H 1556.12 -3.00623 -1.22701 0
M  V30 16688 H 1557.13 -4.76718 2.02387 0
M  V30 16689 H 1553.81 -4.14717 -0.481214 0
M  V30 16690 H 1555.2 -5.93948 3.14126 0
M  V30 16691 N 1557.92 -0.68059 -1.42147 0
M  V30 16692 C 1559.17 -0.202445 -2.00681 0
M  V30 16693 C 1559.48 1.19997 -1.54467 0
M  V30 16694 O 1560.69 1.77479 -2.05459 0
M  V30 16695 C 1559.14 -0.311064 -3.58553 0
M  V30 16696 C 1558.75 -1.7179 -4.13754 0
M  V30 16697 C 1560.49 0.108072 -4.24362 0
M  V30 16698 C 1558.4 -1.77897 -5.64009 0
M  V30 16699 H 1557.33 -0.0719266 -0.750561 0
M  V30 16700 H 1559.98 -0.846614 -1.62803 0
M  V30 16701 H 1558.36 0.401098 -3.93963 0
M  V30 16702 H 1559.54 -2.45761 -3.89793 0
M  V30 16703 H 1557.85 -2.08539 -3.60417 0
M  V30 16704 H 1560.45 0.0826684 -5.34636 0
M  V30 16705 H 1560.79 1.14431 -4.00264 0
M  V30 16706 H 1561.33 -0.553285 -3.93933 0
M  V30 16707 H 1558.06 -2.79523 -5.92914 0
M  V30 16708 H 1557.58 -1.0829 -5.89944 0
M  V30 16709 H 1559.26 -1.53504 -6.28527 0
M  V30 16710 N 1559.4 1.51781 -0.424309 0
M  V30 16711 C 1560.35 2.24259 0.411339 0
M  V30 16712 C 1561.33 1.25976 1.00094 0
M  V30 16713 O 1562.52 1.51136 0.921238 0
M  V30 16714 C 1559.65 3.07858 1.51917 0
M  V30 16715 C 1558.74 4.13561 0.939599 0
M  V30 16716 N 1559.13 5.05723 0.08803 0
M  V30 16717 C 1557.43 4.29314 1.20855 0
M  V30 16718 C 1558.13 5.81221 -0.236076 0
M  V30 16719 N 1557.1 5.42291 0.376983 0
M  V30 16720 H 1560.9 2.92874 -0.2454 0
M  V30 16721 H 1558.42 1.60682 -0.235612 0
M  V30 16722 H 1560.42 3.58347 2.13056 0
M  V30 16723 H 1559.08 2.40784 2.17837 0
M  V30 16724 H 1560.09 5.17156 -0.277436 0
M  V30 16725 H 1556.76 3.73469 1.86621 0
M  V30 16726 H 1558.15 6.65457 -0.928241 0
M  V30 16727 N 1560.87 0.155222 1.56834 0
M  V30 16728 C 1561.84 -0.767266 2.15976 0
M  V30 16729 C 1562.84 -1.16946 1.10364 0
M  V30 16730 O 1564.03 -1.08905 1.35961 0
M  V30 16731 C 1561.16 -2.04226 2.72956 0
M  V30 16732 H 1562.35 -0.252662 2.98834 0
M  V30 16733 H 1559.9 -0.0942677 1.56015 0
M  V30 16734 H 1560.64 -2.60033 1.93787 0
M  V30 16735 H 1560.42 -1.76299 3.5023 0
M  V30 16736 H 1561.91 -2.70093 3.18495 0
M  V30 16737 N 1562.35 -1.57153 -0.118549 0
M  V30 16738 C 1563.6 -1.84511 -0.824623 0
M  V30 16739 C 1563.92 -0.740473 -1.80394 0
M  V30 16740 O 1563.19 0.235481 -1.9448 0
M  V30 16741 H 1561.77 -0.680764 -0.307522 0
M  V30 16742 H 1564.43 -1.94613 -0.105764 0
M  V30 16743 H 1563.53 -2.80444 -1.36958 0
M  V30 16744 N 1563.83 0.388742 -1.5273 0
M  V30 16745 C 1564.76 1.49653 -1.72277 0
M  V30 16746 C 1565.74 1.52259 -0.570606 0
M  V30 16747 O 1566.92 1.70661 -0.80044 0
M  V30 16748 C 1564.05 2.88118 -1.78061 0
M  V30 16749 C 1563.1 3.03336 -2.99815 0
M  V30 16750 S 1563.93 2.74509 -4.59788 0
M  V30 16751 C 1565.09 4.15167 -4.68388 0
M  V30 16752 H 1565.32 1.32847 -2.65968 0
M  V30 16753 H 1562.85 0.581632 -1.43026 0
M  V30 16754 H 1564.81 3.6791 -1.82079 0
M  V30 16755 H 1563.47 3.0225 -0.854623 0
M  V30 16756 H 1562.66 4.04689 -3.00404 0
M  V30 16757 H 1562.27 2.31438 -2.9379 0
M  V30 16758 H 1564.56 5.09098 -4.47018 0
M  V30 16759 H 1565.5 4.19593 -5.70392 0
M  V30 16760 H 1565.91 4.01088 -3.97226 0
M  V30 16761 N 1565.31 1.43698 0.647203 0
M  V30 16762 C 1566.22 1.51781 1.78884 0
M  V30 16763 C 1567.23 0.404498 1.69233 0
M  V30 16764 O 1568.41 0.659509 1.90296 0
M  V30 16765 C 1565.47 1.44408 3.15194 0
M  V30 16766 C 1564.54 2.6646 3.36597 0
M  V30 16767 C 1563.77 2.59429 4.66403 0
M  V30 16768 O 1563.99 1.64537 5.46154 0
M  V30 16769 O 1562.93 3.50027 4.89658 0
M  V30 16770 H 1566.75 2.48198 1.75019 0
M  V30 16771 H 1564.34 1.25766 0.806436 0
M  V30 16772 H 1566.22 1.42761 3.96481 0
M  V30 16773 H 1564.89 0.511292 3.19637 0
M  V30 16774 H 1563.8 2.73679 2.5505 0
M  V30 16775 H 1565.13 3.58732 3.37005 0
M  V30 16776 N 1566.79 -0.886131 1.30328 0
M  V30 16777 C 1568.01 -1.67099 1.22007 0
M  V30 16778 C 1568.43 -1.87546 -0.217255 0
M  V30 16779 O 1567.79 -1.42213 -1.14375 0
M  V30 16780 C 1567.84 -3.048 1.94368 0
M  V30 16781 O 1567.56 -2.85277 3.32489 0
M  V30 16782 C 1569.06 -3.99231 1.9269 0
M  V30 16783 H 1566.28 -0.521467 0.422271 0
M  V30 16784 H 1568.82 -1.1072 1.71934 0
M  V30 16785 H 1566.98 -3.57915 1.48242 0
M  V30 16786 H 1567.39 -3.72626 3.69121 0
M  V30 16787 H 1568.87 -4.93223 2.47861 0
M  V30 16788 H 1569.34 -4.29763 0.905558 0
M  V30 16789 H 1569.95 -3.52051 2.38621 0
M  V30 16790 N 1568.26 -1.13026 -1.09832 0
M  V30 16791 C 1569.49 -0.91246 -1.85693 0
M  V30 16792 C 1569.91 0.538558 -1.80956 0
M  V30 16793 O 1569.26 1.37262 -1.20273 0
M  V30 16794 C 1569.32 -1.38684 -3.3384 0
M  V30 16795 O 1569.04 -2.78099 -3.38515 0
M  V30 16796 C 1570.54 -1.20688 -4.26555 0
M  V30 16797 H 1567.76 -0.32565 -0.58668 0
M  V30 16798 H 1570.3 -1.50177 -1.38806 0
M  V30 16799 H 1568.46 -0.840617 -3.7817 0
M  V30 16800 H 1568.87 -2.99061 -4.30886 0
M  V30 16801 H 1570.34 -1.5876 -5.28677 0
M  V30 16802 H 1570.82 -0.148111 -4.3895 0
M  V30 16803 H 1571.43 -1.74092 -3.88036 0
M  V30 16804 N 1569.74 1.27735 -0.923117 0
M  V30 16805 C 1570.97 1.98394 -0.57648 0
M  V30 16806 C 1571.38 1.69093 0.848778 0
M  V30 16807 O 1570.72 0.945385 1.57506 0
M  V30 16808 C 1570.79 3.52278 -0.716984 0
M  V30 16809 C 1570.45 4.05191 -2.11351 0
M  V30 16810 C 1571.45 4.18314 -3.08722 0
M  V30 16811 C 1569.13 4.39652 -2.42922 0
M  V30 16812 C 1571.13 4.65166 -4.35774 0
M  V30 16813 C 1568.81 4.86196 -3.70211 0
M  V30 16814 C 1569.81 4.98911 -4.66451 0
M  V30 16815 O 1569.5 5.44437 -5.91476 0
M  V30 16816 H 1569.23 0.640008 -0.217636 0
M  V30 16817 H 1571.78 1.63666 -1.24107 0
M  V30 16818 H 1570.01 3.867 0.00469601 0
M  V30 16819 H 1571.7 4.04154 -0.376077 0
M  V30 16820 H 1572.47 3.91955 -2.85651 0
M  V30 16821 H 1568.35 4.29 -1.6876 0
M  V30 16822 H 1571.89 4.75006 -5.10896 0
M  V30 16823 H 1567.79 5.11997 -3.93103 0
M  V30 16824 H 1568.56 5.62701 -5.94399 0
M  V30 16825 N 1571.22 0.688118 1.41784 0
M  V30 16826 C 1572.45 0.22475 2.05676 0
M  V30 16827 C 1572.86 -1.1232 1.51755 0
M  V30 16828 O 1572.22 -1.70041 0.662735 0
M  V30 16829 C 1572.27 0.165661 3.6112 0
M  V30 16830 O 1571.99 1.46035 4.13044 0
M  V30 16831 C 1573.49 -0.319599 4.42146 0
M  V30 16832 H 1570.71 0.106135 0.662553 0
M  V30 16833 H 1573.26 0.938605 1.81688 0
M  V30 16834 H 1571.41 -0.498968 3.84173 0
M  V30 16835 H 1571.83 1.34252 5.07027 0
M  V30 16836 H 1573.3 -0.30983 5.5113 0
M  V30 16837 H 1573.78 -1.3572 4.17704 0
M  V30 16838 H 1574.38 0.313764 4.24141 0
M  V30 16839 N 1572.7 -1.51554 0.432352 0
M  V30 16840 C 1573.94 -2.02344 -0.13598 0
M  V30 16841 C 1574.28 -1.31619 -1.42794 0
M  V30 16842 O 1573.55 -0.42957 -1.89697 0
M  V30 16843 C 1573.84 -3.58297 -0.359865 0
M  V30 16844 C 1573.69 -4.39645 0.950399 0
M  V30 16845 C 1575.01 -4.25297 -1.13184 0
M  V30 16846 H 1572.13 -0.735439 -0.0479461 0
M  V30 16847 H 1574.77 -1.81237 0.570373 0
M  V30 16848 H 1572.92 -3.76413 -0.961547 0
M  V30 16849 H 1574.59 -4.3319 1.58568 0
M  V30 16850 H 1572.83 -4.04928 1.55614 0
M  V30 16851 H 1573.5 -5.46911 0.747852 0
M  V30 16852 H 1575.98 -4.11421 -0.622231 0
M  V30 16853 H 1574.86 -5.34307 -1.25726 0
M  V30 16854 H 1575.12 -3.85818 -2.15862 0
M  V30 16855 N 1574.18 -0.163538 -1.56749 0
M  V30 16856 C 1575.11 0.765571 -2.20593 0
M  V30 16857 C 1576.09 1.24489 -1.15916 0
M  V30 16858 O 1577.27 1.29946 -1.44318 0
M  V30 16859 C 1574.4 1.99823 -2.84057 0
M  V30 16860 C 1573.36 1.65506 -3.94705 0
M  V30 16861 C 1572.68 2.96172 -4.45181 0
M  V30 16862 C 1573.98 0.88902 -5.14678 0
M  V30 16863 H 1575.68 0.233431 -2.98489 0
M  V30 16864 H 1573.22 0.110836 -1.43573 0
M  V30 16865 H 1575.18 2.65316 -3.27392 0
M  V30 16866 H 1573.9 2.55437 -2.03517 0
M  V30 16867 H 1572.56 1.02384 -3.52013 0
M  V30 16868 H 1572.21 3.49811 -3.61443 0
M  V30 16869 H 1571.91 2.73968 -5.19823 0
M  V30 16870 H 1573.43 3.62708 -4.91198 0
M  V30 16871 H 1574.84 1.44637 -5.54755 0
M  V30 16872 H 1573.24 0.766302 -5.95187 0
M  V30 16873 H 1574.31 -0.116145 -4.84761 0
M  V30 16874 N 1575.65 1.57214 0.110213 0
M  V30 16875 C 1577.07 1.52706 0.464004 0
M  V30 16876 C 1577.27 0.87792 1.81369 0
M  V30 16877 O 1576.33 0.463987 2.482 0
M  V30 16878 C 1577.64 2.97457 0.440406 0
M  V30 16879 C 1579.19 3.08594 0.523336 0
M  V30 16880 C 1579.66 4.54923 0.53004 0
M  V30 16881 N 1581.15 4.59411 0.591228 0
M  V30 16882 C 1581.89 5.7006 0.618007 0
M  V30 16883 N 1581.38 6.9018 0.601901 0
M  V30 16884 N 1583.18 5.58192 0.661679 0
M  V30 16885 H 1575.33 1.97794 -0.77403 0
M  V30 16886 H 1577.59 0.903673 -0.286496 0
M  V30 16887 H 1577.3 3.48356 -0.483845 0
M  V30 16888 H 1577.17 3.55356 1.26498 0
M  V30 16889 H 1579.56 2.57692 1.43801 0
M  V30 16890 H 1579.64 2.53674 -0.329095 0
M  V30 16891 H 1579.28 5.06472 -0.380623 0
M  V30 16892 H 1579.21 5.07663 1.39948 0
M  V30 16893 H 1581.7 3.72953 0.609483 0
M  V30 16894 H 1582.02 7.70267 0.6252 0
M  V30 16895 H 1580.36 6.92665 0.569186 0
M  V30 16896 H 1583.55 4.63256 0.671686 0
M  V30 16897 H 1583.73 6.44432 0.67908 0
M  V30 16898 N 1577.13 -0.380637 1.52934 0
M  V30 16899 C 1578.08 -1.48584 1.78957 0
M  V30 16900 C 1579.07 -1.56103 0.657901 0
M  V30 16901 O 1580.28 -1.59169 0.84055 0
M  V30 16902 H 1576.66 -0.494687 0.566382 0
M  V30 16903 H 1578.63 -1.23833 2.71492 0
M  V30 16904 C 1577.38 -2.85615 1.98291 0
M  V30 16905 H 1576.7 -2.80583 2.84804 0
M  V30 16906 H 1578.14 -3.62164 2.20485 0
M  V30 16907 C 1576.6 -3.28267 0.757764 0
M  V30 16908 O 1577.13 -4.01654 -0.0608007 0
M  V30 16909 N 1575.33 -2.84641 0.585486 0
M  V30 16910 H 1574.88 -2.25087 1.25274 0
M  V30 16911 H 1574.84 -3.13536 -0.232871 0
M  V30 16912 N 1578.61 -1.44039 -0.639573 0
M  V30 16913 C 1579.86 -1.4566 -1.39521 0
M  V30 16914 C 1580.17 -0.0897878 -1.95394 0
M  V30 16915 O 1581.38 0.0165074 -2.71495 0
M  V30 16916 C 1579.83 -2.56395 -2.52566 0
M  V30 16917 C 1579.44 -3.99245 -2.03243 0
M  V30 16918 C 1581.19 -2.67226 -3.29834 0
M  V30 16919 C 1579.09 -5.01419 -3.1358 0
M  V30 16920 H 1578.02 -0.541894 -0.524277 0
M  V30 16921 H 1580.67 -1.70076 -0.688941 0
M  V30 16922 H 1579.06 -2.25204 -3.25729 0
M  V30 16923 H 1580.23 -4.39963 -1.37002 0
M  V30 16924 H 1578.55 -3.9258 -1.38816 0
M  V30 16925 H 1581.14 -3.40736 -4.12072 0
M  V30 16926 H 1581.49 -1.72756 -3.78763 0
M  V30 16927 H 1582.02 -2.97786 -2.63758 0
M  V30 16928 H 1578.76 -5.97489 -2.69605 0
M  V30 16929 H 1578.28 -4.65301 -3.7849 0
M  V30 16930 H 1579.96 -5.2474 -3.78493 0
M  V30 16931 N 1580.09 0.879207 -1.30796 0
M  V30 16932 C 1581.37 1.61328 -1.10602 0
M  V30 16933 C 1581.75 2.08301 0.342621 0
M  V30 16934 O 1581.09 1.85436 1.33514 0
M  V30 16935 C 1581.3 2.77838 -2.11203 0
M  V30 16936 C 1582.65 3.48028 -2.43231 0
M  V30 16937 O 1583.68 2.88034 -2.09559 0
M  V30 16938 O 1582.53 4.56233 -3.00854 0
M  V30 16939 H 1579.63 0.709335 -0.425174 0
M  V30 16940 H 1582.17 0.925478 -1.42243 0
M  V30 16941 H 1580.95 2.40475 -3.08687 0
M  V30 16942 H 1580.57 3.54312 -1.80414 0
M  V30 16943 N 1581.57 1.13606 1.09231 0
M  V30 16944 C 1582.52 0.810747 2.18013 0
M  V30 16945 C 1583.51 -0.207782 1.68121 0
M  V30 16946 O 1584.72 -0.0647274 1.79884 0
M  V30 16947 H 1581.09 0.244415 0.711172 0
M  V30 16948 H 1583.06 1.73632 2.42682 0
M  V30 16949 C 1581.81 0.295302 3.46444 0
M  V30 16950 H 1581.13 1.07037 3.85205 0
M  V30 16951 H 1582.57 0.106127 4.23867 0
M  V30 16952 C 1581.03 -0.979398 3.2235 0
M  V30 16953 O 1581.56 -2.05483 3.45166 0
M  V30 16954 N 1579.77 -0.911282 2.75942 0
M  V30 16955 H 1579.32 -0.035979 2.57575 0
M  V30 16956 H 1579.27 -1.76476 2.60199 0
M  V30 16957 N 1583.05 -1.27244 0.929878 0
M  V30 16958 C 1584.46 -1.4662 0.630451 0
M  V30 16959 C 1584.66 -1.84077 -0.819633 0
M  V30 16960 O 1583.72 -1.95555 -1.59733 0
M  V30 16961 C 1585.03 -2.55709 1.58219 0
M  V30 16962 C 1586.58 -2.69569 1.59065 0
M  V30 16963 C 1587.05 -3.81818 2.52941 0
M  V30 16964 N 1588.54 -3.89195 2.51161 0
M  V30 16965 C 1589.28 -4.75474 3.20488 0
M  V30 16966 N 1588.78 -5.66225 3.99201 0
M  V30 16967 N 1590.57 -4.69222 3.09495 0
M  V30 16968 H 1582.72 -1.01216 1.86733 0
M  V30 16969 H 1584.98 -0.505737 0.801832 0
M  V30 16970 H 1584.69 -2.34985 2.61677 0
M  V30 16971 H 1584.56 -3.53141 1.32556 0
M  V30 16972 H 1586.95 -2.89672 0.563375 0
M  V30 16973 H 1587.03 -1.72616 1.88778 0
M  V30 16974 H 1586.67 -3.62467 3.55781 0
M  V30 16975 H 1586.6 -4.78202 2.20524 0
M  V30 16976 H 1589.1 -3.24305 1.93997 0
M  V30 16977 H 1589.41 -6.28925 4.4908 0
M  V30 16978 H 1587.75 -5.66013 4.03304 0
M  V30 16979 H 1590.94 -3.97322 2.47493 0
M  V30 16980 H 1591.12 -5.36244 3.63794 0
M  V30 16981 N 1584.52 -0.695628 -1.41417 0
M  V30 16982 C 1585.77 -0.223719 -2.00455 0
M  V30 16983 C 1586.09 1.18352 -1.55731 0
M  V30 16984 O 1587.29 1.7529 -2.0733 0
M  V30 16985 C 1585.75 -0.349076 -3.58203 0
M  V30 16986 C 1585.36 -1.76168 -4.11909 0
M  V30 16987 C 1587.1 0.0630563 -4.24453 0
M  V30 16988 C 1585.01 -1.83869 -5.62091 0
M  V30 16989 H 1583.94 -0.0798833 -0.749756 0
M  V30 16990 H 1586.59 -0.863834 -1.61896 0
M  V30 16991 H 1584.97 0.35929 -3.94367 0
M  V30 16992 H 1586.14 -2.49881 -3.87164 0
M  V30 16993 H 1584.46 -2.1235 -3.58185 0
M  V30 16994 H 1587.06 0.0259584 -5.34694 0
M  V30 16995 H 1587.4 1.10179 -4.01455 0
M  V30 16996 H 1587.93 -0.595036 -3.93324 0
M  V30 16997 H 1584.67 -2.85796 -5.89916 0
M  V30 16998 H 1584.19 -1.14541 -5.88762 0
M  V30 16999 H 1585.87 -1.60161 -6.26863 0
M  V30 17000 N 1586 1.51322 -0.440383 0
M  V30 17001 C 1587.41 1.86687 0.0220272 0
M  V30 17002 C 1587.76 1.35734 1.41671 0
M  V30 17003 O 1586.89 0.709408 2.04442 0
M  V30 17004 C 1587.48 3.38768 0.0467477 0
M  V30 17005 C 1586.04 3.73657 0.45358 0
M  V30 17006 C 1585.19 2.7506 -0.351779 0
M  V30 17007 H 1588.14 1.44503 -0.65609 0
M  V30 17008 H 1588.16 3.70756 0.855589 0
M  V30 17009 H 1587.67 3.75823 -0.968451 0
M  V30 17010 H 1585.77 3.42193 1.47427 0
M  V30 17011 H 1585.89 4.78776 0.176262 0
M  V30 17012 H 1584.25 2.53988 0.190334 0
M  V30 17013 H 1585.03 3.14957 -1.36591 0
M  V30 17014 N 1587.48 0.171848 1.5666 0
M  V30 17015 C 1588.71 -0.478526 2.00982 0
M  V30 17016 C 1589.12 -1.57313 1.05115 0
M  V30 17017 O 1588.46 -1.83647 0.0441833 0
M  V30 17018 C 1588.52 -1.11633 3.41729 0
M  V30 17019 C 1588.19 -0.163307 4.56708 0
M  V30 17020 C 1589.18 0.618553 5.16207 0
M  V30 17021 C 1586.87 -0.0589794 5.02265 0
M  V30 17022 C 1588.86 1.49194 6.19693 0
M  V30 17023 C 1586.55 0.817987 6.05601 0
M  V30 17024 C 1587.55 1.59203 6.64186 0
M  V30 17025 O 1587.24 2.45434 7.65518 0
M  V30 17026 H 1586.97 -0.126833 0.663995 0
M  V30 17027 H 1589.52 0.270866 2.03606 0
M  V30 17028 H 1587.75 -1.91385 3.36019 0
M  V30 17029 H 1589.44 -1.66896 3.70001 0
M  V30 17030 H 1590.21 0.548127 4.81893 0
M  V30 17031 H 1586.09 -0.651245 4.56377 0
M  V30 17032 H 1589.63 2.09656 6.6535 0
M  V30 17033 H 1585.53 0.889614 6.3934 0
M  V30 17034 H 1586.29 2.38955 7.82843 0
M  V30 17035 N 1588.96 -1.5727 -0.101874 0
M  V30 17036 C 1590.18 -1.90319 -0.824215 0
M  V30 17037 C 1590.61 -0.765469 -1.7182 0
M  V30 17038 O 1589.97 0.283275 -1.79073 0
M  V30 17039 C 1590.01 -3.22201 -1.61922 0
M  V30 17040 O 1589.12 -3.09313 -2.72762 0
M  V30 17041 H 1588.46 -0.624042 -0.226864 0
M  V30 17042 H 1590.99 -2.04447 -0.0791314 0
M  V30 17043 H 1591 -3.55343 -2.00487 0
M  V30 17044 H 1589.67 -4.04596 -0.963078 0
M  V30 17045 H 1588.25 -2.87672 -2.37274 0
M  V30 17046 N 1590.44 0.372521 -1.53134 0
M  V30 17047 C 1591.66 1.13668 -1.72879 0
M  V30 17048 C 1592.08 1.83246 -0.454588 0
M  V30 17049 O 1591.44 1.73302 0.572062 0
M  V30 17050 C 1591.49 2.17226 -2.88955 0
M  V30 17051 O 1591.21 1.50483 -4.11445 0
M  V30 17052 C 1592.71 3.06243 -3.20516 0
M  V30 17053 H 1589.93 0.340156 -0.57839 0
M  V30 17054 H 1592.47 0.433557 -1.99851 0
M  V30 17055 H 1590.63 2.83148 -2.64397 0
M  V30 17056 H 1591.04 2.19425 -4.76396 0
M  V30 17057 H 1592.52 3.74901 -4.05158 0
M  V30 17058 H 1592.99 3.70669 -2.35587 0
M  V30 17059 H 1593.6 2.45946 -3.46973 0
M  V30 17060 N 1591.91 1.44376 0.631925 0
M  V30 17061 C 1593.14 1.50598 1.41873 0
M  V30 17062 C 1593.56 0.130589 1.88348 0
M  V30 17063 O 1592.91 -0.86336 1.60787 0
M  V30 17064 C 1592.96 2.47 2.63957 0
M  V30 17065 O 1592.69 3.79192 2.1942 0
M  V30 17066 C 1594.19 2.62678 3.57092 0
M  V30 17067 H 1591.41 0.510792 0.435124 0
M  V30 17068 H 1593.95 1.89332 0.772893 0
M  V30 17069 H 1592.11 2.11404 3.24634 0
M  V30 17070 H 1592.52 4.31231 2.98563 0
M  V30 17071 H 1593.99 3.34161 4.39364 0
M  V30 17072 H 1594.47 1.67881 4.05848 0
M  V30 17073 H 1595.08 2.99172 3.02285 0
M  V30 17074 N 1593.39 -0.872258 1.31261 0
M  V30 17075 C 1594.62 -1.6632 1.23905 0
M  V30 17076 C 1595.04 -1.87109 -0.192878 0
M  V30 17077 O 1594.4 -1.4112 -1.1382 0
M  V30 17078 C 1594.45 -3.00979 1.98606 0
M  V30 17079 O 1593.55 -3.90642 1.32183 0
M  V30 17080 H 1592.89 -0.507736 0.427902 0
M  V30 17081 H 1595.42 -1.0877 1.73292 0
M  V30 17082 H 1595.43 -3.50931 2.08113 0
M  V30 17083 H 1594.11 -2.85168 3.02741 0
M  V30 17084 H 1592.68 -3.4909 1.31112 0
M  V30 17085 N 1594.87 -1.14184 -1.08627 0
M  V30 17086 C 1596.28 -0.920108 -1.62453 0
M  V30 17087 C 1596.63 0.541577 -1.88577 0
M  V30 17088 O 1595.76 1.41002 -1.64157 0
M  V30 17089 C 1596.35 -1.6638 -2.95132 0
M  V30 17090 C 1594.91 -1.48771 -3.45752 0
M  V30 17091 C 1594.06 -1.68774 -2.20024 0
M  V30 17092 H 1597.01 -1.29396 -0.91882 0
M  V30 17093 H 1597.03 -1.12568 -3.63468 0
M  V30 17094 H 1596.54 -2.72759 -2.76087 0
M  V30 17095 H 1594.64 -0.44729 -3.69905 0
M  V30 17096 H 1594.76 -2.25619 -4.2265 0
M  V30 17097 H 1593.12 -1.11321 -2.29084 0
M  V30 17098 H 1593.9 -2.76491 -2.03489 0
M  V30 17099 N 1596.35 1.26749 -0.936613 0
M  V30 17100 C 1597.6 1.9358 -0.580605 0
M  V30 17101 C 1597.92 1.7389 0.882446 0
M  V30 17102 O 1597.19 1.09185 1.62652 0
M  V30 17103 H 1595.77 0.716363 -0.211739 0
M  V30 17104 H 1598.43 1.54281 -1.19095 0
M  V30 17105 H 1597.53 3.01819 -0.79448 0
M  V30 17106 N 1597.83 0.703118 1.41046 0
M  V30 17107 C 1599.07 0.237638 2.01403 0
M  V30 17108 C 1599.41 -1.16217 1.55587 0
M  V30 17109 O 1598.68 -1.78593 0.770377 0
M  V30 17110 C 1598.96 0.303738 3.58817 0
M  V30 17111 C 1598.82 1.74103 4.14739 0
M  V30 17112 C 1600.14 -0.332186 4.38845 0
M  V30 17113 H 1597.25 0.0878243 0.731749 0
M  V30 17114 H 1599.9 0.893264 1.67693 0
M  V30 17115 H 1598.05 -0.254485 3.87666 0
M  V30 17116 H 1599.72 2.35368 3.96736 0
M  V30 17117 H 1597.96 2.27277 3.69496 0
M  V30 17118 H 1598.63 1.73876 5.239 0
M  V30 17119 H 1601.11 0.143312 4.15853 0
M  V30 17120 H 1599.98 -0.255429 5.48305 0
M  V30 17121 H 1600.25 -1.41397 4.18878 0
M  V30 17122 N 1599.3 -1.51086 0.448402 0
M  V30 17123 C 1600.27 -2.26575 -0.3459 0
M  V30 17124 C 1601.27 -1.3045 -0.940178 0
M  V30 17125 O 1602.46 -1.5407 -0.812898 0
M  V30 17126 C 1599.59 -3.06591 -1.49045 0
M  V30 17127 H 1600.78 -2.98232 0.315822 0
M  V30 17128 H 1598.34 -1.54991 0.201851 0
M  V30 17129 H 1599.07 -2.39377 -2.1879 0
M  V30 17130 H 1598.86 -3.77207 -1.07038 0
M  V30 17131 H 1600.35 -3.63743 -2.05135 0
M  V30 17132 N 1600.78 -0.180154 -1.56567 0
M  V30 17133 C 1602.01 0.471692 -2.01965 0
M  V30 17134 C 1602.43 1.5542 -1.05954 0
M  V30 17135 O 1601.79 1.81255 -0.0405307 0
M  V30 17136 C 1601.84 1.01883 -3.45908 0
M  V30 17137 O 1600.94 2.13245 -3.52988 0
M  V30 17138 H 1600.28 0.11197 -0.654491 0
M  V30 17139 H 1602.81 -0.286642 -2.02582 0
M  V30 17140 H 1602.82 1.33922 -3.85395 0
M  V30 17141 H 1601.5 0.226299 -4.15284 0
M  V30 17142 H 1600.08 1.82184 -3.25367 0
M  V30 17143 N 1602.26 1.57322 0.0935319 0
M  V30 17144 C 1603.21 1.98608 1.11977 0
M  V30 17145 C 1604.19 0.864762 1.35686 0
M  V30 17146 O 1605.39 1.1286 1.36351 0
M  V30 17147 C 1602.52 2.41537 2.43957 0
M  V30 17148 C 1601.6 3.60357 2.23615 0
M  V30 17149 N 1601.99 4.75242 1.73144 0
M  V30 17150 C 1600.29 3.66485 2.54175 0
M  V30 17151 C 1600.99 5.5718 1.67109 0
M  V30 17152 N 1599.97 5.00396 2.1238 0
M  V30 17153 H 1603.77 2.84881 0.722513 0
M  V30 17154 H 1601.28 1.59587 0.300936 0
M  V30 17155 H 1603.28 2.69343 3.18213 0
M  V30 17156 H 1601.94 1.56641 2.84418 0
M  V30 17157 H 1602.95 4.97961 1.42319 0
M  V30 17158 H 1599.63 2.92255 2.9815 0
M  V30 17159 H 1601.02 6.59376 1.29125 0
M  V30 17160 N 1603.74 -0.364395 1.53329 0
M  V30 17161 C 1605.15 -0.941133 1.61244 0
M  V30 17162 C 1605.5 -1.90223 0.480596 0
M  V30 17163 O 1604.63 -2.12805 -0.392805 0
M  V30 17164 C 1605.22 -1.7137 2.92263 0
M  V30 17165 C 1603.78 -2.23976 3.02509 0
M  V30 17166 C 1602.93 -1.05253 2.56548 0
M  V30 17167 H 1605.88 -0.143153 1.58053 0
M  V30 17168 H 1605.9 -2.575 2.80132 0
M  V30 17169 H 1605.41 -1.01395 3.74621 0
M  V30 17170 H 1603.51 -2.9719 2.24741 0
M  V30 17171 H 1603.62 -2.51777 4.07609 0
M  V30 17172 H 1601.99 -1.41986 2.11452 0
M  V30 17173 H 1602.77 -0.367744 3.41325 0
M  V30 17174 N 1605.22 -1.44709 -0.62426 0
M  V30 17175 C 1606.18 -1.51738 -1.7178 0
M  V30 17176 C 1607.18 -0.398646 -1.5578 0
M  V30 17177 O 1608.37 -0.661525 -1.61151 0
M  V30 17178 C 1605.5 -1.39792 -3.1092 0
M  V30 17179 H 1606.69 -2.49154 -1.6692 0
M  V30 17180 H 1604.25 -1.31903 -0.838531 0
M  V30 17181 H 1604.98 -0.434955 -3.2137 0
M  V30 17182 H 1604.77 -2.20919 -3.2394 0
M  V30 17183 H 1606.26 -1.47706 -3.90606 0
M  V30 17184 N 1606.69 0.865285 -1.31722 0
M  V30 17185 C 1607.92 1.65137 -1.24649 0
M  V30 17186 C 1608.34 1.87868 0.187391 0
M  V30 17187 O 1607.69 1.44015 1.12098 0
M  V30 17188 C 1607.75 3.0167 -1.99193 0
M  V30 17189 O 1607.47 2.79951 -3.36985 0
M  V30 17190 C 1608.97 3.96115 -1.99017 0
M  V30 17191 H 1606.19 0.514683 -0.430514 0
M  V30 17192 H 1608.73 1.07971 -1.73674 0
M  V30 17193 H 1606.89 3.55511 -1.53918 0
M  V30 17194 H 1607.3 3.66706 -3.75002 0
M  V30 17195 H 1608.77 4.89217 -2.55677 0
M  V30 17196 H 1609.25 4.28268 -0.973815 0
M  V30 17197 H 1609.86 3.4821 -2.44192 0
M  V30 17198 N 1608.17 1.14759 1.0802 0
M  V30 17199 C 1609.42 0.919609 1.80751 0
M  V30 17200 C 1609.75 -0.552268 1.86182 0
M  V30 17201 O 1609.03 -1.40922 1.34057 0
M  V30 17202 C 1609.31 1.52611 3.26162 0
M  V30 17203 C 1609.16 3.06811 3.28918 0
M  V30 17204 C 1610.48 1.20625 4.23246 0
M  V30 17205 H 1607.6 0.33551 0.656203 0
M  V30 17206 H 1610.24 1.41816 1.26444 0
M  V30 17207 H 1608.39 1.10213 3.72539 0
M  V30 17208 H 1610.06 3.58068 2.90835 0
M  V30 17209 H 1608.31 3.41055 2.68075 0
M  V30 17210 H 1608.98 3.44357 4.31419 0
M  V30 17211 H 1611.45 1.57287 3.85227 0
M  V30 17212 H 1610.33 1.65689 5.23296 0
M  V30 17213 H 1610.59 0.122177 4.41931 0
M  V30 17214 N 1609.65 -1.26251 0.943322 0
M  V30 17215 C 1611.06 -1.75591 0.634391 0
M  V30 17216 C 1611.41 -1.76812 -0.850406 0
M  V30 17217 O 1610.54 -1.38162 -1.66554 0
M  V30 17218 C 1611.13 -3.18871 1.14484 0
M  V30 17219 C 1609.69 -3.65817 0.886285 0
M  V30 17220 C 1608.84 -2.4523 1.2945 0
M  V30 17221 H 1611.79 -1.12297 1.12139 0
M  V30 17222 H 1611.81 -3.77205 0.499654 0
M  V30 17223 H 1611.32 -3.17951 2.22551 0
M  V30 17224 H 1609.42 -3.72165 -0.179913 0
M  V30 17225 H 1609.54 -4.54523 1.5148 0
M  V30 17226 H 1607.9 -2.44519 0.712919 0
M  V30 17227 H 1608.68 -2.47009 2.38415 0
M  V30 17228 N 1611.13 -0.710588 -1.40671 0
M  V30 17229 C 1612.35 -0.256007 -2.05814 0
M  V30 17230 C 1612.78 1.09178 -1.53173 0
M  V30 17231 O 1612.14 1.68665 -0.664977 0
M  V30 17232 C 1612.19 -0.240528 -3.59797 0
M  V30 17233 O 1611.29 0.779859 -4.04959 0
M  V30 17234 H 1610.63 -0.121326 -0.652822 0
M  V30 17235 H 1613.16 -0.969667 -1.80163 0
M  V30 17236 H 1613.17 -0.0765027 -4.07928 0
M  V30 17237 H 1611.85 -1.22411 -3.97478 0
M  V30 17238 H 1610.42 0.583965 -3.68299 0
M  V30 17239 N 1612.61 1.50847 -0.456408 0
M  V30 17240 C 1613.56 2.29805 0.359529 0
M  V30 17241 C 1614.55 1.3646 1.00374 0
M  V30 17242 O 1615.76 1.53718 0.936524 0
M  V30 17243 H 1612.13 0.739825 0.134772 0
M  V30 17244 H 1614.1 2.96603 -0.327009 0
M  V30 17245 C 1612.85 3.16597 1.43741 0
M  V30 17246 H 1612.17 3.88323 0.95108 0
M  V30 17247 H 1613.61 3.74866 1.98119 0
M  V30 17248 C 1612.07 2.3322 2.43126 0
M  V30 17249 O 1612.6 2.00504 3.48082 0
M  V30 17250 N 1610.81 1.96078 2.1448 0
M  V30 17251 H 1610.36 2.22883 1.29155 0
M  V30 17252 H 1610.31 1.40592 2.81214 0
M  V30 17253 N 1614.09 0.188454 1.56469 0
M  V30 17254 C 1615 -0.747176 2.22384 0
M  V30 17255 C 1616.01 -1.23985 1.22081 0
M  V30 17256 O 1617.19 -1.2884 1.54797 0
M  V30 17257 C 1614.25 -1.95228 2.86508 0
M  V30 17258 C 1613.31 -1.50482 4.02062 0
M  V30 17259 C 1612.55 -2.65248 4.63119 0
M  V30 17260 O 1612.77 -3.8256 4.23088 0
M  V30 17261 O 1611.7 -2.38341 5.527 0
M  V30 17262 H 1615.53 -0.215857 3.02932 0
M  V30 17263 H 1613.11 -0.0405356 1.49345 0
M  V30 17264 H 1615 -2.65673 3.27103 0
M  V30 17265 H 1613.67 -2.47233 2.08944 0
M  V30 17266 H 1612.58 -0.769365 3.66103 0
M  V30 17267 H 1613.91 -1.03151 4.8127 0
M  V30 17268 N 1615.56 -1.5737 -0.0851874 0
M  V30 17269 C 1616.98 -1.53425 -0.439651 0
M  V30 17270 C 1617.18 -0.906663 -1.7995 0
M  V30 17271 O 1616.24 -0.503414 -2.47431 0
M  V30 17272 C 1617.55 -2.9812 -0.393028 0
M  V30 17273 C 1619.1 -3.09387 -0.474175 0
M  V30 17274 C 1619.57 -4.55708 -0.457598 0
M  V30 17275 N 1621.06 -4.60294 -0.518065 0
M  V30 17276 C 1621.8 -5.70971 -0.527237 0
M  V30 17277 N 1621.29 -6.91051 -0.492023 0
M  V30 17278 N 1623.09 -5.59174 -0.572792 0
M  V30 17279 H 1615.24 -1.96538 0.805399 0
M  V30 17280 H 1617.5 -0.899 0.300836 0
M  V30 17281 H 1617.21 -3.47542 0.539204 0
M  V30 17282 H 1617.08 -3.57324 -1.20829 0
M  V30 17283 H 1619.47 -2.59948 -1.39683 0
M  V30 17284 H 1619.55 -2.53119 0.369411 0
M  V30 17285 H 1619.19 -5.05802 0.46115 0
M  V30 17286 H 1619.12 -5.09826 -1.31853 0
M  V30 17287 H 1621.61 -3.73875 -0.550072 0
M  V30 17288 H 1621.93 -7.71164 -0.502578 0
M  V30 17289 H 1620.27 -6.93483 -0.458917 0
M  V30 17290 H 1623.46 -4.64266 -0.597901 0
M  V30 17291 H 1623.64 -6.45431 -0.576471 0
M  V30 17292 N 1617.04 0.356258 -1.53521 0
M  V30 17293 C 1618.45 0.932569 -1.61741 0
M  V30 17294 C 1618.8 1.89965 -0.490677 0
M  V30 17295 O 1617.93 2.1301 0.381514 0
M  V30 17296 C 1618.52 1.69818 -2.93168 0
M  V30 17297 C 1617.08 2.22369 -3.03692 0
M  V30 17298 C 1616.23 1.03891 -2.57103 0
M  V30 17299 H 1619.18 0.134769 -1.58127 0
M  V30 17300 H 1619.2 2.56011 -2.81494 0
M  V30 17301 H 1618.71 0.994065 -3.75153 0
M  V30 17302 H 1616.81 2.95994 -2.26314 0
M  V30 17303 H 1616.93 2.49611 -4.08939 0
M  V30 17304 H 1615.29 1.40862 -2.12202 0
M  V30 17305 H 1616.07 0.349637 -3.41515 0
M  V30 17306 N 1618.52 1.45038 0.616577 0
M  V30 17307 C 1619.77 1.48292 1.3731 0
M  V30 17308 C 1620.09 0.122437 1.94615 0
M  V30 17309 O 1619.36 -0.847103 1.76638 0
M  V30 17310 H 1617.94 0.546079 0.509712 0
M  V30 17311 H 1620.6 1.80927 0.724673 0
M  V30 17312 H 1619.7 2.21664 2.19708 0
M  V30 17313 N 1620 -0.858287 1.32179 0
M  V30 17314 C 1620.94 -1.96656 1.20811 0
M  V30 17315 C 1621.91 -1.6585 0.0911199 0
M  V30 17316 O 1623.1 -1.88936 0.266033 0
M  V30 17317 C 1620.24 -3.32237 0.933408 0
M  V30 17318 C 1619.35 -3.75564 2.13484 0
M  V30 17319 C 1618.49 -4.9992 1.79593 0
M  V30 17320 C 1617.53 -5.35728 2.96077 0
M  V30 17321 N 1616.66 -6.51261 2.62304 0
M  V30 17322 H 1621.5 -2.05711 2.15609 0
M  V30 17323 H 1619.04 -1.00689 1.07239 0
M  V30 17324 H 1621 -4.10318 0.754651 0
M  V30 17325 H 1619.63 -3.22792 0.0222279 0
M  V30 17326 H 1618.68 -2.93167 2.42399 0
M  V30 17327 H 1619.99 -3.98025 3.00629 0
M  V30 17328 H 1619.15 -5.85698 1.58248 0
M  V30 17329 H 1617.89 -4.79388 0.896561 0
M  V30 17330 H 1616.89 -4.48463 3.18058 0
M  V30 17331 H 1618.12 -5.58219 3.86741 0
M  V30 17332 H 1616.06 -6.32254 1.74904 0
M  V30 17333 H 1615.98 -6.73722 3.42979 0
M  V30 17334 H 1617.25 -7.40202 2.4438 0
M  V30 17335 N 1621.48 -1.1533 -1.07409 0
M  V30 17336 C 1622.39 -0.863514 -2.1813 0
M  V30 17337 C 1623.4 0.159954 -1.73263 0
M  V30 17338 O 1624.58 -0.0139818 -2.01395 0
M  V30 17339 C 1621.64 -0.356271 -3.44865 0
M  V30 17340 C 1620.7 -1.44356 -4.04302 0
M  V30 17341 C 1619.94 -0.960429 -5.24987 0
M  V30 17342 O 1620.16 0.194227 -5.70069 0
M  V30 17343 O 1619.09 -1.74387 -5.76084 0
M  V30 17344 H 1622.92 -1.78909 -2.45408 0
M  V30 17345 H 1620.5 -0.932362 -1.16736 0
M  V30 17346 H 1622.39 -0.0798183 -4.21324 0
M  V30 17347 H 1621.06 0.541445 -3.1914 0
M  V30 17348 H 1619.97 -1.77361 -3.29384 0
M  V30 17349 H 1621.3 -2.31617 -4.34298 0
M  V30 17350 N 1622.95 1.25748 -0.950004 0
M  V30 17351 C 1623.89 2.25247 -0.423855 0
M  V30 17352 C 1624.9 1.56233 0.457726 0
M  V30 17353 O 1626.09 1.76496 0.266749 0
M  V30 17354 C 1623.19 3.36422 0.409074 0
M  V30 17355 C 1622.36 4.34991 -0.458421 0
M  V30 17356 C 1621.42 5.25253 0.315537 0
M  V30 17357 O 1620.45 5.68489 -0.284474 0
M  V30 17358 N 1621.65 5.57732 1.60983 0
M  V30 17359 H 1624.41 2.71026 -1.27925 0
M  V30 17360 H 1621.97 1.39607 -0.819853 0
M  V30 17361 H 1623.97 3.93764 0.934447 0
M  V30 17362 H 1622.54 2.90068 1.1653 0
M  V30 17363 H 1621.76 3.76594 -1.16494 0
M  V30 17364 H 1623.04 4.97833 -1.05068 0
M  V30 17365 H 1622.44 5.24502 2.1193 0
M  V30 17366 H 1621 6.17678 2.08126 0
M  V30 17367 N 1624.43 0.718038 1.40292 0
M  V30 17368 C 1625.36 0.0818367 2.33357 0
M  V30 17369 C 1626.34 -0.742854 1.53022 0
M  V30 17370 O 1627.53 -0.691281 1.8148 0
M  V30 17371 C 1624.66 -0.838843 3.37017 0
M  V30 17372 C 1623.61 -0.119589 4.27833 0
M  V30 17373 C 1622.94 -1.15615 5.22051 0
M  V30 17374 C 1624.24 1.02769 5.1209 0
M  V30 17375 H 1625.93 0.859167 2.86808 0
M  V30 17376 H 1623.48 0.414606 1.37902 0
M  V30 17377 H 1625.43 -1.29332 4.01063 0
M  V30 17378 H 1624.15 -1.6481 2.81967 0
M  V30 17379 H 1622.81 0.315088 3.65243 0
M  V30 17380 H 1622.46 -1.95852 4.63304 0
M  V30 17381 H 1622.16 -0.679767 5.83655 0
M  V30 17382 H 1623.69 -1.61068 5.88973 0
M  V30 17383 H 1625.1 0.652461 5.69575 0
M  V30 17384 H 1623.5 1.4326 5.82749 0
M  V30 17385 H 1624.57 1.85723 4.47923 0
M  V30 17386 N 1625.91 -1.50602 0.464402 0
M  V30 17387 C 1627.14 -2.06401 -0.0906449 0
M  V30 17388 C 1627.55 -1.32913 -1.3465 0
M  V30 17389 O 1626.89 -0.389959 -1.79513 0
M  V30 17390 C 1626.95 -3.56655 -0.451375 0
M  V30 17391 C 1626.62 -4.51584 0.701504 0
M  V30 17392 C 1627.61 -4.95259 1.5816 0
M  V30 17393 C 1625.3 -4.94354 0.88993 0
M  V30 17394 C 1627.29 -5.80404 2.63458 0
M  V30 17395 C 1624.98 -5.79283 1.94615 0
M  V30 17396 C 1625.98 -6.22208 2.81684 0
M  V30 17397 O 1625.67 -7.05446 3.85489 0
M  V30 17398 H 1625.4 -0.676 0.000751268 0
M  V30 17399 H 1627.95 -1.94836 0.650235 0
M  V30 17400 H 1626.18 -3.66098 -1.24535 0
M  V30 17401 H 1627.87 -3.94848 -0.940722 0
M  V30 17402 H 1628.64 -4.6289 1.44768 0
M  V30 17403 H 1624.52 -4.60467 0.221708 0
M  V30 17404 H 1628.06 -6.13829 3.3145 0
M  V30 17405 H 1623.96 -6.11064 2.08016 0
M  V30 17406 H 1624.73 -7.23682 3.82396 0
M  V30 17407 N 1627.39 -0.19675 -1.56367 0
M  V30 17408 C 1628.64 0.441584 -1.97627 0
M  V30 17409 C 1628.96 1.61514 -1.08368 0
M  V30 17410 O 1628.22 1.95312 -0.123139 0
M  V30 17411 C 1628.52 0.942382 -3.44752 0
M  V30 17412 C 1628.18 -0.117977 -4.50746 0
M  V30 17413 C 1626.85 -0.409332 -4.79456 0
M  V30 17414 C 1629.2 -0.836374 -5.14446 0
M  V30 17415 C 1626.53 -1.42403 -5.69156 0
M  V30 17416 C 1628.88 -1.84024 -6.05242 0
M  V30 17417 C 1627.54 -2.13877 -6.32308 0
M  V30 17418 H 1626.81 0.161587 -0.723167 0
M  V30 17419 H 1629.46 -0.294063 -1.89229 0
M  V30 17420 H 1627.76 1.75633 -3.50229 0
M  V30 17421 H 1629.46 1.44571 -3.74032 0
M  V30 17422 H 1626.05 0.119274 -4.28434 0
M  V30 17423 H 1630.23 -0.62451 -4.92355 0
M  V30 17424 H 1625.49 -1.66122 -5.88399 0
M  V30 17425 H 1629.66 -2.40212 -6.5366 0
M  V30 17426 H 1627.29 -2.92649 -7.01613 0
M  V30 17427 N 1628.87 1.57413 0.0768405 0
M  V30 17428 C 1630.11 1.87002 0.776948 0
M  V30 17429 C 1630.44 0.787799 1.77831 0
M  V30 17430 O 1629.7 -0.216742 1.94496 0
M  V30 17431 C 1630 3.2324 1.52482 0
M  V30 17432 C 1629.66 4.45986 0.663899 0
M  V30 17433 C 1628.32 4.79305 0.426629 0
M  V30 17434 C 1630.68 5.21157 0.0665867 0
M  V30 17435 C 1628 5.85213 -0.417518 0
M  V30 17436 C 1630.36 6.27958 -0.764986 0
M  V30 17437 C 1629.02 6.59781 -1.01218 0
M  V30 17438 H 1628.29 0.684289 0.284306 0
M  V30 17439 H 1630.94 1.91463 0.0378686 0
M  V30 17440 H 1629.24 3.14547 2.33596 0
M  V30 17441 H 1630.94 3.43368 2.07123 0
M  V30 17442 H 1627.53 4.19905 0.858956 0
M  V30 17443 H 1631.71 4.95734 0.237022 0
M  V30 17444 H 1626.97 6.0827 -0.617827 0
M  V30 17445 H 1631.14 6.85369 -1.23459 0
M  V30 17446 H 1628.77 7.41674 -1.66806 0
M  V30 17447 N 1630.34 -0.348112 1.53707 0
M  V30 17448 C 1631.59 -1.08671 1.70396 0
M  V30 17449 C 1631.91 -1.89314 0.467453 0
M  V30 17450 O 1631.18 -1.88911 -0.518605 0
M  V30 17451 H 1629.76 -0.404186 0.628206 0
M  V30 17452 H 1632.43 -0.390491 1.90948 0
M  V30 17453 H 1631.52 -1.76668 2.57284 0
M  V30 17454 N 1631.82 -1.45363 -0.608876 0
M  V30 17455 C 1632.77 -1.53936 -1.71966 0
M  V30 17456 C 1633.74 -0.385352 -1.61568 0
M  V30 17457 O 1634.92 -0.598622 -1.81166 0
M  V30 17458 C 1632.06 -1.51079 -3.10272 0
M  V30 17459 C 1631.18 -2.77022 -3.31486 0
M  V30 17460 C 1630.31 -2.65846 -4.59891 0
M  V30 17461 C 1629.35 -3.86848 -4.74357 0
M  V30 17462 N 1628.49 -3.74214 -5.94061 0
M  V30 17463 H 1633.33 -2.4883 -1.63974 0
M  V30 17464 H 1630.87 -1.23472 -0.799565 0
M  V30 17465 H 1632.82 -1.47411 -3.90289 0
M  V30 17466 H 1631.45 -0.597374 -3.17224 0
M  V30 17467 H 1630.51 -2.90783 -2.45253 0
M  V30 17468 H 1631.82 -3.66776 -3.38049 0
M  V30 17469 H 1630.97 -2.60136 -5.48101 0
M  V30 17470 H 1629.71 -1.73689 -4.55723 0
M  V30 17471 H 1628.72 -3.92918 -3.84572 0
M  V30 17472 H 1629.94 -4.80069 -4.80324 0
M  V30 17473 H 1627.89 -2.84825 -5.9094 0
M  V30 17474 H 1627.8 -4.57601 -6.01779 0
M  V30 17475 H 1629.07 -3.72434 -6.84772 0
M  V30 17476 N 1633.3 0.851265 -1.32632 0
M  V30 17477 C 1634.25 1.98152 -1.21813 0
M  V30 17478 C 1635.24 1.68959 -0.122182 0
M  V30 17479 O 1636.45 1.77724 -0.285332 0
M  V30 17480 H 1632.82 0.650275 -0.377686 0
M  V30 17481 H 1634.79 2.04405 -2.17397 0
M  V30 17482 C 1633.54 3.34141 -0.961521 0
M  V30 17483 H 1632.87 3.57136 -1.79704 0
M  V30 17484 H 1634.31 4.13763 -0.926077 0
M  V30 17485 C 1632.77 3.35223 0.335704 0
M  V30 17486 O 1633.3 3.78461 1.34647 0
M  V30 17487 N 1631.5 2.88376 0.358875 0
M  V30 17488 H 1631.05 2.53383 -0.464194 0
M  V30 17489 H 1631.01 2.89482 1.22668 0
M  V30 17490 N 1634.78 1.15898 1.06796 0
M  V30 17491 C 1635.71 0.88395 2.16122 0
M  V30 17492 C 1636.69 -0.167708 1.69271 0
M  V30 17493 O 1637.87 -0.0208846 1.94189 0
M  V30 17494 C 1635 0.378656 3.4523 0
M  V30 17495 C 1633.96 1.36764 4.05561 0
M  V30 17496 C 1633.28 0.720956 5.29817 0
M  V30 17497 C 1634.58 2.73554 4.44933 0
M  V30 17498 H 1636.28 1.79818 2.39386 0
M  V30 17499 H 1633.82 0.866008 1.15049 0
M  V30 17500 H 1635.78 0.17376 4.21042 0
M  V30 17501 H 1634.5 -0.571063 3.21569 0
M  V30 17502 H 1633.16 1.55899 3.318 0
M  V30 17503 H 1632.81 -0.235089 5.0245 0
M  V30 17504 H 1632.51 1.38101 5.71141 0
M  V30 17505 H 1634.03 0.525963 6.0833 0
M  V30 17506 H 1635.45 2.58231 5.11849 0
M  V30 17507 H 1633.84 3.35986 4.97226 0
M  V30 17508 H 1634.91 3.29192 3.56034 0
M  V30 17509 N 1636.26 -1.25243 0.956659 0
M  V30 17510 C 1637.5 -1.92632 0.611328 0
M  V30 17511 C 1637.83 -1.75272 -0.85467 0
M  V30 17512 O 1637.1 -1.11758 -1.60894 0
M  V30 17513 H 1635.68 -0.712904 0.223109 0
M  V30 17514 H 1638.34 -1.52366 1.21534 0
M  V30 17515 H 1637.43 -3.00516 0.842396 0
M  V30 17516 N 1637.73 -0.725468 -1.3991 0
M  V30 17517 C 1639.15 -0.340415 -1.8357 0
M  V30 17518 C 1639.5 1.1266 -1.6063 0
M  V30 17519 O 1638.62 1.86804 -1.0924 0
M  V30 17520 C 1639.22 -0.611079 -3.33244 0
M  V30 17521 C 1637.78 -0.279627 -3.7536 0
M  V30 17522 C 1636.92 -0.878498 -2.63017 0
M  V30 17523 H 1639.87 -0.923856 -1.29037 0
M  V30 17524 H 1639.89 0.120377 -3.8031 0
M  V30 17525 H 1639.41 -1.67886 -3.49908 0
M  V30 17526 H 1637.51 0.782703 -3.64286 0
M  V30 17527 H 1637.62 -0.755528 -4.73105 0
M  V30 17528 H 1635.98 -0.305813 -2.52857 0
M  V30 17529 H 1636.77 -1.95075 -2.8249 0
M  V30 17530 N 1639.21 1.50354 -0.472382 0
M  V30 17531 C 1640.44 2.06746 0.0798134 0
M  V30 17532 C 1640.86 1.3361 1.33393 0
M  V30 17533 O 1640.21 0.405765 1.77932 0
M  V30 17534 C 1640.26 3.59636 0.3666 0
M  V30 17535 O 1639.98 4.30015 -0.837776 0
M  V30 17536 C 1641.49 4.32655 0.965618 0
M  V30 17537 H 1638.71 0.670956 -0.00765904 0
M  V30 17538 H 1641.25 1.93504 -0.661535 0
M  V30 17539 H 1639.4 3.72676 1.05788 0
M  V30 17540 H 1639.82 5.21248 -0.583161 0
M  V30 17541 H 1641.29 5.406 1.11604 0
M  V30 17542 H 1641.77 3.93237 1.95606 0
M  V30 17543 H 1642.38 4.24149 0.312676 0
M  V30 17544 N 1640.69 0.205039 1.56261 0
M  V30 17545 C 1641.94 -0.430245 1.97467 0
M  V30 17546 C 1642.26 -1.6146 1.09342 0
M  V30 17547 O 1641.53 -1.95188 0.166836 0
M  V30 17548 H 1640.11 -0.161945 0.729234 0
M  V30 17549 H 1642.77 0.294089 1.92668 0
M  V30 17550 H 1641.87 -0.767699 3.02511 0
M  V30 17551 N 1642.17 -1.57451 -0.0684915 0
M  V30 17552 C 1643.13 -2.0293 -1.06545 0
M  V30 17553 C 1644.13 -0.926861 -1.314 0
M  V30 17554 O 1645.32 -1.19164 -1.27065 0
M  V30 17555 C 1642.45 -2.41276 -2.4083 0
M  V30 17556 H 1643.65 -2.92242 -0.673401 0
M  V30 17557 H 1641.2 -1.53107 -0.314307 0
M  V30 17558 H 1641.94 -1.55 -2.8486 0
M  V30 17559 H 1641.72 -3.21727 -2.2413 0
M  V30 17560 H 1643.21 -2.77026 -3.12484 0
M  V30 17561 N 1643.65 0.339955 -1.5389 0
M  V30 17562 C 1644.59 1.41765 -1.8213 0
M  V30 17563 C 1645.56 1.52109 -0.667235 0
M  V30 17564 O 1646.75 1.67591 -0.91203 0
M  V30 17565 C 1643.89 2.78366 -2.03977 0
M  V30 17566 C 1643 2.76785 -3.31684 0
M  V30 17567 C 1642.14 4.05125 -3.4358 0
M  V30 17568 C 1641.18 3.97787 -4.65223 0
M  V30 17569 N 1640.31 5.17825 -4.74133 0
M  V30 17570 H 1645.15 1.16984 -2.74078 0
M  V30 17571 H 1642.69 0.566618 -1.35749 0
M  V30 17572 H 1644.65 3.57755 -2.14633 0
M  V30 17573 H 1643.28 3.01491 -1.15338 0
M  V30 17574 H 1642.33 1.89481 -3.2985 0
M  V30 17575 H 1643.64 2.67241 -4.2117 0
M  V30 17576 H 1642.8 4.9294 -3.53688 0
M  V30 17577 H 1641.54 4.17455 -2.52157 0
M  V30 17578 H 1640.54 3.08357 -4.55188 0
M  V30 17579 H 1641.77 3.87037 -5.58014 0
M  V30 17580 H 1639.71 5.30691 -3.8562 0
M  V30 17581 H 1639.63 5.10552 -5.5756 0
M  V30 17582 H 1640.9 6.074 -4.88554 0
M  V30 17583 N 1645.13 1.45684 0.601159 0
M  V30 17584 C 1646.09 1.54451 1.69344 0
M  V30 17585 C 1647.09 0.423379 1.55126 0
M  V30 17586 O 1648.28 0.687079 1.60078 0
M  V30 17587 C 1645.41 1.4472 3.08657 0
M  V30 17588 H 1646.6 2.51778 1.62935 0
M  V30 17589 H 1644.16 1.3322 0.81744 0
M  V30 17590 H 1644.89 0.486027 3.20637 0
M  V30 17591 H 1644.68 2.26045 3.20384 0
M  V30 17592 H 1646.17 1.53902 3.88206 0
M  V30 17593 N 1646.6 -0.84422 1.33082 0
M  V30 17594 C 1647.57 -1.93519 1.22813 0
M  V30 17595 C 1648.57 -1.60113 0.148516 0
M  V30 17596 O 1649.76 -1.69553 0.399668 0
M  V30 17597 C 1646.89 -3.29045 0.891179 0
M  V30 17598 H 1648.08 -2.04051 2.1978 0
M  V30 17599 H 1645.63 -1.03567 1.17063 0
M  V30 17600 H 1646.37 -3.2421 -0.0762276 0
M  V30 17601 H 1646.15 -3.54671 1.67186 0
M  V30 17602 H 1647.64 -4.08984 0.843932 0
M  V30 17603 N 1648.08 -1.16463 -1.0618 0
M  V30 17604 C 1649.01 -0.895399 -2.1565 0
M  V30 17605 C 1649.99 0.158729 -1.69358 0
M  V30 17606 O 1651.18 0.010586 -1.94197 0
M  V30 17607 C 1648.31 -0.396959 -3.45024 0
M  V30 17608 C 1647.26 -1.38913 -4.0483 0
M  V30 17609 C 1646.59 -0.749043 -5.29427 0
M  V30 17610 C 1647.89 -2.7591 -4.43476 0
M  V30 17611 H 1649.58 -1.81085 -2.38429 0
M  V30 17612 H 1647.13 -0.872098 -1.14588 0
M  V30 17613 H 1649.08 -0.196086 -4.20944 0
M  V30 17614 H 1647.8 0.554002 -3.21867 0
M  V30 17615 H 1646.46 -1.57657 -3.30968 0
M  V30 17616 H 1646.11 0.208439 -5.02568 0
M  V30 17617 H 1645.81 -1.41128 -5.704 0
M  V30 17618 H 1647.34 -0.558217 -6.08043 0
M  V30 17619 H 1648.75 -2.60942 -5.10473 0
M  V30 17620 H 1647.15 -3.38618 -4.95437 0
M  V30 17621 H 1648.22 -3.31076 -3.54284 0
M  V30 17622 N 1649.56 1.24734 -0.963288 0
M  V30 17623 C 1650.81 1.92971 -0.623688 0
M  V30 17624 C 1651.14 1.7517 0.838393 0
M  V30 17625 O 1650.41 1.10208 1.60264 0
M  V30 17626 C 1650.7 3.46115 -0.99379 0
M  V30 17627 C 1650.55 3.73104 -2.51224 0
M  V30 17628 C 1651.87 4.36956 -0.525128 0
M  V30 17629 H 1648.99 0.700827 -0.228058 0
M  V30 17630 H 1651.63 1.47187 -1.2015 0
M  V30 17631 H 1649.78 3.85242 -0.502108 0
M  V30 17632 H 1651.45 3.43563 -3.07835 0
M  V30 17633 H 1649.69 3.18409 -2.94616 0
M  V30 17634 H 1650.37 4.80237 -2.7217 0
M  V30 17635 H 1652.84 4.0518 -0.947015 0
M  V30 17636 H 1651.72 5.4285 -0.812695 0
M  V30 17637 H 1651.98 4.38347 0.574843 0
M  V30 17638 N 1651.04 0.732878 1.39523 0
M  V30 17639 C 1652.29 0.276787 1.99792 0
M  V30 17640 C 1652.6 -1.14181 1.58814 0
M  V30 17641 O 1653.81 -1.69731 2.11905 0
M  V30 17642 C 1652.26 0.443924 3.57152 0
M  V30 17643 C 1651.87 1.87027 4.07093 0
M  V30 17644 C 1653.61 0.0495022 4.24471 0
M  V30 17645 C 1651.52 1.98708 5.57018 0
M  V30 17646 H 1650.45 0.0997337 0.747375 0
M  V30 17647 H 1653.1 0.906454 1.59548 0
M  V30 17648 H 1651.48 -0.254605 3.95181 0
M  V30 17649 H 1652.66 2.60059 3.80403 0
M  V30 17650 H 1650.97 2.21772 3.52429 0
M  V30 17651 H 1653.57 0.115815 5.34575 0
M  V30 17652 H 1653.91 -0.994967 4.04235 0
M  V30 17653 H 1654.45 0.69911 3.91609 0
M  V30 17654 H 1651.18 3.01336 5.82131 0
M  V30 17655 H 1650.7 1.30111 5.85518 0
M  V30 17656 H 1652.38 1.76725 6.22396 0
M  V30 17657 N 1652.52 -1.50101 0.480349 0
M  V30 17658 C 1653.45 -2.31581 -0.298718 0
M  V30 17659 C 1654.43 -1.38905 -0.981798 0
M  V30 17660 O 1655.61 -1.67823 -0.977188 0
M  V30 17661 C 1652.74 -3.18891 -1.37571 0
M  V30 17662 C 1651.7 -4.20194 -0.813704 0
M  V30 17663 C 1651.02 -4.96302 -1.98968 0
M  V30 17664 C 1652.32 -5.21985 0.181295 0
M  V30 17665 H 1654.02 -2.96961 0.381349 0
M  V30 17666 H 1651.56 -1.42809 0.184842 0
M  V30 17667 H 1653.51 -3.74694 -1.92828 0
M  V30 17668 H 1652.24 -2.51414 -2.08467 0
M  V30 17669 H 1650.9 -3.65506 -0.283034 0
M  V30 17670 H 1650.55 -4.2529 -2.68584 0
M  V30 17671 H 1650.25 -5.64833 -1.61981 0
M  V30 17672 H 1651.77 -5.54943 -2.54698 0
M  V30 17673 H 1653.18 -5.72604 -0.28242 0
M  V30 17674 H 1651.58 -5.98289 0.465916 0
M  V30 17675 H 1652.65 -4.72162 1.10413 0
M  V30 17676 N 1653.99 -0.213323 -1.5615 0
M  V30 17677 C 1655.24 0.420598 -1.98084 0
M  V30 17678 C 1655.57 1.60355 -1.10075 0
M  V30 17679 O 1654.82 1.95171 -0.143848 0
M  V30 17680 C 1655.12 0.905764 -3.45732 0
M  V30 17681 C 1654.79 -0.165778 -4.50595 0
M  V30 17682 C 1653.45 -0.460161 -4.78995 0
M  V30 17683 C 1655.8 -0.890891 -5.1353 0
M  V30 17684 C 1653.13 -1.48432 -5.67613 0
M  V30 17685 C 1655.48 -1.90433 -6.03256 0
M  V30 17686 C 1654.15 -2.20572 -6.30004 0
M  V30 17687 H 1653.42 0.153908 -0.72484 0
M  V30 17688 H 1656.06 -0.314117 -1.88906 0
M  V30 17689 H 1654.37 1.71909 -3.52072 0
M  V30 17690 H 1656.07 1.40596 -3.75545 0
M  V30 17691 H 1652.66 0.0738261 -4.28536 0
M  V30 17692 H 1656.84 -0.676696 -4.91665 0
M  V30 17693 H 1652.1 -1.72354 -5.86604 0
M  V30 17694 H 1656.27 -2.47131 -6.51075 0
M  V30 17695 H 1653.9 -3.00074 -6.9847 0
M  V30 17696 N 1655.47 1.57485 0.0601405 0
M  V30 17697 C 1656.72 1.86998 0.75595 0
M  V30 17698 C 1657.03 0.807616 1.78149 0
M  V30 17699 O 1658.24 0.99096 2.52769 0
M  V30 17700 C 1656.7 3.31746 1.39545 0
M  V30 17701 C 1656.3 4.46139 0.407874 0
M  V30 17702 C 1658.05 3.70445 2.07294 0
M  V30 17703 C 1655.96 5.81933 1.05395 0
M  V30 17704 H 1654.89 0.697619 0.286083 0
M  V30 17705 H 1657.54 1.83498 0.00948593 0
M  V30 17706 H 1655.92 3.29894 2.19057 0
M  V30 17707 H 1657.09 4.59405 -0.358281 0
M  V30 17708 H 1655.41 4.1607 -0.16581 0
M  V30 17709 H 1658 4.692 2.56428 0
M  V30 17710 H 1658.35 3.00839 2.87753 0
M  V30 17711 H 1658.88 3.74337 1.34598 0
M  V30 17712 H 1655.62 6.54861 0.289437 0
M  V30 17713 H 1655.14 5.72446 1.79068 0
M  V30 17714 H 1656.82 6.27652 1.5704 0
M  V30 17715 N 1656.95 -0.331789 1.54068 0
M  V30 17716 C 1658.2 -1.06818 1.71093 0
M  V30 17717 C 1658.51 -1.89438 0.487111 0
M  V30 17718 O 1659.72 -2.66105 0.538544 0
M  V30 17719 C 1658.17 -1.94853 3.02589 0
M  V30 17720 C 1657.78 -1.17384 4.32348 0
M  V30 17721 C 1659.53 -2.68278 3.28979 0
M  V30 17722 C 1657.43 -2.04518 5.54911 0
M  V30 17723 H 1656.36 -0.402501 0.63758 0
M  V30 17724 H 1659.01 -0.326918 1.80564 0
M  V30 17725 H 1657.4 -2.72845 2.87004 0
M  V30 17726 H 1658.57 -0.442208 4.58673 0
M  V30 17727 H 1656.89 -0.556775 4.12661 0
M  V30 17728 H 1659.48 -3.33762 4.1774 0
M  V30 17729 H 1659.83 -3.35476 2.46498 0
M  V30 17730 H 1660.36 -1.97353 3.45394 0
M  V30 17731 H 1657.1 -1.41842 6.3997 0
M  V30 17732 H 1656.62 -2.75438 5.32817 0
M  V30 17733 H 1658.3 -2.63297 5.91002 0
M  V30 17734 N 1658.43 -1.46001 -0.593424 0
M  V30 17735 C 1659.68 -1.50457 -1.34933 0
M  V30 17736 C 1660 -0.153383 -1.94396 0
M  V30 17737 O 1659.27 0.818894 -1.77963 0
M  V30 17738 H 1657.85 -0.554119 -0.50096 0
M  V30 17739 H 1660.51 -1.82057 -0.695798 0
M  V30 17740 H 1659.61 -2.25131 -2.16154 0
M  V30 17741 N 1659.91 0.83715 -1.33527 0
M  V30 17742 C 1660.84 1.96231 -1.26553 0
M  V30 17743 C 1661.82 1.69474 -0.14576 0
M  V30 17744 O 1663 1.91274 -0.335815 0
M  V30 17745 C 1660.13 3.32419 -1.00574 0
M  V30 17746 C 1659.09 3.73577 -2.08864 0
M  V30 17747 C 1658.41 5.07591 -1.68095 0
M  V30 17748 C 1659.71 3.87179 -3.50556 0
M  V30 17749 H 1661.41 2.02324 -2.20693 0
M  V30 17750 H 1658.95 0.972038 -1.06242 0
M  V30 17751 H 1660.91 4.10703 -0.943439 0
M  V30 17752 H 1659.63 3.26587 -0.0287268 0
M  V30 17753 H 1658.29 2.97557 -2.14139 0
M  V30 17754 H 1657.94 4.98232 -0.690922 0
M  V30 17755 H 1657.64 5.361 -2.40563 0
M  V30 17756 H 1659.16 5.88349 -1.63334 0
M  V30 17757 H 1660.57 4.55771 -3.47772 0
M  V30 17758 H 1658.97 4.27127 -4.21524 0
M  V30 17759 H 1660.04 2.8958 -3.88936 0
M  V30 17760 N 1661.38 1.17024 1.05561 0
M  V30 17761 C 1662.31 0.906823 2.15172 0
M  V30 17762 C 1663.3 -0.149745 1.6944 0
M  V30 17763 O 1664.48 -0.000287092 1.942 0
M  V30 17764 C 1661.61 0.415251 3.44809 0
M  V30 17765 C 1660.56 1.41058 4.04088 0
M  V30 17766 C 1659.89 0.777109 5.29023 0
M  V30 17767 C 1661.19 2.78258 4.42007 0
M  V30 17768 H 1662.88 1.82347 2.37466 0
M  V30 17769 H 1660.43 0.878162 1.14124 0
M  V30 17770 H 1662.38 0.218407 4.20834 0
M  V30 17771 H 1661.11 -0.536924 3.22156 0
M  V30 17772 H 1659.77 1.5941 3.30127 0
M  V30 17773 H 1659.41 -0.181784 5.02671 0
M  V30 17774 H 1659.11 1.44151 5.69644 0
M  V30 17775 H 1660.64 0.590455 6.07738 0
M  V30 17776 H 1662.05 2.63645 5.09082 0
M  V30 17777 H 1660.45 3.41241 4.93634 0
M  V30 17778 H 1661.52 3.3295 3.52523 0
M  V30 17779 N 1662.86 -1.24221 0.969889 0
M  V30 17780 C 1663.79 -2.27619 0.520745 0
M  V30 17781 C 1664.77 -1.64291 -0.440731 0
M  V30 17782 O 1665.96 -1.91265 -0.336381 0
M  V30 17783 C 1663.09 -3.46792 -0.187768 0
M  V30 17784 C 1662.04 -4.22402 0.689945 0
M  V30 17785 C 1661.37 -5.34489 -0.150186 0
M  V30 17786 C 1662.67 -4.83494 1.97562 0
M  V30 17787 H 1664.36 -2.65441 1.38498 0
M  V30 17788 H 1661.91 -1.276 0.667398 0
M  V30 17789 H 1663.86 -4.18263 -0.513216 0
M  V30 17790 H 1662.59 -3.08002 -1.08637 0
M  V30 17791 H 1661.24 -3.52734 0.998696 0
M  V30 17792 H 1660.89 -4.9194 -1.049 0
M  V30 17793 H 1660.59 -5.85996 0.433891 0
M  V30 17794 H 1662.12 -6.08786 -0.470255 0
M  V30 17795 H 1663.53 -5.47028 1.71561 0
M  V30 17796 H 1661.93 -5.45243 2.5066 0
M  V30 17797 H 1663 -4.04826 2.66915 0
M  V30 17798 N 1664.34 -0.740267 -1.39132 0
M  V30 17799 C 1665.27 -0.118951 -2.33197 0
M  V30 17800 C 1666.25 0.718416 -1.54184 0
M  V30 17801 O 1667.44 0.662322 -1.82557 0
M  V30 17802 C 1664.57 0.78512 -3.38309 0
M  V30 17803 C 1663.52 0.0515093 -4.27969 0
M  V30 17804 C 1662.85 1.07295 -5.23824 0
M  V30 17805 C 1664.15 -1.10903 -5.1039 0
M  V30 17806 H 1665.84 -0.904687 -2.85405 0
M  V30 17807 H 1663.39 -0.436493 -1.37225 0
M  V30 17808 H 1665.34 1.22935 -4.03069 0
M  V30 17809 H 1664.06 1.60303 -2.84553 0
M  V30 17810 H 1662.72 -0.373156 -3.64696 0
M  V30 17811 H 1662.37 1.88456 -4.66362 0
M  V30 17812 H 1662.07 0.586827 -5.84662 0
M  V30 17813 H 1663.59 1.51677 -5.91461 0
M  V30 17814 H 1665.01 -0.742993 -5.68465 0
M  V30 17815 H 1663.41 -1.52513 -5.80396 0
M  V30 17816 H 1664.48 -1.92825 -4.44912 0
M  V30 17817 N 1665.82 1.49844 -0.488302 0
M  V30 17818 C 1667.07 2.01603 0.0624744 0
M  V30 17819 C 1667.38 1.37397 1.39217 0
M  V30 17820 O 1668.59 1.8041 2.0289 0
M  V30 17821 C 1667.04 3.59536 0.161824 0
M  V30 17822 C 1666.65 4.32709 -1.16047 0
M  V30 17823 C 1668.39 4.1928 0.663642 0
M  V30 17824 C 1666.3 5.82468 -1.02397 0
M  V30 17825 H 1665.23 0.753512 0.0271222 0
M  V30 17826 H 1667.88 1.72499 -0.625805 0
M  V30 17827 H 1666.26 3.85301 0.914273 0
M  V30 17828 H 1667.44 4.18655 -1.92522 0
M  V30 17829 H 1665.75 3.84652 -1.59473 0
M  V30 17830 H 1668.35 5.28935 0.783069 0
M  V30 17831 H 1668.69 3.81801 1.65933 0
M  V30 17832 H 1669.23 3.97787 -0.0319078 0
M  V30 17833 H 1665.97 6.2445 -1.99355 0
M  V30 17834 H 1665.49 5.9905 -0.299902 0
M  V30 17835 H 1667.16 6.43229 -0.697538 0
M  V30 17836 N 1667.3 0.221601 1.56034 0
M  V30 17837 C 1668.52 -0.414945 2.02696 0
M  V30 17838 C 1668.94 -1.53344 1.10141 0
M  V30 17839 O 1668.3 -1.82162 0.111026 0
M  V30 17840 C 1668.35 -0.946532 3.48888 0
M  V30 17841 O 1668.07 0.12737 4.37915 0
M  V30 17842 C 1669.57 -1.65631 4.11195 0
M  V30 17843 H 1666.79 -0.101548 0.663271 0
M  V30 17844 H 1669.33 0.338069 2.01686 0
M  V30 17845 H 1667.49 -1.64982 3.50514 0
M  V30 17846 H 1667.9 -0.272211 5.23793 0
M  V30 17847 H 1669.38 -1.98027 5.15257 0
M  V30 17848 H 1669.85 -2.56947 3.56195 0
M  V30 17849 H 1670.46 -0.998231 4.13419 0
M  V30 17850 N 1668.77 -1.57515 -0.0517878 0
M  V30 17851 C 1670 -1.92456 -0.759485 0
M  V30 17852 C 1670.42 -0.819396 -1.70092 0
M  V30 17853 O 1669.77 0.205913 -1.81335 0
M  V30 17854 C 1669.83 -3.27242 -1.53606 0
M  V30 17855 O 1669.55 -4.33511 -0.632441 0
M  V30 17856 C 1671.05 -3.76324 -2.34297 0
M  V30 17857 H 1668.27 -0.635688 -0.214807 0
M  V30 17858 H 1670.81 -2.04494 -0.0160862 0
M  V30 17859 H 1668.97 -3.16671 -2.23155 0
M  V30 17860 H 1669.38 -5.11178 -1.17462 0
M  V30 17861 H 1670.85 -4.73209 -2.84213 0
M  V30 17862 H 1671.33 -3.06351 -3.14716 0
M  V30 17863 H 1671.94 -3.89904 -1.69866 0
M  V30 17864 N 1670.25 0.323614 -1.54242 0
M  V30 17865 C 1671.5 1.06314 -1.727 0
M  V30 17866 C 1671.83 1.87674 -0.499225 0
M  V30 17867 O 1671.11 1.87862 0.503805 0
M  V30 17868 C 1671.39 1.9879 -3.00258 0
M  V30 17869 C 1671.24 1.2076 -4.33286 0
M  V30 17870 C 1672.56 2.98314 -3.23569 0
M  V30 17871 H 1669.68 0.385101 -0.628384 0
M  V30 17872 H 1672.32 0.339801 -1.86937 0
M  V30 17873 H 1670.47 2.60468 -2.88251 0
M  V30 17874 H 1672.15 0.615425 -4.57176 0
M  V30 17875 H 1670.39 0.509878 -4.30793 0
M  V30 17876 H 1671.06 1.88662 -5.18759 0
M  V30 17877 H 1673.54 2.46757 -3.35037 0
M  V30 17878 H 1672.41 3.60204 -4.14179 0
M  V30 17879 H 1672.67 3.7077 -2.40795 0
M  V30 17880 N 1671.73 1.46313 0.585673 0
M  V30 17881 C 1672.98 1.50738 1.34019 0
M  V30 17882 C 1673.29 0.162245 1.94926 0
M  V30 17883 O 1674.5 0.0842676 2.71369 0
M  V30 17884 C 1672.96 2.65592 2.42876 0
M  V30 17885 C 1672.56 4.06513 1.88285 0
M  V30 17886 C 1674.31 2.79284 3.19689 0
M  V30 17887 C 1672.21 5.12712 2.94754 0
M  V30 17888 H 1671.14 0.560979 0.503804 0
M  V30 17889 H 1673.8 1.72516 0.625344 0
M  V30 17890 H 1672.18 2.37138 3.17146 0
M  V30 17891 H 1673.35 4.44744 1.20578 0
M  V30 17892 H 1671.67 3.97462 1.2415 0
M  V30 17893 H 1674.26 3.55795 3.99142 0
M  V30 17894 H 1674.61 1.86694 3.7209 0
M  V30 17895 H 1675.14 3.0737 2.52525 0
M  V30 17896 H 1671.88 6.07084 2.47244 0
M  V30 17897 H 1671.4 4.79028 3.6096 0
M  V30 17898 H 1673.08 5.38426 3.58757 0
M  V30 17899 N 1673.21 -0.830057 1.33969 0
M  V30 17900 C 1674.14 -1.95557 1.27592 0
M  V30 17901 C 1675.12 -1.69395 0.154745 0
M  V30 17902 O 1676.31 -1.91094 0.345954 0
M  V30 17903 C 1673.44 -3.31881 1.02335 0
M  V30 17904 C 1672.39 -3.72464 2.10842 0
M  V30 17905 C 1671.72 -5.06692 1.70785 0
M  V30 17906 C 1673.02 -3.85315 3.52604 0
M  V30 17907 H 1674.71 -2.0115 2.21763 0
M  V30 17908 H 1672.26 -0.96639 1.06756 0
M  V30 17909 H 1674.21 -4.10197 0.965206 0
M  V30 17910 H 1672.93 -3.26568 0.0460462 0
M  V30 17911 H 1671.59 -2.96417 2.15714 0
M  V30 17912 H 1671.24 -4.97859 0.717334 0
M  V30 17913 H 1670.94 -5.34817 2.43403 0
M  V30 17914 H 1672.46 -5.87474 1.66452 0
M  V30 17915 H 1673.88 -4.5392 3.50185 0
M  V30 17916 H 1672.27 -4.24886 4.23783 0
M  V30 17917 H 1673.34 -2.87514 3.90466 0
M  V30 17918 N 1674.69 -1.17582 -1.04939 0
M  V30 17919 C 1675.91 -0.99097 -1.82194 0
M  V30 17920 C 1676.34 0.455965 -1.8249 0
M  V30 17921 O 1675.7 1.32661 -1.23575 0
M  V30 17922 C 1675.74 -1.53971 -3.26076 0
M  V30 17923 O 1674.85 -0.755172 -4.05427 0
M  V30 17924 H 1674.19 -0.351669 -0.563227 0
M  V30 17925 H 1676.72 -1.56138 -1.3222 0
M  V30 17926 H 1676.73 -1.56307 -3.76872 0
M  V30 17927 H 1675.4 -2.59295 -3.25175 0
M  V30 17928 H 1673.98 -0.803423 -3.64142 0
M  V30 17929 N 1676.17 1.23705 -0.976463 0
M  V30 17930 C 1677.1 2.2734 -0.532809 0
M  V30 17931 C 1678.08 1.64523 0.432012 0
M  V30 17932 O 1679.26 1.9144 0.326233 0
M  V30 17933 C 1676.39 3.46887 0.169374 0
M  V30 17934 C 1675.35 4.22031 -0.712336 0
M  V30 17935 C 1674.67 5.34561 0.121838 0
M  V30 17936 C 1675.97 4.8244 -2.00123 0
M  V30 17937 H 1677.67 2.64702 -1.39904 0
M  V30 17938 H 1675.21 1.27244 -0.674156 0
M  V30 17939 H 1677.16 4.18529 0.491028 0
M  V30 17940 H 1675.89 3.08574 1.07002 0
M  V30 17941 H 1674.55 3.522 -1.01739 0
M  V30 17942 H 1674.2 4.92489 1.0229 0
M  V30 17943 H 1673.9 5.85758 -0.464962 0
M  V30 17944 H 1675.42 6.09027 0.437963 0
M  V30 17945 H 1676.83 5.46111 -1.7446 0
M  V30 17946 H 1675.23 5.43906 -2.53548 0
M  V30 17947 H 1676.3 4.03405 -2.69059 0
M  V30 17948 N 1677.64 0.747635 1.38738 0
M  V30 17949 C 1679.06 0.424577 1.53849 0
M  V30 17950 C 1679.26 -1.06304 1.71177 0
M  V30 17951 O 1678.32 -1.84912 1.71941 0
M  V30 17952 C 1679.63 1.21863 2.749 0
M  V30 17953 C 1681.18 1.20811 2.88745 0
M  V30 17954 C 1681.65 1.985 4.12749 0
M  V30 17955 N 1683.14 1.9573 4.19814 0
M  V30 17956 C 1683.88 2.52641 5.14743 0
M  V30 17957 N 1683.37 3.18241 6.15382 0
M  V30 17958 N 1685.17 2.42604 5.0705 0
M  V30 17959 H 1677.32 1.71182 1.25739 0
M  V30 17960 H 1679.58 0.725358 0.610376 0
M  V30 17961 H 1679.29 2.27181 2.6848 0
M  V30 17962 H 1679.16 0.831509 3.67921 0
M  V30 17963 H 1681.55 0.163013 2.94649 0
M  V30 17964 H 1681.63 1.6347 1.96752 0
M  V30 17965 H 1681.27 3.03017 4.07606 0
M  V30 17966 H 1681.2 1.53239 5.03811 0
M  V30 17967 H 1683.69 1.4795 3.47734 0
M  V30 17968 H 1684.01 3.59101 6.843 0
M  V30 17969 H 1682.35 3.22334 6.15732 0
M  V30 17970 H 1685.54 1.90987 4.27366 0
M  V30 17971 H 1685.72 2.87253 5.80852 0
M  V30 17972 N 1679.12 -1.49583 0.496242 0
M  V30 17973 C 1680.05 -2.31885 -0.274139 0
M  V30 17974 C 1681.03 -1.39939 -0.96701 0
M  V30 17975 O 1682.22 -1.6885 -0.959333 0
M  V30 17976 C 1679.35 -3.20332 -1.34181 0
M  V30 17977 C 1678.3 -4.21033 -0.769091 0
M  V30 17978 C 1677.63 -4.98385 -1.93693 0
M  V30 17979 C 1678.93 -5.21764 0.236648 0
M  V30 17980 H 1680.62 -2.9654 0.412824 0
M  V30 17981 H 1678.17 -1.42605 0.199979 0
M  V30 17982 H 1680.12 -3.76718 -1.88843 0
M  V30 17983 H 1678.84 -2.53611 -2.05789 0
M  V30 17984 H 1677.5 -3.65785 -0.244252 0
M  V30 17985 H 1677.15 -4.28115 -2.64058 0
M  V30 17986 H 1676.85 -5.66519 -1.55981 0
M  V30 17987 H 1678.38 -5.57613 -2.48798 0
M  V30 17988 H 1679.79 -5.72871 -0.221672 0
M  V30 17989 H 1678.19 -5.97761 0.529346 0
M  V30 17990 H 1679.26 -4.70964 1.15415 0
M  V30 17991 N 1680.6 -0.229873 -1.55915 0
M  V30 17992 C 1681.84 0.40131 -2.00422 0
M  V30 17993 C 1682.2 1.56356 -1.1143 0
M  V30 17994 O 1683.4 2.26132 -1.45319 0
M  V30 17995 C 1681.68 0.816946 -3.47938 0
M  V30 17996 S 1683.23 1.44106 -4.14462 0
M  V30 17997 H 1680.05 0.127024 -0.699561 0
M  V30 17998 H 1682.65 -0.341114 -1.92501 0
M  V30 17999 H 1681.36 -0.038498 -4.10382 0
M  V30 18000 H 1680.89 1.59198 -3.59749 0
M  V30 18001 H 1682.9 2.73016 -4.14339 0
M  V30 18002 N 1682.08 1.5754 0.0434337 0
M  V30 18003 C 1683.3 1.93247 0.753012 0
M  V30 18004 C 1683.73 0.828712 1.68861 0
M  V30 18005 O 1683.09 -0.216618 1.80001 0
M  V30 18006 C 1683.13 3.27989 1.49852 0
M  V30 18007 O 1682.24 3.19223 2.61094 0
M  V30 18008 H 1681.58 0.632032 0.203547 0
M  V30 18009 H 1684.11 2.046 0.00319776 0
M  V30 18010 H 1684.12 3.62539 1.87161 0
M  V30 18011 H 1682.79 4.07891 0.812251 0
M  V30 18012 H 1681.37 2.9628 2.26434 0
M  V30 18013 N 1683.56 -0.31543 1.54411 0
M  V30 18014 C 1684.52 -1.37154 1.83634 0
M  V30 18015 C 1685.52 -1.44349 0.708518 0
M  V30 18016 O 1686.71 -1.44235 0.976824 0
M  V30 18017 C 1683.84 -2.758 2.00368 0
M  V30 18018 H 1685.03 -1.12493 2.78002 0
M  V30 18019 H 1682.59 -0.551346 1.46253 0
M  V30 18020 H 1683.32 -3.05704 1.08238 0
M  V30 18021 H 1683.11 -2.7197 2.82445 0
M  V30 18022 H 1684.6 -3.52187 2.24397 0
M  V30 18023 N 1685.03 -1.46622 -0.577906 0
M  V30 18024 C 1685.97 -1.52068 -1.70148 0
M  V30 18025 C 1686.95 -0.374405 -1.58231 0
M  V30 18026 O 1688.13 -0.579245 -1.79379 0
M  V30 18027 C 1685.26 -1.40377 -3.0824 0
M  V30 18028 C 1684.3 -2.59247 -3.38664 0
M  V30 18029 S 1685.14 -4.21576 -3.30203 0
M  V30 18030 C 1686.29 -4.12401 -4.70825 0
M  V30 18031 H 1686.52 -2.4713 -1.6527 0
M  V30 18032 H 1684.06 -1.34567 -0.757045 0
M  V30 18033 H 1686.02 -1.34318 -3.87903 0
M  V30 18034 H 1684.68 -0.467354 -3.10604 0
M  V30 18035 H 1683.87 -2.47073 -4.39285 0
M  V30 18036 H 1683.47 -2.6232 -2.66579 0
M  V30 18037 H 1685.76 -3.79378 -5.61319 0
M  V30 18038 H 1686.71 -5.13037 -4.88056 0
M  V30 18039 H 1687.11 -3.43578 -4.479 0
M  V30 18040 N 1686.51 0.822941 -1.34408 0
M  V30 18041 C 1687.46 1.93383 -1.25982 0
M  V30 18042 C 1688.43 1.6555 -0.13506 0
M  V30 18043 O 1689.61 1.88164 -0.316033 0
M  V30 18044 C 1686.75 3.29646 -1.02117 0
M  V30 18045 C 1685.87 3.69772 -2.23366 0
M  V30 18046 C 1685 4.94982 -1.92784 0
M  V30 18047 C 1684.04 5.2769 -3.10177 0
M  V30 18048 N 1683.18 6.44078 -2.79479 0
M  V30 18049 H 1688.02 1.99922 -2.20987 0
M  V30 18050 H 1685.56 0.978105 -1.0987 0
M  V30 18051 H 1687.51 4.08173 -0.863175 0
M  V30 18052 H 1686.14 3.2262 -0.107803 0
M  V30 18053 H 1685.2 2.86637 -2.50086 0
M  V30 18054 H 1686.51 3.89914 -3.11076 0
M  V30 18055 H 1685.66 5.81297 -1.73721 0
M  V30 18056 H 1684.4 4.76843 -1.02335 0
M  V30 18057 H 1683.41 4.39873 -3.29837 0
M  V30 18058 H 1684.63 5.47769 -4.01405 0
M  V30 18059 H 1682.58 6.27394 -1.91605 0
M  V30 18060 H 1682.49 6.64392 -3.60721 0
M  V30 18061 H 1683.76 7.33462 -2.63919 0
M  V30 18062 N 1687.99 1.18137 1.04314 0
M  V30 18063 C 1688.92 0.863879 2.12296 0
M  V30 18064 C 1689.94 -0.137469 1.62219 0
M  V30 18065 O 1691.12 0.0900306 1.78273 0
M  V30 18066 C 1688.22 0.269002 3.37831 0
M  V30 18067 C 1687.4 1.3154 4.17152 0
M  V30 18068 C 1686.46 0.736666 5.21018 0
M  V30 18069 O 1685.48 1.41075 5.5144 0
M  V30 18070 N 1686.68 -0.467037 5.78618 0
M  V30 18071 H 1689.45 1.7933 2.40127 0
M  V30 18072 H 1687.01 1.08142 1.20486 0
M  V30 18073 H 1689 -0.131671 4.04486 0
M  V30 18074 H 1687.57 -0.564386 3.07463 0
M  V30 18075 H 1686.79 1.89148 3.45856 0
M  V30 18076 H 1688.08 2.02093 4.66943 0
M  V30 18077 H 1687.48 -1.03247 5.56198 0
M  V30 18078 H 1686.04 -0.809663 6.46752 0
M  V30 18079 N 1689.47 -1.23186 0.98301 0
M  V30 18080 C 1690.7 -1.95702 0.671453 0
M  V30 18081 C 1691.11 -1.72737 -0.76206 0
M  V30 18082 O 1690.47 -1.02037 -1.5131 0
M  V30 18083 C 1690.52 -3.48642 0.955573 0
M  V30 18084 O 1690.24 -3.70829 2.33275 0
M  V30 18085 C 1691.74 -4.38354 0.660333 0
M  V30 18086 H 1688.96 -0.623006 0.249209 0
M  V30 18087 H 1691.51 -1.56606 1.3151 0
M  V30 18088 H 1689.66 -3.85743 0.357892 0
M  V30 18089 H 1690.07 -4.65104 2.42443 0
M  V30 18090 H 1691.55 -5.44456 0.909477 0
M  V30 18091 H 1692.03 -4.37323 -0.405615 0
M  V30 18092 H 1692.63 -4.06864 1.23861 0
M  V30 18093 N 1690.95 -0.754982 -1.38339 0
M  V30 18094 C 1692.22 -0.237208 -1.94156 0
M  V30 18095 C 1692.6 1.26479 -1.69016 0
M  V30 18096 O 1691.95 2.03995 -1.02948 0
M  V30 18097 C 1692.16 -0.592412 -3.43935 0
M  V30 18098 C 1693.51 -0.552832 -4.20986 0
M  V30 18099 O 1694.53 -0.530789 -3.52223 0
M  V30 18100 O 1693.39 -0.565006 -5.43571 0
M  V30 18101 H 1690.49 -0.0500619 -0.825483 0
M  V30 18102 H 1693.03 -0.835199 -1.47724 0
M  V30 18103 H 1691.8 -1.62969 -3.55748 0
M  V30 18104 H 1691.43 0.0335119 -3.97586 0
M  V30 18105 N 1692.42 1.49318 -0.504168 0
M  V30 18106 C 1693.65 2.06569 0.0358894 0
M  V30 18107 C 1694.06 1.36437 1.31079 0
M  V30 18108 O 1693.41 0.437416 1.78416 0
M  V30 18109 C 1693.47 3.57726 0.356656 0
M  V30 18110 C 1693.13 4.49565 -0.820987 0
M  V30 18111 C 1694.13 4.90892 -1.71235 0
M  V30 18112 C 1691.81 4.9182 -1.02069 0
M  V30 18113 C 1693.81 5.73214 -2.78754 0
M  V30 18114 C 1691.49 5.73919 -2.09905 0
M  V30 18115 C 1692.49 6.14521 -2.98082 0
M  V30 18116 O 1692.18 6.94977 -4.04057 0
M  V30 18117 H 1691.91 0.675742 -0.0186739 0
M  V30 18118 H 1694.47 1.93044 -0.701664 0
M  V30 18119 H 1692.7 3.69271 1.14785 0
M  V30 18120 H 1694.39 3.97204 0.835704 0
M  V30 18121 H 1695.15 4.58889 -1.5699 0
M  V30 18122 H 1691.03 4.59717 -0.343714 0
M  V30 18123 H 1694.57 6.04826 -3.47609 0
M  V30 18124 H 1690.47 6.05334 -2.24144 0
M  V30 18125 H 1691.24 7.13289 -4.01449 0
M  V30 18126 N 1693.9 0.238138 1.5579 0
M  V30 18127 C 1694.83 -0.697701 2.18323 0
M  V30 18128 C 1695.85 -1.1453 1.15701 0
M  V30 18129 O 1697.04 -1.07359 1.42605 0
M  V30 18130 C 1694.14 -1.95895 2.76547 0
M  V30 18131 C 1693.31 -1.66422 4.04503 0
M  V30 18132 C 1692.37 -2.77419 4.4713 0
M  V30 18133 O 1691.39 -2.45179 5.13689 0
M  V30 18134 N 1692.6 -4.06731 4.14187 0
M  V30 18135 H 1695.36 -0.162705 2.99258 0
M  V30 18136 H 1692.92 0.0577602 1.61797 0
M  V30 18137 H 1694.91 -2.69374 3.02026 0
M  V30 18138 H 1693.48 -2.40398 1.99819 0
M  V30 18139 H 1692.7 -0.76505 3.86705 0
M  V30 18140 H 1693.99 -1.44183 4.87943 0
M  V30 18141 H 1693.39 -4.3576 3.60735 0
M  V30 18142 H 1691.95 -4.76701 4.44521 0
M  V30 18143 N 1695.38 -1.57561 -0.0350783 0
M  V30 18144 C 1696.31 -2.02953 -1.06502 0
M  V30 18145 C 1697.33 -0.941331 -1.32826 0
M  V30 18146 O 1698.51 -1.21873 -1.30419 0
M  V30 18147 C 1695.61 -2.38471 -2.40801 0
M  V30 18148 C 1694.79 -3.69596 -2.33917 0
M  V30 18149 C 1693.85 -3.9237 -3.50616 0
M  V30 18150 O 1692.87 -4.63504 -3.30382 0
M  V30 18151 N 1694.07 -3.37544 -4.72275 0
M  V30 18152 H 1696.84 -2.91926 -0.678169 0
M  V30 18153 H 1694.4 -1.60355 -0.22313 0
M  V30 18154 H 1696.39 -2.50849 -3.1758 0
M  V30 18155 H 1694.96 -1.55199 -2.71352 0
M  V30 18156 H 1694.18 -3.67629 -1.42277 0
M  V30 18157 H 1695.47 -4.55627 -2.26455 0
M  V30 18158 H 1694.87 -2.79875 -4.91616 0
M  V30 18159 H 1693.43 -3.55312 -5.4644 0
M  V30 18160 N 1696.86 0.307236 -1.54576 0
M  V30 18161 C 1698.1 1.04476 -1.73818 0
M  V30 18162 C 1698.44 1.87134 -0.519102 0
M  V30 18163 O 1697.71 1.88386 0.483852 0
M  V30 18164 C 1698 1.95594 -3.02349 0
M  V30 18165 C 1697.85 1.16158 -4.34543 0
M  V30 18166 C 1699.17 2.94865 -3.26715 0
M  V30 18167 H 1696.29 0.378415 -0.632433 0
M  V30 18168 H 1698.93 0.319955 -1.87287 0
M  V30 18169 H 1697.08 2.57396 -2.90997 0
M  V30 18170 H 1698.75 0.5669 -4.57803 0
M  V30 18171 H 1696.99 0.464158 -4.3131 0
M  V30 18172 H 1697.66 1.8315 -5.2073 0
M  V30 18173 H 1700.14 2.4319 -3.37636 0
M  V30 18174 H 1699.02 3.55791 -4.17976 0
M  V30 18175 H 1699.28 3.68195 -2.44714 0
M  V30 18176 N 1698.34 1.46926 0.570122 0
M  V30 18177 C 1699.27 1.54487 1.69311 0
M  V30 18178 C 1700.28 0.432119 1.5696 0
M  V30 18179 O 1701.47 0.701107 1.64155 0
M  V30 18180 C 1698.57 1.42093 3.07673 0
M  V30 18181 C 1697.74 2.6771 3.45905 0
M  V30 18182 C 1696.8 2.49336 4.63377 0
M  V30 18183 O 1695.83 3.23107 4.68605 0
M  V30 18184 N 1697.03 1.56319 5.59057 0
M  V30 18185 H 1699.8 2.51319 1.63276 0
M  V30 18186 H 1697.36 1.43142 0.756434 0
M  V30 18187 H 1699.35 1.27554 3.84073 0
M  V30 18188 H 1697.92 0.533945 3.08006 0
M  V30 18189 H 1697.14 2.97102 2.59083 0
M  V30 18190 H 1698.43 3.51131 3.68218 0
M  V30 18191 H 1697.82 0.955109 5.57579 0
M  V30 18192 H 1696.38 1.47738 6.34836 0
M  V30 18193 N 1699.82 -0.815801 1.34842 0
M  V30 18194 C 1701.04 -1.60915 1.30848 0
M  V30 18195 C 1701.47 -1.87758 -0.113345 0
M  V30 18196 O 1700.82 -1.4582 -1.07732 0
M  V30 18197 C 1700.87 -2.92284 2.11192 0
M  V30 18198 O 1699.98 -3.84685 1.48632 0
M  V30 18199 H 1699.32 -0.48913 0.449052 0
M  V30 18200 H 1701.85 -1.01322 1.7775 0
M  V30 18201 H 1701.86 -3.41789 2.2281 0
M  V30 18202 H 1700.53 -2.72071 3.14563 0
M  V30 18203 H 1699.11 -3.43215 1.458 0
M  V30 18204 N 1701.29 -1.18689 -1.03686 0
M  V30 18205 C 1702.53 -0.995625 -1.78512 0
M  V30 18206 C 1702.9 0.466151 -1.86255 0
M  V30 18207 O 1704.1 0.776976 -2.57326 0
M  V30 18208 C 1702.37 -1.63695 -3.17709 0
M  V30 18209 S 1703.93 -1.59397 -4.08825 0
M  V30 18210 H 1700.75 -0.357446 -0.614616 0
M  V30 18211 H 1703.35 -1.50899 -1.24297 0
M  V30 18212 H 1702.05 -2.69301 -3.09685 0
M  V30 18213 H 1701.58 -1.12404 -3.77 0
M  V30 18214 H 1703.6 -0.61254 -4.92405 0
M  V30 18215 N 1702.77 1.22662 -0.989529 0
M  V30 18216 C 1703.73 2.22695 -0.542183 0
M  V30 18217 C 1704.73 1.56411 0.373132 0
M  V30 18218 O 1705.92 1.73412 0.165556 0
M  V30 18219 C 1703.06 3.40241 0.211841 0
M  V30 18220 H 1704.25 2.63786 -1.42678 0
M  V30 18221 H 1701.8 1.35654 -0.776377 0
M  V30 18222 H 1702.54 3.04618 1.11257 0
M  V30 18223 H 1702.32 3.89563 -0.445319 0
M  V30 18224 H 1703.81 4.14436 0.513107 0
M  V30 18225 N 1704.25 0.762308 1.37937 0
M  V30 18226 C 1705.18 0.156036 2.32978 0
M  V30 18227 C 1706.16 -0.693795 1.55308 0
M  V30 18228 O 1707.35 -0.633195 1.83587 0
M  V30 18229 C 1704.48 -0.731199 3.39515 0
M  V30 18230 C 1703.43 0.0165834 4.27997 0
M  V30 18231 C 1702.76 -0.989476 5.25465 0
M  V30 18232 C 1704.06 1.19009 5.08561 0
M  V30 18233 H 1705.75 0.949978 2.83929 0
M  V30 18234 H 1703.3 0.458269 1.36513 0
M  V30 18235 H 1705.25 -1.16507 4.04974 0
M  V30 18236 H 1703.97 -1.55756 2.87067 0
M  V30 18237 H 1702.63 0.431128 3.64056 0
M  V30 18238 H 1702.28 -1.81013 4.69301 0
M  V30 18239 H 1701.98 -0.493738 5.85522 0
M  V30 18240 H 1703.5 -1.42248 5.93799 0
M  V30 18241 H 1704.92 0.833336 5.67211 0
M  V30 18242 H 1703.31 1.61727 5.77896 0
M  V30 18243 H 1704.38 1.99879 4.41788 0
M  V30 18244 N 1705.73 -1.49049 0.51208 0
M  V30 18245 C 1707.14 -1.86579 0.0670687 0
M  V30 18246 C 1707.49 -1.42339 -1.35034 0
M  V30 18247 O 1706.61 -0.806142 -2.00824 0
M  V30 18248 C 1707.21 -3.38605 0.114936 0
M  V30 18249 C 1705.77 -3.75396 -0.274787 0
M  V30 18250 C 1704.92 -2.73068 0.482613 0
M  V30 18251 H 1707.87 -1.41208 0.724287 0
M  V30 18252 H 1707.89 -3.74416 -0.677722 0
M  V30 18253 H 1707.4 -3.70774 1.14666 0
M  V30 18254 H 1705.5 -3.48837 -1.30933 0
M  V30 18255 H 1705.61 -4.79071 0.0523691 0
M  V30 18256 H 1703.98 -2.54607 -0.0689364 0
M  V30 18257 H 1704.76 -3.08081 1.51463 0
M  V30 18258 N 1707.21 -0.246397 -1.55662 0
M  V30 18259 C 1708.43 0.382645 -2.03331 0
M  V30 18260 C 1708.85 1.51573 -1.12566 0
M  V30 18261 O 1708.21 1.81962 -0.139992 0
M  V30 18262 C 1708.26 0.890907 -3.5035 0
M  V30 18263 O 1707.98 -0.197023 -4.37657 0
M  V30 18264 C 1709.48 1.59069 -4.13778 0
M  V30 18265 H 1706.7 0.0909834 -0.664803 0
M  V30 18266 H 1709.24 -0.370113 -2.01123 0
M  V30 18267 H 1707.4 1.59385 -3.53094 0
M  V30 18268 H 1707.81 0.188846 -5.2416 0
M  V30 18269 H 1709.29 1.89805 -5.18342 0
M  V30 18270 H 1709.76 2.51248 -3.60238 0
M  V30 18271 H 1710.37 0.932333 -4.14955 0
M  V30 18272 N 1708.68 1.57577 0.026722 0
M  V30 18273 C 1709.96 1.80541 0.752606 0
M  V30 18274 C 1710.34 0.845025 1.93449 0
M  V30 18275 O 1709.69 -0.112286 2.28224 0
M  V30 18276 C 1709.9 3.28322 1.18345 0
M  V30 18277 C 1711.25 3.93366 1.59839 0
M  V30 18278 O 1712.27 3.32486 1.27796 0
M  V30 18279 O 1711.13 5.0056 2.19321 0
M  V30 18280 H 1708.22 0.742514 0.364146 0
M  V30 18281 H 1710.77 1.697 0.00332 0
M  V30 18282 H 1709.54 3.89822 0.339832 0
M  V30 18283 H 1709.16 3.44061 1.99267 0
M  V30 18284 N 1710.16 -0.299034 1.54737 0
M  V30 18285 C 1711.12 -1.35199 1.85078 0
M  V30 18286 C 1712.12 -1.4359 0.723788 0
M  V30 18287 O 1713.31 -1.43191 0.992067 0
M  V30 18288 C 1710.45 -2.73659 2.03282 0
M  V30 18289 H 1711.64 -1.09538 2.7918 0
M  V30 18290 H 1709.19 -0.535803 1.46829 0
M  V30 18291 H 1709.93 -3.04539 1.11475 0
M  V30 18292 H 1709.71 -2.68959 2.85313 0
M  V30 18293 H 1711.2 -3.49787 2.28119 0
M  V30 18294 N 1711.64 -1.47227 -0.562322 0
M  V30 18295 C 1712.57 -1.62204 -1.67965 0
M  V30 18296 C 1713.55 -0.471638 -1.63431 0
M  V30 18297 O 1714.74 -0.70036 -1.81131 0
M  V30 18298 C 1711.87 -1.63127 -3.06605 0
M  V30 18299 C 1710.82 -2.77343 -3.25983 0
M  V30 18300 C 1710.15 -2.63336 -4.65358 0
M  V30 18301 C 1711.45 -4.18983 -3.1185 0
M  V30 18302 H 1713.14 -2.55739 -1.55686 0
M  V30 18303 H 1710.69 -1.23075 -0.747561 0
M  V30 18304 H 1712.64 -1.72197 -3.84612 0
M  V30 18305 H 1711.36 -0.661501 -3.19831 0
M  V30 18306 H 1710.02 -2.67776 -2.50383 0
M  V30 18307 H 1709.67 -1.64398 -4.75376 0
M  V30 18308 H 1709.37 -3.39957 -4.79273 0
M  V30 18309 H 1710.89 -2.74327 -5.45506 0
M  V30 18310 H 1712.31 -4.29554 -3.79679 0
M  V30 18311 H 1710.7 -4.96351 -3.37277 0
M  V30 18312 H 1711.77 -4.37709 -2.08661 0
M  V30 18313 O 1713.16 0.706898 -1.45207 0
M  V30 18314 H 1713.85 1.35818 -1.38106 0
M  V30 END ATOM
M  V30 BEGIN BOND
M  V30 END BOND
M  V30 END CTAB
M  END
$$$$
