drugbank_target|Q6NS38 DNA oxidative demethylase ALKBH2 (DB00126)
 OpenBabel12092120073D

  0  0  0     0  0            999 V3000
M  V30 BEGIN CTAB
M  V30 COUNTS 10666 11453 0 0 0
M  V30 BEGIN ATOM
M  V30 1 H -1.547 9.37743 -1.21644 0
M  V30 2 O -1.44 8.89599 -0.40059 0
M  V30 3 P 0 8.91 0 0
M  V30 4 O 0.22 10.1746 0.733838 0
M  V30 5 O 0.79 8.73346 -1.23964 0
M  V30 6 O 0.25 7.66872 0.971405 0
M  V30 7 C -0.69 7.42405 2.04668 0
M  V30 8 C 0.04 6.86059 3.24661 0
M  V30 9 O 0.25 5.42934 3.03695 0
M  V30 10 C 1.44 7.41287 3.50796 0
M  V30 11 O 1.83 7.27073 4.86816 0
M  V30 12 C 2.32 6.5273 2.63741 0
M  V30 13 C 1.61 5.1842 2.73198 0
M  V30 14 N 1.66 4.38762 1.4784 0
M  V30 15 H -1.178 8.36899 2.3252 0
M  V30 16 H -1.45 6.70391 1.71179 0
M  V30 17 H -0.582 7.03638 4.13219 0
M  V30 18 H 2.073 4.59931 3.54016 0
M  V30 19 H 2.353 6.88995 1.59871 0
M  V30 20 H 3.344 6.4684 3.0373 0
M  V30 21 H 1.51 8.47002 3.20749 0
M  V30 22 P 3.37998 7.20834 5.23717 0
M  V30 23 O 3.59998 7.79853 6.57286 0
M  V30 24 O 4.16998 7.79239 4.12957 0
M  V30 25 O 3.62998 5.63315 5.29344 0
M  V30 26 C 2.68998 4.80255 6.01876 0
M  V30 27 C 3.41998 3.64202 6.65911 0
M  V30 28 O 3.62998 2.60694 5.64732 0
M  V30 29 C 4.81998 3.93473 7.1943 0
M  V30 30 O 5.20998 3.02071 8.21205 0
M  V30 31 C 5.69998 3.73047 5.97036 0
M  V30 32 C 4.98998 2.58828 5.25741 0
M  V30 33 N 5.03998 2.68068 3.77503 0
M  V30 34 H 2.20098 5.40332 6.79951 0
M  V30 35 H 1.93098 4.41613 5.32378 0
M  V30 36 H 2.79798 3.26331 7.47797 0
M  V30 37 P 6.75996 2.75334 8.47391 0
M  V30 38 O 6.97996 2.44571 9.90142 0
M  V30 39 O 7.54996 3.87688 7.92115 0
M  V30 40 O 7.00996 1.4459 7.59357 0
M  V30 41 C 6.06996 0.347608 7.69215 0
M  V30 42 C 6.79996 -0.96767 7.52806 0
M  V30 43 O 7.00996 -1.21036 6.1011 0
M  V30 44 C 8.19996 -1.04544 8.13308 0
M  V30 45 O 8.58996 -2.38311 8.41922 0
M  V30 46 C 9.07996 -0.491279 7.02284 0
M  V30 47 C 8.36996 -0.996264 5.77469 0
M  V30 48 N 8.41996 -0.0501916 4.62973 0
M  V30 49 C 8.33996 1.32786 4.63244 0
M  V30 50 N 8.41996 1.86957 3.44545 0
M  V30 51 C 8.55996 0.780241 2.58481 0
M  V30 52 C 8.68996 0.738536 1.17757 0
M  V30 53 N 8.80996 -0.58337 0.711393 0
M  V30 54 C 8.80996 -1.70816 1.51017 0
M  V30 55 N 8.93996 -2.87826 0.880757 0
M  V30 56 N 8.67996 -1.67126 2.8339 0
M  V30 57 C 8.55996 -0.401421 3.30572 0
M  V30 58 H 5.58096 0.374722 8.67691 0
M  V30 59 H 5.31096 0.443485 6.90277 0
M  V30 60 H 6.17796 -1.75537 7.96793 0
M  V30 61 P 10.1399 -2.75334 8.47391 0
M  V30 62 O 10.3599 -3.84128 9.44797 0
M  V30 63 O 10.9299 -1.51947 8.68712 0
M  V30 64 O 10.3899 -3.29363 6.99321 0
M  V30 65 C 9.44994 -4.24011 6.4274 0
M  V30 66 C 10.1799 -5.20775 5.52155 0
M  V30 67 O 10.3899 -4.56534 4.22446 0
M  V30 68 C 11.5799 -5.62629 5.96531 0
M  V30 69 O 11.9699 -6.87667 5.41053 0
M  V30 70 C 12.4599 -4.52537 5.39283 0
M  V30 71 C 11.7499 -4.20027 4.08623 0
M  V30 72 N 11.7999 -2.76189 3.71603 0
M  V30 73 H 8.96094 -4.797 7.24003 0
M  V30 74 H 8.69094 -3.69856 5.84513 0
M  V30 75 H 9.55794 -6.10356 5.41441 0
M  V30 76 P 13.5199 -7.20834 5.23717 0
M  V30 77 O 13.7399 -8.66104 5.38572 0
M  V30 78 O 14.3099 -6.33544 6.1349 0
M  V30 79 O 13.7699 -6.7751 3.72168 0
M  V30 80 C 12.8299 -7.20825 2.7076 0
M  V30 81 C 13.5599 -7.45864 1.40599 0
M  V30 82 O 13.7699 -6.17651 0.734225 0
M  V30 83 C 14.9599 -8.05808 1.51899 0
M  V30 84 O 15.3499 -8.74358 0.335205 0
M  V30 85 C 15.8399 -6.83093 1.70294 0
M  V30 86 C 15.1299 -5.79992 0.836974 0
M  V30 87 N 15.1799 -4.41864 1.38293 0
M  V30 88 H 12.3409 -8.13644 3.0377 0
M  V30 89 H 12.0709 -6.42788 2.55485 0
M  V30 90 H 12.9379 -8.12039 0.792769 0
M  V30 91 P 16.8999 -8.91 1.09116e-15 0
M  V30 92 O 17.1199 -10.1726 -0.733694 0
M  V30 93 O 17.6899 -8.73148 1.23936 0
M  V30 94 O 17.1499 -7.66872 -0.971405 0
M  V30 95 C 16.2099 -7.42309 -2.04641 0
M  V30 96 C 16.9399 -6.86059 -3.24661 0
M  V30 97 O 17.1499 -5.42847 -3.03646 0
M  V30 98 C 18.3399 -7.41196 -3.50753 0
M  V30 99 O 18.7299 -7.27073 -4.86816 0
M  V30 100 C 19.2199 -6.5273 -2.63741 0
M  V30 101 C 18.5099 -5.1842 -2.73198 0
M  V30 102 N 18.5599 -4.38762 -1.4784 0
M  V30 103 H 15.7209 -8.36803 -2.32493 0
M  V30 104 H 15.4509 -6.70197 -1.71129 0
M  V30 105 H 16.3179 -7.03551 -4.13168 0
M  V30 106 P 20.2799 -7.20834 -5.23717 0
M  V30 107 O 20.4999 -7.79853 -6.57286 0
M  V30 108 O 21.0699 -7.79239 -4.12957 0
M  V30 109 O 20.5299 -5.63315 -5.29344 0
M  V30 110 C 19.5899 -4.80255 -6.01876 0
M  V30 111 C 20.3199 -3.64202 -6.65911 0
M  V30 112 O 20.5299 -2.60694 -5.64732 0
M  V30 113 C 21.7199 -3.93473 -7.1943 0
M  V30 114 O 22.1099 -3.02071 -8.21205 0
M  V30 115 C 22.5999 -3.73047 -5.97036 0
M  V30 116 C 21.8899 -2.58828 -5.25741 0
M  V30 117 N 21.9399 -2.68068 -3.77503 0
M  V30 118 H 19.1009 -5.40332 -6.79951 0
M  V30 119 H 18.8309 -4.41613 -5.32378 0
M  V30 120 H 19.6979 -3.26331 -7.47797 0
M  V30 121 P 23.6599 -2.75334 -8.47391 0
M  V30 122 O 23.8799 -2.44571 -9.90142 0
M  V30 123 O 24.4499 -3.87688 -7.92115 0
M  V30 124 O 23.9099 -1.4459 -7.59357 0
M  V30 125 C 22.9699 -0.347608 -7.69215 0
M  V30 126 C 23.6999 0.96767 -7.52806 0
M  V30 127 O 23.9099 1.21036 -6.1011 0
M  V30 128 C 25.0999 1.04544 -8.13308 0
M  V30 129 O 25.4899 2.38311 -8.41922 0
M  V30 130 C 25.9799 0.491279 -7.02284 0
M  V30 131 C 25.2699 0.996264 -5.77469 0
M  V30 132 N 25.3199 0.0501916 -4.62973 0
M  V30 133 C 25.2399 -1.32786 -4.63244 0
M  V30 134 N 25.3199 -1.86957 -3.44545 0
M  V30 135 C 25.4599 -0.780241 -2.58481 0
M  V30 136 C 25.5899 -0.738536 -1.17757 0
M  V30 137 O 25.6099 -1.66794 -0.372349 0
M  V30 138 N 25.7099 0.58337 -0.711393 0
M  V30 139 C 25.7099 1.70816 -1.51017 0
M  V30 140 N 25.8399 2.87826 -0.880757 0
M  V30 141 N 25.5799 1.67126 -2.8339 0
M  V30 142 C 25.4599 0.401421 -3.30572 0
M  V30 143 H 22.4809 -0.374722 -8.67691 0
M  V30 144 H 22.2109 -0.443485 -6.90277 0
M  V30 145 H 23.0779 1.75537 -7.96793 0
M  V30 146 H 25.7329 1.95076 -5.46529 0
M  V30 147 H 26.0119 -0.608565 -7.04577 0
M  V30 148 H 27.0039 0.889672 -7.08939 0
M  V30 149 H 25.1699 0.43308 -9.04564 0
M  V30 150 H 25.1209 -1.91249 -5.54442 0
M  V30 151 H 25.8029 0.718054 0.275244 0
M  V30 152 H 25.8399 3.75721 -1.41832 0
M  V30 153 H 25.9409 2.90436 0.145468 0
M  V30 154 P 27.0398 2.75334 -8.47391 0
M  V30 155 O 27.2598 3.84204 -9.44982 0
M  V30 156 O 27.8298 1.51982 -8.68909 0
M  V30 157 O 27.2898 3.29363 -6.99321 0
M  V30 158 C 26.3498 4.24066 -6.42823 0
M  V30 159 C 27.0798 5.20775 -5.52155 0
M  V30 160 O 27.2898 4.56607 -4.22514 0
M  V30 161 C 28.4798 5.62697 -5.96604 0
M  V30 162 O 28.8698 6.87667 -5.41053 0
M  V30 163 C 29.3598 4.52537 -5.39283 0
M  V30 164 C 28.6498 4.20027 -4.08623 0
M  V30 165 N 28.6998 2.76189 -3.71603 0
M  V30 166 C 28.6198 1.66944 -4.54297 0
M  V30 167 N 28.6898 0.536169 -3.91344 0
M  V30 168 C 28.8398 0.901569 -2.58849 0
M  V30 169 C 28.9698 0.146599 -1.40236 0
M  V30 170 N 28.9798 -1.18234 -1.37046 0
M  V30 171 N 29.0898 0.822941 -0.249738 0
M  V30 172 C 29.0798 2.15179 -0.280525 0
M  V30 173 N 28.9598 2.96414 -1.30822 0
M  V30 174 C 28.8398 2.25804 -2.44748 0
M  V30 175 H 25.8618 4.79756 -7.24086 0
M  V30 176 H 25.5898 3.69963 -5.84682 0
M  V30 177 H 26.4578 6.10431 -5.41508 0
M  V30 178 H 29.1128 4.78816 -3.28024 0
M  V30 179 H 29.3928 3.64957 -6.05871 0
M  V30 180 H 30.3838 4.88748 -5.21323 0
M  V30 181 H 28.5498 5.66789 -7.0643 0
M  V30 182 H 28.5088 1.74684 -5.62396 0
M  V30 183 H 28.8898 -1.71949 -2.24394 0
M  V30 184 H 29.0788 -1.67511 -0.470742 0
M  V30 185 H 29.1868 2.63704 0.6828 0
M  V30 186 P 30.4198 7.20834 -5.23717 0
M  V30 187 O 30.6398 8.66104 -5.38572 0
M  V30 188 O 31.2098 6.33544 -6.1349 0
M  V30 189 O 30.6698 6.7751 -3.72168 0
M  V30 190 C 29.7298 7.20825 -2.7076 0
M  V30 191 C 30.4598 7.45864 -1.40599 0
M  V30 192 O 30.6698 6.17651 -0.734225 0
M  V30 193 C 31.8598 8.05808 -1.51899 0
M  V30 194 O 32.2498 8.74358 -0.335205 0
M  V30 195 C 32.7398 6.83093 -1.70294 0
M  V30 196 C 32.0298 5.79992 -0.836974 0
M  V30 197 N 32.0798 4.41864 -1.38293 0
M  V30 198 H 29.2408 8.13644 -3.0377 0
M  V30 199 H 28.9708 6.42788 -2.55485 0
M  V30 200 H 29.8378 8.12039 -0.792769 0
M  V30 201 P 33.7998 8.91 -2.18232e-15 0
M  V30 202 O 34.0198 10.1726 0.733694 0
M  V30 203 O 34.5898 8.73148 -1.23936 0
M  V30 204 O 34.0498 7.66872 0.971405 0
M  V30 205 C 33.1098 7.42309 2.04641 0
M  V30 206 C 33.8398 6.86059 3.24661 0
M  V30 207 O 34.0498 5.42847 3.03646 0
M  V30 208 C 35.2398 7.41196 3.50753 0
M  V30 209 O 35.6298 7.27073 4.86816 0
M  V30 210 C 36.1198 6.5273 2.63741 0
M  V30 211 C 35.4098 5.1842 2.73198 0
M  V30 212 N 35.4598 4.38762 1.4784 0
M  V30 213 C 35.3798 4.81605 0.168631 0
M  V30 214 N 35.4598 3.85454 -0.713363 0
M  V30 215 C 35.5998 2.6994 0.0566958 0
M  V30 216 C 35.7298 1.34815 -0.338502 0
M  V30 217 O 35.7498 0.869548 -1.47125 0
M  V30 218 N 35.8498 0.496304 0.77465 0
M  V30 219 C 35.8498 0.908403 2.09122 0
M  V30 220 N 35.9798 -0.0517805 3.00955 0
M  V30 221 N 35.7198 2.17875 2.46519 0
M  V30 222 C 35.5998 3.01988 1.4033 0
M  V30 223 H 32.6208 8.36803 2.32493 0
M  V30 224 H 32.3508 6.70197 1.71129 0
M  V30 225 H 33.2178 7.03551 4.13168 0
M  V30 226 H 35.8728 4.59498 3.54415 0
M  V30 227 H 36.1518 6.88898 1.59848 0
M  V30 228 H 37.1438 6.46749 3.03687 0
M  V30 229 H 35.3098 8.46908 3.20714 0
M  V30 230 H 35.2608 5.86405 -0.105564 0
M  V30 231 H 35.9428 -0.483664 0.597855 0
M  V30 232 H 35.9798 0.187865 4.0116 0
M  V30 233 H 36.0808 -1.03585 2.71726 0
M  V30 234 P 37.1798 7.20834 5.23717 0
M  V30 235 O 37.3998 7.79853 6.57286 0
M  V30 236 O 37.9698 7.79239 4.12957 0
M  V30 237 O 37.4298 5.63315 5.29344 0
M  V30 238 C 36.4898 4.80255 6.01876 0
M  V30 239 C 37.2198 3.64202 6.65911 0
M  V30 240 O 37.4298 2.60694 5.64732 0
M  V30 241 C 38.6198 3.93473 7.1943 0
M  V30 242 O 39.0098 3.02071 8.21205 0
M  V30 243 C 39.4998 3.73047 5.97036 0
M  V30 244 C 38.7898 2.58828 5.25741 0
M  V30 245 N 38.8398 2.68068 3.77503 0
M  V30 246 C 38.7598 3.79715 2.96723 0
M  V30 247 N 38.8398 3.5377 1.68852 0
M  V30 248 C 38.9798 2.15054 1.63254 0
M  V30 249 C 39.1098 1.28964 0.518571 0
M  V30 250 O 39.1298 1.56826 -0.679156 0
M  V30 251 N 39.2298 -0.0538097 0.918425 0
M  V30 252 C 39.2298 -0.494275 2.22578 0
M  V30 253 N 39.3598 -1.81086 2.40434 0
M  V30 254 N 39.0998 0.313645 3.27502 0
M  V30 255 C 38.9798 1.61829 2.91033 0
M  V30 256 H 36.0008 5.40332 6.79951 0
M  V30 257 H 35.7308 4.41613 5.32378 0
M  V30 258 H 36.5978 3.26331 7.47797 0
M  V30 259 H 39.2528 1.63422 5.56814 0
M  V30 260 H 39.5318 4.63374 5.34244 0
M  V30 261 H 40.5238 3.44728 6.25838 0
M  V30 262 H 38.6898 4.96652 7.57263 0
M  V30 263 H 38.6408 4.80617 3.3614 0
M  V30 264 H 39.3228 -0.742702 0.199384 0
M  V30 265 H 39.3598 -2.20598 3.35588 0
M  V30 266 H 39.4608 -2.43518 1.58945 0
M  V30 267 P 40.5598 2.75334 8.47391 0
M  V30 268 O 40.7798 2.44571 9.90142 0
M  V30 269 O 41.3498 3.87688 7.92115 0
M  V30 270 O 40.8098 1.4459 7.59357 0
M  V30 271 C 39.8698 0.347608 7.69215 0
M  V30 272 C 40.5998 -0.96767 7.52806 0
M  V30 273 O 40.8098 -1.21036 6.1011 0
M  V30 274 C 41.9998 -1.04544 8.13308 0
M  V30 275 O 42.3898 -2.38311 8.41922 0
M  V30 276 C 42.8798 -0.491279 7.02284 0
M  V30 277 C 42.1698 -0.996264 5.77469 0
M  V30 278 N 42.2198 -0.0501916 4.62973 0
M  V30 279 H 39.3808 0.374722 8.67691 0
M  V30 280 H 39.1108 0.443485 6.90277 0
M  V30 281 H 39.9778 -1.75537 7.96793 0
M  V30 282 P 43.9397 -2.75334 8.47391 0
M  V30 283 O 44.1597 -3.84128 9.44797 0
M  V30 284 O 44.7297 -1.51947 8.68712 0
M  V30 285 O 44.1897 -3.29363 6.99321 0
M  V30 286 C 43.2497 -4.24011 6.4274 0
M  V30 287 C 43.9797 -5.20775 5.52155 0
M  V30 288 O 44.1897 -4.56534 4.22446 0
M  V30 289 C 45.3797 -5.62629 5.96531 0
M  V30 290 O 45.7697 -6.87667 5.41053 0
M  V30 291 C 46.2597 -4.52537 5.39283 0
M  V30 292 C 45.5497 -4.20027 4.08623 0
M  V30 293 N 45.5997 -2.76189 3.71603 0
M  V30 294 H 42.7607 -4.797 7.24003 0
M  V30 295 H 42.4907 -3.69856 5.84513 0
M  V30 296 H 43.3577 -6.10356 5.41441 0
M  V30 297 P 47.3197 -7.20834 5.23717 0
M  V30 298 O 47.5397 -8.66104 5.38572 0
M  V30 299 O 48.1097 -6.33544 6.1349 0
M  V30 300 O 47.5697 -6.7751 3.72168 0
M  V30 301 C 46.6297 -7.20825 2.7076 0
M  V30 302 C 47.3597 -7.45864 1.40599 0
M  V30 303 O 47.5697 -6.17651 0.734225 0
M  V30 304 C 48.7597 -8.05808 1.51899 0
M  V30 305 O 49.1497 -8.74358 0.335205 0
M  V30 306 C 49.6397 -6.83093 1.70294 0
M  V30 307 C 48.9297 -5.79992 0.836974 0
M  V30 308 N 48.9797 -4.41864 1.38293 0
M  V30 309 C 48.8997 -3.99538 2.69438 0
M  V30 310 N 48.9797 -2.69909 2.84277 0
M  V30 311 C 49.1197 -2.21719 1.5408 0
M  V30 312 C 49.2497 -0.891712 1.06628 0
M  V30 313 N 49.3697 -0.856846 -0.334985 0
M  V30 314 C 49.3697 -1.9641 -1.15789 0
M  V30 315 N 49.4997 -1.72708 -2.46522 0
M  V30 316 N 49.2397 -3.21165 -0.713741 0
M  V30 317 C 49.1197 -3.26797 0.639748 0
M  V30 318 H 46.1407 -8.13644 3.0377 0
M  V30 319 H 45.8707 -6.42788 2.55485 0
M  V30 320 H 46.7377 -8.12039 0.792769 0
M  V30 321 P 50.6997 -8.91 3.27348e-15 0
M  V30 322 O 50.9197 -10.1726 -0.733694 0
M  V30 323 O 51.4897 -8.73148 1.23936 0
M  V30 324 O 50.9497 -7.66872 -0.971405 0
M  V30 325 C 50.0097 -7.42309 -2.04641 0
M  V30 326 C 50.7397 -6.86059 -3.24661 0
M  V30 327 O 50.9497 -5.42847 -3.03646 0
M  V30 328 C 52.1397 -7.41196 -3.50753 0
M  V30 329 O 52.5297 -7.27073 -4.86816 0
M  V30 330 C 53.0197 -6.5273 -2.63741 0
M  V30 331 C 52.3097 -5.1842 -2.73198 0
M  V30 332 N 52.3597 -4.38762 -1.4784 0
M  V30 333 H 49.5207 -8.36803 -2.32493 0
M  V30 334 H 49.2507 -6.70197 -1.71129 0
M  V30 335 H 50.1177 -7.03551 -4.13168 0
M  V30 336 P 54.0797 -7.20834 -5.23717 0
M  V30 337 O 54.2997 -7.79853 -6.57286 0
M  V30 338 O 54.8697 -7.79239 -4.12957 0
M  V30 339 O 54.3297 -5.63315 -5.29344 0
M  V30 340 C 53.3897 -4.80255 -6.01876 0
M  V30 341 C 54.1197 -3.64202 -6.65911 0
M  V30 342 O 54.3297 -2.60694 -5.64732 0
M  V30 343 C 55.5197 -3.93473 -7.1943 0
M  V30 344 O 55.9097 -3.02071 -8.21205 0
M  V30 345 C 56.3997 -3.73047 -5.97036 0
M  V30 346 C 55.6897 -2.58828 -5.25741 0
M  V30 347 N 55.7397 -2.68068 -3.77503 0
M  V30 348 H 52.9007 -5.40332 -6.79951 0
M  V30 349 H 52.6307 -4.41613 -5.32378 0
M  V30 350 H 53.4977 -3.26331 -7.47797 0
M  V30 351 P 57.4597 -2.75334 -8.47391 0
M  V30 352 O 57.6797 -2.44571 -9.90142 0
M  V30 353 O 58.2497 -3.87688 -7.92115 0
M  V30 354 O 57.7097 -1.4459 -7.59357 0
M  V30 355 C 56.7697 -0.347608 -7.69215 0
M  V30 356 C 57.4997 0.96767 -7.52806 0
M  V30 357 O 57.7097 1.21036 -6.1011 0
M  V30 358 C 58.8997 1.04544 -8.13308 0
M  V30 359 O 59.2897 2.38311 -8.41922 0
M  V30 360 C 59.7797 0.491279 -7.02284 0
M  V30 361 C 59.0697 0.996264 -5.77469 0
M  V30 362 N 59.1197 0.0501916 -4.62973 0
M  V30 363 H 56.2807 -0.374722 -8.67691 0
M  V30 364 H 56.0107 -0.443485 -6.90277 0
M  V30 365 H 56.8777 1.75537 -7.96793 0
M  V30 366 P 60.8396 2.75334 -8.47391 0
M  V30 367 O 61.0596 3.84128 -9.44797 0
M  V30 368 O 61.6296 1.51947 -8.68712 0
M  V30 369 O 61.0896 3.29363 -6.99321 0
M  V30 370 C 60.1496 4.24011 -6.4274 0
M  V30 371 C 60.8796 5.20775 -5.52155 0
M  V30 372 O 61.0896 4.56534 -4.22446 0
M  V30 373 C 62.2796 5.62629 -5.96531 0
M  V30 374 O 62.6696 6.87667 -5.41053 0
M  V30 375 C 63.1596 4.52537 -5.39283 0
M  V30 376 C 62.4496 4.20027 -4.08623 0
M  V30 377 N 62.4996 2.76189 -3.71603 0
M  V30 378 H 59.6606 4.797 -7.24003 0
M  V30 379 H 59.3906 3.69856 -5.84513 0
M  V30 380 H 60.2576 6.10356 -5.41441 0
M  V30 381 P 64.2196 7.20834 -5.23717 0
M  V30 382 O 64.4396 8.66104 -5.38572 0
M  V30 383 O 65.0096 6.33544 -6.1349 0
M  V30 384 O 64.4696 6.7751 -3.72168 0
M  V30 385 C 63.5296 7.20825 -2.7076 0
M  V30 386 C 64.2596 7.45864 -1.40599 0
M  V30 387 O 64.4696 6.17651 -0.734225 0
M  V30 388 C 65.6596 8.05808 -1.51899 0
M  V30 389 O 66.0496 8.74358 -0.335205 0
M  V30 390 C 66.5396 6.83093 -1.70294 0
M  V30 391 C 65.8296 5.79992 -0.836974 0
M  V30 392 N 65.8796 4.41864 -1.38293 0
M  V30 393 H 63.0406 8.13644 -3.0377 0
M  V30 394 H 62.7706 6.42788 -2.55485 0
M  V30 395 H 63.6376 8.12039 -0.792769 0
M  V30 396 P 67.5996 8.91 -4.36464e-15 0
M  V30 397 O 67.8196 10.1726 0.733694 0
M  V30 398 O 68.3896 8.73148 -1.23936 0
M  V30 399 O 67.8496 7.66872 0.971405 0
M  V30 400 C 66.9096 7.42309 2.04641 0
M  V30 401 C 67.6396 6.86059 3.24661 0
M  V30 402 O 67.8496 5.42847 3.03646 0
M  V30 403 C 69.0396 7.41196 3.50753 0
M  V30 404 O 69.4296 7.27073 4.86816 0
M  V30 405 C 69.9196 6.5273 2.63741 0
M  V30 406 C 69.2096 5.1842 2.73198 0
M  V30 407 N 69.2596 4.38762 1.4784 0
M  V30 408 H 66.4206 8.36803 2.32493 0
M  V30 409 H 66.1506 6.70197 1.71129 0
M  V30 410 H 67.0176 7.03551 4.13168 0
M  V30 411 P 70.9796 7.20834 5.23717 0
M  V30 412 O 71.1996 7.79853 6.57286 0
M  V30 413 O 71.7696 7.79239 4.12957 0
M  V30 414 O 71.2296 5.63315 5.29344 0
M  V30 415 C 70.2896 4.80255 6.01876 0
M  V30 416 C 71.0196 3.64202 6.65911 0
M  V30 417 O 71.2296 2.60694 5.64732 0
M  V30 418 C 72.4196 3.93473 7.1943 0
M  V30 419 O 72.8096 3.02071 8.21205 0
M  V30 420 C 73.2996 3.73047 5.97036 0
M  V30 421 C 72.5896 2.58828 5.25741 0
M  V30 422 N 72.6396 2.68068 3.77503 0
M  V30 423 H 69.8006 5.40332 6.79951 0
M  V30 424 H 69.5306 4.41613 5.32378 0
M  V30 425 H 70.3976 3.26331 7.47797 0
M  V30 426 P 74.3596 2.75334 8.47391 0
M  V30 427 O 74.5796 2.44595 9.90239 0
M  V30 428 O 75.1496 3.87732 7.92204 0
M  V30 429 O 74.6096 1.4459 7.59357 0
M  V30 430 C 73.6696 0.347563 7.69115 0
M  V30 431 C 74.3996 -0.96767 7.52806 0
M  V30 432 O 74.6096 -1.21036 6.1011 0
M  V30 433 C 75.7996 -1.04544 8.13308 0
M  V30 434 O 76.1896 -2.38311 8.41922 0
M  V30 435 C 76.6796 -0.491279 7.02284 0
M  V30 436 C 75.9696 -0.996264 5.77469 0
M  V30 437 N 76.0196 -0.0501808 4.62873 0
M  V30 438 C 76.1696 -0.588177 3.36904 0
M  V30 439 O 76.2596 -1.78598 3.17173 0
M  V30 440 N 76.2096 0.329694 2.33686 0
M  V30 441 C 76.1196 1.6953 2.45079 0
M  V30 442 O 76.1696 2.41926 1.44899 0
M  V30 443 C 75.9696 2.16933 3.80505 0
M  V30 444 C 75.8596 3.65373 3.97621 0
M  V30 445 C 75.9196 1.30326 4.83752 0
M  V30 446 H 73.1796 0.374722 8.67691 0
M  V30 447 H 72.9106 0.443421 6.90177 0
M  V30 448 H 73.7776 -1.75537 7.96793 0
M  V30 449 H 76.4326 -1.94496 5.46629 0
M  V30 450 H 76.7116 0.608651 7.04676 0
M  V30 451 H 77.7036 -0.889672 7.08939 0
M  V30 452 H 75.8696 -0.43308 9.04564 0
M  V30 453 H 75.7986 1.68366 5.8516 0
M  V30 454 H 76.8286 4.05985 4.30448 0
M  V30 455 H 75.0916 3.88028 4.72875 0
M  V30 456 H 75.5796 4.11381 3.01609 0
M  V30 457 H 76.3156 -0.0393617 1.41345 0
M  V30 458 P 77.7395 -2.75334 8.47391 0
M  V30 459 O 77.9595 -3.84128 9.44797 0
M  V30 460 O 78.5295 -1.51947 8.68712 0
M  V30 461 O 77.9895 -3.29363 6.99321 0
M  V30 462 C 77.0495 -4.24011 6.4274 0
M  V30 463 C 77.7795 -5.20775 5.52155 0
M  V30 464 O 77.9895 -4.56534 4.22446 0
M  V30 465 C 79.1795 -5.62629 5.96531 0
M  V30 466 O 79.5695 -6.87667 5.41053 0
M  V30 467 C 80.0595 -4.52537 5.39283 0
M  V30 468 C 79.3495 -4.20027 4.08623 0
M  V30 469 N 79.3995 -2.76189 3.71603 0
M  V30 470 C 79.3195 -1.64862 4.52822 0
M  V30 471 N 79.3995 -0.512671 3.88633 0
M  V30 472 C 79.5395 -0.888083 2.54977 0
M  V30 473 C 79.6695 -0.094668 1.38677 0
M  V30 474 O 79.6895 1.13053 1.28163 0
M  V30 475 N 79.7895 -0.890102 0.232633 0
M  V30 476 C 79.7895 -2.26958 0.21772 0
M  V30 477 N 79.9195 -2.84626 -0.97925 0
M  V30 478 N 79.6595 -3.0178 1.31033 0
M  V30 479 C 79.5395 -2.26781 2.43843 0
M  V30 480 H 76.5605 -4.797 7.24003 0
M  V30 481 H 76.2905 -3.69856 5.84513 0
M  V30 482 H 77.1575 -6.10356 5.41441 0
M  V30 483 H 79.8125 -4.79061 3.27488 0
M  V30 484 H 80.0915 -3.64906 6.05785 0
M  V30 485 H 81.0835 -4.8868 5.2125 0
M  V30 486 H 79.2495 -5.66726 7.06352 0
M  V30 487 H 79.2005 -1.71169 5.60966 0
M  V30 488 H 79.8825 -0.419134 -0.644739 0
M  V30 489 H 79.9195 -3.87332 -1.06098 0
M  V30 490 H 80.0205 -2.26417 -1.82483 0
M  V30 491 P 81.1195 -7.20834 5.23717 0
M  V30 492 O 81.3395 -8.66104 5.38572 0
M  V30 493 O 81.9095 -6.33544 6.1349 0
M  V30 494 O 81.3695 -6.7751 3.72168 0
M  V30 495 C 80.4295 -7.20825 2.7076 0
M  V30 496 C 81.1595 -7.45864 1.40599 0
M  V30 497 O 81.3695 -6.17651 0.734225 0
M  V30 498 C 82.5595 -8.05808 1.51899 0
M  V30 499 O 82.9495 -8.74358 0.335205 0
M  V30 500 C 83.4395 -6.83093 1.70294 0
M  V30 501 C 82.7295 -5.79992 0.836974 0
M  V30 502 N 82.7795 -4.41864 1.38293 0
M  V30 503 H 79.9405 -8.13644 3.0377 0
M  V30 504 H 79.6705 -6.42788 2.55485 0
M  V30 505 H 80.5375 -8.12039 0.792769 0
M  V30 506 P 84.4995 -8.91 5.4558e-15 0
M  V30 507 O 84.7195 -10.1726 -0.733694 0
M  V30 508 O 85.2895 -8.73148 1.23936 0
M  V30 509 O 84.7495 -7.66872 -0.971405 0
M  V30 510 C 83.8095 -7.42309 -2.04641 0
M  V30 511 C 84.5395 -6.86059 -3.24661 0
M  V30 512 O 84.7495 -5.42847 -3.03646 0
M  V30 513 C 85.9395 -7.41196 -3.50753 0
M  V30 514 O 86.3295 -7.27073 -4.86816 0
M  V30 515 C 86.8195 -6.5273 -2.63741 0
M  V30 516 C 86.1095 -5.1842 -2.73198 0
M  V30 517 N 86.1595 -4.38762 -1.4784 0
M  V30 518 H 83.3205 -8.36803 -2.32493 0
M  V30 519 H 83.0505 -6.70197 -1.71129 0
M  V30 520 H 83.9175 -7.03551 -4.13168 0
M  V30 521 P 87.8795 -7.20834 -5.23717 0
M  V30 522 O 88.0995 -7.79853 -6.57286 0
M  V30 523 O 88.6695 -7.79239 -4.12957 0
M  V30 524 O 88.1295 -5.63315 -5.29344 0
M  V30 525 C 87.1895 -4.80255 -6.01876 0
M  V30 526 C 87.9195 -3.64202 -6.65911 0
M  V30 527 O 88.1295 -2.60694 -5.64732 0
M  V30 528 C 89.3195 -3.93473 -7.1943 0
M  V30 529 O 89.7095 -3.02071 -8.21205 0
M  V30 530 C 90.1995 -3.73047 -5.97036 0
M  V30 531 C 89.4895 -2.58828 -5.25741 0
M  V30 532 N 89.5395 -2.68068 -3.77503 0
M  V30 533 H 86.7005 -5.40332 -6.79951 0
M  V30 534 H 86.4305 -4.41613 -5.32378 0
M  V30 535 H 87.2975 -3.26331 -7.47797 0
M  V30 536 P 91.2595 -2.75334 -8.47391 0
M  V30 537 O 91.4795 -2.44619 -9.90336 0
M  V30 538 O 92.0495 -3.87776 -7.92294 0
M  V30 539 O 91.5095 -1.4459 -7.59357 0
M  V30 540 C 90.5695 -0.347653 -7.69315 0
M  V30 541 C 91.2995 0.96767 -7.52806 0
M  V30 542 O 91.5095 1.21055 -6.10208 0
M  V30 543 C 92.6995 1.04557 -8.13408 0
M  V30 544 O 93.0895 2.38311 -8.41922 0
M  V30 545 C 93.5795 0.491279 -7.02284 0
M  V30 546 C 92.8695 0.996264 -5.77469 0
M  V30 547 N 92.9195 0.0501916 -4.62973 0
M  V30 548 C 92.8395 -1.31969 -4.65661 0
M  V30 549 N 92.9095 -1.86649 -3.48119 0
M  V30 550 C 93.0595 -0.792089 -2.62406 0
M  V30 551 C 93.1895 -0.705684 -1.2207 0
M  V30 552 N 93.1995 -1.76207 -0.413762 0
M  V30 553 N 93.3095 0.518981 -0.685754 0
M  V30 554 C 93.2995 1.57595 -1.49174 0
M  V30 555 N 93.1795 1.62909 -2.80066 0
M  V30 556 C 93.0595 0.388195 -3.3073 0
M  V30 557 H 90.0815 -0.374765 -8.67791 0
M  V30 558 H 89.8095 -0.443613 -6.90476 0
M  V30 559 H 90.6775 1.75559 -7.96891 0
M  V30 560 H 93.3325 1.94563 -5.46818 0
M  V30 561 H 93.6125 -0.608651 -7.04676 0
M  V30 562 H 94.6035 0.889796 -7.09039 0
M  V30 563 H 92.7695 0.433128 -9.04664 0
M  V30 564 H 92.7285 -1.89246 -5.57664 0
M  V30 565 H 93.1095 -2.71005 -0.804694 0
M  V30 566 H 93.2985 -1.63189 0.603768 0
M  V30 567 H 93.4065 2.53475 -0.997614 0
M  V30 568 P 94.6394 2.75334 -8.47391 0
M  V30 569 O 94.8594 3.84128 -9.44797 0
M  V30 570 O 95.4294 1.51947 -8.68712 0
M  V30 571 O 94.8894 3.29363 -6.99321 0
M  V30 572 C 93.9494 4.24011 -6.4274 0
M  V30 573 C 94.6794 5.20775 -5.52155 0
M  V30 574 O 94.8894 4.56534 -4.22446 0
M  V30 575 C 96.0794 5.62629 -5.96531 0
M  V30 576 O 96.4694 6.87667 -5.41053 0
M  V30 577 C 96.9594 4.52537 -5.39283 0
M  V30 578 C 96.2494 4.20027 -4.08623 0
M  V30 579 N 96.2994 2.76189 -3.71603 0
M  V30 580 H 93.4604 4.797 -7.24003 0
M  V30 581 H 93.1904 3.69856 -5.84513 0
M  V30 582 H 94.0574 6.10356 -5.41441 0
M  V30 583 P 98.0194 7.20834 -5.23717 0
M  V30 584 O 98.2394 8.66104 -5.38572 0
M  V30 585 O 98.8094 6.33544 -6.1349 0
M  V30 586 O 98.2694 6.7751 -3.72168 0
M  V30 587 C 97.3294 7.20825 -2.7076 0
M  V30 588 C 98.0594 7.45864 -1.40599 0
M  V30 589 O 98.2694 6.17651 -0.734225 0
M  V30 590 C 99.4594 8.05808 -1.51899 0
M  V30 591 O 99.8494 8.74358 -0.335205 0
M  V30 592 C 100.339 6.83093 -1.70294 0
M  V30 593 C 99.6294 5.79992 -0.836974 0
M  V30 594 N 99.6794 4.41864 -1.38293 0
M  V30 595 H 96.8404 8.13644 -3.0377 0
M  V30 596 H 96.5704 6.42788 -2.55485 0
M  V30 597 H 97.4374 8.12039 -0.792769 0
M  V30 598 P 101.399 8.91 -6.54696e-15 0
M  V30 599 O 101.619 10.1726 0.733694 0
M  V30 600 O 102.189 8.73148 -1.23936 0
M  V30 601 O 101.649 7.66872 0.971405 0
M  V30 602 C 100.709 7.42309 2.04641 0
M  V30 603 C 101.439 6.86059 3.24661 0
M  V30 604 O 101.649 5.42847 3.03646 0
M  V30 605 C 102.839 7.41196 3.50753 0
M  V30 606 O 103.229 7.27073 4.86816 0
M  V30 607 C 103.719 6.5273 2.63741 0
M  V30 608 C 103.009 5.1842 2.73198 0
M  V30 609 N 103.059 4.38762 1.4784 0
M  V30 610 C 102.979 4.81605 0.168631 0
M  V30 611 N 103.059 3.85454 -0.713363 0
M  V30 612 C 103.199 2.6994 0.0566958 0
M  V30 613 C 103.329 1.34815 -0.338502 0
M  V30 614 O 103.349 0.869548 -1.47125 0
M  V30 615 N 103.449 0.496304 0.77465 0
M  V30 616 C 103.449 0.908403 2.09122 0
M  V30 617 N 103.579 -0.0517805 3.00955 0
M  V30 618 N 103.319 2.17875 2.46519 0
M  V30 619 C 103.199 3.01988 1.4033 0
M  V30 620 H 100.22 8.36803 2.32493 0
M  V30 621 H 99.9504 6.70197 1.71129 0
M  V30 622 H 100.817 7.03551 4.13168 0
M  V30 623 H 103.472 4.59498 3.54415 0
M  V30 624 H 103.751 6.88898 1.59848 0
M  V30 625 H 104.743 6.46749 3.03687 0
M  V30 626 H 102.909 8.46908 3.20714 0
M  V30 627 H 102.86 5.86405 -0.105564 0
M  V30 628 H 103.542 -0.483664 0.597855 0
M  V30 629 H 103.579 0.187865 4.0116 0
M  V30 630 H 103.68 -1.03585 2.71726 0
M  V30 631 P 104.779 7.20834 5.23717 0
M  V30 632 O 104.999 7.79853 6.57286 0
M  V30 633 O 105.569 7.79239 4.12957 0
M  V30 634 O 105.029 5.63315 5.29344 0
M  V30 635 C 104.089 4.80255 6.01876 0
M  V30 636 C 104.819 3.64202 6.65911 0
M  V30 637 O 105.029 2.60694 5.64732 0
M  V30 638 C 106.219 3.93473 7.1943 0
M  V30 639 O 106.609 3.02071 8.21205 0
M  V30 640 C 107.099 3.73047 5.97036 0
M  V30 641 C 106.389 2.58828 5.25741 0
M  V30 642 N 106.439 2.68068 3.77503 0
M  V30 643 C 106.359 3.79715 2.96723 0
M  V30 644 N 106.439 3.5377 1.68852 0
M  V30 645 C 106.579 2.15054 1.63254 0
M  V30 646 C 106.709 1.28964 0.518571 0
M  V30 647 O 106.729 1.56826 -0.679156 0
M  V30 648 N 106.829 -0.0538097 0.918425 0
M  V30 649 C 106.829 -0.494275 2.22578 0
M  V30 650 N 106.959 -1.81086 2.40434 0
M  V30 651 N 106.699 0.313645 3.27502 0
M  V30 652 C 106.579 1.61829 2.91033 0
M  V30 653 H 103.6 5.40332 6.79951 0
M  V30 654 H 103.33 4.41613 5.32378 0
M  V30 655 H 104.197 3.26331 7.47797 0
M  V30 656 H 106.852 1.63422 5.56814 0
M  V30 657 H 107.131 4.63374 5.34244 0
M  V30 658 H 108.123 3.44728 6.25838 0
M  V30 659 H 106.289 4.96652 7.57263 0
M  V30 660 H 106.24 4.80617 3.3614 0
M  V30 661 H 106.922 -0.742702 0.199384 0
M  V30 662 H 106.959 -2.20598 3.35588 0
M  V30 663 H 107.06 -2.43518 1.58945 0
M  V30 664 P 108.159 2.75334 8.47391 0
M  V30 665 O 108.379 2.44571 9.90142 0
M  V30 666 O 108.949 3.87688 7.92115 0
M  V30 667 O 108.409 1.4459 7.59357 0
M  V30 668 C 107.469 0.347608 7.69215 0
M  V30 669 C 108.199 -0.96767 7.52806 0
M  V30 670 O 108.409 -1.21036 6.1011 0
M  V30 671 C 109.599 -1.04544 8.13308 0
M  V30 672 O 109.989 -2.38311 8.41922 0
M  V30 673 C 110.479 -0.491279 7.02284 0
M  V30 674 C 109.769 -0.996264 5.77469 0
M  V30 675 N 109.819 -0.0501916 4.62973 0
M  V30 676 H 106.98 0.374722 8.67691 0
M  V30 677 H 106.71 0.443485 6.90277 0
M  V30 678 H 107.577 -1.75537 7.96793 0
M  V30 679 P 111.539 -2.75334 8.47391 0
M  V30 680 O 111.759 -3.84128 9.44797 0
M  V30 681 O 112.329 -1.51947 8.68712 0
M  V30 682 O 111.789 -3.29363 6.99321 0
M  V30 683 C 110.849 -4.24011 6.4274 0
M  V30 684 C 111.579 -5.20775 5.52155 0
M  V30 685 O 111.789 -4.56534 4.22446 0
M  V30 686 C 112.979 -5.62629 5.96531 0
M  V30 687 O 113.369 -6.87667 5.41053 0
M  V30 688 C 113.859 -4.52537 5.39283 0
M  V30 689 C 113.149 -4.20027 4.08623 0
M  V30 690 N 113.199 -2.76189 3.71603 0
M  V30 691 H 110.36 -4.797 7.24003 0
M  V30 692 H 110.09 -3.69856 5.84513 0
M  V30 693 H 110.957 -6.10356 5.41441 0
M  V30 694 P 114.919 -7.20834 5.23717 0
M  V30 695 O 115.139 -8.66104 5.38572 0
M  V30 696 O 115.709 -6.33544 6.1349 0
M  V30 697 O 115.169 -6.7751 3.72168 0
M  V30 698 C 114.229 -7.20825 2.7076 0
M  V30 699 C 114.959 -7.45864 1.40599 0
M  V30 700 O 115.169 -6.17651 0.734225 0
M  V30 701 C 116.359 -8.05808 1.51899 0
M  V30 702 O 116.749 -8.74358 0.335205 0
M  V30 703 C 117.239 -6.83093 1.70294 0
M  V30 704 C 116.529 -5.79992 0.836974 0
M  V30 705 N 116.579 -4.41864 1.38293 0
M  V30 706 H 113.74 -8.13644 3.0377 0
M  V30 707 H 113.47 -6.42788 2.55485 0
M  V30 708 H 114.337 -8.12039 0.792769 0
M  V30 709 P 118.299 -8.91 7.63812e-15 0
M  V30 710 O 118.519 -10.1726 -0.733694 0
M  V30 711 O 119.089 -8.73148 1.23936 0
M  V30 712 O 118.549 -7.66872 -0.971405 0
M  V30 713 C 117.609 -7.42309 -2.04641 0
M  V30 714 C 118.339 -6.86059 -3.24661 0
M  V30 715 O 118.549 -5.42847 -3.03646 0
M  V30 716 C 119.739 -7.41196 -3.50753 0
M  V30 717 O 120.129 -7.27073 -4.86816 0
M  V30 718 C 120.619 -6.5273 -2.63741 0
M  V30 719 C 119.909 -5.1842 -2.73198 0
M  V30 720 N 119.959 -4.38762 -1.4784 0
M  V30 721 H 117.12 -8.36803 -2.32493 0
M  V30 722 H 116.85 -6.70197 -1.71129 0
M  V30 723 H 117.717 -7.03551 -4.13168 0
M  V30 724 P 121.679 -7.20834 -5.23717 0
M  V30 725 O 121.899 -7.7993 -6.57351 0
M  V30 726 O 122.469 -7.79328 -4.13004 0
M  V30 727 O 121.929 -5.63315 -5.29344 0
M  V30 728 C 120.989 -4.80193 -6.01798 0
M  V30 729 C 121.719 -3.64202 -6.65911 0
M  V30 730 O 121.929 -2.60694 -5.64732 0
M  V30 731 C 123.119 -3.93473 -7.1943 0
M  V30 732 O 123.509 -3.02071 -8.21205 0
M  V30 733 C 123.999 -3.73047 -5.97036 0
M  V30 734 C 123.289 -2.58828 -5.25741 0
M  V30 735 N 123.339 -2.6801 -3.77422 0
M  V30 736 C 123.489 -1.50443 -3.07133 0
M  V30 737 O 123.579 -0.419406 -3.61576 0
M  V30 738 N 123.529 -1.6403 -1.69677 0
M  V30 739 C 123.439 -2.81206 -0.986255 0
M  V30 740 O 123.489 -2.80892 0.249754 0
M  V30 741 C 123.289 -3.99158 -1.80325 0
M  V30 742 C 123.179 -5.29309 -1.06921 0
M  V30 743 C 123.239 -3.89779 -3.1476 0
M  V30 744 H 120.499 -5.40332 -6.79951 0
M  V30 745 H 120.23 -4.41549 -5.32301 0
M  V30 746 H 121.097 -3.26331 -7.47797 0
M  V30 747 H 123.752 -1.6395 -5.56554 0
M  V30 748 H 124.031 -4.63439 -5.3432 0
M  V30 749 H 125.023 -3.44728 -6.25838 0
M  V30 750 H 123.189 -4.96652 -7.57263 0
M  V30 751 H 123.118 -4.80159 -3.74441 0
M  V30 752 H 124.148 -5.81459 -1.09608 0
M  V30 753 H 122.411 -5.9187 -1.54487 0
M  V30 754 H 122.899 -5.10095 -0.0220288 0
M  V30 755 H 123.635 -0.798962 -1.16664 0
M  V30 756 P 125.059 -2.75334 -8.47391 0
M  V30 757 O 125.279 -2.44571 -9.90142 0
M  V30 758 O 125.849 -3.87688 -7.92115 0
M  V30 759 O 125.309 -1.4459 -7.59357 0
M  V30 760 C 124.369 -0.347608 -7.69215 0
M  V30 761 C 125.099 0.96767 -7.52806 0
M  V30 762 O 125.309 1.21036 -6.1011 0
M  V30 763 C 126.499 1.04544 -8.13308 0
M  V30 764 O 126.889 2.38311 -8.41922 0
M  V30 765 C 127.379 0.491279 -7.02284 0
M  V30 766 C 126.669 0.996264 -5.77469 0
M  V30 767 N 126.719 0.0501916 -4.62973 0
M  V30 768 C 126.639 -1.32786 -4.63244 0
M  V30 769 N 126.719 -1.86957 -3.44545 0
M  V30 770 C 126.859 -0.780241 -2.58481 0
M  V30 771 C 126.989 -0.738536 -1.17757 0
M  V30 772 N 127.109 0.58337 -0.711393 0
M  V30 773 C 127.109 1.70816 -1.51017 0
M  V30 774 N 127.239 2.87826 -0.880757 0
M  V30 775 N 126.979 1.67126 -2.8339 0
M  V30 776 C 126.859 0.401421 -3.30572 0
M  V30 777 H 123.88 -0.374722 -8.67691 0
M  V30 778 H 123.61 -0.443485 -6.90277 0
M  V30 779 H 124.477 1.75537 -7.96793 0
M  V30 780 P 128.439 2.75334 -8.47391 0
M  V30 781 O 128.659 3.84128 -9.44797 0
M  V30 782 O 129.229 1.51947 -8.68712 0
M  V30 783 O 128.689 3.29363 -6.99321 0
M  V30 784 C 127.749 4.24011 -6.4274 0
M  V30 785 C 128.479 5.20775 -5.52155 0
M  V30 786 O 128.689 4.56534 -4.22446 0
M  V30 787 C 129.879 5.62629 -5.96531 0
M  V30 788 O 130.269 6.87667 -5.41053 0
M  V30 789 C 130.759 4.52537 -5.39283 0
M  V30 790 C 130.049 4.20027 -4.08623 0
M  V30 791 N 130.099 2.76189 -3.71603 0
M  V30 792 H 127.26 4.797 -7.24003 0
M  V30 793 H 126.99 3.69856 -5.84513 0
M  V30 794 H 127.857 6.10356 -5.41441 0
M  V30 795 P 131.819 7.20834 -5.23717 0
M  V30 796 O 132.039 8.66104 -5.38572 0
M  V30 797 O 132.609 6.33544 -6.1349 0
M  V30 798 O 132.069 6.7751 -3.72168 0
M  V30 799 C 131.129 7.20825 -2.7076 0
M  V30 800 C 131.859 7.45864 -1.40599 0
M  V30 801 O 132.069 6.17651 -0.734225 0
M  V30 802 C 133.259 8.05808 -1.51899 0
M  V30 803 O 133.649 8.74358 -0.335205 0
M  V30 804 C 134.139 6.83093 -1.70294 0
M  V30 805 C 133.429 5.79992 -0.836974 0
M  V30 806 N 133.479 4.41864 -1.38293 0
M  V30 807 C 133.399 3.99538 -2.69438 0
M  V30 808 N 133.479 2.69909 -2.84277 0
M  V30 809 C 133.619 2.21719 -1.5408 0
M  V30 810 C 133.749 0.891712 -1.06628 0
M  V30 811 N 133.869 0.856846 0.334985 0
M  V30 812 C 133.869 1.9641 1.15789 0
M  V30 813 N 133.999 1.72708 2.46522 0
M  V30 814 N 133.739 3.21165 0.713741 0
M  V30 815 C 133.619 3.26797 -0.639748 0
M  V30 816 H 130.64 8.13644 -3.0377 0
M  V30 817 H 130.37 6.42788 -2.55485 0
M  V30 818 H 131.237 8.12039 -0.792769 0
M  V30 819 P 135.199 8.91 -8.72928e-15 0
M  V30 820 O 135.419 10.1726 0.733694 0
M  V30 821 O 135.989 8.73148 -1.23936 0
M  V30 822 O 135.449 7.66872 0.971405 0
M  V30 823 C 134.509 7.42309 2.04641 0
M  V30 824 C 135.239 6.86059 3.24661 0
M  V30 825 O 135.449 5.42847 3.03646 0
M  V30 826 C 136.639 7.41196 3.50753 0
M  V30 827 O 137.029 7.27073 4.86816 0
M  V30 828 C 137.519 6.5273 2.63741 0
M  V30 829 C 136.809 5.1842 2.73198 0
M  V30 830 N 136.859 4.38762 1.4784 0
M  V30 831 H 134.02 8.36803 2.32493 0
M  V30 832 H 133.75 6.70197 1.71129 0
M  V30 833 H 134.617 7.03551 4.13168 0
M  V30 834 P 138.579 7.20834 5.23717 0
M  V30 835 O 138.799 7.79853 6.57286 0
M  V30 836 O 139.369 7.79239 4.12957 0
M  V30 837 O 138.829 5.63315 5.29344 0
M  V30 838 C 137.889 4.80255 6.01876 0
M  V30 839 C 138.619 3.64202 6.65911 0
M  V30 840 O 138.829 2.60694 5.64732 0
M  V30 841 C 140.019 3.93473 7.1943 0
M  V30 842 O 140.409 3.02071 8.21205 0
M  V30 843 C 140.899 3.73047 5.97036 0
M  V30 844 C 140.189 2.58828 5.25741 0
M  V30 845 N 140.239 2.68068 3.77503 0
M  V30 846 C 140.159 3.79715 2.96723 0
M  V30 847 N 140.239 3.5377 1.68852 0
M  V30 848 C 140.379 2.15054 1.63254 0
M  V30 849 C 140.509 1.28964 0.518571 0
M  V30 850 N 140.629 -0.0538097 0.918425 0
M  V30 851 C 140.629 -0.494275 2.22578 0
M  V30 852 N 140.759 -1.81086 2.40434 0
M  V30 853 N 140.499 0.313645 3.27502 0
M  V30 854 C 140.379 1.61829 2.91033 0
M  V30 855 H 137.4 5.40332 6.79951 0
M  V30 856 H 137.13 4.41613 5.32378 0
M  V30 857 H 137.997 3.26331 7.47797 0
M  V30 858 P 141.959 2.75334 8.47391 0
M  V30 859 O 142.179 2.44571 9.90142 0
M  V30 860 O 142.749 3.87688 7.92115 0
M  V30 861 O 142.209 1.4459 7.59357 0
M  V30 862 C 141.269 0.347608 7.69215 0
M  V30 863 C 141.999 -0.96767 7.52806 0
M  V30 864 O 142.209 -1.21036 6.1011 0
M  V30 865 C 143.399 -1.04544 8.13308 0
M  V30 866 O 143.789 -2.38311 8.41922 0
M  V30 867 C 144.279 -0.491279 7.02284 0
M  V30 868 C 143.569 -0.996264 5.77469 0
M  V30 869 N 143.619 -0.0501916 4.62973 0
M  V30 870 C 143.539 1.32786 4.63244 0
M  V30 871 N 143.619 1.86957 3.44545 0
M  V30 872 C 143.759 0.780241 2.58481 0
M  V30 873 C 143.889 0.738536 1.17757 0
M  V30 874 N 144.009 -0.58337 0.711393 0
M  V30 875 C 144.009 -1.70816 1.51017 0
M  V30 876 N 144.139 -2.87826 0.880757 0
M  V30 877 N 143.879 -1.67126 2.8339 0
M  V30 878 C 143.759 -0.401421 3.30572 0
M  V30 879 H 140.78 0.374722 8.67691 0
M  V30 880 H 140.51 0.443485 6.90277 0
M  V30 881 H 141.377 -1.75537 7.96793 0
M  V30 882 P 145.339 -2.75334 8.47391 0
M  V30 883 O 145.559 -3.84128 9.44797 0
M  V30 884 O 146.129 -1.51947 8.68712 0
M  V30 885 O 145.589 -3.29363 6.99321 0
M  V30 886 C 144.649 -4.24011 6.4274 0
M  V30 887 C 145.379 -5.20775 5.52155 0
M  V30 888 O 145.589 -4.56534 4.22446 0
M  V30 889 C 146.779 -5.62629 5.96531 0
M  V30 890 O 147.169 -6.87667 5.41053 0
M  V30 891 C 147.659 -4.52537 5.39283 0
M  V30 892 C 146.949 -4.20027 4.08623 0
M  V30 893 N 146.999 -2.76189 3.71603 0
M  V30 894 H 144.16 -4.797 7.24003 0
M  V30 895 H 143.89 -3.69856 5.84513 0
M  V30 896 H 144.757 -6.10356 5.41441 0
M  V30 897 P 148.719 -7.20834 5.23717 0
M  V30 898 O 148.939 -8.66274 5.38678 0
M  V30 899 O 149.509 -6.33687 6.13629 0
M  V30 900 O 148.969 -6.7751 3.72168 0
M  V30 901 C 148.029 -7.20919 2.70795 0
M  V30 902 C 148.759 -7.45864 1.40599 0
M  V30 903 O 148.969 -6.17751 0.734343 0
M  V30 904 C 150.159 -8.05906 1.51917 0
M  V30 905 O 150.549 -8.74358 0.335205 0
M  V30 906 C 151.039 -6.83093 1.70294 0
M  V30 907 C 150.329 -5.79992 0.836974 0
M  V30 908 N 150.379 -4.41864 1.38293 0
M  V30 909 C 150.299 -4.02089 2.69407 0
M  V30 910 N 150.369 -2.73403 2.85089 0
M  V30 911 C 150.519 -2.25086 1.5642 0
M  V30 912 C 150.649 -0.942887 1.04836 0
M  V30 913 N 150.659 0.150999 1.80369 0
M  V30 914 N 150.769 -0.812565 -0.28167 0
M  V30 915 C 150.759 -1.90572 -1.03784 0
M  V30 916 N 150.639 -3.167 -0.683905 0
M  V30 917 C 150.519 -3.26538 0.652815 0
M  V30 918 H 147.541 -8.13738 3.03804 0
M  V30 919 H 147.269 -6.42974 2.55559 0
M  V30 920 H 148.137 -8.12139 0.792866 0
M  V30 921 H 150.792 -5.80178 -0.160643 0
M  V30 922 H 151.072 -6.51379 2.75643 0
M  V30 923 H 152.063 -7.01832 1.3448 0
M  V30 924 H 150.229 -8.73771 2.38364 0
M  V30 925 H 150.188 -4.7189 3.52311 0
M  V30 926 H 150.569 0.0721434 2.82608 0
M  V30 927 H 150.758 1.0785 1.36544 0
M  V30 928 H 150.866 -1.73207 -2.10241 0
M  V30 929 P 152.099 -8.91 9.82044e-15 0
M  V30 930 O 152.319 -10.1726 -0.733694 0
M  V30 931 O 152.889 -8.73148 1.23936 0
M  V30 932 O 152.349 -7.66872 -0.971405 0
M  V30 933 C 151.409 -7.42309 -2.04641 0
M  V30 934 C 152.139 -6.86059 -3.24661 0
M  V30 935 O 152.349 -5.42847 -3.03646 0
M  V30 936 C 153.539 -7.41196 -3.50753 0
M  V30 937 O 153.929 -7.27073 -4.86816 0
M  V30 938 C 154.419 -6.5273 -2.63741 0
M  V30 939 C 153.709 -5.1842 -2.73198 0
M  V30 940 N 153.759 -4.38762 -1.4784 0
M  V30 941 H 150.92 -8.36803 -2.32493 0
M  V30 942 H 150.65 -6.70197 -1.71129 0
M  V30 943 H 151.517 -7.03551 -4.13168 0
M  V30 944 P 155.479 -7.20834 -5.23717 0
M  V30 945 O 155.699 -7.79853 -6.57286 0
M  V30 946 O 156.269 -7.79239 -4.12957 0
M  V30 947 O 155.729 -5.63315 -5.29344 0
M  V30 948 C 154.789 -4.80255 -6.01876 0
M  V30 949 C 155.519 -3.64202 -6.65911 0
M  V30 950 O 155.729 -2.60694 -5.64732 0
M  V30 951 C 156.919 -3.93473 -7.1943 0
M  V30 952 O 157.309 -3.02071 -8.21205 0
M  V30 953 C 157.799 -3.73047 -5.97036 0
M  V30 954 C 157.089 -2.58828 -5.25741 0
M  V30 955 N 157.139 -2.68068 -3.77503 0
M  V30 956 C 157.059 -3.79715 -2.96723 0
M  V30 957 N 157.139 -3.5377 -1.68852 0
M  V30 958 C 157.279 -2.15054 -1.63254 0
M  V30 959 C 157.409 -1.28964 -0.518571 0
M  V30 960 O 157.429 -1.56826 0.679156 0
M  V30 961 N 157.529 0.0538097 -0.918425 0
M  V30 962 C 157.529 0.494275 -2.22578 0
M  V30 963 N 157.659 1.81086 -2.40434 0
M  V30 964 N 157.399 -0.313645 -3.27502 0
M  V30 965 C 157.279 -1.61829 -2.91033 0
M  V30 966 H 154.3 -5.40332 -6.79951 0
M  V30 967 H 154.03 -4.41613 -5.32378 0
M  V30 968 H 154.897 -3.26331 -7.47797 0
M  V30 969 H 157.552 -1.63422 -5.56814 0
M  V30 970 H 157.831 -4.63374 -5.34244 0
M  V30 971 H 158.823 -3.44728 -6.25838 0
M  V30 972 H 156.989 -4.96652 -7.57263 0
M  V30 973 H 156.94 -4.80617 -3.3614 0
M  V30 974 H 157.622 0.742702 -0.199384 0
M  V30 975 H 157.659 2.20598 -3.35588 0
M  V30 976 H 157.76 2.43518 -1.58945 0
M  V30 977 P 158.859 -2.75334 -8.47391 0
M  V30 978 O 159.079 -2.44571 -9.90142 0
M  V30 979 O 159.649 -3.87688 -7.92115 0
M  V30 980 O 159.109 -1.4459 -7.59357 0
M  V30 981 C 158.169 -0.347608 -7.69215 0
M  V30 982 C 158.899 0.96767 -7.52806 0
M  V30 983 O 159.109 1.21036 -6.1011 0
M  V30 984 C 160.299 1.04544 -8.13308 0
M  V30 985 O 160.689 2.38311 -8.41922 0
M  V30 986 C 161.179 0.491279 -7.02284 0
M  V30 987 C 160.469 0.996264 -5.77469 0
M  V30 988 N 160.519 0.0501916 -4.62973 0
M  V30 989 H 157.68 -0.374722 -8.67691 0
M  V30 990 H 157.41 -0.443485 -6.90277 0
M  V30 991 H 158.277 1.75537 -7.96793 0
M  V30 992 P 162.239 2.75334 -8.47391 0
M  V30 993 O 162.459 3.84128 -9.44797 0
M  V30 994 O 163.029 1.51947 -8.68712 0
M  V30 995 O 162.489 3.29363 -6.99321 0
M  V30 996 C 161.549 4.24011 -6.4274 0
M  V30 997 C 162.279 5.20775 -5.52155 0
M  V30 998 O 162.489 4.56534 -4.22446 0
M  V30 999 C 163.679 5.62629 -5.96531 0
M  V30 1000 O 164.069 6.87667 -5.41053 0
M  V30 1001 C 164.559 4.52537 -5.39283 0
M  V30 1002 C 163.849 4.20027 -4.08623 0
M  V30 1003 N 163.899 2.76189 -3.71603 0
M  V30 1004 C 163.819 1.64862 -4.52822 0
M  V30 1005 N 163.899 0.512671 -3.88633 0
M  V30 1006 C 164.039 0.888083 -2.54977 0
M  V30 1007 C 164.169 0.094668 -1.38677 0
M  V30 1008 O 164.189 -1.13053 -1.28163 0
M  V30 1009 N 164.289 0.890102 -0.232633 0
M  V30 1010 C 164.289 2.26958 -0.21772 0
M  V30 1011 N 164.419 2.84626 0.97925 0
M  V30 1012 N 164.159 3.0178 -1.31033 0
M  V30 1013 C 164.039 2.26781 -2.43843 0
M  V30 1014 H 161.06 4.797 -7.24003 0
M  V30 1015 H 160.79 3.69856 -5.84513 0
M  V30 1016 H 161.657 6.10356 -5.41441 0
M  V30 1017 H 164.312 4.79061 -3.27488 0
M  V30 1018 H 164.591 3.64906 -6.05785 0
M  V30 1019 H 165.583 4.8868 -5.2125 0
M  V30 1020 H 163.749 5.66726 -7.06352 0
M  V30 1021 H 163.7 1.71169 -5.60966 0
M  V30 1022 H 164.382 0.419134 0.644739 0
M  V30 1023 H 164.419 3.87332 1.06098 0
M  V30 1024 H 164.52 2.26417 1.82483 0
M  V30 1025 P 165.619 7.20834 -5.23717 0
M  V30 1026 O 165.839 8.66104 -5.38572 0
M  V30 1027 O 166.409 6.33544 -6.1349 0
M  V30 1028 O 165.869 6.7751 -3.72168 0
M  V30 1029 C 164.929 7.20825 -2.7076 0
M  V30 1030 C 165.659 7.45864 -1.40599 0
M  V30 1031 O 165.869 6.17651 -0.734225 0
M  V30 1032 C 167.059 8.05808 -1.51899 0
M  V30 1033 O 167.449 8.74358 -0.335205 0
M  V30 1034 C 167.939 6.83093 -1.70294 0
M  V30 1035 C 167.229 5.79992 -0.836974 0
M  V30 1036 N 167.279 4.41864 -1.38293 0
M  V30 1037 C 167.199 3.99538 -2.69438 0
M  V30 1038 N 167.279 2.69909 -2.84277 0
M  V30 1039 C 167.419 2.21719 -1.5408 0
M  V30 1040 C 167.549 0.891712 -1.06628 0
M  V30 1041 O 167.569 -0.161298 -1.70137 0
M  V30 1042 N 167.669 0.856846 0.334985 0
M  V30 1043 C 167.669 1.9641 1.15789 0
M  V30 1044 N 167.799 1.72708 2.46522 0
M  V30 1045 N 167.539 3.21165 0.713741 0
M  V30 1046 C 167.419 3.26797 -0.639748 0
M  V30 1047 H 164.44 8.13644 -3.0377 0
M  V30 1048 H 164.17 6.42788 -2.55485 0
M  V30 1049 H 165.037 8.12039 -0.792769 0
M  V30 1050 H 167.692 5.80061 0.166416 0
M  V30 1051 H 167.971 6.51287 -2.75604 0
M  V30 1052 H 168.963 7.01734 -1.34462 0
M  V30 1053 H 167.129 8.73674 -2.38337 0
M  V30 1054 H 167.08 4.68207 -3.53221 0
M  V30 1055 H 167.762 -0.0398818 0.767965 0
M  V30 1056 H 167.799 2.50995 3.13503 0
M  V30 1057 H 167.9 0.759148 2.80716 0
M  V30 1058 P 168.999 8.91 -1.09116e-14 0
M  V30 1059 O 169.219 10.1746 0.733838 0
M  V30 1060 O 169.789 8.73346 -1.23964 0
M  V30 1061 O 169.249 7.66872 0.971405 0
M  V30 1062 C 168.309 7.42405 2.04668 0
M  V30 1063 C 169.039 6.86059 3.24661 0
M  V30 1064 O 169.249 5.42934 3.03695 0
M  V30 1065 C 170.439 7.41287 3.50796 0
M  V30 1066 O 170.829 7.27073 4.86816 0
M  V30 1067 C 171.319 6.5273 2.63741 0
M  V30 1068 C 170.609 5.1842 2.73198 0
M  V30 1069 N 170.659 4.38762 1.4784 0
M  V30 1070 H 167.821 8.36899 2.3252 0
M  V30 1071 H 167.549 6.70391 1.71179 0
M  V30 1072 H 168.417 7.03638 4.13219 0
M  V30 1073 H 171.072 4.59931 3.54016 0
M  V30 1074 H 171.352 6.88995 1.59871 0
M  V30 1075 H 172.343 6.4684 3.0373 0
M  V30 1076 H 170.509 8.47002 3.20749 0
M  V30 1077 P 172.379 7.20834 5.23717 0
M  V30 1078 O 172.599 7.79853 6.57286 0
M  V30 1079 O 173.169 7.79239 4.12957 0
M  V30 1080 O 172.629 5.63315 5.29344 0
M  V30 1081 C 171.689 4.80255 6.01876 0
M  V30 1082 C 172.419 3.64202 6.65911 0
M  V30 1083 O 172.629 2.60694 5.64732 0
M  V30 1084 C 173.819 3.93473 7.1943 0
M  V30 1085 O 174.209 3.02071 8.21205 0
M  V30 1086 C 174.699 3.73047 5.97036 0
M  V30 1087 C 173.989 2.58828 5.25741 0
M  V30 1088 N 174.039 2.68068 3.77503 0
M  V30 1089 H 171.2 5.40332 6.79951 0
M  V30 1090 H 170.93 4.41613 5.32378 0
M  V30 1091 H 171.797 3.26331 7.47797 0
M  V30 1092 P 175.759 2.75334 8.47391 0
M  V30 1093 O 175.979 2.44619 9.90336 0
M  V30 1094 O 176.549 3.87776 7.92294 0
M  V30 1095 O 176.009 1.4459 7.59357 0
M  V30 1096 C 175.069 0.347653 7.69315 0
M  V30 1097 C 175.799 -0.96767 7.52806 0
M  V30 1098 O 176.009 -1.21055 6.10208 0
M  V30 1099 C 177.199 -1.04557 8.13408 0
M  V30 1100 O 177.589 -2.38311 8.41922 0
M  V30 1101 C 178.079 -0.491279 7.02284 0
M  V30 1102 C 177.369 -0.996264 5.77469 0
M  V30 1103 N 177.419 -0.0501916 4.62973 0
M  V30 1104 C 177.339 1.31969 4.65661 0
M  V30 1105 N 177.409 1.86649 3.48119 0
M  V30 1106 C 177.559 0.792089 2.62406 0
M  V30 1107 C 177.689 0.705684 1.2207 0
M  V30 1108 N 177.699 1.76207 0.413762 0
M  V30 1109 N 177.809 -0.518981 0.685754 0
M  V30 1110 C 177.799 -1.57595 1.49174 0
M  V30 1111 N 177.679 -1.62909 2.80066 0
M  V30 1112 C 177.559 -0.388195 3.3073 0
M  V30 1113 H 174.581 0.374765 8.67791 0
M  V30 1114 H 174.309 0.443613 6.90476 0
M  V30 1115 H 175.177 -1.75559 7.96891 0
M  V30 1116 H 177.832 -1.94563 5.46818 0
M  V30 1117 H 178.112 0.608651 7.04676 0
M  V30 1118 H 179.103 -0.889796 7.09039 0
M  V30 1119 H 177.269 -0.433128 9.04664 0
M  V30 1120 H 177.228 1.89246 5.57664 0
M  V30 1121 H 177.609 2.71005 0.804694 0
M  V30 1122 H 177.798 1.63189 -0.603768 0
M  V30 1123 H 177.906 -2.53475 0.997614 0
M  V30 1124 P 179.139 -2.75334 8.47391 0
M  V30 1125 O 179.359 -3.84128 9.44797 0
M  V30 1126 O 179.929 -1.51947 8.68712 0
M  V30 1127 O 179.389 -3.29363 6.99321 0
M  V30 1128 C 178.449 -4.24011 6.4274 0
M  V30 1129 C 179.179 -5.20775 5.52155 0
M  V30 1130 O 179.389 -4.56534 4.22446 0
M  V30 1131 C 180.579 -5.62629 5.96531 0
M  V30 1132 O 180.969 -6.87667 5.41053 0
M  V30 1133 C 181.459 -4.52537 5.39283 0
M  V30 1134 C 180.749 -4.20027 4.08623 0
M  V30 1135 N 180.799 -2.76189 3.71603 0
M  V30 1136 C 180.719 -1.64862 4.52822 0
M  V30 1137 N 180.799 -0.512671 3.88633 0
M  V30 1138 C 180.939 -0.888083 2.54977 0
M  V30 1139 C 181.069 -0.094668 1.38677 0
M  V30 1140 O 181.089 1.13053 1.28163 0
M  V30 1141 N 181.189 -0.890102 0.232633 0
M  V30 1142 C 181.189 -2.26958 0.21772 0
M  V30 1143 N 181.319 -2.84626 -0.97925 0
M  V30 1144 N 181.059 -3.0178 1.31033 0
M  V30 1145 C 180.939 -2.26781 2.43843 0
M  V30 1146 H 177.96 -4.797 7.24003 0
M  V30 1147 H 177.69 -3.69856 5.84513 0
M  V30 1148 H 178.557 -6.10356 5.41441 0
M  V30 1149 H 181.212 -4.79061 3.27488 0
M  V30 1150 H 181.491 -3.64906 6.05785 0
M  V30 1151 H 182.483 -4.8868 5.2125 0
M  V30 1152 H 180.649 -5.66726 7.06352 0
M  V30 1153 H 180.6 -1.71169 5.60966 0
M  V30 1154 H 181.282 -0.419134 -0.644739 0
M  V30 1155 H 181.319 -3.87332 -1.06098 0
M  V30 1156 H 181.42 -2.26417 -1.82483 0
M  V30 1157 P 182.519 -7.20834 5.23717 0
M  V30 1158 O 182.739 -8.66104 5.38572 0
M  V30 1159 O 183.309 -6.33544 6.1349 0
M  V30 1160 O 182.769 -6.7751 3.72168 0
M  V30 1161 C 181.829 -7.20825 2.7076 0
M  V30 1162 C 182.559 -7.45864 1.40599 0
M  V30 1163 O 182.769 -6.17651 0.734225 0
M  V30 1164 C 183.959 -8.05808 1.51899 0
M  V30 1165 O 184.349 -8.74358 0.335205 0
M  V30 1166 C 184.839 -6.83093 1.70294 0
M  V30 1167 C 184.129 -5.79992 0.836974 0
M  V30 1168 N 184.179 -4.41864 1.38293 0
M  V30 1169 H 181.34 -8.13644 3.0377 0
M  V30 1170 H 181.07 -6.42788 2.55485 0
M  V30 1171 H 181.937 -8.12039 0.792769 0
M  V30 1172 P 185.899 -8.91 -8.29613e-14 0
M  V30 1173 O 186.119 -10.1726 -0.733694 0
M  V30 1174 O 186.689 -8.73148 1.23936 0
M  V30 1175 O 186.149 -7.66872 -0.971405 0
M  V30 1176 C 185.209 -7.42309 -2.04641 0
M  V30 1177 C 185.939 -6.86059 -3.24661 0
M  V30 1178 O 186.149 -5.42847 -3.03646 0
M  V30 1179 C 187.339 -7.41196 -3.50753 0
M  V30 1180 O 187.729 -7.27073 -4.86816 0
M  V30 1181 C 188.219 -6.5273 -2.63741 0
M  V30 1182 C 187.509 -5.1842 -2.73198 0
M  V30 1183 N 187.559 -4.38762 -1.4784 0
M  V30 1184 H 184.72 -8.36803 -2.32493 0
M  V30 1185 H 184.45 -6.70197 -1.71129 0
M  V30 1186 H 185.317 -7.03551 -4.13168 0
M  V30 1187 P 189.279 -7.20834 -5.23717 0
M  V30 1188 O 189.499 -7.80006 -6.57415 0
M  V30 1189 O 190.069 -7.79416 -4.13051 0
M  V30 1190 O 189.529 -5.63315 -5.29344 0
M  V30 1191 C 188.589 -4.80318 -6.01954 0
M  V30 1192 C 189.319 -3.64202 -6.65911 0
M  V30 1193 O 189.529 -2.60736 -5.64823 0
M  V30 1194 C 190.719 -3.93521 -7.19518 0
M  V30 1195 O 191.109 -3.02071 -8.21205 0
M  V30 1196 C 191.599 -3.73047 -5.97036 0
M  V30 1197 C 190.889 -2.58828 -5.25741 0
M  V30 1198 N 190.939 -2.68068 -3.77503 0
M  V30 1199 H 188.101 -5.40394 -6.8003 0
M  V30 1200 H 187.829 -4.41741 -5.32532 0
M  V30 1201 H 188.697 -3.26371 -7.47889 0
M  V30 1202 H 191.352 -1.64007 -5.56746 0
M  V30 1203 H 191.632 -4.63439 -5.3432 0
M  V30 1204 H 192.623 -3.44776 -6.25925 0
M  V30 1205 H 190.789 -4.96707 -7.57347 0
M  V30 1206 P 192.659 -2.75334 -8.47391 0
M  V30 1207 O 192.879 -2.44571 -9.90142 0
M  V30 1208 O 193.449 -3.87688 -7.92115 0
M  V30 1209 O 192.909 -1.4459 -7.59357 0
M  V30 1210 C 191.969 -0.347608 -7.69215 0
M  V30 1211 C 192.699 0.96767 -7.52806 0
M  V30 1212 O 192.909 1.21036 -6.1011 0
M  V30 1213 C 194.099 1.04544 -8.13308 0
M  V30 1214 O 194.489 2.38311 -8.41922 0
M  V30 1215 C 194.979 0.491279 -7.02284 0
M  V30 1216 C 194.269 0.996264 -5.77469 0
M  V30 1217 N 194.319 0.0501916 -4.62973 0
M  V30 1218 C 194.239 -1.32786 -4.63244 0
M  V30 1219 N 194.319 -1.86957 -3.44545 0
M  V30 1220 C 194.459 -0.780241 -2.58481 0
M  V30 1221 C 194.589 -0.738536 -1.17757 0
M  V30 1222 N 194.709 0.58337 -0.711393 0
M  V30 1223 C 194.709 1.70816 -1.51017 0
M  V30 1224 N 194.839 2.87826 -0.880757 0
M  V30 1225 N 194.579 1.67126 -2.8339 0
M  V30 1226 C 194.459 0.401421 -3.30572 0
M  V30 1227 H 191.48 -0.374722 -8.67691 0
M  V30 1228 H 191.21 -0.443485 -6.90277 0
M  V30 1229 H 192.077 1.75537 -7.96793 0
M  V30 1230 P 196.039 2.75334 -8.47391 0
M  V30 1231 O 196.259 3.84204 -9.44982 0
M  V30 1232 O 196.829 1.51982 -8.68909 0
M  V30 1233 O 196.289 3.29363 -6.99321 0
M  V30 1234 C 195.349 4.24066 -6.42823 0
M  V30 1235 C 196.079 5.20775 -5.52155 0
M  V30 1236 O 196.289 4.56607 -4.22514 0
M  V30 1237 C 197.479 5.62697 -5.96604 0
M  V30 1238 O 197.869 6.87667 -5.41053 0
M  V30 1239 C 198.359 4.52537 -5.39283 0
M  V30 1240 C 197.649 4.20027 -4.08623 0
M  V30 1241 N 197.699 2.76189 -3.71603 0
M  V30 1242 H 194.861 4.79756 -7.24086 0
M  V30 1243 H 194.589 3.69963 -5.84682 0
M  V30 1244 H 195.457 6.10431 -5.41508 0
M  V30 1245 H 198.112 4.78816 -3.28024 0
M  V30 1246 H 198.392 3.64957 -6.05871 0
M  V30 1247 H 199.383 4.88748 -5.21323 0
M  V30 1248 H 197.549 5.66789 -7.0643 0
M  V30 1249 P 199.419 7.20834 -5.23717 0
M  V30 1250 O 199.639 8.66104 -5.38572 0
M  V30 1251 O 200.209 6.33544 -6.1349 0
M  V30 1252 O 199.669 6.7751 -3.72168 0
M  V30 1253 C 198.729 7.20825 -2.7076 0
M  V30 1254 C 199.459 7.45864 -1.40599 0
M  V30 1255 O 199.669 6.17651 -0.734225 0
M  V30 1256 C 200.859 8.05808 -1.51899 0
M  V30 1257 O 201.249 8.74358 -0.335205 0
M  V30 1258 C 201.739 6.83093 -1.70294 0
M  V30 1259 C 201.029 5.79992 -0.836974 0
M  V30 1260 N 201.079 4.41864 -1.38293 0
M  V30 1261 H 198.24 8.13644 -3.0377 0
M  V30 1262 H 197.97 6.42788 -2.55485 0
M  V30 1263 H 198.837 8.12039 -0.792769 0
M  V30 1264 P 202.799 8.91 2.40144e-13 0
M  V30 1265 O 203.019 10.1726 0.733694 0
M  V30 1266 O 203.589 8.73148 -1.23936 0
M  V30 1267 O 203.049 7.66872 0.971405 0
M  V30 1268 C 202.109 7.42309 2.04641 0
M  V30 1269 C 202.839 6.86059 3.24661 0
M  V30 1270 O 203.049 5.42847 3.03646 0
M  V30 1271 C 204.239 7.41196 3.50753 0
M  V30 1272 O 204.629 7.27073 4.86816 0
M  V30 1273 C 205.119 6.5273 2.63741 0
M  V30 1274 C 204.409 5.1842 2.73198 0
M  V30 1275 N 204.459 4.38762 1.4784 0
M  V30 1276 C 204.379 4.81605 0.168631 0
M  V30 1277 N 204.459 3.85454 -0.713363 0
M  V30 1278 C 204.599 2.6994 0.0566958 0
M  V30 1279 C 204.729 1.34815 -0.338502 0
M  V30 1280 N 204.849 0.496304 0.77465 0
M  V30 1281 C 204.849 0.908403 2.09122 0
M  V30 1282 N 204.979 -0.0517805 3.00955 0
M  V30 1283 N 204.719 2.17875 2.46519 0
M  V30 1284 C 204.599 3.01988 1.4033 0
M  V30 1285 H 201.62 8.36803 2.32493 0
M  V30 1286 H 201.35 6.70197 1.71129 0
M  V30 1287 H 202.217 7.03551 4.13168 0
M  V30 1288 P 206.179 7.20834 5.23717 0
M  V30 1289 O 206.399 7.80006 6.57415 0
M  V30 1290 O 206.969 7.79416 4.13051 0
M  V30 1291 O 206.429 5.63315 5.29344 0
M  V30 1292 C 205.489 4.80318 6.01954 0
M  V30 1293 C 206.219 3.64202 6.65911 0
M  V30 1294 O 206.429 2.60736 5.64823 0
M  V30 1295 C 207.619 3.93521 7.19518 0
M  V30 1296 O 208.009 3.02071 8.21205 0
M  V30 1297 C 208.499 3.73047 5.97036 0
M  V30 1298 C 207.789 2.58828 5.25741 0
M  V30 1299 N 207.839 2.68068 3.77503 0
M  V30 1300 C 207.759 3.80474 2.99159 0
M  V30 1301 N 207.829 3.55622 1.71925 0
M  V30 1302 C 207.979 2.1832 1.65733 0
M  V30 1303 C 208.109 1.28842 0.572777 0
M  V30 1304 N 208.119 1.66875 -0.70098 0
M  V30 1305 N 208.229 -0.016788 0.859836 0
M  V30 1306 C 208.219 -0.398145 2.13316 0
M  V30 1307 N 208.099 0.328224 3.22333 0
M  V30 1308 C 207.979 1.62992 2.90383 0
M  V30 1309 H 205.001 5.40394 6.8003 0
M  V30 1310 H 204.729 4.41741 5.32532 0
M  V30 1311 H 205.597 3.26371 7.47889 0
M  V30 1312 H 208.252 1.64007 5.56746 0
M  V30 1313 H 208.532 4.63439 5.3432 0
M  V30 1314 H 209.523 3.44776 6.25925 0
M  V30 1315 H 207.689 4.96707 7.57347 0
M  V30 1316 H 207.648 4.8089 3.39924 0
M  V30 1317 H 208.029 2.66547 -0.941919 0
M  V30 1318 H 208.218 0.965341 -1.44766 0
M  V30 1319 H 208.326 -1.46427 2.29697 0
M  V30 1320 P 209.559 2.75334 8.47391 0
M  V30 1321 O 209.779 2.44571 9.90142 0
M  V30 1322 O 210.349 3.87688 7.92115 0
M  V30 1323 O 209.809 1.4459 7.59357 0
M  V30 1324 C 208.869 0.347608 7.69215 0
M  V30 1325 C 209.599 -0.96767 7.52806 0
M  V30 1326 O 209.809 -1.21036 6.1011 0
M  V30 1327 C 210.999 -1.04544 8.13308 0
M  V30 1328 O 211.389 -2.38311 8.41922 0
M  V30 1329 C 211.879 -0.491279 7.02284 0
M  V30 1330 C 211.169 -0.996264 5.77469 0
M  V30 1331 N 211.219 -0.0501916 4.62973 0
M  V30 1332 H 208.38 0.374722 8.67691 0
M  V30 1333 H 208.11 0.443485 6.90277 0
M  V30 1334 H 208.977 -1.75537 7.96793 0
M  V30 1335 P 212.939 -2.75334 8.47391 0
M  V30 1336 O 213.159 -3.84128 9.44797 0
M  V30 1337 O 213.729 -1.51947 8.68712 0
M  V30 1338 O 213.189 -3.29363 6.99321 0
M  V30 1339 C 212.249 -4.24011 6.4274 0
M  V30 1340 C 212.979 -5.20775 5.52155 0
M  V30 1341 O 213.189 -4.56534 4.22446 0
M  V30 1342 C 214.379 -5.62629 5.96531 0
M  V30 1343 O 214.769 -6.87667 5.41053 0
M  V30 1344 C 215.259 -4.52537 5.39283 0
M  V30 1345 C 214.549 -4.20027 4.08623 0
M  V30 1346 N 214.599 -2.76189 3.71603 0
M  V30 1347 C 214.519 -1.64862 4.52822 0
M  V30 1348 N 214.599 -0.512671 3.88633 0
M  V30 1349 C 214.739 -0.888083 2.54977 0
M  V30 1350 C 214.869 -0.094668 1.38677 0
M  V30 1351 O 214.889 1.13053 1.28163 0
M  V30 1352 N 214.989 -0.890102 0.232633 0
M  V30 1353 C 214.989 -2.26958 0.21772 0
M  V30 1354 N 215.119 -2.84626 -0.97925 0
M  V30 1355 N 214.859 -3.0178 1.31033 0
M  V30 1356 C 214.739 -2.26781 2.43843 0
M  V30 1357 H 211.76 -4.797 7.24003 0
M  V30 1358 H 211.49 -3.69856 5.84513 0
M  V30 1359 H 212.357 -6.10356 5.41441 0
M  V30 1360 H 215.012 -4.79061 3.27488 0
M  V30 1361 H 215.291 -3.64906 6.05785 0
M  V30 1362 H 216.283 -4.8868 5.2125 0
M  V30 1363 H 214.449 -5.66726 7.06352 0
M  V30 1364 H 214.4 -1.71169 5.60966 0
M  V30 1365 H 215.082 -0.419134 -0.644739 0
M  V30 1366 H 215.119 -3.87332 -1.06098 0
M  V30 1367 H 215.22 -2.26417 -1.82483 0
M  V30 1368 P 216.319 -7.20834 5.23717 0
M  V30 1369 O 216.539 -8.66104 5.38572 0
M  V30 1370 O 217.109 -6.33544 6.1349 0
M  V30 1371 O 216.569 -6.7751 3.72168 0
M  V30 1372 C 215.629 -7.20825 2.7076 0
M  V30 1373 C 216.359 -7.45864 1.40599 0
M  V30 1374 O 216.569 -6.17651 0.734225 0
M  V30 1375 C 217.759 -8.05808 1.51899 0
M  V30 1376 O 218.149 -8.74358 0.335205 0
M  V30 1377 C 218.639 -6.83093 1.70294 0
M  V30 1378 C 217.929 -5.79992 0.836974 0
M  V30 1379 N 217.979 -4.41864 1.38293 0
M  V30 1380 H 215.14 -8.13644 3.0377 0
M  V30 1381 H 214.87 -6.42788 2.55485 0
M  V30 1382 H 215.737 -8.12039 0.792769 0
M  V30 1383 P 219.699 -8.91 -3.97326e-13 0
M  V30 1384 O 219.919 -10.1726 -0.733694 0
M  V30 1385 O 220.489 -8.73148 1.23936 0
M  V30 1386 O 219.949 -7.66872 -0.971405 0
M  V30 1387 C 219.009 -7.42309 -2.04641 0
M  V30 1388 C 219.739 -6.86059 -3.24661 0
M  V30 1389 O 219.949 -5.42847 -3.03646 0
M  V30 1390 C 221.139 -7.41196 -3.50753 0
M  V30 1391 O 221.529 -7.27073 -4.86816 0
M  V30 1392 C 222.019 -6.5273 -2.63741 0
M  V30 1393 C 221.309 -5.1842 -2.73198 0
M  V30 1394 N 221.359 -4.38762 -1.4784 0
M  V30 1395 H 218.52 -8.36803 -2.32493 0
M  V30 1396 H 218.25 -6.70197 -1.71129 0
M  V30 1397 H 219.117 -7.03551 -4.13168 0
M  V30 1398 P 223.079 -7.20834 -5.23717 0
M  V30 1399 O 223.299 -7.7993 -6.57351 0
M  V30 1400 O 223.869 -7.79328 -4.13004 0
M  V30 1401 O 223.329 -5.63315 -5.29344 0
M  V30 1402 C 222.389 -4.80255 -6.01876 0
M  V30 1403 C 223.119 -3.64202 -6.65911 0
M  V30 1404 O 223.329 -2.60694 -5.64732 0
M  V30 1405 C 224.519 -3.93473 -7.1943 0
M  V30 1406 O 224.909 -3.02071 -8.21205 0
M  V30 1407 C 225.399 -3.73047 -5.97036 0
M  V30 1408 C 224.689 -2.58828 -5.25741 0
M  V30 1409 N 224.739 -2.6801 -3.77422 0
M  V30 1410 C 224.889 -1.50173 -3.05038 0
M  V30 1411 O 224.979 -0.428832 -3.665 0
M  V30 1412 N 224.939 -1.70922 -1.55541 0
M  V30 1413 C 224.839 -2.7407 -1.06402 0
M  V30 1414 N 224.889 -2.74764 0.260931 0
M  V30 1415 C 224.689 -3.96781 -1.78296 0
M  V30 1416 C 224.639 -3.87909 -3.13891 0
M  V30 1417 H 221.899 -5.4027 -6.79873 0
M  V30 1418 H 221.63 -4.41549 -5.32301 0
M  V30 1419 H 222.497 -3.26371 -7.47889 0
M  V30 1420 H 225.152 -1.63978 -5.5665 0
M  V30 1421 H 225.431 -4.63439 -5.3432 0
M  V30 1422 H 226.423 -3.44728 -6.25838 0
M  V30 1423 H 224.589 -4.96652 -7.57263 0
M  V30 1424 H 224.517 -4.78425 -3.73088 0
M  V30 1425 H 224.619 -4.92593 -1.26997 0
M  V30 1426 H 225.007 -1.86285 0.77595 0
M  V30 1427 H 224.81 -3.63657 0.773896 0
M  V30 1428 P 226.459 -2.75334 -8.47391 0
M  V30 1429 O 226.679 -2.44571 -9.90142 0
M  V30 1430 O 227.249 -3.87688 -7.92115 0
M  V30 1431 O 226.709 -1.4459 -7.59357 0
M  V30 1432 C 225.769 -0.347608 -7.69215 0
M  V30 1433 C 226.499 0.96767 -7.52806 0
M  V30 1434 O 226.709 1.21036 -6.1011 0
M  V30 1435 C 227.899 1.04544 -8.13308 0
M  V30 1436 O 228.289 2.38311 -8.41922 0
M  V30 1437 C 228.779 0.491279 -7.02284 0
M  V30 1438 C 228.069 0.996264 -5.77469 0
M  V30 1439 N 228.119 0.0501916 -4.62973 0
M  V30 1440 H 225.28 -0.374722 -8.67691 0
M  V30 1441 H 225.01 -0.443485 -6.90277 0
M  V30 1442 H 225.877 1.75537 -7.96793 0
M  V30 1443 P 229.839 2.75334 -8.47391 0
M  V30 1444 O 230.059 3.84166 -9.4489 0
M  V30 1445 O 230.629 1.51964 -8.6881 0
M  V30 1446 O 230.089 3.29363 -6.99321 0
M  V30 1447 C 229.149 4.23956 -6.42656 0
M  V30 1448 C 229.879 5.20775 -5.52155 0
M  V30 1449 O 230.089 4.56534 -4.22446 0
M  V30 1450 C 231.279 5.62629 -5.96531 0
M  V30 1451 O 231.669 6.87667 -5.41053 0
M  V30 1452 C 232.159 4.52537 -5.39283 0
M  V30 1453 C 231.449 4.20027 -4.08623 0
M  V30 1454 N 231.499 2.7613 -3.71522 0
M  V30 1455 C 231.649 2.45612 -2.37989 0
M  V30 1456 O 231.739 3.30919 -1.51621 0
M  V30 1457 N 231.689 1.10684 -2.08435 0
M  V30 1458 C 231.599 0.0690084 -2.9792 0
M  V30 1459 C 231.449 0.481522 -4.35345 0
M  V30 1460 C 231.399 1.78906 -4.67968 0
M  V30 1461 H 228.659 4.797 -7.24003 0
M  V30 1462 H 228.39 3.69802 -5.84429 0
M  V30 1463 H 229.257 6.10356 -5.41441 0
M  V30 1464 H 231.912 4.78651 -3.27911 0
M  V30 1465 H 232.191 3.64957 -6.05871 0
M  V30 1466 H 233.183 4.8868 -5.2125 0
M  V30 1467 H 231.349 5.66726 -7.06352 0
M  V30 1468 H 231.278 2.07737 -5.72367 0
M  V30 1469 P 233.219 7.20834 -5.23717 0
M  V30 1470 O 233.439 8.66189 -5.38625 0
M  V30 1471 O 234.009 6.33615 -6.1356 0
M  V30 1472 O 233.469 6.7751 -3.72168 0
M  V30 1473 C 232.529 7.20732 -2.70725 0
M  V30 1474 C 233.259 7.45864 -1.40599 0
M  V30 1475 O 233.469 6.17651 -0.734225 0
M  V30 1476 C 234.659 8.05808 -1.51899 0
M  V30 1477 O 235.049 8.74358 -0.335205 0
M  V30 1478 C 235.539 6.83093 -1.70294 0
M  V30 1479 C 234.829 5.79992 -0.836974 0
M  V30 1480 N 234.879 4.41769 -1.38263 0
M  V30 1481 C 235.029 3.38591 -0.481702 0
M  V30 1482 O 235.119 3.56839 0.718452 0
M  V30 1483 N 235.069 2.1206 -1.03569 0
M  V30 1484 C 234.979 1.80696 -2.36966 0
M  V30 1485 O 235.029 0.630473 -2.74862 0
M  V30 1486 C 234.829 2.94845 -3.23898 0
M  V30 1487 C 234.719 2.65253 -4.70362 0
M  V30 1488 C 234.779 4.19803 -2.73435 0
M  V30 1489 H 232.039 8.13644 -3.0377 0
M  V30 1490 H 231.77 6.42695 -2.55448 0
M  V30 1491 H 232.637 8.12039 -0.792769 0
M  V30 1492 H 235.292 5.79978 0.160587 0
M  V30 1493 H 235.571 6.51379 -2.75643 0
M  V30 1494 H 236.563 7.01734 -1.34462 0
M  V30 1495 H 234.729 8.73674 -2.38337 0
M  V30 1496 H 234.658 5.04492 -3.4095 0
M  V30 1497 H 235.688 2.83924 -5.1913 0
M  V30 1498 H 233.951 3.29824 -5.15163 0
M  V30 1499 H 234.439 1.59723 -4.84449 0
M  V30 1500 H 235.175 1.35644 -0.399345 0
M  V30 1501 P 236.599 8.91 5.54508e-13 0
M  V30 1502 O 236.819 10.1726 0.733694 0
M  V30 1503 O 237.389 8.73148 -1.23936 0
M  V30 1504 O 236.849 7.66872 0.971405 0
M  V30 1505 C 235.909 7.42309 2.04641 0
M  V30 1506 C 236.639 6.86059 3.24661 0
M  V30 1507 O 236.849 5.42847 3.03646 0
M  V30 1508 C 238.039 7.41196 3.50753 0
M  V30 1509 O 238.429 7.27073 4.86816 0
M  V30 1510 C 238.919 6.5273 2.63741 0
M  V30 1511 C 238.209 5.1842 2.73198 0
M  V30 1512 N 238.259 4.38762 1.4784 0
M  V30 1513 H 235.42 8.36803 2.32493 0
M  V30 1514 H 235.15 6.70197 1.71129 0
M  V30 1515 H 236.017 7.03551 4.13168 0
M  V30 1516 P 239.979 7.20834 5.23717 0
M  V30 1517 O 240.199 7.79853 6.57286 0
M  V30 1518 O 240.769 7.79239 4.12957 0
M  V30 1519 O 240.229 5.63315 5.29344 0
M  V30 1520 C 239.289 4.80255 6.01876 0
M  V30 1521 C 240.019 3.64202 6.65911 0
M  V30 1522 O 240.229 2.60694 5.64732 0
M  V30 1523 C 241.419 3.93473 7.1943 0
M  V30 1524 O 241.809 3.02071 8.21205 0
M  V30 1525 C 242.299 3.73047 5.97036 0
M  V30 1526 C 241.589 2.58828 5.25741 0
M  V30 1527 N 241.639 2.68068 3.77503 0
M  V30 1528 H 238.8 5.40332 6.79951 0
M  V30 1529 H 238.53 4.41613 5.32378 0
M  V30 1530 H 239.397 3.26331 7.47797 0
M  V30 1531 P 243.359 2.75334 8.47391 0
M  V30 1532 O 243.579 2.44571 9.90142 0
M  V30 1533 O 244.149 3.87688 7.92115 0
M  V30 1534 O 243.609 1.4459 7.59357 0
M  V30 1535 C 242.669 0.347608 7.69215 0
M  V30 1536 C 243.399 -0.96767 7.52806 0
M  V30 1537 O 243.609 -1.21036 6.1011 0
M  V30 1538 C 244.799 -1.04544 8.13308 0
M  V30 1539 O 245.189 -2.38311 8.41922 0
M  V30 1540 C 245.679 -0.491279 7.02284 0
M  V30 1541 C 244.969 -0.996264 5.77469 0
M  V30 1542 N 245.019 -0.0501916 4.62973 0
M  V30 1543 H 242.18 0.374722 8.67691 0
M  V30 1544 H 241.91 0.443485 6.90277 0
M  V30 1545 H 242.777 -1.75537 7.96793 0
M  V30 1546 P 246.739 -2.75334 8.47391 0
M  V30 1547 O 246.959 -3.84128 9.44797 0
M  V30 1548 O 247.529 -1.51947 8.68712 0
M  V30 1549 O 246.989 -3.29363 6.99321 0
M  V30 1550 C 246.049 -4.24011 6.4274 0
M  V30 1551 C 246.779 -5.20775 5.52155 0
M  V30 1552 O 246.989 -4.56534 4.22446 0
M  V30 1553 C 248.179 -5.62629 5.96531 0
M  V30 1554 O 248.569 -6.87667 5.41053 0
M  V30 1555 C 249.059 -4.52537 5.39283 0
M  V30 1556 C 248.349 -4.20027 4.08623 0
M  V30 1557 N 248.399 -2.76189 3.71603 0
M  V30 1558 C 248.319 -1.64862 4.52822 0
M  V30 1559 N 248.399 -0.512671 3.88633 0
M  V30 1560 C 248.539 -0.888083 2.54977 0
M  V30 1561 C 248.669 -0.094668 1.38677 0
M  V30 1562 O 248.689 1.13053 1.28163 0
M  V30 1563 N 248.789 -0.890102 0.232633 0
M  V30 1564 C 248.789 -2.26958 0.21772 0
M  V30 1565 N 248.919 -2.84626 -0.97925 0
M  V30 1566 N 248.659 -3.0178 1.31033 0
M  V30 1567 C 248.539 -2.26781 2.43843 0
M  V30 1568 H 245.56 -4.797 7.24003 0
M  V30 1569 H 245.29 -3.69856 5.84513 0
M  V30 1570 H 246.157 -6.10356 5.41441 0
M  V30 1571 H 248.812 -4.79061 3.27488 0
M  V30 1572 H 249.091 -3.64906 6.05785 0
M  V30 1573 H 250.083 -4.8868 5.2125 0
M  V30 1574 H 248.249 -5.66726 7.06352 0
M  V30 1575 H 248.2 -1.71169 5.60966 0
M  V30 1576 H 248.882 -0.419134 -0.644739 0
M  V30 1577 H 248.919 -3.87332 -1.06098 0
M  V30 1578 H 249.02 -2.26417 -1.82483 0
M  V30 1579 P 250.119 -7.20834 5.23717 0
M  V30 1580 O 250.339 -8.66104 5.38572 0
M  V30 1581 O 250.909 -6.33544 6.1349 0
M  V30 1582 O 250.369 -6.7751 3.72168 0
M  V30 1583 C 249.429 -7.20825 2.7076 0
M  V30 1584 C 250.159 -7.45864 1.40599 0
M  V30 1585 O 250.369 -6.17651 0.734225 0
M  V30 1586 C 251.559 -8.05808 1.51899 0
M  V30 1587 O 251.949 -8.74358 0.335205 0
M  V30 1588 C 252.439 -6.83093 1.70294 0
M  V30 1589 C 251.729 -5.79992 0.836974 0
M  V30 1590 N 251.779 -4.41864 1.38293 0
M  V30 1591 H 248.94 -8.13644 3.0377 0
M  V30 1592 H 248.67 -6.42788 2.55485 0
M  V30 1593 H 249.537 -8.12039 0.792769 0
M  V30 1594 P 253.498 -8.91 -7.1169e-13 0
M  V30 1595 O 253.718 -10.1746 -0.733838 0
M  V30 1596 O 254.288 -8.73346 1.23964 0
M  V30 1597 O 253.748 -7.66872 -0.971405 0
M  V30 1598 C 252.808 -7.42405 -2.04668 0
M  V30 1599 C 253.538 -6.86059 -3.24661 0
M  V30 1600 O 253.748 -5.42934 -3.03695 0
M  V30 1601 C 254.938 -7.41287 -3.50796 0
M  V30 1602 O 255.328 -7.27073 -4.86816 0
M  V30 1603 C 255.818 -6.5273 -2.63741 0
M  V30 1604 C 255.108 -5.1842 -2.73198 0
M  V30 1605 N 255.158 -4.38762 -1.4784 0
M  V30 1606 C 255.078 -4.83651 -0.183876 0
M  V30 1607 N 255.148 -3.88759 0.699393 0
M  V30 1608 C 255.298 -2.7404 -0.0575568 0
M  V30 1609 C 255.428 -1.37902 0.293928 0
M  V30 1610 N 255.438 -0.938021 1.54797 0
M  V30 1611 N 255.548 -0.491817 -0.70549 0
M  V30 1612 C 255.538 -0.931735 -1.95979 0
M  V30 1613 N 255.418 -2.16017 -2.41481 0
M  V30 1614 C 255.298 -3.02547 -1.39121 0
M  V30 1615 H 252.32 -8.36899 -2.3252 0
M  V30 1616 H 252.048 -6.70391 -1.71179 0
M  V30 1617 H 252.916 -7.03638 -4.13219 0
M  V30 1618 H 255.571 -4.59931 -3.54016 0
M  V30 1619 H 255.851 -6.88995 -1.59871 0
M  V30 1620 H 256.842 -6.4684 -3.0373 0
M  V30 1621 H 255.008 -8.47002 -3.20749 0
M  V30 1622 H 254.967 -5.8885 0.0765548 0
M  V30 1623 H 255.348 -1.60276 2.32875 0
M  V30 1624 H 255.537 0.0699355 1.73859 0
M  V30 1625 H 255.645 -0.165507 -2.71897 0
M  V30 1626 P 256.878 -7.20834 -5.23717 0
M  V30 1627 O 257.098 -7.79853 -6.57286 0
M  V30 1628 O 257.668 -7.79239 -4.12957 0
M  V30 1629 O 257.128 -5.63315 -5.29344 0
M  V30 1630 C 256.188 -4.80255 -6.01876 0
M  V30 1631 C 256.918 -3.64202 -6.65911 0
M  V30 1632 O 257.128 -2.60694 -5.64732 0
M  V30 1633 C 258.318 -3.93473 -7.1943 0
M  V30 1634 O 258.708 -3.02071 -8.21205 0
M  V30 1635 C 259.198 -3.73047 -5.97036 0
M  V30 1636 C 258.488 -2.58828 -5.25741 0
M  V30 1637 N 258.538 -2.68068 -3.77503 0
M  V30 1638 H 255.699 -5.40332 -6.79951 0
M  V30 1639 H 255.429 -4.41613 -5.32378 0
M  V30 1640 H 256.296 -3.26331 -7.47797 0
M  V30 1641 P 260.258 -2.75334 -8.47391 0
M  V30 1642 O 260.478 -2.44619 -9.90336 0
M  V30 1643 O 261.048 -3.87776 -7.92294 0
M  V30 1644 O 260.508 -1.4459 -7.59357 0
M  V30 1645 C 259.568 -0.347653 -7.69315 0
M  V30 1646 C 260.298 0.96767 -7.52806 0
M  V30 1647 O 260.508 1.21055 -6.10208 0
M  V30 1648 C 261.698 1.04557 -8.13408 0
M  V30 1649 O 262.088 2.38311 -8.41922 0
M  V30 1650 C 262.578 0.491279 -7.02284 0
M  V30 1651 C 261.868 0.996264 -5.77469 0
M  V30 1652 N 261.918 0.0501916 -4.62973 0
M  V30 1653 C 261.838 -1.31969 -4.65661 0
M  V30 1654 N 261.908 -1.86649 -3.48119 0
M  V30 1655 C 262.058 -0.792089 -2.62406 0
M  V30 1656 C 262.188 -0.705684 -1.2207 0
M  V30 1657 N 262.198 -1.76207 -0.413762 0
M  V30 1658 N 262.308 0.518981 -0.685754 0
M  V30 1659 C 262.298 1.57595 -1.49174 0
M  V30 1660 N 262.178 1.62909 -2.80066 0
M  V30 1661 C 262.058 0.388195 -3.3073 0
M  V30 1662 H 259.08 -0.374765 -8.67791 0
M  V30 1663 H 258.808 -0.443613 -6.90476 0
M  V30 1664 H 259.676 1.75559 -7.96891 0
M  V30 1665 H 262.331 1.94563 -5.46818 0
M  V30 1666 H 262.611 -0.608651 -7.04676 0
M  V30 1667 H 263.602 0.889796 -7.09039 0
M  V30 1668 H 261.768 0.433128 -9.04664 0
M  V30 1669 H 261.727 -1.89246 -5.57664 0
M  V30 1670 H 262.108 -2.71005 -0.804694 0
M  V30 1671 H 262.297 -1.63189 0.603768 0
M  V30 1672 H 262.405 2.53475 -0.997614 0
M  V30 1673 P 263.638 2.75334 -8.47391 0
M  V30 1674 O 263.858 3.84128 -9.44797 0
M  V30 1675 O 264.428 1.51947 -8.68712 0
M  V30 1676 O 263.888 3.29363 -6.99321 0
M  V30 1677 C 262.948 4.24011 -6.4274 0
M  V30 1678 C 263.678 5.20775 -5.52155 0
M  V30 1679 O 263.888 4.56534 -4.22446 0
M  V30 1680 C 265.078 5.62629 -5.96531 0
M  V30 1681 O 265.468 6.87667 -5.41053 0
M  V30 1682 C 265.958 4.52537 -5.39283 0
M  V30 1683 C 265.248 4.20027 -4.08623 0
M  V30 1684 N 265.298 2.76189 -3.71603 0
M  V30 1685 H 262.459 4.797 -7.24003 0
M  V30 1686 H 262.189 3.69856 -5.84513 0
M  V30 1687 H 263.056 6.10356 -5.41441 0
M  V30 1688 P 267.018 7.20834 -5.23717 0
M  V30 1689 O 267.238 8.66104 -5.38572 0
M  V30 1690 O 267.808 6.33544 -6.1349 0
M  V30 1691 O 267.268 6.7751 -3.72168 0
M  V30 1692 C 266.328 7.20825 -2.7076 0
M  V30 1693 C 267.058 7.45864 -1.40599 0
M  V30 1694 O 267.268 6.17651 -0.734225 0
M  V30 1695 C 268.458 8.05808 -1.51899 0
M  V30 1696 O 268.848 8.74358 -0.335205 0
M  V30 1697 C 269.338 6.83093 -1.70294 0
M  V30 1698 C 268.628 5.79992 -0.836974 0
M  V30 1699 N 268.678 4.41864 -1.38293 0
M  V30 1700 H 265.839 8.13644 -3.0377 0
M  V30 1701 H 265.569 6.42788 -2.55485 0
M  V30 1702 H 266.436 8.12039 -0.792769 0
M  V30 1703 P 270.398 8.91 8.68872e-13 0
M  V30 1704 O 270.618 10.1726 0.733694 0
M  V30 1705 O 271.188 8.73148 -1.23936 0
M  V30 1706 O 270.648 7.66872 0.971405 0
M  V30 1707 C 269.708 7.42309 2.04641 0
M  V30 1708 C 270.438 6.86059 3.24661 0
M  V30 1709 O 270.648 5.42847 3.03646 0
M  V30 1710 C 271.838 7.41196 3.50753 0
M  V30 1711 O 272.228 7.27073 4.86816 0
M  V30 1712 C 272.718 6.5273 2.63741 0
M  V30 1713 C 272.008 5.1842 2.73198 0
M  V30 1714 N 272.058 4.38762 1.4784 0
M  V30 1715 H 269.219 8.36803 2.32493 0
M  V30 1716 H 268.949 6.70197 1.71129 0
M  V30 1717 H 269.816 7.03551 4.13168 0
M  V30 1718 P 273.778 7.20834 5.23717 0
M  V30 1719 O 273.998 7.79853 6.57286 0
M  V30 1720 O 274.568 7.79239 4.12957 0
M  V30 1721 O 274.028 5.63315 5.29344 0
M  V30 1722 C 273.088 4.80255 6.01876 0
M  V30 1723 C 273.818 3.64202 6.65911 0
M  V30 1724 O 274.028 2.60694 5.64732 0
M  V30 1725 C 275.218 3.93473 7.1943 0
M  V30 1726 O 275.608 3.02071 8.21205 0
M  V30 1727 C 276.098 3.73047 5.97036 0
M  V30 1728 C 275.388 2.58828 5.25741 0
M  V30 1729 N 275.438 2.68068 3.77503 0
M  V30 1730 H 272.599 5.40332 6.79951 0
M  V30 1731 H 272.329 4.41613 5.32378 0
M  V30 1732 H 273.196 3.26331 7.47797 0
M  V30 1733 P 277.158 2.75334 8.47391 0
M  V30 1734 O 277.378 2.44571 9.90142 0
M  V30 1735 O 277.948 3.87688 7.92115 0
M  V30 1736 O 277.408 1.4459 7.59357 0
M  V30 1737 C 276.468 0.347608 7.69215 0
M  V30 1738 C 277.198 -0.96767 7.52806 0
M  V30 1739 O 277.408 -1.21036 6.1011 0
M  V30 1740 C 278.598 -1.04544 8.13308 0
M  V30 1741 O 278.988 -2.38311 8.41922 0
M  V30 1742 C 279.478 -0.491279 7.02284 0
M  V30 1743 C 278.768 -0.996264 5.77469 0
M  V30 1744 N 278.818 -0.0501916 4.62973 0
M  V30 1745 H 275.979 0.374722 8.67691 0
M  V30 1746 H 275.709 0.443485 6.90277 0
M  V30 1747 H 276.576 -1.75537 7.96793 0
M  V30 1748 P 280.538 -2.75334 8.47391 0
M  V30 1749 O 280.758 -3.84128 9.44797 0
M  V30 1750 O 281.328 -1.51947 8.68712 0
M  V30 1751 O 280.788 -3.29363 6.99321 0
M  V30 1752 C 279.848 -4.24011 6.4274 0
M  V30 1753 C 280.578 -5.20775 5.52155 0
M  V30 1754 O 280.788 -4.56534 4.22446 0
M  V30 1755 C 281.978 -5.62629 5.96531 0
M  V30 1756 O 282.368 -6.87667 5.41053 0
M  V30 1757 C 282.858 -4.52537 5.39283 0
M  V30 1758 C 282.148 -4.20027 4.08623 0
M  V30 1759 N 282.198 -2.76189 3.71603 0
M  V30 1760 H 279.359 -4.797 7.24003 0
M  V30 1761 H 279.089 -3.69856 5.84513 0
M  V30 1762 H 279.956 -6.10356 5.41441 0
M  V30 1763 P 283.918 -7.20834 5.23717 0
M  V30 1764 O 284.138 -8.66104 5.38572 0
M  V30 1765 O 284.708 -6.33544 6.1349 0
M  V30 1766 O 284.168 -6.7751 3.72168 0
M  V30 1767 C 283.228 -7.20825 2.7076 0
M  V30 1768 C 283.958 -7.45864 1.40599 0
M  V30 1769 O 284.168 -6.17651 0.734225 0
M  V30 1770 C 285.358 -8.05808 1.51899 0
M  V30 1771 O 285.748 -8.74358 0.335205 0
M  V30 1772 C 286.238 -6.83093 1.70294 0
M  V30 1773 C 285.528 -5.79992 0.836974 0
M  V30 1774 N 285.578 -4.41864 1.38293 0
M  V30 1775 H 282.739 -8.13644 3.0377 0
M  V30 1776 H 282.469 -6.42788 2.55485 0
M  V30 1777 H 283.336 -8.12039 0.792769 0
M  V30 1778 P 287.298 -8.91 -1.02605e-12 0
M  V30 1779 O 287.518 -10.1726 -0.733694 0
M  V30 1780 O 288.088 -8.73148 1.23936 0
M  V30 1781 O 287.548 -7.66872 -0.971405 0
M  V30 1782 C 286.608 -7.42309 -2.04641 0
M  V30 1783 C 287.338 -6.86059 -3.24661 0
M  V30 1784 O 287.548 -5.42847 -3.03646 0
M  V30 1785 C 288.738 -7.41196 -3.50753 0
M  V30 1786 O 289.128 -7.27073 -4.86816 0
M  V30 1787 C 289.618 -6.5273 -2.63741 0
M  V30 1788 C 288.908 -5.1842 -2.73198 0
M  V30 1789 N 288.958 -4.38762 -1.4784 0
M  V30 1790 H 286.119 -8.36803 -2.32493 0
M  V30 1791 H 285.849 -6.70197 -1.71129 0
M  V30 1792 H 286.716 -7.03551 -4.13168 0
M  V30 1793 P 290.678 -7.20834 -5.23717 0
M  V30 1794 O 290.898 -7.79853 -6.57286 0
M  V30 1795 O 291.468 -7.79239 -4.12957 0
M  V30 1796 O 290.928 -5.63315 -5.29344 0
M  V30 1797 C 289.988 -4.80255 -6.01876 0
M  V30 1798 C 290.718 -3.64202 -6.65911 0
M  V30 1799 O 290.928 -2.60694 -5.64732 0
M  V30 1800 C 292.118 -3.93473 -7.1943 0
M  V30 1801 O 292.508 -3.02071 -8.21205 0
M  V30 1802 C 292.998 -3.73047 -5.97036 0
M  V30 1803 C 292.288 -2.58828 -5.25741 0
M  V30 1804 N 292.338 -2.68068 -3.77503 0
M  V30 1805 H 289.499 -5.40332 -6.79951 0
M  V30 1806 H 289.229 -4.41613 -5.32378 0
M  V30 1807 H 290.096 -3.26331 -7.47797 0
M  V30 1808 P 294.058 -2.75334 -8.47391 0
M  V30 1809 O 294.278 -2.44571 -9.90142 0
M  V30 1810 O 294.848 -3.87688 -7.92115 0
M  V30 1811 O 294.308 -1.4459 -7.59357 0
M  V30 1812 C 293.368 -0.347608 -7.69215 0
M  V30 1813 C 294.098 0.96767 -7.52806 0
M  V30 1814 O 294.308 1.21036 -6.1011 0
M  V30 1815 C 295.498 1.04544 -8.13308 0
M  V30 1816 O 295.888 2.38311 -8.41922 0
M  V30 1817 C 296.378 0.491279 -7.02284 0
M  V30 1818 C 295.668 0.996264 -5.77469 0
M  V30 1819 N 295.718 0.0501916 -4.62973 0
M  V30 1820 H 292.879 -0.374722 -8.67691 0
M  V30 1821 H 292.609 -0.443485 -6.90277 0
M  V30 1822 H 293.476 1.75537 -7.96793 0
M  V30 1823 P 297.438 2.75334 -8.47391 0
M  V30 1824 O 297.658 3.84128 -9.44797 0
M  V30 1825 O 298.228 1.51947 -8.68712 0
M  V30 1826 O 297.688 3.29363 -6.99321 0
M  V30 1827 C 296.748 4.24011 -6.4274 0
M  V30 1828 C 297.478 5.20775 -5.52155 0
M  V30 1829 O 297.688 4.56534 -4.22446 0
M  V30 1830 C 298.878 5.62629 -5.96531 0
M  V30 1831 O 299.268 6.87667 -5.41053 0
M  V30 1832 C 299.758 4.52537 -5.39283 0
M  V30 1833 C 299.048 4.20027 -4.08623 0
M  V30 1834 N 299.098 2.76189 -3.71603 0
M  V30 1835 H 296.259 4.797 -7.24003 0
M  V30 1836 H 295.989 3.69856 -5.84513 0
M  V30 1837 H 296.856 6.10356 -5.41441 0
M  V30 1838 P 300.818 7.20834 -5.23717 0
M  V30 1839 O 301.038 8.66104 -5.38572 0
M  V30 1840 O 301.608 6.33544 -6.1349 0
M  V30 1841 O 301.068 6.7751 -3.72168 0
M  V30 1842 C 300.128 7.20825 -2.7076 0
M  V30 1843 C 300.858 7.45864 -1.40599 0
M  V30 1844 O 301.068 6.17651 -0.734225 0
M  V30 1845 C 302.258 8.05808 -1.51899 0
M  V30 1846 O 302.648 8.74358 -0.335205 0
M  V30 1847 C 303.138 6.83093 -1.70294 0
M  V30 1848 C 302.428 5.79992 -0.836974 0
M  V30 1849 N 302.478 4.41864 -1.38293 0
M  V30 1850 H 299.639 8.13644 -3.0377 0
M  V30 1851 H 299.369 6.42788 -2.55485 0
M  V30 1852 H 300.236 8.12039 -0.792769 0
M  V30 1853 P 304.198 8.91 1.18324e-12 0
M  V30 1854 O 304.418 10.1736 0.733766 0
M  V30 1855 O 304.988 8.73247 -1.2395 0
M  V30 1856 O 304.448 7.66872 0.971405 0
M  V30 1857 C 303.508 7.42212 2.04614 0
M  V30 1858 C 304.238 6.86059 3.24661 0
M  V30 1859 O 304.448 5.42847 3.03646 0
M  V30 1860 C 305.638 7.41196 3.50753 0
M  V30 1861 O 306.028 7.27073 4.86816 0
M  V30 1862 C 306.518 6.5273 2.63741 0
M  V30 1863 C 305.808 5.1842 2.73198 0
M  V30 1864 N 305.858 4.38668 1.47808 0
M  V30 1865 C 306.008 3.02239 1.60048 0
M  V30 1866 O 306.098 2.46459 2.67869 0
M  V30 1867 N 306.048 2.32436 0.408571 0
M  V30 1868 C 305.958 2.85471 -0.854993 0
M  V30 1869 C 305.808 4.28918 -0.887335 0
M  V30 1870 C 305.758 5.00349 0.255399 0
M  V30 1871 H 303.018 8.36803 2.32493 0
M  V30 1872 H 302.749 6.701 1.71105 0
M  V30 1873 H 303.616 7.03551 4.13168 0
M  V30 1874 H 306.271 4.59773 3.53894 0
M  V30 1875 H 306.55 6.88995 1.59871 0
M  V30 1876 H 307.542 6.46749 3.03687 0
M  V30 1877 H 305.708 8.46908 3.20714 0
M  V30 1878 H 305.637 6.08548 0.206986 0
M  V30 1879 P 307.578 7.20834 5.23717 0
M  V30 1880 O 307.798 7.79853 6.57286 0
M  V30 1881 O 308.368 7.79239 4.12957 0
M  V30 1882 O 307.828 5.63315 5.29344 0
M  V30 1883 C 306.888 4.80255 6.01876 0
M  V30 1884 C 307.618 3.64202 6.65911 0
M  V30 1885 O 307.828 2.60694 5.64732 0
M  V30 1886 C 309.018 3.93473 7.1943 0
M  V30 1887 O 309.408 3.02071 8.21205 0
M  V30 1888 C 309.898 3.73047 5.97036 0
M  V30 1889 C 309.188 2.58828 5.25741 0
M  V30 1890 N 309.238 2.68068 3.77503 0
M  V30 1891 H 306.399 5.40332 6.79951 0
M  V30 1892 H 306.129 4.41613 5.32378 0
M  V30 1893 H 306.996 3.26331 7.47797 0
M  V30 1894 P 310.958 2.75334 8.47391 0
M  V30 1895 O 311.178 2.44595 9.90239 0
M  V30 1896 O 311.748 3.87732 7.92204 0
M  V30 1897 O 311.208 1.4459 7.59357 0
M  V30 1898 C 310.268 0.347563 7.69115 0
M  V30 1899 C 310.998 -0.96767 7.52806 0
M  V30 1900 O 311.208 -1.21036 6.1011 0
M  V30 1901 C 312.398 -1.04544 8.13308 0
M  V30 1902 O 312.788 -2.38311 8.41922 0
M  V30 1903 C 313.278 -0.491279 7.02284 0
M  V30 1904 C 312.568 -0.996264 5.77469 0
M  V30 1905 N 312.618 -0.0501808 4.62873 0
M  V30 1906 C 312.768 -0.588177 3.36904 0
M  V30 1907 O 312.858 -1.78598 3.17173 0
M  V30 1908 N 312.808 0.329694 2.33686 0
M  V30 1909 C 312.718 1.6953 2.45079 0
M  V30 1910 O 312.768 2.41926 1.44899 0
M  V30 1911 C 312.568 2.16933 3.80505 0
M  V30 1912 C 312.458 3.65373 3.97621 0
M  V30 1913 C 312.518 1.30326 4.83752 0
M  V30 1914 H 309.778 0.374722 8.67691 0
M  V30 1915 H 309.509 0.443421 6.90177 0
M  V30 1916 H 310.376 -1.75537 7.96793 0
M  V30 1917 H 313.031 -1.94496 5.46629 0
M  V30 1918 H 313.31 0.608651 7.04676 0
M  V30 1919 H 314.302 -0.889672 7.08939 0
M  V30 1920 H 312.468 -0.43308 9.04564 0
M  V30 1921 H 312.397 1.68366 5.8516 0
M  V30 1922 H 313.427 4.05985 4.30448 0
M  V30 1923 H 311.69 3.88028 4.72875 0
M  V30 1924 H 312.178 4.11381 3.01609 0
M  V30 1925 H 312.914 -0.0393617 1.41345 0
M  V30 1926 P 314.338 -2.75334 8.47391 0
M  V30 1927 O 314.558 -3.84128 9.44797 0
M  V30 1928 O 315.128 -1.51947 8.68712 0
M  V30 1929 O 314.588 -3.29363 6.99321 0
M  V30 1930 C 313.648 -4.24011 6.4274 0
M  V30 1931 C 314.378 -5.20775 5.52155 0
M  V30 1932 O 314.588 -4.56534 4.22446 0
M  V30 1933 C 315.778 -5.62629 5.96531 0
M  V30 1934 O 316.168 -6.87667 5.41053 0
M  V30 1935 C 316.658 -4.52537 5.39283 0
M  V30 1936 C 315.948 -4.20027 4.08623 0
M  V30 1937 N 315.998 -2.76189 3.71603 0
M  V30 1938 C 315.918 -1.64862 4.52822 0
M  V30 1939 N 315.998 -0.512671 3.88633 0
M  V30 1940 C 316.138 -0.888083 2.54977 0
M  V30 1941 C 316.268 -0.094668 1.38677 0
M  V30 1942 O 316.288 1.13053 1.28163 0
M  V30 1943 N 316.388 -0.890102 0.232633 0
M  V30 1944 C 316.388 -2.26958 0.21772 0
M  V30 1945 N 316.518 -2.84626 -0.97925 0
M  V30 1946 N 316.258 -3.0178 1.31033 0
M  V30 1947 C 316.138 -2.26781 2.43843 0
M  V30 1948 H 313.159 -4.797 7.24003 0
M  V30 1949 H 312.889 -3.69856 5.84513 0
M  V30 1950 H 313.756 -6.10356 5.41441 0
M  V30 1951 H 316.411 -4.79061 3.27488 0
M  V30 1952 H 316.69 -3.64906 6.05785 0
M  V30 1953 H 317.682 -4.8868 5.2125 0
M  V30 1954 H 315.848 -5.66726 7.06352 0
M  V30 1955 H 315.799 -1.71169 5.60966 0
M  V30 1956 H 316.481 -0.419134 -0.644739 0
M  V30 1957 H 316.518 -3.87332 -1.06098 0
M  V30 1958 H 316.619 -2.26417 -1.82483 0
M  V30 1959 P 317.718 -7.20834 5.23717 0
M  V30 1960 O 317.938 -8.66274 5.38678 0
M  V30 1961 O 318.508 -6.33687 6.13629 0
M  V30 1962 O 317.968 -6.7751 3.72168 0
M  V30 1963 C 317.028 -7.20919 2.70795 0
M  V30 1964 C 317.758 -7.45864 1.40599 0
M  V30 1965 O 317.968 -6.17751 0.734343 0
M  V30 1966 C 319.158 -8.05906 1.51917 0
M  V30 1967 O 319.548 -8.74358 0.335205 0
M  V30 1968 C 320.038 -6.83093 1.70294 0
M  V30 1969 C 319.328 -5.79992 0.836974 0
M  V30 1970 N 319.378 -4.41864 1.38293 0
M  V30 1971 C 319.298 -4.02089 2.69407 0
M  V30 1972 N 319.368 -2.73403 2.85089 0
M  V30 1973 C 319.518 -2.25086 1.5642 0
M  V30 1974 C 319.648 -0.942887 1.04836 0
M  V30 1975 N 319.658 0.150999 1.80369 0
M  V30 1976 N 319.768 -0.812565 -0.28167 0
M  V30 1977 C 319.758 -1.90572 -1.03784 0
M  V30 1978 N 319.638 -3.167 -0.683905 0
M  V30 1979 C 319.518 -3.26538 0.652815 0
M  V30 1980 H 316.54 -8.13738 3.03804 0
M  V30 1981 H 316.268 -6.42974 2.55559 0
M  V30 1982 H 317.136 -8.12139 0.792866 0
M  V30 1983 H 319.791 -5.80178 -0.160643 0
M  V30 1984 H 320.071 -6.51379 2.75643 0
M  V30 1985 H 321.062 -7.01832 1.3448 0
M  V30 1986 H 319.228 -8.73771 2.38364 0
M  V30 1987 H 319.187 -4.7189 3.52311 0
M  V30 1988 H 319.568 0.0721434 2.82608 0
M  V30 1989 H 319.757 1.0785 1.36544 0
M  V30 1990 H 319.865 -1.73207 -2.10241 0
M  V30 1991 P 321.098 -8.91 -1.34042e-12 0
M  V30 1992 O 321.318 -10.1726 -0.733694 0
M  V30 1993 O 321.888 -8.73148 1.23936 0
M  V30 1994 O 321.348 -7.66872 -0.971405 0
M  V30 1995 C 320.408 -7.42309 -2.04641 0
M  V30 1996 C 321.138 -6.86059 -3.24661 0
M  V30 1997 O 321.348 -5.42847 -3.03646 0
M  V30 1998 C 322.538 -7.41196 -3.50753 0
M  V30 1999 O 322.928 -7.27073 -4.86816 0
M  V30 2000 C 323.418 -6.5273 -2.63741 0
M  V30 2001 C 322.708 -5.1842 -2.73198 0
M  V30 2002 N 322.758 -4.38762 -1.4784 0
M  V30 2003 H 319.919 -8.36803 -2.32493 0
M  V30 2004 H 319.649 -6.70197 -1.71129 0
M  V30 2005 H 320.516 -7.03551 -4.13168 0
M  V30 2006 P 324.478 -7.20834 -5.23717 0
M  V30 2007 O 324.698 -7.80006 -6.57415 0
M  V30 2008 O 325.268 -7.79416 -4.13051 0
M  V30 2009 O 324.728 -5.63315 -5.29344 0
M  V30 2010 C 323.788 -4.80318 -6.01954 0
M  V30 2011 C 324.518 -3.64202 -6.65911 0
M  V30 2012 O 324.728 -2.60736 -5.64823 0
M  V30 2013 C 325.918 -3.93521 -7.19518 0
M  V30 2014 O 326.308 -3.02071 -8.21205 0
M  V30 2015 C 326.798 -3.73047 -5.97036 0
M  V30 2016 C 326.088 -2.58828 -5.25741 0
M  V30 2017 N 326.138 -2.68068 -3.77503 0
M  V30 2018 C 326.058 -3.80474 -2.99159 0
M  V30 2019 N 326.128 -3.55622 -1.71925 0
M  V30 2020 C 326.278 -2.1832 -1.65733 0
M  V30 2021 C 326.408 -1.28842 -0.572777 0
M  V30 2022 N 326.418 -1.66875 0.70098 0
M  V30 2023 N 326.528 0.016788 -0.859836 0
M  V30 2024 C 326.518 0.398145 -2.13316 0
M  V30 2025 N 326.398 -0.328224 -3.22333 0
M  V30 2026 C 326.278 -1.62992 -2.90383 0
M  V30 2027 H 323.3 -5.40394 -6.8003 0
M  V30 2028 H 323.028 -4.41741 -5.32532 0
M  V30 2029 H 323.896 -3.26371 -7.47889 0
M  V30 2030 H 326.551 -1.64007 -5.56746 0
M  V30 2031 H 326.831 -4.63439 -5.3432 0
M  V30 2032 H 327.822 -3.44776 -6.25925 0
M  V30 2033 H 325.988 -4.96707 -7.57347 0
M  V30 2034 H 325.947 -4.8089 -3.39924 0
M  V30 2035 H 326.328 -2.66547 0.941919 0
M  V30 2036 H 326.517 -0.965341 1.44766 0
M  V30 2037 H 326.625 1.46427 -2.29697 0
M  V30 2038 P 327.858 -2.75334 -8.47391 0
M  V30 2039 O 328.078 -2.44571 -9.90142 0
M  V30 2040 O 328.648 -3.87688 -7.92115 0
M  V30 2041 O 328.108 -1.4459 -7.59357 0
M  V30 2042 C 327.168 -0.347608 -7.69215 0
M  V30 2043 C 327.898 0.96767 -7.52806 0
M  V30 2044 O 328.108 1.21036 -6.1011 0
M  V30 2045 C 329.298 1.04544 -8.13308 0
M  V30 2046 O 329.688 2.38311 -8.41922 0
M  V30 2047 C 330.178 0.491279 -7.02284 0
M  V30 2048 C 329.468 0.996264 -5.77469 0
M  V30 2049 N 329.518 0.0501916 -4.62973 0
M  V30 2050 C 329.438 -1.32786 -4.63244 0
M  V30 2051 N 329.518 -1.86957 -3.44545 0
M  V30 2052 C 329.658 -0.780241 -2.58481 0
M  V30 2053 C 329.788 -0.738536 -1.17757 0
M  V30 2054 N 329.908 0.58337 -0.711393 0
M  V30 2055 C 329.908 1.70816 -1.51017 0
M  V30 2056 N 330.038 2.87826 -0.880757 0
M  V30 2057 N 329.778 1.67126 -2.8339 0
M  V30 2058 C 329.658 0.401421 -3.30572 0
M  V30 2059 H 326.679 -0.374722 -8.67691 0
M  V30 2060 H 326.409 -0.443485 -6.90277 0
M  V30 2061 H 327.276 1.75537 -7.96793 0
M  V30 2062 P 331.238 2.75334 -8.47391 0
M  V30 2063 O 331.458 3.84128 -9.44797 0
M  V30 2064 O 332.028 1.51947 -8.68712 0
M  V30 2065 O 331.488 3.29363 -6.99321 0
M  V30 2066 C 330.548 4.24011 -6.4274 0
M  V30 2067 C 331.278 5.20775 -5.52155 0
M  V30 2068 O 331.488 4.56534 -4.22446 0
M  V30 2069 C 332.678 5.62629 -5.96531 0
M  V30 2070 O 333.068 6.87667 -5.41053 0
M  V30 2071 C 333.558 4.52537 -5.39283 0
M  V30 2072 C 332.848 4.20027 -4.08623 0
M  V30 2073 N 332.898 2.76189 -3.71603 0
M  V30 2074 H 330.059 4.797 -7.24003 0
M  V30 2075 H 329.789 3.69856 -5.84513 0
M  V30 2076 H 330.656 6.10356 -5.41441 0
M  V30 2077 P 334.618 7.20834 -5.23717 0
M  V30 2078 O 334.838 8.66104 -5.38572 0
M  V30 2079 O 335.408 6.33544 -6.1349 0
M  V30 2080 O 334.868 6.7751 -3.72168 0
M  V30 2081 C 333.928 7.20825 -2.7076 0
M  V30 2082 C 334.658 7.45864 -1.40599 0
M  V30 2083 O 334.868 6.17651 -0.734225 0
M  V30 2084 C 336.058 8.05808 -1.51899 0
M  V30 2085 O 336.448 8.74358 -0.335205 0
M  V30 2086 C 336.938 6.83093 -1.70294 0
M  V30 2087 C 336.228 5.79992 -0.836974 0
M  V30 2088 N 336.278 4.41864 -1.38293 0
M  V30 2089 H 333.439 8.13644 -3.0377 0
M  V30 2090 H 333.169 6.42788 -2.55485 0
M  V30 2091 H 334.036 8.12039 -0.792769 0
M  V30 2092 P 337.998 8.91 1.4976e-12 0
M  V30 2093 O 338.218 10.1726 0.733694 0
M  V30 2094 O 338.788 8.73148 -1.23936 0
M  V30 2095 O 338.248 7.66872 0.971405 0
M  V30 2096 C 337.308 7.42309 2.04641 0
M  V30 2097 C 338.038 6.86059 3.24661 0
M  V30 2098 O 338.248 5.42847 3.03646 0
M  V30 2099 C 339.438 7.41196 3.50753 0
M  V30 2100 O 339.828 7.27073 4.86816 0
M  V30 2101 C 340.318 6.5273 2.63741 0
M  V30 2102 C 339.608 5.1842 2.73198 0
M  V30 2103 N 339.658 4.38762 1.4784 0
M  V30 2104 H 336.819 8.36803 2.32493 0
M  V30 2105 H 336.549 6.70197 1.71129 0
M  V30 2106 H 337.416 7.03551 4.13168 0
M  V30 2107 P 341.378 7.20834 5.23717 0
M  V30 2108 O 341.598 7.79853 6.57286 0
M  V30 2109 O 342.168 7.79239 4.12957 0
M  V30 2110 O 341.628 5.63315 5.29344 0
M  V30 2111 C 340.688 4.80255 6.01876 0
M  V30 2112 C 341.418 3.64202 6.65911 0
M  V30 2113 O 341.628 2.60694 5.64732 0
M  V30 2114 C 342.818 3.93473 7.1943 0
M  V30 2115 O 343.208 3.02071 8.21205 0
M  V30 2116 C 343.698 3.73047 5.97036 0
M  V30 2117 C 342.988 2.58828 5.25741 0
M  V30 2118 N 343.038 2.68068 3.77503 0
M  V30 2119 H 340.199 5.40332 6.79951 0
M  V30 2120 H 339.929 4.41613 5.32378 0
M  V30 2121 H 340.796 3.26331 7.47797 0
M  V30 2122 P 344.758 2.75334 8.47391 0
M  V30 2123 O 344.978 2.44571 9.90142 0
M  V30 2124 O 345.548 3.87688 7.92115 0
M  V30 2125 O 345.008 1.4459 7.59357 0
M  V30 2126 C 344.068 0.347608 7.69215 0
M  V30 2127 C 344.798 -0.96767 7.52806 0
M  V30 2128 O 345.008 -1.21036 6.1011 0
M  V30 2129 C 346.198 -1.04544 8.13308 0
M  V30 2130 O 346.588 -2.38311 8.41922 0
M  V30 2131 C 347.078 -0.491279 7.02284 0
M  V30 2132 C 346.368 -0.996264 5.77469 0
M  V30 2133 N 346.418 -0.0501916 4.62973 0
M  V30 2134 C 346.338 1.32786 4.63244 0
M  V30 2135 N 346.418 1.86957 3.44545 0
M  V30 2136 C 346.558 0.780241 2.58481 0
M  V30 2137 C 346.688 0.738536 1.17757 0
M  V30 2138 O 346.708 1.66794 0.372349 0
M  V30 2139 N 346.808 -0.58337 0.711393 0
M  V30 2140 C 346.808 -1.70816 1.51017 0
M  V30 2141 N 346.938 -2.87826 0.880757 0
M  V30 2142 N 346.678 -1.67126 2.8339 0
M  V30 2143 C 346.558 -0.401421 3.30572 0
M  V30 2144 H 343.579 0.374722 8.67691 0
M  V30 2145 H 343.309 0.443485 6.90277 0
M  V30 2146 H 344.176 -1.75537 7.96793 0
M  V30 2147 H 346.831 -1.95076 5.46529 0
M  V30 2148 H 347.11 0.608565 7.04577 0
M  V30 2149 H 348.102 -0.889672 7.08939 0
M  V30 2150 H 346.268 -0.43308 9.04564 0
M  V30 2151 H 346.219 1.91249 5.54442 0
M  V30 2152 H 346.901 -0.718054 -0.275244 0
M  V30 2153 H 346.938 -3.75721 1.41832 0
M  V30 2154 H 347.039 -2.90436 -0.145468 0
M  V30 2155 P 348.138 -2.75334 8.47391 0
M  V30 2156 O 348.358 -3.84128 9.44797 0
M  V30 2157 O 348.928 -1.51947 8.68712 0
M  V30 2158 O 348.388 -3.29363 6.99321 0
M  V30 2159 C 347.448 -4.24011 6.4274 0
M  V30 2160 C 348.178 -5.20775 5.52155 0
M  V30 2161 O 348.388 -4.56534 4.22446 0
M  V30 2162 C 349.578 -5.62629 5.96531 0
M  V30 2163 O 349.968 -6.87667 5.41053 0
M  V30 2164 C 350.458 -4.52537 5.39283 0
M  V30 2165 C 349.748 -4.20027 4.08623 0
M  V30 2166 N 349.798 -2.76189 3.71603 0
M  V30 2167 H 346.959 -4.797 7.24003 0
M  V30 2168 H 346.689 -3.69856 5.84513 0
M  V30 2169 H 347.556 -6.10356 5.41441 0
M  V30 2170 P 351.518 -7.20834 5.23717 0
M  V30 2171 O 351.738 -8.66274 5.38678 0
M  V30 2172 O 352.308 -6.33687 6.13629 0
M  V30 2173 O 351.768 -6.7751 3.72168 0
M  V30 2174 C 350.828 -7.20919 2.70795 0
M  V30 2175 C 351.558 -7.45864 1.40599 0
M  V30 2176 O 351.768 -6.17751 0.734343 0
M  V30 2177 C 352.958 -8.05906 1.51917 0
M  V30 2178 O 353.348 -8.74358 0.335205 0
M  V30 2179 C 353.838 -6.83093 1.70294 0
M  V30 2180 C 353.128 -5.79992 0.836974 0
M  V30 2181 N 353.178 -4.41864 1.38293 0
M  V30 2182 H 350.34 -8.13738 3.03804 0
M  V30 2183 H 350.068 -6.42974 2.55559 0
M  V30 2184 H 350.936 -8.12139 0.792866 0
M  V30 2185 H 353.591 -5.80178 -0.160643 0
M  V30 2186 H 353.871 -6.51379 2.75643 0
M  V30 2187 H 354.862 -7.01832 1.3448 0
M  V30 2188 H 353.028 -8.73771 2.38364 0
M  V30 2189 P 354.898 -8.91 -1.65478e-12 0
M  V30 2190 O 355.118 -10.1746 -0.733838 0
M  V30 2191 O 355.688 -8.73346 1.23964 0
M  V30 2192 O 355.148 -7.66872 -0.971405 0
M  V30 2193 C 354.208 -7.42405 -2.04668 0
M  V30 2194 C 354.938 -6.86059 -3.24661 0
M  V30 2195 O 355.148 -5.42934 -3.03695 0
M  V30 2196 C 356.338 -7.41287 -3.50796 0
M  V30 2197 O 356.728 -7.27073 -4.86816 0
M  V30 2198 C 357.218 -6.5273 -2.63741 0
M  V30 2199 C 356.508 -5.1842 -2.73198 0
M  V30 2200 N 356.558 -4.38762 -1.4784 0
M  V30 2201 H 353.72 -8.36899 -2.3252 0
M  V30 2202 H 353.448 -6.70391 -1.71179 0
M  V30 2203 H 354.316 -7.03638 -4.13219 0
M  V30 2204 H 356.971 -4.59931 -3.54016 0
M  V30 2205 H 357.251 -6.88995 -1.59871 0
M  V30 2206 H 358.242 -6.4684 -3.0373 0
M  V30 2207 H 356.408 -8.47002 -3.20749 0
M  V30 2208 P 358.278 -7.20834 -5.23717 0
M  V30 2209 O 358.498 -7.79853 -6.57286 0
M  V30 2210 O 359.068 -7.79239 -4.12957 0
M  V30 2211 O 358.528 -5.63315 -5.29344 0
M  V30 2212 C 357.588 -4.80255 -6.01876 0
M  V30 2213 C 358.318 -3.64202 -6.65911 0
M  V30 2214 O 358.528 -2.60694 -5.64732 0
M  V30 2215 C 359.718 -3.93473 -7.1943 0
M  V30 2216 O 360.108 -3.02071 -8.21205 0
M  V30 2217 C 360.598 -3.73047 -5.97036 0
M  V30 2218 C 359.888 -2.58828 -5.25741 0
M  V30 2219 N 359.938 -2.68068 -3.77503 0
M  V30 2220 H 357.099 -5.40332 -6.79951 0
M  V30 2221 H 356.829 -4.41613 -5.32378 0
M  V30 2222 H 357.696 -3.26331 -7.47797 0
M  V30 2223 P 361.658 -2.75334 -8.47391 0
M  V30 2224 O 361.878 -2.44571 -9.90142 0
M  V30 2225 O 362.448 -3.87688 -7.92115 0
M  V30 2226 O 361.908 -1.4459 -7.59357 0
M  V30 2227 C 360.968 -0.347608 -7.69215 0
M  V30 2228 C 361.698 0.96767 -7.52806 0
M  V30 2229 O 361.908 1.21036 -6.1011 0
M  V30 2230 C 363.098 1.04544 -8.13308 0
M  V30 2231 O 363.488 2.38311 -8.41922 0
M  V30 2232 C 363.978 0.491279 -7.02284 0
M  V30 2233 C 363.268 0.996264 -5.77469 0
M  V30 2234 N 363.318 0.0501916 -4.62973 0
M  V30 2235 H 360.479 -0.374722 -8.67691 0
M  V30 2236 H 360.209 -0.443485 -6.90277 0
M  V30 2237 H 361.076 1.75537 -7.96793 0
M  V30 2238 P 365.038 2.75334 -8.47391 0
M  V30 2239 O 365.258 3.84128 -9.44797 0
M  V30 2240 O 365.828 1.51947 -8.68712 0
M  V30 2241 O 365.288 3.29363 -6.99321 0
M  V30 2242 C 364.348 4.24011 -6.4274 0
M  V30 2243 C 365.078 5.20775 -5.52155 0
M  V30 2244 O 365.288 4.56534 -4.22446 0
M  V30 2245 C 366.478 5.62629 -5.96531 0
M  V30 2246 O 366.868 6.87667 -5.41053 0
M  V30 2247 C 367.358 4.52537 -5.39283 0
M  V30 2248 C 366.648 4.20027 -4.08623 0
M  V30 2249 N 366.698 2.76189 -3.71603 0
M  V30 2250 H 363.859 4.797 -7.24003 0
M  V30 2251 H 363.589 3.69856 -5.84513 0
M  V30 2252 H 364.456 6.10356 -5.41441 0
M  V30 2253 P 368.418 7.20834 -5.23717 0
M  V30 2254 O 368.638 8.66104 -5.38572 0
M  V30 2255 O 369.208 6.33544 -6.1349 0
M  V30 2256 O 368.668 6.7751 -3.72168 0
M  V30 2257 C 367.728 7.20825 -2.7076 0
M  V30 2258 C 368.458 7.45864 -1.40599 0
M  V30 2259 O 368.668 6.17651 -0.734225 0
M  V30 2260 C 369.858 8.05808 -1.51899 0
M  V30 2261 O 370.248 8.74358 -0.335205 0
M  V30 2262 C 370.738 6.83093 -1.70294 0
M  V30 2263 C 370.028 5.79992 -0.836974 0
M  V30 2264 N 370.078 4.41864 -1.38293 0
M  V30 2265 C 369.998 3.99538 -2.69438 0
M  V30 2266 N 370.078 2.69909 -2.84277 0
M  V30 2267 C 370.218 2.21719 -1.5408 0
M  V30 2268 C 370.348 0.891712 -1.06628 0
M  V30 2269 N 370.468 0.856846 0.334985 0
M  V30 2270 C 370.468 1.9641 1.15789 0
M  V30 2271 N 370.598 1.72708 2.46522 0
M  V30 2272 N 370.338 3.21165 0.713741 0
M  V30 2273 C 370.218 3.26797 -0.639748 0
M  V30 2274 H 367.239 8.13644 -3.0377 0
M  V30 2275 H 366.969 6.42788 -2.55485 0
M  V30 2276 H 367.836 8.12039 -0.792769 0
M  V30 2277 P 371.798 8.91 1.81197e-12 0
M  V30 2278 O 372.018 10.1726 0.733694 0
M  V30 2279 O 372.588 8.73148 -1.23936 0
M  V30 2280 O 372.048 7.66872 0.971405 0
M  V30 2281 C 371.108 7.42309 2.04641 0
M  V30 2282 C 371.838 6.86059 3.24661 0
M  V30 2283 O 372.048 5.42847 3.03646 0
M  V30 2284 C 373.238 7.41196 3.50753 0
M  V30 2285 O 373.628 7.27073 4.86816 0
M  V30 2286 C 374.118 6.5273 2.63741 0
M  V30 2287 C 373.408 5.1842 2.73198 0
M  V30 2288 N 373.458 4.38762 1.4784 0
M  V30 2289 H 370.619 8.36803 2.32493 0
M  V30 2290 H 370.349 6.70197 1.71129 0
M  V30 2291 H 371.216 7.03551 4.13168 0
M  V30 2292 P 375.178 7.20834 5.23717 0
M  V30 2293 O 375.398 7.79853 6.57286 0
M  V30 2294 O 375.968 7.79239 4.12957 0
M  V30 2295 O 375.428 5.63315 5.29344 0
M  V30 2296 C 374.488 4.80255 6.01876 0
M  V30 2297 C 375.218 3.64202 6.65911 0
M  V30 2298 O 375.428 2.60694 5.64732 0
M  V30 2299 C 376.618 3.93473 7.1943 0
M  V30 2300 O 377.008 3.02071 8.21205 0
M  V30 2301 C 377.498 3.73047 5.97036 0
M  V30 2302 C 376.788 2.58828 5.25741 0
M  V30 2303 N 376.838 2.68068 3.77503 0
M  V30 2304 H 373.999 5.40332 6.79951 0
M  V30 2305 H 373.729 4.41613 5.32378 0
M  V30 2306 H 374.596 3.26331 7.47797 0
M  V30 2307 P 378.558 2.75334 8.47391 0
M  V30 2308 O 378.778 2.44619 9.90336 0
M  V30 2309 O 379.348 3.87776 7.92294 0
M  V30 2310 O 378.808 1.4459 7.59357 0
M  V30 2311 C 377.868 0.347653 7.69315 0
M  V30 2312 C 378.598 -0.96767 7.52806 0
M  V30 2313 O 378.808 -1.21055 6.10208 0
M  V30 2314 C 379.998 -1.04557 8.13408 0
M  V30 2315 O 380.388 -2.38311 8.41922 0
M  V30 2316 C 380.878 -0.491279 7.02284 0
M  V30 2317 C 380.168 -0.996264 5.77469 0
M  V30 2318 N 380.218 -0.0501916 4.62973 0
M  V30 2319 C 380.138 1.31969 4.65661 0
M  V30 2320 N 380.208 1.86649 3.48119 0
M  V30 2321 C 380.358 0.792089 2.62406 0
M  V30 2322 C 380.488 0.705684 1.2207 0
M  V30 2323 N 380.498 1.76207 0.413762 0
M  V30 2324 N 380.608 -0.518981 0.685754 0
M  V30 2325 C 380.598 -1.57595 1.49174 0
M  V30 2326 N 380.478 -1.62909 2.80066 0
M  V30 2327 C 380.358 -0.388195 3.3073 0
M  V30 2328 H 377.38 0.374765 8.67791 0
M  V30 2329 H 377.108 0.443613 6.90476 0
M  V30 2330 H 377.976 -1.75559 7.96891 0
M  V30 2331 H 380.631 -1.94563 5.46818 0
M  V30 2332 H 380.911 0.608651 7.04676 0
M  V30 2333 H 381.902 -0.889796 7.09039 0
M  V30 2334 H 380.068 -0.433128 9.04664 0
M  V30 2335 H 380.027 1.89246 5.57664 0
M  V30 2336 H 380.408 2.71005 0.804694 0
M  V30 2337 H 380.597 1.63189 -0.603768 0
M  V30 2338 H 380.705 -2.53475 0.997614 0
M  V30 2339 P 381.938 -2.75334 8.47391 0
M  V30 2340 O 382.158 -3.84166 9.4489 0
M  V30 2341 O 382.728 -1.51964 8.6881 0
M  V30 2342 O 382.188 -3.29363 6.99321 0
M  V30 2343 C 381.248 -4.23956 6.42656 0
M  V30 2344 C 381.978 -5.20775 5.52155 0
M  V30 2345 O 382.188 -4.56534 4.22446 0
M  V30 2346 C 383.378 -5.62629 5.96531 0
M  V30 2347 O 383.768 -6.87667 5.41053 0
M  V30 2348 C 384.258 -4.52537 5.39283 0
M  V30 2349 C 383.548 -4.20027 4.08623 0
M  V30 2350 N 383.598 -2.7613 3.71522 0
M  V30 2351 C 383.748 -2.45612 2.37989 0
M  V30 2352 O 383.838 -3.30919 1.51621 0
M  V30 2353 N 383.788 -1.10684 2.08435 0
M  V30 2354 C 383.698 -0.0690084 2.9792 0
M  V30 2355 O 383.748 1.10553 2.59426 0
M  V30 2356 C 383.548 -0.481522 4.35345 0
M  V30 2357 C 383.438 0.618778 5.36443 0
M  V30 2358 C 383.498 -1.78906 4.67968 0
M  V30 2359 H 380.758 -4.797 7.24003 0
M  V30 2360 H 380.489 -3.69802 5.84429 0
M  V30 2361 H 381.356 -6.10356 5.41441 0
M  V30 2362 H 384.011 -4.78651 3.27911 0
M  V30 2363 H 384.29 -3.64957 6.05871 0
M  V30 2364 H 385.282 -4.8868 5.2125 0
M  V30 2365 H 383.448 -5.66726 7.06352 0
M  V30 2366 H 383.377 -2.07737 5.72367 0
M  V30 2367 H 384.407 0.754375 5.86871 0
M  V30 2368 H 382.67 0.359721 6.10641 0
M  V30 2369 H 383.158 1.55533 4.8581 0
M  V30 2370 H 383.894 -0.862651 1.12037 0
M  V30 2371 P 385.318 -7.20834 5.23717 0
M  V30 2372 O 385.538 -8.66189 5.38625 0
M  V30 2373 O 386.108 -6.33615 6.1356 0
M  V30 2374 O 385.568 -6.7751 3.72168 0
M  V30 2375 C 384.628 -7.20732 2.70725 0
M  V30 2376 C 385.358 -7.45864 1.40599 0
M  V30 2377 O 385.568 -6.17651 0.734225 0
M  V30 2378 C 386.758 -8.05808 1.51899 0
M  V30 2379 O 387.148 -8.74358 0.335205 0
M  V30 2380 C 387.638 -6.83093 1.70294 0
M  V30 2381 C 386.928 -5.79992 0.836974 0
M  V30 2382 N 386.978 -4.41769 1.38263 0
M  V30 2383 C 387.128 -3.38591 0.481702 0
M  V30 2384 O 387.218 -3.56839 -0.718452 0
M  V30 2385 N 387.168 -2.1206 1.03569 0
M  V30 2386 C 387.078 -1.80696 2.36966 0
M  V30 2387 C 386.928 -2.94845 3.23898 0
M  V30 2388 C 386.878 -4.19803 2.73435 0
M  V30 2389 H 384.138 -8.13644 3.0377 0
M  V30 2390 H 383.869 -6.42695 2.55448 0
M  V30 2391 H 384.736 -8.12039 0.792769 0
M  V30 2392 H 387.391 -5.79978 -0.160587 0
M  V30 2393 H 387.67 -6.51379 2.75643 0
M  V30 2394 H 388.662 -7.01734 1.34462 0
M  V30 2395 H 386.828 -8.73674 2.38337 0
M  V30 2396 H 386.757 -5.04492 3.4095 0
M  V30 2397 P 388.698 -8.91 -1.96915e-12 0
M  V30 2398 O 388.918 -10.1726 -0.733694 0
M  V30 2399 O 389.488 -8.73148 1.23936 0
M  V30 2400 O 388.948 -7.66872 -0.971405 0
M  V30 2401 C 388.008 -7.42309 -2.04641 0
M  V30 2402 C 388.738 -6.86059 -3.24661 0
M  V30 2403 O 388.948 -5.42847 -3.03646 0
M  V30 2404 C 390.138 -7.41196 -3.50753 0
M  V30 2405 O 390.528 -7.27073 -4.86816 0
M  V30 2406 C 391.018 -6.5273 -2.63741 0
M  V30 2407 C 390.308 -5.1842 -2.73198 0
M  V30 2408 N 390.358 -4.38762 -1.4784 0
M  V30 2409 C 390.278 -4.81605 -0.168631 0
M  V30 2410 N 390.358 -3.85454 0.713363 0
M  V30 2411 C 390.498 -2.6994 -0.0566958 0
M  V30 2412 C 390.628 -1.34815 0.338502 0
M  V30 2413 O 390.648 -0.869548 1.47125 0
M  V30 2414 N 390.748 -0.496304 -0.77465 0
M  V30 2415 C 390.748 -0.908403 -2.09122 0
M  V30 2416 N 390.878 0.0517805 -3.00955 0
M  V30 2417 N 390.618 -2.17875 -2.46519 0
M  V30 2418 C 390.498 -3.01988 -1.4033 0
M  V30 2419 H 387.519 -8.36803 -2.32493 0
M  V30 2420 H 387.249 -6.70197 -1.71129 0
M  V30 2421 H 388.116 -7.03551 -4.13168 0
M  V30 2422 H 390.771 -4.59498 -3.54415 0
M  V30 2423 H 391.05 -6.88898 -1.59848 0
M  V30 2424 H 392.042 -6.46749 -3.03687 0
M  V30 2425 H 390.208 -8.46908 -3.20714 0
M  V30 2426 H 390.159 -5.86405 0.105564 0
M  V30 2427 H 390.841 0.483664 -0.597855 0
M  V30 2428 H 390.878 -0.187865 -4.0116 0
M  V30 2429 H 390.979 1.03585 -2.71726 0
M  V30 2430 P 392.078 -7.20834 -5.23717 0
M  V30 2431 O 392.298 -7.79853 -6.57286 0
M  V30 2432 O 392.868 -7.79239 -4.12957 0
M  V30 2433 O 392.328 -5.63315 -5.29344 0
M  V30 2434 C 391.388 -4.80255 -6.01876 0
M  V30 2435 C 392.118 -3.64202 -6.65911 0
M  V30 2436 O 392.328 -2.60694 -5.64732 0
M  V30 2437 C 393.518 -3.93473 -7.1943 0
M  V30 2438 O 393.908 -3.02071 -8.21205 0
M  V30 2439 C 394.398 -3.73047 -5.97036 0
M  V30 2440 C 393.688 -2.58828 -5.25741 0
M  V30 2441 N 393.738 -2.68068 -3.77503 0
M  V30 2442 H 390.899 -5.40332 -6.79951 0
M  V30 2443 H 390.629 -4.41613 -5.32378 0
M  V30 2444 H 391.496 -3.26331 -7.47797 0
M  V30 2445 P 395.458 -2.75334 -8.47391 0
M  V30 2446 O 395.678 -2.44619 -9.90336 0
M  V30 2447 O 396.248 -3.87776 -7.92294 0
M  V30 2448 O 395.708 -1.4459 -7.59357 0
M  V30 2449 C 394.768 -0.347653 -7.69315 0
M  V30 2450 C 395.498 0.96767 -7.52806 0
M  V30 2451 O 395.708 1.21055 -6.10208 0
M  V30 2452 C 396.898 1.04557 -8.13408 0
M  V30 2453 O 397.288 2.38311 -8.41922 0
M  V30 2454 C 397.778 0.491279 -7.02284 0
M  V30 2455 C 397.068 0.996264 -5.77469 0
M  V30 2456 N 397.118 0.0501916 -4.62973 0
M  V30 2457 C 397.038 -1.31969 -4.65661 0
M  V30 2458 N 397.108 -1.86649 -3.48119 0
M  V30 2459 C 397.258 -0.792089 -2.62406 0
M  V30 2460 C 397.388 -0.705684 -1.2207 0
M  V30 2461 N 397.398 -1.76207 -0.413762 0
M  V30 2462 N 397.508 0.518981 -0.685754 0
M  V30 2463 C 397.498 1.57595 -1.49174 0
M  V30 2464 N 397.378 1.62909 -2.80066 0
M  V30 2465 C 397.258 0.388195 -3.3073 0
M  V30 2466 H 394.28 -0.374765 -8.67791 0
M  V30 2467 H 394.008 -0.443613 -6.90476 0
M  V30 2468 H 394.876 1.75559 -7.96891 0
M  V30 2469 H 397.531 1.94563 -5.46818 0
M  V30 2470 H 397.811 -0.608651 -7.04676 0
M  V30 2471 H 398.802 0.889796 -7.09039 0
M  V30 2472 H 396.968 0.433128 -9.04664 0
M  V30 2473 H 396.927 -1.89246 -5.57664 0
M  V30 2474 H 397.308 -2.71005 -0.804694 0
M  V30 2475 H 397.497 -1.63189 0.603768 0
M  V30 2476 H 397.605 2.53475 -0.997614 0
M  V30 2477 P 398.838 2.75334 -8.47391 0
M  V30 2478 O 399.058 3.84128 -9.44797 0
M  V30 2479 O 399.628 1.51947 -8.68712 0
M  V30 2480 O 399.088 3.29363 -6.99321 0
M  V30 2481 C 398.148 4.24011 -6.4274 0
M  V30 2482 C 398.878 5.20775 -5.52155 0
M  V30 2483 O 399.088 4.56534 -4.22446 0
M  V30 2484 C 400.278 5.62629 -5.96531 0
M  V30 2485 O 400.668 6.87667 -5.41053 0
M  V30 2486 C 401.158 4.52537 -5.39283 0
M  V30 2487 C 400.448 4.20027 -4.08623 0
M  V30 2488 N 400.498 2.76189 -3.71603 0
M  V30 2489 C 400.418 1.64862 -4.52822 0
M  V30 2490 N 400.498 0.512671 -3.88633 0
M  V30 2491 C 400.638 0.888083 -2.54977 0
M  V30 2492 C 400.768 0.094668 -1.38677 0
M  V30 2493 O 400.788 -1.13053 -1.28163 0
M  V30 2494 N 400.888 0.890102 -0.232633 0
M  V30 2495 C 400.888 2.26958 -0.21772 0
M  V30 2496 N 401.018 2.84626 0.97925 0
M  V30 2497 N 400.758 3.0178 -1.31033 0
M  V30 2498 C 400.638 2.26781 -2.43843 0
M  V30 2499 H 397.659 4.797 -7.24003 0
M  V30 2500 H 397.389 3.69856 -5.84513 0
M  V30 2501 H 398.256 6.10356 -5.41441 0
M  V30 2502 H 400.911 4.79061 -3.27488 0
M  V30 2503 H 401.19 3.64906 -6.05785 0
M  V30 2504 H 402.182 4.8868 -5.2125 0
M  V30 2505 H 400.348 5.66726 -7.06352 0
M  V30 2506 H 400.299 1.71169 -5.60966 0
M  V30 2507 H 400.981 0.419134 0.644739 0
M  V30 2508 H 401.018 3.87332 1.06098 0
M  V30 2509 H 401.119 2.26417 1.82483 0
M  V30 2510 P 402.218 7.20834 -5.23717 0
M  V30 2511 O 402.438 8.66104 -5.38572 0
M  V30 2512 O 403.008 6.33544 -6.1349 0
M  V30 2513 O 402.468 6.7751 -3.72168 0
M  V30 2514 C 401.528 7.20825 -2.7076 0
M  V30 2515 C 402.258 7.45864 -1.40599 0
M  V30 2516 O 402.468 6.17651 -0.734225 0
M  V30 2517 C 403.658 8.05808 -1.51899 0
M  V30 2518 O 404.048 8.74358 -0.335205 0
M  V30 2519 C 404.538 6.83093 -1.70294 0
M  V30 2520 C 403.828 5.79992 -0.836974 0
M  V30 2521 N 403.878 4.41864 -1.38293 0
M  V30 2522 H 401.039 8.13644 -3.0377 0
M  V30 2523 H 400.769 6.42788 -2.55485 0
M  V30 2524 H 401.636 8.12039 -0.792769 0
M  V30 2525 P 405.598 8.91 2.12633e-12 0
M  V30 2526 O 405.818 10.1736 0.733766 0
M  V30 2527 O 406.388 8.73247 -1.2395 0
M  V30 2528 O 405.848 7.66872 0.971405 0
M  V30 2529 C 404.908 7.42212 2.04614 0
M  V30 2530 C 405.638 6.86059 3.24661 0
M  V30 2531 O 405.848 5.42847 3.03646 0
M  V30 2532 C 407.038 7.41196 3.50753 0
M  V30 2533 O 407.428 7.27073 4.86816 0
M  V30 2534 C 407.918 6.5273 2.63741 0
M  V30 2535 C 407.208 5.1842 2.73198 0
M  V30 2536 N 407.258 4.38668 1.47808 0
M  V30 2537 C 407.408 3.02239 1.60048 0
M  V30 2538 O 407.498 2.46459 2.67869 0
M  V30 2539 N 407.448 2.32436 0.408571 0
M  V30 2540 C 407.358 2.85471 -0.854993 0
M  V30 2541 O 407.408 2.12566 -1.8531 0
M  V30 2542 C 407.208 4.28918 -0.887335 0
M  V30 2543 C 407.098 4.91066 -2.24619 0
M  V30 2544 C 407.158 5.00349 0.255399 0
M  V30 2545 H 404.418 8.36803 2.32493 0
M  V30 2546 H 404.149 6.701 1.71105 0
M  V30 2547 H 405.016 7.03551 4.13168 0
M  V30 2548 H 407.671 4.59773 3.53894 0
M  V30 2549 H 407.95 6.88995 1.59871 0
M  V30 2550 H 408.942 6.46749 3.03687 0
M  V30 2551 H 407.108 8.46908 3.20714 0
M  V30 2552 H 407.037 6.08548 0.206986 0
M  V30 2553 H 408.067 5.34836 -2.53099 0
M  V30 2554 H 406.33 5.69638 -2.2291 0
M  V30 2555 H 406.818 4.13971 -2.98044 0
M  V30 2556 H 407.554 1.33211 0.474216 0
M  V30 2557 P 408.978 7.20834 5.23717 0
M  V30 2558 O 409.198 7.7993 6.57351 0
M  V30 2559 O 409.768 7.79328 4.13004 0
M  V30 2560 O 409.228 5.63315 5.29344 0
M  V30 2561 C 408.288 4.80193 6.01798 0
M  V30 2562 C 409.018 3.64202 6.65911 0
M  V30 2563 O 409.228 2.60694 5.64732 0
M  V30 2564 C 410.418 3.93473 7.1943 0
M  V30 2565 O 410.808 3.02071 8.21205 0
M  V30 2566 C 411.298 3.73047 5.97036 0
M  V30 2567 C 410.588 2.58828 5.25741 0
M  V30 2568 N 410.638 2.6801 3.77422 0
M  V30 2569 C 410.788 1.50443 3.07133 0
M  V30 2570 O 410.878 0.419406 3.61576 0
M  V30 2571 N 410.828 1.6403 1.69677 0
M  V30 2572 C 410.738 2.81206 0.986255 0
M  V30 2573 C 410.588 3.99158 1.80325 0
M  V30 2574 C 410.538 3.89779 3.1476 0
M  V30 2575 H 407.798 5.40332 6.79951 0
M  V30 2576 H 407.529 4.41549 5.32301 0
M  V30 2577 H 408.396 3.26331 7.47797 0
M  V30 2578 H 411.051 1.6395 5.56554 0
M  V30 2579 H 411.33 4.63439 5.3432 0
M  V30 2580 H 412.322 3.44728 6.25838 0
M  V30 2581 H 410.488 4.96652 7.57263 0
M  V30 2582 H 410.417 4.80159 3.74441 0
M  V30 2583 P 412.358 2.75334 8.47391 0
M  V30 2584 O 412.578 2.44595 9.90239 0
M  V30 2585 O 413.148 3.87732 7.92204 0
M  V30 2586 O 412.608 1.4459 7.59357 0
M  V30 2587 C 411.668 0.347563 7.69115 0
M  V30 2588 C 412.398 -0.96767 7.52806 0
M  V30 2589 O 412.608 -1.21036 6.1011 0
M  V30 2590 C 413.798 -1.04544 8.13308 0
M  V30 2591 O 414.188 -2.38311 8.41922 0
M  V30 2592 C 414.678 -0.491279 7.02284 0
M  V30 2593 C 413.968 -0.996264 5.77469 0
M  V30 2594 N 414.018 -0.0501808 4.62873 0
M  V30 2595 C 414.168 -0.588177 3.36904 0
M  V30 2596 O 414.258 -1.78598 3.17173 0
M  V30 2597 N 414.208 0.329694 2.33686 0
M  V30 2598 C 414.118 1.6953 2.45079 0
M  V30 2599 O 414.168 2.41926 1.44899 0
M  V30 2600 C 413.968 2.16933 3.80505 0
M  V30 2601 C 413.858 3.65373 3.97621 0
M  V30 2602 C 413.918 1.30326 4.83752 0
M  V30 2603 H 411.178 0.374722 8.67691 0
M  V30 2604 H 410.909 0.443421 6.90177 0
M  V30 2605 H 411.776 -1.75537 7.96793 0
M  V30 2606 H 414.431 -1.94496 5.46629 0
M  V30 2607 H 414.71 0.608651 7.04676 0
M  V30 2608 H 415.702 -0.889672 7.08939 0
M  V30 2609 H 413.868 -0.43308 9.04564 0
M  V30 2610 H 413.797 1.68366 5.8516 0
M  V30 2611 H 414.827 4.05985 4.30448 0
M  V30 2612 H 413.09 3.88028 4.72875 0
M  V30 2613 H 413.578 4.11381 3.01609 0
M  V30 2614 H 414.314 -0.0393617 1.41345 0
M  V30 2615 P 415.738 -2.75334 8.47391 0
M  V30 2616 O 415.958 -3.84128 9.44797 0
M  V30 2617 O 416.528 -1.51947 8.68712 0
M  V30 2618 O 415.988 -3.29363 6.99321 0
M  V30 2619 C 415.048 -4.24011 6.4274 0
M  V30 2620 C 415.778 -5.20775 5.52155 0
M  V30 2621 O 415.988 -4.56534 4.22446 0
M  V30 2622 C 417.178 -5.62629 5.96531 0
M  V30 2623 O 417.568 -6.87667 5.41053 0
M  V30 2624 C 418.058 -4.52537 5.39283 0
M  V30 2625 C 417.348 -4.20027 4.08623 0
M  V30 2626 N 417.398 -2.76189 3.71603 0
M  V30 2627 H 414.559 -4.797 7.24003 0
M  V30 2628 H 414.289 -3.69856 5.84513 0
M  V30 2629 H 415.156 -6.10356 5.41441 0
M  V30 2630 P 419.118 -7.20834 5.23717 0
M  V30 2631 O 419.338 -8.66104 5.38572 0
M  V30 2632 O 419.908 -6.33544 6.1349 0
M  V30 2633 O 419.368 -6.7751 3.72168 0
M  V30 2634 C 418.428 -7.20825 2.7076 0
M  V30 2635 C 419.158 -7.45864 1.40599 0
M  V30 2636 O 419.368 -6.17651 0.734225 0
M  V30 2637 C 420.558 -8.05808 1.51899 0
M  V30 2638 O 420.948 -8.74358 0.335205 0
M  V30 2639 C 421.438 -6.83093 1.70294 0
M  V30 2640 C 420.728 -5.79992 0.836974 0
M  V30 2641 N 420.778 -4.41864 1.38293 0
M  V30 2642 H 417.939 -8.13644 3.0377 0
M  V30 2643 H 417.669 -6.42788 2.55485 0
M  V30 2644 H 418.536 -8.12039 0.792769 0
M  V30 2645 P 422.497 -8.91 -2.28351e-12 0
M  V30 2646 O 422.717 -10.1726 -0.733694 0
M  V30 2647 O 423.287 -8.73148 1.23936 0
M  V30 2648 O 422.747 -7.66872 -0.971405 0
M  V30 2649 C 421.807 -7.42309 -2.04641 0
M  V30 2650 C 422.537 -6.86059 -3.24661 0
M  V30 2651 O 422.747 -5.42847 -3.03646 0
M  V30 2652 C 423.937 -7.41196 -3.50753 0
M  V30 2653 O 424.327 -7.27073 -4.86816 0
M  V30 2654 C 424.817 -6.5273 -2.63741 0
M  V30 2655 C 424.107 -5.1842 -2.73198 0
M  V30 2656 N 424.157 -4.38762 -1.4784 0
M  V30 2657 C 424.077 -4.81605 -0.168631 0
M  V30 2658 N 424.157 -3.85454 0.713363 0
M  V30 2659 C 424.297 -2.6994 -0.0566958 0
M  V30 2660 C 424.427 -1.34815 0.338502 0
M  V30 2661 O 424.447 -0.869548 1.47125 0
M  V30 2662 N 424.547 -0.496304 -0.77465 0
M  V30 2663 C 424.547 -0.908403 -2.09122 0
M  V30 2664 N 424.677 0.0517805 -3.00955 0
M  V30 2665 N 424.417 -2.17875 -2.46519 0
M  V30 2666 C 424.297 -3.01988 -1.4033 0
M  V30 2667 H 421.318 -8.36803 -2.32493 0
M  V30 2668 H 421.048 -6.70197 -1.71129 0
M  V30 2669 H 421.915 -7.03551 -4.13168 0
M  V30 2670 H 424.57 -4.59498 -3.54415 0
M  V30 2671 H 424.849 -6.88898 -1.59848 0
M  V30 2672 H 425.841 -6.46749 -3.03687 0
M  V30 2673 H 424.007 -8.46908 -3.20714 0
M  V30 2674 H 423.958 -5.86405 0.105564 0
M  V30 2675 H 424.64 0.483664 -0.597855 0
M  V30 2676 H 424.677 -0.187865 -4.0116 0
M  V30 2677 H 424.778 1.03585 -2.71726 0
M  V30 2678 P 425.877 -7.20834 -5.23717 0
M  V30 2679 O 426.097 -7.79853 -6.57286 0
M  V30 2680 O 426.667 -7.79239 -4.12957 0
M  V30 2681 O 426.127 -5.63315 -5.29344 0
M  V30 2682 C 425.187 -4.80255 -6.01876 0
M  V30 2683 C 425.917 -3.64202 -6.65911 0
M  V30 2684 O 426.127 -2.60694 -5.64732 0
M  V30 2685 C 427.317 -3.93473 -7.1943 0
M  V30 2686 O 427.707 -3.02071 -8.21205 0
M  V30 2687 C 428.197 -3.73047 -5.97036 0
M  V30 2688 C 427.487 -2.58828 -5.25741 0
M  V30 2689 N 427.537 -2.68068 -3.77503 0
M  V30 2690 H 424.698 -5.40332 -6.79951 0
M  V30 2691 H 424.428 -4.41613 -5.32378 0
M  V30 2692 H 425.295 -3.26331 -7.47797 0
M  V30 2693 P 429.257 -2.75334 -8.47391 0
M  V30 2694 O 429.477 -2.44595 -9.90239 0
M  V30 2695 O 430.047 -3.87732 -7.92204 0
M  V30 2696 O 429.507 -1.4459 -7.59357 0
M  V30 2697 C 428.567 -0.347563 -7.69115 0
M  V30 2698 C 429.297 0.96767 -7.52806 0
M  V30 2699 O 429.507 1.21036 -6.1011 0
M  V30 2700 C 430.697 1.04544 -8.13308 0
M  V30 2701 O 431.087 2.38311 -8.41922 0
M  V30 2702 C 431.577 0.491279 -7.02284 0
M  V30 2703 C 430.867 0.996264 -5.77469 0
M  V30 2704 N 430.917 0.0501808 -4.62873 0
M  V30 2705 C 431.067 0.588177 -3.36904 0
M  V30 2706 O 431.157 1.78598 -3.17173 0
M  V30 2707 N 431.107 -0.329694 -2.33686 0
M  V30 2708 C 431.017 -1.6953 -2.45079 0
M  V30 2709 O 431.067 -2.41926 -1.44899 0
M  V30 2710 C 430.867 -2.16933 -3.80505 0
M  V30 2711 C 430.757 -3.65373 -3.97621 0
M  V30 2712 C 430.817 -1.30326 -4.83752 0
M  V30 2713 H 428.077 -0.374722 -8.67691 0
M  V30 2714 H 427.808 -0.443421 -6.90177 0
M  V30 2715 H 428.675 1.75537 -7.96793 0
M  V30 2716 H 431.33 1.94496 -5.46629 0
M  V30 2717 H 431.609 -0.608651 -7.04676 0
M  V30 2718 H 432.601 0.889672 -7.08939 0
M  V30 2719 H 430.767 0.43308 -9.04564 0
M  V30 2720 H 430.696 -1.68366 -5.8516 0
M  V30 2721 H 431.726 -4.05985 -4.30448 0
M  V30 2722 H 429.989 -3.88028 -4.72875 0
M  V30 2723 H 430.477 -4.11381 -3.01609 0
M  V30 2724 H 431.213 0.0393617 -1.41345 0
M  V30 2725 P 432.637 2.75334 -8.47391 0
M  V30 2726 O 432.857 3.84128 -9.44797 0
M  V30 2727 O 433.427 1.51947 -8.68712 0
M  V30 2728 O 432.887 3.29363 -6.99321 0
M  V30 2729 C 431.947 4.24011 -6.4274 0
M  V30 2730 C 432.677 5.20775 -5.52155 0
M  V30 2731 O 432.887 4.56534 -4.22446 0
M  V30 2732 C 434.077 5.62629 -5.96531 0
M  V30 2733 O 434.467 6.87667 -5.41053 0
M  V30 2734 C 434.957 4.52537 -5.39283 0
M  V30 2735 C 434.247 4.20027 -4.08623 0
M  V30 2736 N 434.297 2.76189 -3.71603 0
M  V30 2737 H 431.458 4.797 -7.24003 0
M  V30 2738 H 431.188 3.69856 -5.84513 0
M  V30 2739 H 432.055 6.10356 -5.41441 0
M  V30 2740 P 436.017 7.20834 -5.23717 0
M  V30 2741 O 436.237 8.66104 -5.38572 0
M  V30 2742 O 436.807 6.33544 -6.1349 0
M  V30 2743 O 436.267 6.7751 -3.72168 0
M  V30 2744 C 435.327 7.20825 -2.7076 0
M  V30 2745 C 436.057 7.45864 -1.40599 0
M  V30 2746 O 436.267 6.17651 -0.734225 0
M  V30 2747 C 437.457 8.05808 -1.51899 0
M  V30 2748 O 437.847 8.74358 -0.335205 0
M  V30 2749 C 438.337 6.83093 -1.70294 0
M  V30 2750 C 437.627 5.79992 -0.836974 0
M  V30 2751 N 437.677 4.41864 -1.38293 0
M  V30 2752 H 434.838 8.13644 -3.0377 0
M  V30 2753 H 434.568 6.42788 -2.55485 0
M  V30 2754 H 435.435 8.12039 -0.792769 0
M  V30 2755 P 439.397 8.91 2.44069e-12 0
M  V30 2756 O 439.617 10.1726 0.733694 0
M  V30 2757 O 440.187 8.73148 -1.23936 0
M  V30 2758 O 439.647 7.66872 0.971405 0
M  V30 2759 C 438.707 7.42309 2.04641 0
M  V30 2760 C 439.437 6.86059 3.24661 0
M  V30 2761 O 439.647 5.42847 3.03646 0
M  V30 2762 C 440.837 7.41196 3.50753 0
M  V30 2763 O 441.227 7.27073 4.86816 0
M  V30 2764 C 441.717 6.5273 2.63741 0
M  V30 2765 C 441.007 5.1842 2.73198 0
M  V30 2766 N 441.057 4.38762 1.4784 0
M  V30 2767 H 438.218 8.36803 2.32493 0
M  V30 2768 H 437.948 6.70197 1.71129 0
M  V30 2769 H 438.815 7.03551 4.13168 0
M  V30 2770 P 442.777 7.20834 5.23717 0
M  V30 2771 O 442.997 7.79853 6.57286 0
M  V30 2772 O 443.567 7.79239 4.12957 0
M  V30 2773 O 443.027 5.63315 5.29344 0
M  V30 2774 C 442.087 4.80255 6.01876 0
M  V30 2775 C 442.817 3.64202 6.65911 0
M  V30 2776 O 443.027 2.60694 5.64732 0
M  V30 2777 C 444.217 3.93473 7.1943 0
M  V30 2778 O 444.607 3.02071 8.21205 0
M  V30 2779 C 445.097 3.73047 5.97036 0
M  V30 2780 C 444.387 2.58828 5.25741 0
M  V30 2781 N 444.437 2.68068 3.77503 0
M  V30 2782 H 441.598 5.40332 6.79951 0
M  V30 2783 H 441.328 4.41613 5.32378 0
M  V30 2784 H 442.195 3.26331 7.47797 0
M  V30 2785 P 446.157 2.75334 8.47391 0
M  V30 2786 O 446.377 2.44571 9.90142 0
M  V30 2787 O 446.947 3.87688 7.92115 0
M  V30 2788 O 446.407 1.4459 7.59357 0
M  V30 2789 C 445.467 0.347608 7.69215 0
M  V30 2790 C 446.197 -0.96767 7.52806 0
M  V30 2791 O 446.407 -1.21036 6.1011 0
M  V30 2792 C 447.597 -1.04544 8.13308 0
M  V30 2793 O 447.987 -2.38311 8.41922 0
M  V30 2794 C 448.477 -0.491279 7.02284 0
M  V30 2795 C 447.767 -0.996264 5.77469 0
M  V30 2796 N 447.817 -0.0501916 4.62973 0
M  V30 2797 H 444.978 0.374722 8.67691 0
M  V30 2798 H 444.708 0.443485 6.90277 0
M  V30 2799 H 445.575 -1.75537 7.96793 0
M  V30 2800 P 449.537 -2.75334 8.47391 0
M  V30 2801 O 449.757 -3.84204 9.44982 0
M  V30 2802 O 450.327 -1.51982 8.68909 0
M  V30 2803 O 449.787 -3.29363 6.99321 0
M  V30 2804 C 448.847 -4.24066 6.42823 0
M  V30 2805 C 449.577 -5.20775 5.52155 0
M  V30 2806 O 449.787 -4.56607 4.22514 0
M  V30 2807 C 450.977 -5.62697 5.96604 0
M  V30 2808 O 451.367 -6.87667 5.41053 0
M  V30 2809 C 451.857 -4.52537 5.39283 0
M  V30 2810 C 451.147 -4.20027 4.08623 0
M  V30 2811 N 451.197 -2.76189 3.71603 0
M  V30 2812 H 448.359 -4.79756 7.24086 0
M  V30 2813 H 448.087 -3.69963 5.84682 0
M  V30 2814 H 448.955 -6.10431 5.41508 0
M  V30 2815 H 451.61 -4.78816 3.28024 0
M  V30 2816 H 451.89 -3.64957 6.05871 0
M  V30 2817 H 452.881 -4.88748 5.21323 0
M  V30 2818 H 451.047 -5.66789 7.0643 0
M  V30 2819 P 452.917 -7.20834 5.23717 0
M  V30 2820 O 453.137 -8.66104 5.38572 0
M  V30 2821 O 453.707 -6.33544 6.1349 0
M  V30 2822 O 453.167 -6.7751 3.72168 0
M  V30 2823 C 452.227 -7.20825 2.7076 0
M  V30 2824 C 452.957 -7.45864 1.40599 0
M  V30 2825 O 453.167 -6.17651 0.734225 0
M  V30 2826 C 454.357 -8.05808 1.51899 0
M  V30 2827 O 454.747 -8.74358 0.335205 0
M  V30 2828 C 455.237 -6.83093 1.70294 0
M  V30 2829 C 454.527 -5.79992 0.836974 0
M  V30 2830 N 454.577 -4.41864 1.38293 0
M  V30 2831 H 451.738 -8.13644 3.0377 0
M  V30 2832 H 451.468 -6.42788 2.55485 0
M  V30 2833 H 452.335 -8.12039 0.792769 0
M  V30 2834 P 456.297 -8.91 -2.59788e-12 0
M  V30 2835 O 456.517 -10.1726 -0.733694 0
M  V30 2836 O 457.087 -8.73148 1.23936 0
M  V30 2837 O 456.547 -7.66872 -0.971405 0
M  V30 2838 C 455.607 -7.42309 -2.04641 0
M  V30 2839 C 456.337 -6.86059 -3.24661 0
M  V30 2840 O 456.547 -5.42847 -3.03646 0
M  V30 2841 C 457.737 -7.41196 -3.50753 0
M  V30 2842 O 458.127 -7.27073 -4.86816 0
M  V30 2843 C 458.617 -6.5273 -2.63741 0
M  V30 2844 C 457.907 -5.1842 -2.73198 0
M  V30 2845 N 457.957 -4.38762 -1.4784 0
M  V30 2846 H 455.118 -8.36803 -2.32493 0
M  V30 2847 H 454.848 -6.70197 -1.71129 0
M  V30 2848 H 455.715 -7.03551 -4.13168 0
M  V30 2849 P 459.677 -7.20834 -5.23717 0
M  V30 2850 O 459.897 -7.79853 -6.57286 0
M  V30 2851 O 460.467 -7.79239 -4.12957 0
M  V30 2852 O 459.927 -5.63315 -5.29344 0
M  V30 2853 C 458.987 -4.80255 -6.01876 0
M  V30 2854 C 459.717 -3.64202 -6.65911 0
M  V30 2855 O 459.927 -2.60694 -5.64732 0
M  V30 2856 C 461.117 -3.93473 -7.1943 0
M  V30 2857 O 461.507 -3.02071 -8.21205 0
M  V30 2858 C 461.997 -3.73047 -5.97036 0
M  V30 2859 C 461.287 -2.58828 -5.25741 0
M  V30 2860 N 461.337 -2.68068 -3.77503 0
M  V30 2861 H 458.498 -5.40332 -6.79951 0
M  V30 2862 H 458.228 -4.41613 -5.32378 0
M  V30 2863 H 459.095 -3.26331 -7.47797 0
M  V30 2864 P 463.057 -2.75334 -8.47391 0
M  V30 2865 O 463.277 -2.44571 -9.90142 0
M  V30 2866 O 463.847 -3.87688 -7.92115 0
M  V30 2867 O 463.307 -1.4459 -7.59357 0
M  V30 2868 C 462.367 -0.347608 -7.69215 0
M  V30 2869 C 463.097 0.96767 -7.52806 0
M  V30 2870 O 463.307 1.21036 -6.1011 0
M  V30 2871 C 464.497 1.04544 -8.13308 0
M  V30 2872 O 464.887 2.38311 -8.41922 0
M  V30 2873 C 465.377 0.491279 -7.02284 0
M  V30 2874 C 464.667 0.996264 -5.77469 0
M  V30 2875 N 464.717 0.0501916 -4.62973 0
M  V30 2876 H 461.878 -0.374722 -8.67691 0
M  V30 2877 H 461.608 -0.443485 -6.90277 0
M  V30 2878 H 462.475 1.75537 -7.96793 0
M  V30 2879 P 466.437 2.75334 -8.47391 0
M  V30 2880 O 466.657 3.84128 -9.44797 0
M  V30 2881 O 467.227 1.51947 -8.68712 0
M  V30 2882 O 466.687 3.29363 -6.99321 0
M  V30 2883 C 465.747 4.24011 -6.4274 0
M  V30 2884 C 466.477 5.20775 -5.52155 0
M  V30 2885 O 466.687 4.56534 -4.22446 0
M  V30 2886 C 467.877 5.62629 -5.96531 0
M  V30 2887 O 468.267 6.87667 -5.41053 0
M  V30 2888 C 468.757 4.52537 -5.39283 0
M  V30 2889 C 468.047 4.20027 -4.08623 0
M  V30 2890 N 468.097 2.76189 -3.71603 0
M  V30 2891 H 465.258 4.797 -7.24003 0
M  V30 2892 H 464.988 3.69856 -5.84513 0
M  V30 2893 H 465.855 6.10356 -5.41441 0
M  V30 2894 P 469.817 7.20834 -5.23717 0
M  V30 2895 O 470.037 8.66104 -5.38572 0
M  V30 2896 O 470.607 6.33544 -6.1349 0
M  V30 2897 O 470.067 6.7751 -3.72168 0
M  V30 2898 C 469.127 7.20825 -2.7076 0
M  V30 2899 C 469.857 7.45864 -1.40599 0
M  V30 2900 O 470.067 6.17651 -0.734225 0
M  V30 2901 C 471.257 8.05808 -1.51899 0
M  V30 2902 O 471.647 8.74358 -0.335205 0
M  V30 2903 C 472.137 6.83093 -1.70294 0
M  V30 2904 C 471.427 5.79992 -0.836974 0
M  V30 2905 N 471.477 4.41864 -1.38293 0
M  V30 2906 C 471.397 3.99538 -2.69438 0
M  V30 2907 N 471.477 2.69909 -2.84277 0
M  V30 2908 C 471.617 2.21719 -1.5408 0
M  V30 2909 C 471.747 0.891712 -1.06628 0
M  V30 2910 N 471.867 0.856846 0.334985 0
M  V30 2911 C 471.867 1.9641 1.15789 0
M  V30 2912 N 471.997 1.72708 2.46522 0
M  V30 2913 N 471.737 3.21165 0.713741 0
M  V30 2914 C 471.617 3.26797 -0.639748 0
M  V30 2915 H 468.638 8.13644 -3.0377 0
M  V30 2916 H 468.368 6.42788 -2.55485 0
M  V30 2917 H 469.235 8.12039 -0.792769 0
M  V30 2918 P 473.197 8.91 2.75506e-12 0
M  V30 2919 O 473.417 10.1726 0.733694 0
M  V30 2920 O 473.987 8.73148 -1.23936 0
M  V30 2921 O 473.447 7.66872 0.971405 0
M  V30 2922 C 472.507 7.42309 2.04641 0
M  V30 2923 C 473.237 6.86059 3.24661 0
M  V30 2924 O 473.447 5.42847 3.03646 0
M  V30 2925 C 474.637 7.41196 3.50753 0
M  V30 2926 O 475.027 7.27073 4.86816 0
M  V30 2927 C 475.517 6.5273 2.63741 0
M  V30 2928 C 474.807 5.1842 2.73198 0
M  V30 2929 N 474.857 4.38762 1.4784 0
M  V30 2930 H 472.018 8.36803 2.32493 0
M  V30 2931 H 471.748 6.70197 1.71129 0
M  V30 2932 H 472.615 7.03551 4.13168 0
M  V30 2933 P 476.577 7.20834 5.23717 0
M  V30 2934 O 476.797 7.79853 6.57286 0
M  V30 2935 O 477.367 7.79239 4.12957 0
M  V30 2936 O 476.827 5.63315 5.29344 0
M  V30 2937 C 475.887 4.80255 6.01876 0
M  V30 2938 C 476.617 3.64202 6.65911 0
M  V30 2939 O 476.827 2.60694 5.64732 0
M  V30 2940 C 478.017 3.93473 7.1943 0
M  V30 2941 O 478.407 3.02071 8.21205 0
M  V30 2942 C 478.897 3.73047 5.97036 0
M  V30 2943 C 478.187 2.58828 5.25741 0
M  V30 2944 N 478.237 2.68068 3.77503 0
M  V30 2945 C 478.157 3.79715 2.96723 0
M  V30 2946 N 478.237 3.5377 1.68852 0
M  V30 2947 C 478.377 2.15054 1.63254 0
M  V30 2948 C 478.507 1.28964 0.518571 0
M  V30 2949 N 478.627 -0.0538097 0.918425 0
M  V30 2950 C 478.627 -0.494275 2.22578 0
M  V30 2951 N 478.757 -1.81086 2.40434 0
M  V30 2952 N 478.497 0.313645 3.27502 0
M  V30 2953 C 478.377 1.61829 2.91033 0
M  V30 2954 H 475.398 5.40332 6.79951 0
M  V30 2955 H 475.128 4.41613 5.32378 0
M  V30 2956 H 475.995 3.26331 7.47797 0
M  V30 2957 P 479.957 2.75334 8.47391 0
M  V30 2958 O 480.177 2.44571 9.90142 0
M  V30 2959 O 480.747 3.87688 7.92115 0
M  V30 2960 O 480.207 1.4459 7.59357 0
M  V30 2961 C 479.267 0.347608 7.69215 0
M  V30 2962 C 479.997 -0.96767 7.52806 0
M  V30 2963 O 480.207 -1.21036 6.1011 0
M  V30 2964 C 481.397 -1.04544 8.13308 0
M  V30 2965 O 481.787 -2.38311 8.41922 0
M  V30 2966 C 482.277 -0.491279 7.02284 0
M  V30 2967 C 481.567 -0.996264 5.77469 0
M  V30 2968 N 481.617 -0.0501916 4.62973 0
M  V30 2969 H 478.778 0.374722 8.67691 0
M  V30 2970 H 478.508 0.443485 6.90277 0
M  V30 2971 H 479.375 -1.75537 7.96793 0
M  V30 2972 P 483.337 -2.75334 8.47391 0
M  V30 2973 O 483.557 -3.84204 9.44982 0
M  V30 2974 O 484.127 -1.51982 8.68909 0
M  V30 2975 O 483.587 -3.29363 6.99321 0
M  V30 2976 C 482.647 -4.24066 6.42823 0
M  V30 2977 C 483.377 -5.20775 5.52155 0
M  V30 2978 O 483.587 -4.56607 4.22514 0
M  V30 2979 C 484.777 -5.62697 5.96604 0
M  V30 2980 O 485.167 -6.87667 5.41053 0
M  V30 2981 C 485.657 -4.52537 5.39283 0
M  V30 2982 C 484.947 -4.20027 4.08623 0
M  V30 2983 N 484.997 -2.76189 3.71603 0
M  V30 2984 H 482.159 -4.79756 7.24086 0
M  V30 2985 H 481.887 -3.69963 5.84682 0
M  V30 2986 H 482.755 -6.10431 5.41508 0
M  V30 2987 H 485.41 -4.78816 3.28024 0
M  V30 2988 H 485.69 -3.64957 6.05871 0
M  V30 2989 H 486.681 -4.88748 5.21323 0
M  V30 2990 H 484.847 -5.66789 7.0643 0
M  V30 2991 P 486.717 -7.20834 5.23717 0
M  V30 2992 O 486.937 -8.66104 5.38572 0
M  V30 2993 O 487.507 -6.33544 6.1349 0
M  V30 2994 O 486.967 -6.7751 3.72168 0
M  V30 2995 C 486.027 -7.20825 2.7076 0
M  V30 2996 C 486.757 -7.45864 1.40599 0
M  V30 2997 O 486.967 -6.17651 0.734225 0
M  V30 2998 C 488.157 -8.05808 1.51899 0
M  V30 2999 O 488.547 -8.74358 0.335205 0
M  V30 3000 C 489.037 -6.83093 1.70294 0
M  V30 3001 C 488.327 -5.79992 0.836974 0
M  V30 3002 N 488.377 -4.41864 1.38293 0
M  V30 3003 H 485.538 -8.13644 3.0377 0
M  V30 3004 H 485.268 -6.42788 2.55485 0
M  V30 3005 H 486.135 -8.12039 0.792769 0
M  V30 3006 P 490.097 -8.91 -2.91224e-12 0
M  V30 3007 O 490.317 -10.1726 -0.733694 0
M  V30 3008 O 490.887 -8.73148 1.23936 0
M  V30 3009 O 490.347 -7.66872 -0.971405 0
M  V30 3010 C 489.407 -7.42309 -2.04641 0
M  V30 3011 C 490.137 -6.86059 -3.24661 0
M  V30 3012 O 490.347 -5.42847 -3.03646 0
M  V30 3013 C 491.537 -7.41196 -3.50753 0
M  V30 3014 O 491.927 -7.27073 -4.86816 0
M  V30 3015 C 492.417 -6.5273 -2.63741 0
M  V30 3016 C 491.707 -5.1842 -2.73198 0
M  V30 3017 N 491.757 -4.38762 -1.4784 0
M  V30 3018 H 488.918 -8.36803 -2.32493 0
M  V30 3019 H 488.648 -6.70197 -1.71129 0
M  V30 3020 H 489.515 -7.03551 -4.13168 0
M  V30 3021 P 493.477 -7.20834 -5.23717 0
M  V30 3022 O 493.697 -7.79853 -6.57286 0
M  V30 3023 O 494.267 -7.79239 -4.12957 0
M  V30 3024 O 493.727 -5.63315 -5.29344 0
M  V30 3025 C 492.787 -4.80255 -6.01876 0
M  V30 3026 C 493.517 -3.64202 -6.65911 0
M  V30 3027 O 493.727 -2.60694 -5.64732 0
M  V30 3028 C 494.917 -3.93473 -7.1943 0
M  V30 3029 O 495.307 -3.02071 -8.21205 0
M  V30 3030 C 495.797 -3.73047 -5.97036 0
M  V30 3031 C 495.087 -2.58828 -5.25741 0
M  V30 3032 N 495.137 -2.68068 -3.77503 0
M  V30 3033 C 495.057 -3.79715 -2.96723 0
M  V30 3034 N 495.137 -3.5377 -1.68852 0
M  V30 3035 C 495.277 -2.15054 -1.63254 0
M  V30 3036 C 495.407 -1.28964 -0.518571 0
M  V30 3037 O 495.427 -1.56826 0.679156 0
M  V30 3038 N 495.527 0.0538097 -0.918425 0
M  V30 3039 C 495.527 0.494275 -2.22578 0
M  V30 3040 N 495.657 1.81086 -2.40434 0
M  V30 3041 N 495.397 -0.313645 -3.27502 0
M  V30 3042 C 495.277 -1.61829 -2.91033 0
M  V30 3043 H 492.298 -5.40332 -6.79951 0
M  V30 3044 H 492.028 -4.41613 -5.32378 0
M  V30 3045 H 492.895 -3.26331 -7.47797 0
M  V30 3046 H 495.55 -1.63422 -5.56814 0
M  V30 3047 H 495.829 -4.63374 -5.34244 0
M  V30 3048 H 496.821 -3.44728 -6.25838 0
M  V30 3049 H 494.987 -4.96652 -7.57263 0
M  V30 3050 H 494.938 -4.80617 -3.3614 0
M  V30 3051 H 495.62 0.742702 -0.199384 0
M  V30 3052 H 495.657 2.20598 -3.35588 0
M  V30 3053 H 495.758 2.43518 -1.58945 0
M  V30 3054 P 496.857 -2.75334 -8.47391 0
M  V30 3055 O 497.077 -2.44571 -9.90142 0
M  V30 3056 O 497.647 -3.87688 -7.92115 0
M  V30 3057 O 497.107 -1.4459 -7.59357 0
M  V30 3058 C 496.167 -0.347608 -7.69215 0
M  V30 3059 C 496.897 0.96767 -7.52806 0
M  V30 3060 O 497.107 1.21036 -6.1011 0
M  V30 3061 C 498.297 1.04544 -8.13308 0
M  V30 3062 O 498.687 2.38311 -8.41922 0
M  V30 3063 C 499.177 0.491279 -7.02284 0
M  V30 3064 C 498.467 0.996264 -5.77469 0
M  V30 3065 N 498.517 0.0501916 -4.62973 0
M  V30 3066 H 495.678 -0.374722 -8.67691 0
M  V30 3067 H 495.408 -0.443485 -6.90277 0
M  V30 3068 H 496.275 1.75537 -7.96793 0
M  V30 3069 P 500.237 2.75334 -8.47391 0
M  V30 3070 O 500.457 3.84166 -9.4489 0
M  V30 3071 O 501.027 1.51964 -8.6881 0
M  V30 3072 O 500.487 3.29363 -6.99321 0
M  V30 3073 C 499.547 4.23956 -6.42656 0
M  V30 3074 C 500.277 5.20775 -5.52155 0
M  V30 3075 O 500.487 4.56534 -4.22446 0
M  V30 3076 C 501.677 5.62629 -5.96531 0
M  V30 3077 O 502.067 6.87667 -5.41053 0
M  V30 3078 C 502.557 4.52537 -5.39283 0
M  V30 3079 C 501.847 4.20027 -4.08623 0
M  V30 3080 N 501.897 2.7613 -3.71522 0
M  V30 3081 C 502.047 2.45612 -2.37989 0
M  V30 3082 O 502.137 3.30919 -1.51621 0
M  V30 3083 N 502.087 1.10684 -2.08435 0
M  V30 3084 C 501.997 0.0690084 -2.9792 0
M  V30 3085 O 502.047 -1.10553 -2.59426 0
M  V30 3086 C 501.847 0.481522 -4.35345 0
M  V30 3087 C 501.737 -0.618778 -5.36443 0
M  V30 3088 C 501.797 1.78906 -4.67968 0
M  V30 3089 H 499.057 4.797 -7.24003 0
M  V30 3090 H 498.788 3.69802 -5.84429 0
M  V30 3091 H 499.655 6.10356 -5.41441 0
M  V30 3092 H 502.31 4.78651 -3.27911 0
M  V30 3093 H 502.589 3.64957 -6.05871 0
M  V30 3094 H 503.581 4.8868 -5.2125 0
M  V30 3095 H 501.747 5.66726 -7.06352 0
M  V30 3096 H 501.676 2.07737 -5.72367 0
M  V30 3097 H 502.706 -0.754375 -5.86871 0
M  V30 3098 H 500.969 -0.359721 -6.10641 0
M  V30 3099 H 501.457 -1.55533 -4.8581 0
M  V30 3100 H 502.193 0.862651 -1.12037 0
M  V30 3101 P 503.617 7.20834 -5.23717 0
M  V30 3102 O 503.837 8.66104 -5.38572 0
M  V30 3103 O 504.407 6.33544 -6.1349 0
M  V30 3104 O 503.867 6.7751 -3.72168 0
M  V30 3105 C 502.927 7.20825 -2.7076 0
M  V30 3106 C 503.657 7.45864 -1.40599 0
M  V30 3107 O 503.867 6.17651 -0.734225 0
M  V30 3108 C 505.057 8.05808 -1.51899 0
M  V30 3109 O 505.447 8.74358 -0.335205 0
M  V30 3110 C 505.937 6.83093 -1.70294 0
M  V30 3111 C 505.227 5.79992 -0.836974 0
M  V30 3112 N 505.277 4.41864 -1.38293 0
M  V30 3113 C 505.197 3.99538 -2.69438 0
M  V30 3114 N 505.277 2.69909 -2.84277 0
M  V30 3115 C 505.417 2.21719 -1.5408 0
M  V30 3116 C 505.547 0.891712 -1.06628 0
M  V30 3117 O 505.567 -0.161298 -1.70137 0
M  V30 3118 N 505.667 0.856846 0.334985 0
M  V30 3119 C 505.667 1.9641 1.15789 0
M  V30 3120 N 505.797 1.72708 2.46522 0
M  V30 3121 N 505.537 3.21165 0.713741 0
M  V30 3122 C 505.417 3.26797 -0.639748 0
M  V30 3123 H 502.438 8.13644 -3.0377 0
M  V30 3124 H 502.168 6.42788 -2.55485 0
M  V30 3125 H 503.035 8.12039 -0.792769 0
M  V30 3126 H 505.69 5.80061 0.166416 0
M  V30 3127 H 505.969 6.51287 -2.75604 0
M  V30 3128 H 506.961 7.01734 -1.34462 0
M  V30 3129 H 505.127 8.73674 -2.38337 0
M  V30 3130 H 505.078 4.68207 -3.53221 0
M  V30 3131 H 505.76 -0.0398818 0.767965 0
M  V30 3132 H 505.797 2.50995 3.13503 0
M  V30 3133 H 505.898 0.759148 2.80716 0
M  V30 3134 P 506.997 8.91 3.06942e-12 0
M  V30 3135 O 507.217 10.1726 0.733694 0
M  V30 3136 O 507.787 8.73148 -1.23936 0
M  V30 3137 O 507.247 7.66872 0.971405 0
M  V30 3138 C 506.307 7.42309 2.04641 0
M  V30 3139 C 507.037 6.86059 3.24661 0
M  V30 3140 O 507.247 5.42847 3.03646 0
M  V30 3141 C 508.437 7.41196 3.50753 0
M  V30 3142 O 508.827 7.27073 4.86816 0
M  V30 3143 C 509.317 6.5273 2.63741 0
M  V30 3144 C 508.607 5.1842 2.73198 0
M  V30 3145 N 508.657 4.38762 1.4784 0
M  V30 3146 H 505.818 8.36803 2.32493 0
M  V30 3147 H 505.548 6.70197 1.71129 0
M  V30 3148 H 506.415 7.03551 4.13168 0
M  V30 3149 P 510.377 7.20834 5.23717 0
M  V30 3150 O 510.597 7.7993 6.57351 0
M  V30 3151 O 511.167 7.79328 4.13004 0
M  V30 3152 O 510.627 5.63315 5.29344 0
M  V30 3153 C 509.687 4.80193 6.01798 0
M  V30 3154 C 510.417 3.64202 6.65911 0
M  V30 3155 O 510.627 2.60694 5.64732 0
M  V30 3156 C 511.817 3.93473 7.1943 0
M  V30 3157 O 512.207 3.02071 8.21205 0
M  V30 3158 C 512.697 3.73047 5.97036 0
M  V30 3159 C 511.987 2.58828 5.25741 0
M  V30 3160 N 512.037 2.6801 3.77422 0
M  V30 3161 C 512.187 1.50443 3.07133 0
M  V30 3162 O 512.277 0.419406 3.61576 0
M  V30 3163 N 512.227 1.6403 1.69677 0
M  V30 3164 C 512.137 2.81206 0.986255 0
M  V30 3165 O 512.187 2.80892 -0.249754 0
M  V30 3166 C 511.987 3.99158 1.80325 0
M  V30 3167 C 511.877 5.29309 1.06921 0
M  V30 3168 C 511.937 3.89779 3.1476 0
M  V30 3169 H 509.197 5.40332 6.79951 0
M  V30 3170 H 508.928 4.41549 5.32301 0
M  V30 3171 H 509.795 3.26331 7.47797 0
M  V30 3172 H 512.45 1.6395 5.56554 0
M  V30 3173 H 512.729 4.63439 5.3432 0
M  V30 3174 H 513.721 3.44728 6.25838 0
M  V30 3175 H 511.887 4.96652 7.57263 0
M  V30 3176 H 511.816 4.80159 3.74441 0
M  V30 3177 H 512.846 5.81459 1.09608 0
M  V30 3178 H 511.109 5.9187 1.54487 0
M  V30 3179 H 511.597 5.10095 0.0220288 0
M  V30 3180 H 512.333 0.798962 1.16664 0
M  V30 3181 P 513.757 2.75334 8.47391 0
M  V30 3182 O 513.977 2.44571 9.90142 0
M  V30 3183 O 514.547 3.87688 7.92115 0
M  V30 3184 O 514.007 1.4459 7.59357 0
M  V30 3185 C 513.067 0.347608 7.69215 0
M  V30 3186 C 513.797 -0.96767 7.52806 0
M  V30 3187 O 514.007 -1.21036 6.1011 0
M  V30 3188 C 515.197 -1.04544 8.13308 0
M  V30 3189 O 515.587 -2.38311 8.41922 0
M  V30 3190 C 516.077 -0.491279 7.02284 0
M  V30 3191 C 515.367 -0.996264 5.77469 0
M  V30 3192 N 515.417 -0.0501916 4.62973 0
M  V30 3193 H 512.578 0.374722 8.67691 0
M  V30 3194 H 512.308 0.443485 6.90277 0
M  V30 3195 H 513.175 -1.75537 7.96793 0
M  V30 3196 P 517.137 -2.75334 8.47391 0
M  V30 3197 O 517.357 -3.84128 9.44797 0
M  V30 3198 O 517.927 -1.51947 8.68712 0
M  V30 3199 O 517.387 -3.29363 6.99321 0
M  V30 3200 C 516.447 -4.24011 6.4274 0
M  V30 3201 C 517.177 -5.20775 5.52155 0
M  V30 3202 O 517.387 -4.56534 4.22446 0
M  V30 3203 C 518.577 -5.62629 5.96531 0
M  V30 3204 O 518.967 -6.87667 5.41053 0
M  V30 3205 C 519.457 -4.52537 5.39283 0
M  V30 3206 C 518.747 -4.20027 4.08623 0
M  V30 3207 N 518.797 -2.76189 3.71603 0
M  V30 3208 H 515.958 -4.797 7.24003 0
M  V30 3209 H 515.688 -3.69856 5.84513 0
M  V30 3210 H 516.555 -6.10356 5.41441 0
M  V30 3211 P 520.517 -7.20834 5.23717 0
M  V30 3212 O 520.737 -8.66104 5.38572 0
M  V30 3213 O 521.307 -6.33544 6.1349 0
M  V30 3214 O 520.767 -6.7751 3.72168 0
M  V30 3215 C 519.827 -7.20825 2.7076 0
M  V30 3216 C 520.557 -7.45864 1.40599 0
M  V30 3217 O 520.767 -6.17651 0.734225 0
M  V30 3218 C 521.957 -8.05808 1.51899 0
M  V30 3219 O 522.347 -8.74358 0.335205 0
M  V30 3220 C 522.837 -6.83093 1.70294 0
M  V30 3221 C 522.127 -5.79992 0.836974 0
M  V30 3222 N 522.177 -4.41864 1.38293 0
M  V30 3223 H 519.338 -8.13644 3.0377 0
M  V30 3224 H 519.068 -6.42788 2.55485 0
M  V30 3225 H 519.935 -8.12039 0.792769 0
M  V30 3226 P 523.897 -8.91 -3.22661e-12 0
M  V30 3227 O 524.117 -10.1726 -0.733694 0
M  V30 3228 O 524.687 -8.73148 1.23936 0
M  V30 3229 O 524.147 -7.66872 -0.971405 0
M  V30 3230 C 523.207 -7.42309 -2.04641 0
M  V30 3231 C 523.937 -6.86059 -3.24661 0
M  V30 3232 O 524.147 -5.42847 -3.03646 0
M  V30 3233 C 525.337 -7.41196 -3.50753 0
M  V30 3234 O 525.727 -7.27073 -4.86816 0
M  V30 3235 C 526.217 -6.5273 -2.63741 0
M  V30 3236 C 525.507 -5.1842 -2.73198 0
M  V30 3237 N 525.557 -4.38762 -1.4784 0
M  V30 3238 H 522.718 -8.36803 -2.32493 0
M  V30 3239 H 522.448 -6.70197 -1.71129 0
M  V30 3240 H 523.315 -7.03551 -4.13168 0
M  V30 3241 P 527.277 -7.20834 -5.23717 0
M  V30 3242 O 527.497 -7.79853 -6.57286 0
M  V30 3243 O 528.067 -7.79239 -4.12957 0
M  V30 3244 O 527.527 -5.63315 -5.29344 0
M  V30 3245 C 526.587 -4.80255 -6.01876 0
M  V30 3246 C 527.317 -3.64202 -6.65911 0
M  V30 3247 O 527.527 -2.60694 -5.64732 0
M  V30 3248 C 528.717 -3.93473 -7.1943 0
M  V30 3249 O 529.107 -3.02071 -8.21205 0
M  V30 3250 C 529.597 -3.73047 -5.97036 0
M  V30 3251 C 528.887 -2.58828 -5.25741 0
M  V30 3252 N 528.937 -2.68068 -3.77503 0
M  V30 3253 H 526.098 -5.40332 -6.79951 0
M  V30 3254 H 525.828 -4.41613 -5.32378 0
M  V30 3255 H 526.695 -3.26331 -7.47797 0
M  V30 3256 P 530.657 -2.75334 -8.47391 0
M  V30 3257 O 530.877 -2.44571 -9.90142 0
M  V30 3258 O 531.447 -3.87688 -7.92115 0
M  V30 3259 O 530.907 -1.4459 -7.59357 0
M  V30 3260 C 529.967 -0.347608 -7.69215 0
M  V30 3261 C 530.697 0.96767 -7.52806 0
M  V30 3262 O 530.907 1.21036 -6.1011 0
M  V30 3263 C 532.097 1.04544 -8.13308 0
M  V30 3264 O 532.487 2.38311 -8.41922 0
M  V30 3265 C 532.977 0.491279 -7.02284 0
M  V30 3266 C 532.267 0.996264 -5.77469 0
M  V30 3267 N 532.317 0.0501916 -4.62973 0
M  V30 3268 H 529.478 -0.374722 -8.67691 0
M  V30 3269 H 529.208 -0.443485 -6.90277 0
M  V30 3270 H 530.075 1.75537 -7.96793 0
M  V30 3271 P 534.037 2.75334 -8.47391 0
M  V30 3272 O 534.257 3.84128 -9.44797 0
M  V30 3273 O 534.827 1.51947 -8.68712 0
M  V30 3274 O 534.287 3.29363 -6.99321 0
M  V30 3275 C 533.347 4.24011 -6.4274 0
M  V30 3276 C 534.077 5.20775 -5.52155 0
M  V30 3277 O 534.287 4.56534 -4.22446 0
M  V30 3278 C 535.477 5.62629 -5.96531 0
M  V30 3279 O 535.867 6.87667 -5.41053 0
M  V30 3280 C 536.357 4.52537 -5.39283 0
M  V30 3281 C 535.647 4.20027 -4.08623 0
M  V30 3282 N 535.697 2.76189 -3.71603 0
M  V30 3283 H 532.858 4.797 -7.24003 0
M  V30 3284 H 532.588 3.69856 -5.84513 0
M  V30 3285 H 533.455 6.10356 -5.41441 0
M  V30 3286 P 537.417 7.20834 -5.23717 0
M  V30 3287 O 537.637 8.66104 -5.38572 0
M  V30 3288 O 538.207 6.33544 -6.1349 0
M  V30 3289 O 537.667 6.7751 -3.72168 0
M  V30 3290 C 536.727 7.20825 -2.7076 0
M  V30 3291 C 537.457 7.45864 -1.40599 0
M  V30 3292 O 537.667 6.17651 -0.734225 0
M  V30 3293 C 538.857 8.05808 -1.51899 0
M  V30 3294 O 539.247 8.74358 -0.335205 0
M  V30 3295 C 539.737 6.83093 -1.70294 0
M  V30 3296 C 539.027 5.79992 -0.836974 0
M  V30 3297 N 539.077 4.41864 -1.38293 0
M  V30 3298 C 538.997 3.99538 -2.69438 0
M  V30 3299 N 539.077 2.69909 -2.84277 0
M  V30 3300 C 539.217 2.21719 -1.5408 0
M  V30 3301 C 539.347 0.891712 -1.06628 0
M  V30 3302 N 539.467 0.856846 0.334985 0
M  V30 3303 C 539.467 1.9641 1.15789 0
M  V30 3304 N 539.597 1.72708 2.46522 0
M  V30 3305 N 539.337 3.21165 0.713741 0
M  V30 3306 C 539.217 3.26797 -0.639748 0
M  V30 3307 H 536.238 8.13644 -3.0377 0
M  V30 3308 H 535.968 6.42788 -2.55485 0
M  V30 3309 H 536.835 8.12039 -0.792769 0
M  V30 3310 P 540.797 8.91 3.38379e-12 0
M  V30 3311 O 541.017 10.1736 0.733766 0
M  V30 3312 O 541.587 8.73247 -1.2395 0
M  V30 3313 O 541.047 7.66872 0.971405 0
M  V30 3314 C 540.107 7.42212 2.04614 0
M  V30 3315 C 540.837 6.86059 3.24661 0
M  V30 3316 O 541.047 5.42847 3.03646 0
M  V30 3317 C 542.237 7.41196 3.50753 0
M  V30 3318 O 542.627 7.27073 4.86816 0
M  V30 3319 C 543.117 6.5273 2.63741 0
M  V30 3320 C 542.407 5.1842 2.73198 0
M  V30 3321 N 542.457 4.38668 1.47808 0
M  V30 3322 C 542.607 3.02239 1.60048 0
M  V30 3323 O 542.697 2.46459 2.67869 0
M  V30 3324 N 542.647 2.32436 0.408571 0
M  V30 3325 C 542.557 2.85471 -0.854993 0
M  V30 3326 C 542.407 4.28918 -0.887335 0
M  V30 3327 C 542.357 5.00349 0.255399 0
M  V30 3328 H 539.617 8.36803 2.32493 0
M  V30 3329 H 539.348 6.701 1.71105 0
M  V30 3330 H 540.215 7.03551 4.13168 0
M  V30 3331 H 542.87 4.59773 3.53894 0
M  V30 3332 H 543.149 6.88995 1.59871 0
M  V30 3333 H 544.141 6.46749 3.03687 0
M  V30 3334 H 542.307 8.46908 3.20714 0
M  V30 3335 H 542.236 6.08548 0.206986 0
M  V30 3336 P 544.177 7.20834 5.23717 0
M  V30 3337 O 544.397 7.79853 6.57286 0
M  V30 3338 O 544.967 7.79239 4.12957 0
M  V30 3339 O 544.427 5.63315 5.29344 0
M  V30 3340 C 543.487 4.80255 6.01876 0
M  V30 3341 C 544.217 3.64202 6.65911 0
M  V30 3342 O 544.427 2.60694 5.64732 0
M  V30 3343 C 545.617 3.93473 7.1943 0
M  V30 3344 O 546.007 3.02071 8.21205 0
M  V30 3345 C 546.497 3.73047 5.97036 0
M  V30 3346 C 545.787 2.58828 5.25741 0
M  V30 3347 N 545.837 2.68068 3.77503 0
M  V30 3348 H 542.998 5.40332 6.79951 0
M  V30 3349 H 542.728 4.41613 5.32378 0
M  V30 3350 H 543.595 3.26331 7.47797 0
M  V30 3351 P 547.557 2.75334 8.47391 0
M  V30 3352 O 547.777 2.44571 9.90142 0
M  V30 3353 O 548.347 3.87688 7.92115 0
M  V30 3354 O 547.807 1.4459 7.59357 0
M  V30 3355 C 546.867 0.347608 7.69215 0
M  V30 3356 C 547.597 -0.96767 7.52806 0
M  V30 3357 O 547.807 -1.21036 6.1011 0
M  V30 3358 C 548.997 -1.04544 8.13308 0
M  V30 3359 O 549.387 -2.38311 8.41922 0
M  V30 3360 C 549.877 -0.491279 7.02284 0
M  V30 3361 C 549.167 -0.996264 5.77469 0
M  V30 3362 N 549.217 -0.0501916 4.62973 0
M  V30 3363 H 546.378 0.374722 8.67691 0
M  V30 3364 H 546.108 0.443485 6.90277 0
M  V30 3365 H 546.975 -1.75537 7.96793 0
M  V30 3366 P 550.937 -2.75334 8.47391 0
M  V30 3367 O 551.157 -3.84128 9.44797 0
M  V30 3368 O 551.727 -1.51947 8.68712 0
M  V30 3369 O 551.187 -3.29363 6.99321 0
M  V30 3370 C 550.247 -4.24011 6.4274 0
M  V30 3371 C 550.977 -5.20775 5.52155 0
M  V30 3372 O 551.187 -4.56534 4.22446 0
M  V30 3373 C 552.377 -5.62629 5.96531 0
M  V30 3374 O 552.767 -6.87667 5.41053 0
M  V30 3375 C 553.257 -4.52537 5.39283 0
M  V30 3376 C 552.547 -4.20027 4.08623 0
M  V30 3377 N 552.597 -2.76189 3.71603 0
M  V30 3378 C 552.517 -1.64862 4.52822 0
M  V30 3379 N 552.597 -0.512671 3.88633 0
M  V30 3380 C 552.737 -0.888083 2.54977 0
M  V30 3381 C 552.867 -0.094668 1.38677 0
M  V30 3382 O 552.887 1.13053 1.28163 0
M  V30 3383 N 552.987 -0.890102 0.232633 0
M  V30 3384 C 552.987 -2.26958 0.21772 0
M  V30 3385 N 553.117 -2.84626 -0.97925 0
M  V30 3386 N 552.857 -3.0178 1.31033 0
M  V30 3387 C 552.737 -2.26781 2.43843 0
M  V30 3388 H 549.758 -4.797 7.24003 0
M  V30 3389 H 549.488 -3.69856 5.84513 0
M  V30 3390 H 550.355 -6.10356 5.41441 0
M  V30 3391 H 553.01 -4.79061 3.27488 0
M  V30 3392 H 553.289 -3.64906 6.05785 0
M  V30 3393 H 554.281 -4.8868 5.2125 0
M  V30 3394 H 552.447 -5.66726 7.06352 0
M  V30 3395 H 552.398 -1.71169 5.60966 0
M  V30 3396 H 553.08 -0.419134 -0.644739 0
M  V30 3397 H 553.117 -3.87332 -1.06098 0
M  V30 3398 H 553.218 -2.26417 -1.82483 0
M  V30 3399 P 554.317 -7.20834 5.23717 0
M  V30 3400 O 554.537 -8.66189 5.38625 0
M  V30 3401 O 555.107 -6.33615 6.1356 0
M  V30 3402 O 554.567 -6.7751 3.72168 0
M  V30 3403 C 553.627 -7.20825 2.7076 0
M  V30 3404 C 554.357 -7.45864 1.40599 0
M  V30 3405 O 554.567 -6.17651 0.734225 0
M  V30 3406 C 555.757 -8.05808 1.51899 0
M  V30 3407 O 556.147 -8.74358 0.335205 0
M  V30 3408 C 556.637 -6.83093 1.70294 0
M  V30 3409 C 555.927 -5.79992 0.836974 0
M  V30 3410 N 555.977 -4.41769 1.38263 0
M  V30 3411 C 556.127 -3.36514 0.485617 0
M  V30 3412 O 556.217 -3.61814 -0.724703 0
M  V30 3413 N 556.177 -2.00746 1.14492 0
M  V30 3414 C 556.077 -1.85887 2.27776 0
M  V30 3415 N 556.127 -0.600907 2.69379 0
M  V30 3416 C 555.927 -2.92182 3.22265 0
M  V30 3417 C 555.877 -4.18399 2.71925 0
M  V30 3418 H 553.137 -8.1355 3.03735 0
M  V30 3419 H 552.868 -6.42695 2.55448 0
M  V30 3420 H 553.735 -8.12139 0.792866 0
M  V30 3421 H 556.39 -5.80078 -0.160615 0
M  V30 3422 H 556.669 -6.51379 2.75643 0
M  V30 3423 H 557.661 -7.01734 1.34462 0
M  V30 3424 H 555.827 -8.73674 2.38337 0
M  V30 3425 H 555.755 -5.02669 3.39718 0
M  V30 3426 H 555.857 -2.73001 4.29239 0
M  V30 3427 H 556.245 0.162318 2.01146 0
M  V30 3428 H 556.048 -0.387742 3.69773 0
M  V30 3429 P 557.697 -8.91 -3.54097e-12 0
M  V30 3430 O 557.917 -10.1726 -0.733694 0
M  V30 3431 O 558.487 -8.73148 1.23936 0
M  V30 3432 O 557.947 -7.66872 -0.971405 0
M  V30 3433 C 557.007 -7.42309 -2.04641 0
M  V30 3434 C 557.737 -6.86059 -3.24661 0
M  V30 3435 O 557.947 -5.42847 -3.03646 0
M  V30 3436 C 559.137 -7.41196 -3.50753 0
M  V30 3437 O 559.527 -7.27073 -4.86816 0
M  V30 3438 C 560.017 -6.5273 -2.63741 0
M  V30 3439 C 559.307 -5.1842 -2.73198 0
M  V30 3440 N 559.357 -4.38762 -1.4784 0
M  V30 3441 H 556.518 -8.36803 -2.32493 0
M  V30 3442 H 556.248 -6.70197 -1.71129 0
M  V30 3443 H 557.115 -7.03551 -4.13168 0
M  V30 3444 P 561.077 -7.20834 -5.23717 0
M  V30 3445 O 561.297 -7.80006 -6.57415 0
M  V30 3446 O 561.867 -7.79416 -4.13051 0
M  V30 3447 O 561.327 -5.63315 -5.29344 0
M  V30 3448 C 560.387 -4.80318 -6.01954 0
M  V30 3449 C 561.117 -3.64202 -6.65911 0
M  V30 3450 O 561.327 -2.60736 -5.64823 0
M  V30 3451 C 562.517 -3.93521 -7.19518 0
M  V30 3452 O 562.907 -3.02071 -8.21205 0
M  V30 3453 C 563.397 -3.73047 -5.97036 0
M  V30 3454 C 562.687 -2.58828 -5.25741 0
M  V30 3455 N 562.737 -2.68068 -3.77503 0
M  V30 3456 H 559.899 -5.40394 -6.8003 0
M  V30 3457 H 559.627 -4.41741 -5.32532 0
M  V30 3458 H 560.495 -3.26371 -7.47889 0
M  V30 3459 H 563.15 -1.64007 -5.56746 0
M  V30 3460 H 563.43 -4.63439 -5.3432 0
M  V30 3461 H 564.421 -3.44776 -6.25925 0
M  V30 3462 H 562.587 -4.96707 -7.57347 0
M  V30 3463 P 564.457 -2.75334 -8.47391 0
M  V30 3464 O 564.677 -2.44571 -9.90142 0
M  V30 3465 O 565.247 -3.87688 -7.92115 0
M  V30 3466 O 564.707 -1.4459 -7.59357 0
M  V30 3467 C 563.767 -0.347608 -7.69215 0
M  V30 3468 C 564.497 0.96767 -7.52806 0
M  V30 3469 O 564.707 1.21036 -6.1011 0
M  V30 3470 C 565.897 1.04544 -8.13308 0
M  V30 3471 O 566.287 2.38311 -8.41922 0
M  V30 3472 C 566.777 0.491279 -7.02284 0
M  V30 3473 C 566.067 0.996264 -5.77469 0
M  V30 3474 N 566.117 0.0501916 -4.62973 0
M  V30 3475 H 563.278 -0.374722 -8.67691 0
M  V30 3476 H 563.008 -0.443485 -6.90277 0
M  V30 3477 H 563.875 1.75537 -7.96793 0
M  V30 3478 P 567.837 2.75334 -8.47391 0
M  V30 3479 O 568.057 3.84128 -9.44797 0
M  V30 3480 O 568.627 1.51947 -8.68712 0
M  V30 3481 O 568.087 3.29363 -6.99321 0
M  V30 3482 C 567.147 4.24011 -6.4274 0
M  V30 3483 C 567.877 5.20775 -5.52155 0
M  V30 3484 O 568.087 4.56534 -4.22446 0
M  V30 3485 C 569.277 5.62629 -5.96531 0
M  V30 3486 O 569.667 6.87667 -5.41053 0
M  V30 3487 C 570.157 4.52537 -5.39283 0
M  V30 3488 C 569.447 4.20027 -4.08623 0
M  V30 3489 N 569.497 2.76189 -3.71603 0
M  V30 3490 C 569.417 1.64862 -4.52822 0
M  V30 3491 N 569.497 0.512671 -3.88633 0
M  V30 3492 C 569.637 0.888083 -2.54977 0
M  V30 3493 C 569.767 0.094668 -1.38677 0
M  V30 3494 O 569.787 -1.13053 -1.28163 0
M  V30 3495 N 569.887 0.890102 -0.232633 0
M  V30 3496 C 569.887 2.26958 -0.21772 0
M  V30 3497 N 570.017 2.84626 0.97925 0
M  V30 3498 N 569.757 3.0178 -1.31033 0
M  V30 3499 C 569.637 2.26781 -2.43843 0
M  V30 3500 H 566.658 4.797 -7.24003 0
M  V30 3501 H 566.388 3.69856 -5.84513 0
M  V30 3502 H 567.255 6.10356 -5.41441 0
M  V30 3503 H 569.91 4.79061 -3.27488 0
M  V30 3504 H 570.189 3.64906 -6.05785 0
M  V30 3505 H 571.181 4.8868 -5.2125 0
M  V30 3506 H 569.347 5.66726 -7.06352 0
M  V30 3507 H 569.298 1.71169 -5.60966 0
M  V30 3508 H 569.98 0.419134 0.644739 0
M  V30 3509 H 570.017 3.87332 1.06098 0
M  V30 3510 H 570.118 2.26417 1.82483 0
M  V30 3511 P 571.217 7.20834 -5.23717 0
M  V30 3512 O 571.437 8.66104 -5.38572 0
M  V30 3513 O 572.007 6.33544 -6.1349 0
M  V30 3514 O 571.467 6.7751 -3.72168 0
M  V30 3515 C 570.527 7.20825 -2.7076 0
M  V30 3516 C 571.257 7.45864 -1.40599 0
M  V30 3517 O 571.467 6.17651 -0.734225 0
M  V30 3518 C 572.657 8.05808 -1.51899 0
M  V30 3519 O 573.047 8.74358 -0.335205 0
M  V30 3520 C 573.537 6.83093 -1.70294 0
M  V30 3521 C 572.827 5.79992 -0.836974 0
M  V30 3522 N 572.877 4.41864 -1.38293 0
M  V30 3523 H 570.038 8.13644 -3.0377 0
M  V30 3524 H 569.768 6.42788 -2.55485 0
M  V30 3525 H 570.635 8.12039 -0.792769 0
M  V30 3526 P 574.597 8.91 3.69815e-12 0
M  V30 3527 O 574.817 10.1746 0.733838 0
M  V30 3528 O 575.387 8.73346 -1.23964 0
M  V30 3529 O 574.847 7.66872 0.971405 0
M  V30 3530 C 573.907 7.42405 2.04668 0
M  V30 3531 C 574.637 6.86059 3.24661 0
M  V30 3532 O 574.847 5.42934 3.03695 0
M  V30 3533 C 576.037 7.41287 3.50796 0
M  V30 3534 O 576.427 7.27073 4.86816 0
M  V30 3535 C 576.917 6.5273 2.63741 0
M  V30 3536 C 576.207 5.1842 2.73198 0
M  V30 3537 N 576.257 4.38762 1.4784 0
M  V30 3538 H 573.419 8.36899 2.3252 0
M  V30 3539 H 573.147 6.70391 1.71179 0
M  V30 3540 H 574.015 7.03638 4.13219 0
M  V30 3541 H 576.67 4.59931 3.54016 0
M  V30 3542 H 576.95 6.88995 1.59871 0
M  V30 3543 H 577.941 6.4684 3.0373 0
M  V30 3544 H 576.107 8.47002 3.20749 0
M  V30 3545 P 577.977 7.20834 5.23717 0
M  V30 3546 O 578.197 7.79853 6.57286 0
M  V30 3547 O 578.767 7.79239 4.12957 0
M  V30 3548 O 578.227 5.63315 5.29344 0
M  V30 3549 C 577.287 4.80255 6.01876 0
M  V30 3550 C 578.017 3.64202 6.65911 0
M  V30 3551 O 578.227 2.60694 5.64732 0
M  V30 3552 C 579.417 3.93473 7.1943 0
M  V30 3553 O 579.807 3.02071 8.21205 0
M  V30 3554 C 580.297 3.73047 5.97036 0
M  V30 3555 C 579.587 2.58828 5.25741 0
M  V30 3556 N 579.637 2.68068 3.77503 0
M  V30 3557 C 579.557 3.79715 2.96723 0
M  V30 3558 N 579.637 3.5377 1.68852 0
M  V30 3559 C 579.777 2.15054 1.63254 0
M  V30 3560 C 579.907 1.28964 0.518571 0
M  V30 3561 N 580.027 -0.0538097 0.918425 0
M  V30 3562 C 580.027 -0.494275 2.22578 0
M  V30 3563 N 580.157 -1.81086 2.40434 0
M  V30 3564 N 579.897 0.313645 3.27502 0
M  V30 3565 C 579.777 1.61829 2.91033 0
M  V30 3566 H 576.798 5.40332 6.79951 0
M  V30 3567 H 576.528 4.41613 5.32378 0
M  V30 3568 H 577.395 3.26331 7.47797 0
M  V30 3569 P 581.357 2.75334 8.47391 0
M  V30 3570 O 581.577 2.44571 9.90142 0
M  V30 3571 O 582.147 3.87688 7.92115 0
M  V30 3572 O 581.607 1.4459 7.59357 0
M  V30 3573 C 580.667 0.347608 7.69215 0
M  V30 3574 C 581.397 -0.96767 7.52806 0
M  V30 3575 O 581.607 -1.21036 6.1011 0
M  V30 3576 C 582.797 -1.04544 8.13308 0
M  V30 3577 O 583.187 -2.38311 8.41922 0
M  V30 3578 C 583.677 -0.491279 7.02284 0
M  V30 3579 C 582.967 -0.996264 5.77469 0
M  V30 3580 N 583.017 -0.0501916 4.62973 0
M  V30 3581 H 580.178 0.374722 8.67691 0
M  V30 3582 H 579.908 0.443485 6.90277 0
M  V30 3583 H 580.775 -1.75537 7.96793 0
M  V30 3584 P 584.737 -2.75334 8.47391 0
M  V30 3585 O 584.957 -3.84128 9.44797 0
M  V30 3586 O 585.527 -1.51947 8.68712 0
M  V30 3587 O 584.987 -3.29363 6.99321 0
M  V30 3588 C 584.047 -4.24011 6.4274 0
M  V30 3589 C 584.777 -5.20775 5.52155 0
M  V30 3590 O 584.987 -4.56534 4.22446 0
M  V30 3591 C 586.177 -5.62629 5.96531 0
M  V30 3592 O 586.567 -6.87667 5.41053 0
M  V30 3593 C 587.057 -4.52537 5.39283 0
M  V30 3594 C 586.347 -4.20027 4.08623 0
M  V30 3595 N 586.397 -2.76189 3.71603 0
M  V30 3596 H 583.558 -4.797 7.24003 0
M  V30 3597 H 583.288 -3.69856 5.84513 0
M  V30 3598 H 584.155 -6.10356 5.41441 0
M  V30 3599 P 588.117 -7.20834 5.23717 0
M  V30 3600 O 588.337 -8.66104 5.38572 0
M  V30 3601 O 588.907 -6.33544 6.1349 0
M  V30 3602 O 588.367 -6.7751 3.72168 0
M  V30 3603 C 587.427 -7.20825 2.7076 0
M  V30 3604 C 588.157 -7.45864 1.40599 0
M  V30 3605 O 588.367 -6.17651 0.734225 0
M  V30 3606 C 589.557 -8.05808 1.51899 0
M  V30 3607 O 589.947 -8.74358 0.335205 0
M  V30 3608 C 590.437 -6.83093 1.70294 0
M  V30 3609 C 589.727 -5.79992 0.836974 0
M  V30 3610 N 589.777 -4.41864 1.38293 0
M  V30 3611 H 586.938 -8.13644 3.0377 0
M  V30 3612 H 586.668 -6.42788 2.55485 0
M  V30 3613 H 587.535 -8.12039 0.792769 0
M  V30 3614 P 591.496 -8.91 -3.85533e-12 0
M  V30 3615 O 591.716 -10.1726 -0.733694 0
M  V30 3616 O 592.286 -8.73148 1.23936 0
M  V30 3617 O 591.746 -7.66872 -0.971405 0
M  V30 3618 C 590.806 -7.42309 -2.04641 0
M  V30 3619 C 591.536 -6.86059 -3.24661 0
M  V30 3620 O 591.746 -5.42847 -3.03646 0
M  V30 3621 C 592.937 -7.41196 -3.50753 0
M  V30 3622 O 593.327 -7.27073 -4.86816 0
M  V30 3623 C 593.817 -6.5273 -2.63741 0
M  V30 3624 C 593.106 -5.1842 -2.73198 0
M  V30 3625 N 593.156 -4.38762 -1.4784 0
M  V30 3626 C 593.077 -4.81605 -0.168631 0
M  V30 3627 N 593.156 -3.85454 0.713363 0
M  V30 3628 C 593.296 -2.6994 -0.0566958 0
M  V30 3629 C 593.426 -1.34815 0.338502 0
M  V30 3630 N 593.546 -0.496304 -0.77465 0
M  V30 3631 C 593.546 -0.908403 -2.09122 0
M  V30 3632 N 593.676 0.0517805 -3.00955 0
M  V30 3633 N 593.416 -2.17875 -2.46519 0
M  V30 3634 C 593.296 -3.01988 -1.4033 0
M  V30 3635 H 590.317 -8.36803 -2.32493 0
M  V30 3636 H 590.048 -6.70197 -1.71129 0
M  V30 3637 H 590.914 -7.03551 -4.13168 0
M  V30 3638 P 594.876 -7.20834 -5.23717 0
M  V30 3639 O 595.096 -7.79853 -6.57286 0
M  V30 3640 O 595.666 -7.79239 -4.12957 0
M  V30 3641 O 595.126 -5.63315 -5.29344 0
M  V30 3642 C 594.186 -4.80255 -6.01876 0
M  V30 3643 C 594.916 -3.64202 -6.65911 0
M  V30 3644 O 595.126 -2.60694 -5.64732 0
M  V30 3645 C 596.316 -3.93473 -7.1943 0
M  V30 3646 O 596.706 -3.02071 -8.21205 0
M  V30 3647 C 597.196 -3.73047 -5.97036 0
M  V30 3648 C 596.486 -2.58828 -5.25741 0
M  V30 3649 N 596.536 -2.68068 -3.77503 0
M  V30 3650 H 593.697 -5.40332 -6.79951 0
M  V30 3651 H 593.427 -4.41613 -5.32378 0
M  V30 3652 H 594.294 -3.26331 -7.47797 0
M  V30 3653 P 598.256 -2.75334 -8.47391 0
M  V30 3654 O 598.476 -2.44571 -9.90142 0
M  V30 3655 O 599.046 -3.87688 -7.92115 0
M  V30 3656 O 598.506 -1.4459 -7.59357 0
M  V30 3657 C 597.566 -0.347608 -7.69215 0
M  V30 3658 C 598.296 0.96767 -7.52806 0
M  V30 3659 O 598.506 1.21036 -6.1011 0
M  V30 3660 C 599.696 1.04544 -8.13308 0
M  V30 3661 O 600.086 2.38311 -8.41922 0
M  V30 3662 C 600.576 0.491279 -7.02284 0
M  V30 3663 C 599.866 0.996264 -5.77469 0
M  V30 3664 N 599.916 0.0501916 -4.62973 0
M  V30 3665 H 597.077 -0.374722 -8.67691 0
M  V30 3666 H 596.807 -0.443485 -6.90277 0
M  V30 3667 H 597.674 1.75537 -7.96793 0
M  V30 3668 P 601.636 2.75334 -8.47391 0
M  V30 3669 O 601.856 3.84204 -9.44982 0
M  V30 3670 O 602.426 1.51982 -8.68909 0
M  V30 3671 O 601.886 3.29363 -6.99321 0
M  V30 3672 C 600.946 4.24066 -6.42823 0
M  V30 3673 C 601.676 5.20775 -5.52155 0
M  V30 3674 O 601.886 4.56607 -4.22514 0
M  V30 3675 C 603.076 5.62697 -5.96604 0
M  V30 3676 O 603.466 6.87667 -5.41053 0
M  V30 3677 C 603.956 4.52537 -5.39283 0
M  V30 3678 C 603.246 4.20027 -4.08623 0
M  V30 3679 N 603.296 2.76189 -3.71603 0
M  V30 3680 C 603.216 1.66944 -4.54297 0
M  V30 3681 N 603.286 0.536169 -3.91344 0
M  V30 3682 C 603.436 0.901569 -2.58849 0
M  V30 3683 C 603.566 0.146599 -1.40236 0
M  V30 3684 N 603.576 -1.18234 -1.37046 0
M  V30 3685 N 603.686 0.822941 -0.249738 0
M  V30 3686 C 603.676 2.15179 -0.280525 0
M  V30 3687 N 603.556 2.96414 -1.30822 0
M  V30 3688 C 603.436 2.25804 -2.44748 0
M  V30 3689 H 600.458 4.79756 -7.24086 0
M  V30 3690 H 600.186 3.69963 -5.84682 0
M  V30 3691 H 601.054 6.10431 -5.41508 0
M  V30 3692 H 603.709 4.78816 -3.28024 0
M  V30 3693 H 603.989 3.64957 -6.05871 0
M  V30 3694 H 604.98 4.88748 -5.21323 0
M  V30 3695 H 603.146 5.66789 -7.0643 0
M  V30 3696 H 603.105 1.74684 -5.62396 0
M  V30 3697 H 603.486 -1.71949 -2.24394 0
M  V30 3698 H 603.675 -1.67511 -0.470742 0
M  V30 3699 H 603.783 2.63704 0.6828 0
M  V30 3700 P 605.016 7.20834 -5.23717 0
M  V30 3701 O 605.236 8.66104 -5.38572 0
M  V30 3702 O 605.806 6.33544 -6.1349 0
M  V30 3703 O 605.266 6.7751 -3.72168 0
M  V30 3704 C 604.326 7.20825 -2.7076 0
M  V30 3705 C 605.056 7.45864 -1.40599 0
M  V30 3706 O 605.266 6.17651 -0.734225 0
M  V30 3707 C 606.456 8.05808 -1.51899 0
M  V30 3708 O 606.846 8.74358 -0.335205 0
M  V30 3709 C 607.336 6.83093 -1.70294 0
M  V30 3710 C 606.626 5.79992 -0.836974 0
M  V30 3711 N 606.676 4.41864 -1.38293 0
M  V30 3712 H 603.837 8.13644 -3.0377 0
M  V30 3713 H 603.567 6.42788 -2.55485 0
M  V30 3714 H 604.434 8.12039 -0.792769 0
M  V30 3715 P 608.396 8.91 4.01252e-12 0
M  V30 3716 O 608.616 10.1726 0.733694 0
M  V30 3717 O 609.186 8.73148 -1.23936 0
M  V30 3718 O 608.646 7.66872 0.971405 0
M  V30 3719 C 607.706 7.42309 2.04641 0
M  V30 3720 C 608.436 6.86059 3.24661 0
M  V30 3721 O 608.646 5.42847 3.03646 0
M  V30 3722 C 609.836 7.41196 3.50753 0
M  V30 3723 O 610.226 7.27073 4.86816 0
M  V30 3724 C 610.716 6.5273 2.63741 0
M  V30 3725 C 610.006 5.1842 2.73198 0
M  V30 3726 N 610.056 4.38762 1.4784 0
M  V30 3727 C 609.976 4.81605 0.168631 0
M  V30 3728 N 610.056 3.85454 -0.713363 0
M  V30 3729 C 610.196 2.6994 0.0566958 0
M  V30 3730 C 610.326 1.34815 -0.338502 0
M  V30 3731 O 610.346 0.869548 -1.47125 0
M  V30 3732 N 610.446 0.496304 0.77465 0
M  V30 3733 C 610.446 0.908403 2.09122 0
M  V30 3734 N 610.576 -0.0517805 3.00955 0
M  V30 3735 N 610.316 2.17875 2.46519 0
M  V30 3736 C 610.196 3.01988 1.4033 0
M  V30 3737 H 607.217 8.36803 2.32493 0
M  V30 3738 H 606.947 6.70197 1.71129 0
M  V30 3739 H 607.814 7.03551 4.13168 0
M  V30 3740 H 610.469 4.59498 3.54415 0
M  V30 3741 H 610.748 6.88898 1.59848 0
M  V30 3742 H 611.74 6.46749 3.03687 0
M  V30 3743 H 609.906 8.46908 3.20714 0
M  V30 3744 H 609.857 5.86405 -0.105564 0
M  V30 3745 H 610.539 -0.483664 0.597855 0
M  V30 3746 H 610.576 0.187865 4.0116 0
M  V30 3747 H 610.677 -1.03585 2.71726 0
M  V30 3748 P 611.776 7.20834 5.23717 0
M  V30 3749 O 611.996 7.79853 6.57286 0
M  V30 3750 O 612.566 7.79239 4.12957 0
M  V30 3751 O 612.026 5.63315 5.29344 0
M  V30 3752 C 611.086 4.80255 6.01876 0
M  V30 3753 C 611.816 3.64202 6.65911 0
M  V30 3754 O 612.026 2.60694 5.64732 0
M  V30 3755 C 613.216 3.93473 7.1943 0
M  V30 3756 O 613.606 3.02071 8.21205 0
M  V30 3757 C 614.096 3.73047 5.97036 0
M  V30 3758 C 613.386 2.58828 5.25741 0
M  V30 3759 N 613.436 2.68068 3.77503 0
M  V30 3760 H 610.597 5.40332 6.79951 0
M  V30 3761 H 610.327 4.41613 5.32378 0
M  V30 3762 H 611.194 3.26331 7.47797 0
M  V30 3763 P 615.156 2.75334 8.47391 0
M  V30 3764 O 615.376 2.44571 9.90142 0
M  V30 3765 O 615.946 3.87688 7.92115 0
M  V30 3766 O 615.406 1.4459 7.59357 0
M  V30 3767 C 614.466 0.347608 7.69215 0
M  V30 3768 C 615.196 -0.96767 7.52806 0
M  V30 3769 O 615.406 -1.21036 6.1011 0
M  V30 3770 C 616.596 -1.04544 8.13308 0
M  V30 3771 O 616.986 -2.38311 8.41922 0
M  V30 3772 C 617.476 -0.491279 7.02284 0
M  V30 3773 C 616.766 -0.996264 5.77469 0
M  V30 3774 N 616.816 -0.0501916 4.62973 0
M  V30 3775 H 613.977 0.374722 8.67691 0
M  V30 3776 H 613.707 0.443485 6.90277 0
M  V30 3777 H 614.574 -1.75537 7.96793 0
M  V30 3778 P 618.536 -2.75334 8.47391 0
M  V30 3779 O 618.756 -3.84128 9.44797 0
M  V30 3780 O 619.326 -1.51947 8.68712 0
M  V30 3781 O 618.786 -3.29363 6.99321 0
M  V30 3782 C 617.846 -4.24011 6.4274 0
M  V30 3783 C 618.576 -5.20775 5.52155 0
M  V30 3784 O 618.786 -4.56534 4.22446 0
M  V30 3785 C 619.976 -5.62629 5.96531 0
M  V30 3786 O 620.366 -6.87667 5.41053 0
M  V30 3787 C 620.856 -4.52537 5.39283 0
M  V30 3788 C 620.146 -4.20027 4.08623 0
M  V30 3789 N 620.196 -2.76189 3.71603 0
M  V30 3790 H 617.357 -4.797 7.24003 0
M  V30 3791 H 617.087 -3.69856 5.84513 0
M  V30 3792 H 617.954 -6.10356 5.41441 0
M  V30 3793 P 621.916 -7.20834 5.23717 0
M  V30 3794 O 622.136 -8.66274 5.38678 0
M  V30 3795 O 622.706 -6.33687 6.13629 0
M  V30 3796 O 622.166 -6.7751 3.72168 0
M  V30 3797 C 621.226 -7.20919 2.70795 0
M  V30 3798 C 621.956 -7.45864 1.40599 0
M  V30 3799 O 622.166 -6.17751 0.734343 0
M  V30 3800 C 623.356 -8.05906 1.51917 0
M  V30 3801 O 623.746 -8.74358 0.335205 0
M  V30 3802 C 624.236 -6.83093 1.70294 0
M  V30 3803 C 623.526 -5.79992 0.836974 0
M  V30 3804 N 623.576 -4.41864 1.38293 0
M  V30 3805 C 623.496 -4.02089 2.69407 0
M  V30 3806 N 623.566 -2.73403 2.85089 0
M  V30 3807 C 623.716 -2.25086 1.5642 0
M  V30 3808 C 623.846 -0.942887 1.04836 0
M  V30 3809 N 623.856 0.150999 1.80369 0
M  V30 3810 N 623.966 -0.812565 -0.28167 0
M  V30 3811 C 623.956 -1.90572 -1.03784 0
M  V30 3812 N 623.836 -3.167 -0.683905 0
M  V30 3813 C 623.716 -3.26538 0.652815 0
M  V30 3814 H 620.738 -8.13738 3.03804 0
M  V30 3815 H 620.466 -6.42974 2.55559 0
M  V30 3816 H 621.334 -8.12139 0.792866 0
M  V30 3817 H 623.989 -5.80178 -0.160643 0
M  V30 3818 H 624.269 -6.51379 2.75643 0
M  V30 3819 H 625.26 -7.01832 1.3448 0
M  V30 3820 H 623.426 -8.73771 2.38364 0
M  V30 3821 H 623.385 -4.7189 3.52311 0
M  V30 3822 H 623.766 0.0721434 2.82608 0
M  V30 3823 H 623.955 1.0785 1.36544 0
M  V30 3824 H 624.063 -1.73207 -2.10241 0
M  V30 3825 P 625.296 -8.91 -4.1697e-12 0
M  V30 3826 O 625.516 -10.1726 -0.733694 0
M  V30 3827 O 626.086 -8.73148 1.23936 0
M  V30 3828 O 625.546 -7.66872 -0.971405 0
M  V30 3829 C 624.606 -7.42309 -2.04641 0
M  V30 3830 C 625.336 -6.86059 -3.24661 0
M  V30 3831 O 625.546 -5.42847 -3.03646 0
M  V30 3832 C 626.736 -7.41196 -3.50753 0
M  V30 3833 O 627.126 -7.27073 -4.86816 0
M  V30 3834 C 627.616 -6.5273 -2.63741 0
M  V30 3835 C 626.906 -5.1842 -2.73198 0
M  V30 3836 N 626.956 -4.38762 -1.4784 0
M  V30 3837 H 624.117 -8.36803 -2.32493 0
M  V30 3838 H 623.847 -6.70197 -1.71129 0
M  V30 3839 H 624.714 -7.03551 -4.13168 0
M  V30 3840 P 628.676 -7.20834 -5.23717 0
M  V30 3841 O 628.896 -7.79853 -6.57286 0
M  V30 3842 O 629.466 -7.79239 -4.12957 0
M  V30 3843 O 628.926 -5.63315 -5.29344 0
M  V30 3844 C 627.986 -4.80255 -6.01876 0
M  V30 3845 C 628.716 -3.64202 -6.65911 0
M  V30 3846 O 628.926 -2.60694 -5.64732 0
M  V30 3847 C 630.116 -3.93473 -7.1943 0
M  V30 3848 O 630.506 -3.02071 -8.21205 0
M  V30 3849 C 630.996 -3.73047 -5.97036 0
M  V30 3850 C 630.286 -2.58828 -5.25741 0
M  V30 3851 N 630.336 -2.68068 -3.77503 0
M  V30 3852 H 627.497 -5.40332 -6.79951 0
M  V30 3853 H 627.227 -4.41613 -5.32378 0
M  V30 3854 H 628.094 -3.26331 -7.47797 0
M  V30 3855 P 632.056 -2.75334 -8.47391 0
M  V30 3856 O 632.276 -2.44571 -9.90142 0
M  V30 3857 O 632.846 -3.87688 -7.92115 0
M  V30 3858 O 632.306 -1.4459 -7.59357 0
M  V30 3859 C 631.366 -0.347608 -7.69215 0
M  V30 3860 C 632.096 0.96767 -7.52806 0
M  V30 3861 O 632.306 1.21036 -6.1011 0
M  V30 3862 C 633.496 1.04544 -8.13308 0
M  V30 3863 O 633.886 2.38311 -8.41922 0
M  V30 3864 C 634.376 0.491279 -7.02284 0
M  V30 3865 C 633.666 0.996264 -5.77469 0
M  V30 3866 N 633.716 0.0501916 -4.62973 0
M  V30 3867 H 630.877 -0.374722 -8.67691 0
M  V30 3868 H 630.607 -0.443485 -6.90277 0
M  V30 3869 H 631.474 1.75537 -7.96793 0
M  V30 3870 P 635.436 2.75334 -8.47391 0
M  V30 3871 O 635.656 3.84128 -9.44797 0
M  V30 3872 O 636.226 1.51947 -8.68712 0
M  V30 3873 O 635.686 3.29363 -6.99321 0
M  V30 3874 C 634.746 4.24011 -6.4274 0
M  V30 3875 C 635.476 5.20775 -5.52155 0
M  V30 3876 O 635.686 4.56534 -4.22446 0
M  V30 3877 C 636.876 5.62629 -5.96531 0
M  V30 3878 O 637.266 6.87667 -5.41053 0
M  V30 3879 C 637.756 4.52537 -5.39283 0
M  V30 3880 C 637.046 4.20027 -4.08623 0
M  V30 3881 N 637.096 2.76189 -3.71603 0
M  V30 3882 H 634.257 4.797 -7.24003 0
M  V30 3883 H 633.987 3.69856 -5.84513 0
M  V30 3884 H 634.854 6.10356 -5.41441 0
M  V30 3885 P 638.816 7.20834 -5.23717 0
M  V30 3886 O 639.036 8.66104 -5.38572 0
M  V30 3887 O 639.606 6.33544 -6.1349 0
M  V30 3888 O 639.066 6.7751 -3.72168 0
M  V30 3889 C 638.126 7.20825 -2.7076 0
M  V30 3890 C 638.856 7.45864 -1.40599 0
M  V30 3891 O 639.066 6.17651 -0.734225 0
M  V30 3892 C 640.256 8.05808 -1.51899 0
M  V30 3893 O 640.646 8.74358 -0.335205 0
M  V30 3894 C 641.136 6.83093 -1.70294 0
M  V30 3895 C 640.426 5.79992 -0.836974 0
M  V30 3896 N 640.476 4.41864 -1.38293 0
M  V30 3897 C 640.396 3.99538 -2.69438 0
M  V30 3898 N 640.476 2.69909 -2.84277 0
M  V30 3899 C 640.616 2.21719 -1.5408 0
M  V30 3900 C 640.746 0.891712 -1.06628 0
M  V30 3901 O 640.766 -0.161298 -1.70137 0
M  V30 3902 N 640.866 0.856846 0.334985 0
M  V30 3903 C 640.866 1.9641 1.15789 0
M  V30 3904 N 640.996 1.72708 2.46522 0
M  V30 3905 N 640.736 3.21165 0.713741 0
M  V30 3906 C 640.616 3.26797 -0.639748 0
M  V30 3907 H 637.637 8.13644 -3.0377 0
M  V30 3908 H 637.367 6.42788 -2.55485 0
M  V30 3909 H 638.234 8.12039 -0.792769 0
M  V30 3910 H 640.889 5.80061 0.166416 0
M  V30 3911 H 641.168 6.51287 -2.75604 0
M  V30 3912 H 642.16 7.01734 -1.34462 0
M  V30 3913 H 640.326 8.73674 -2.38337 0
M  V30 3914 H 640.277 4.68207 -3.53221 0
M  V30 3915 H 640.959 -0.0398818 0.767965 0
M  V30 3916 H 640.996 2.50995 3.13503 0
M  V30 3917 H 641.097 0.759148 2.80716 0
M  V30 3918 P 642.196 8.91 4.32688e-12 0
M  V30 3919 O 642.416 10.1746 0.733838 0
M  V30 3920 O 642.986 8.73346 -1.23964 0
M  V30 3921 O 642.446 7.66872 0.971405 0
M  V30 3922 C 641.506 7.42405 2.04668 0
M  V30 3923 C 642.236 6.86059 3.24661 0
M  V30 3924 O 642.446 5.42934 3.03695 0
M  V30 3925 C 643.636 7.41287 3.50796 0
M  V30 3926 O 644.026 7.27073 4.86816 0
M  V30 3927 C 644.516 6.5273 2.63741 0
M  V30 3928 C 643.806 5.1842 2.73198 0
M  V30 3929 N 643.856 4.38762 1.4784 0
M  V30 3930 C 643.776 4.83651 0.183876 0
M  V30 3931 N 643.846 3.88759 -0.699393 0
M  V30 3932 C 643.996 2.7404 0.0575568 0
M  V30 3933 C 644.126 1.37902 -0.293928 0
M  V30 3934 N 644.136 0.938021 -1.54797 0
M  V30 3935 N 644.246 0.491817 0.70549 0
M  V30 3936 C 644.236 0.931735 1.95979 0
M  V30 3937 N 644.116 2.16017 2.41481 0
M  V30 3938 C 643.996 3.02547 1.39121 0
M  V30 3939 H 641.018 8.36899 2.3252 0
M  V30 3940 H 640.746 6.70391 1.71179 0
M  V30 3941 H 641.614 7.03638 4.13219 0
M  V30 3942 H 644.269 4.59931 3.54016 0
M  V30 3943 H 644.549 6.88995 1.59871 0
M  V30 3944 H 645.54 6.4684 3.0373 0
M  V30 3945 H 643.706 8.47002 3.20749 0
M  V30 3946 H 643.665 5.8885 -0.0765548 0
M  V30 3947 H 644.046 1.60276 -2.32875 0
M  V30 3948 H 644.235 -0.0699355 -1.73859 0
M  V30 3949 H 644.343 0.165507 2.71897 0
M  V30 3950 P 645.576 7.20834 5.23717 0
M  V30 3951 O 645.796 7.7993 6.57351 0
M  V30 3952 O 646.366 7.79328 4.13004 0
M  V30 3953 O 645.826 5.63315 5.29344 0
M  V30 3954 C 644.886 4.80255 6.01876 0
M  V30 3955 C 645.616 3.64202 6.65911 0
M  V30 3956 O 645.826 2.60694 5.64732 0
M  V30 3957 C 647.016 3.93473 7.1943 0
M  V30 3958 O 647.406 3.02071 8.21205 0
M  V30 3959 C 647.896 3.73047 5.97036 0
M  V30 3960 C 647.186 2.58828 5.25741 0
M  V30 3961 N 647.236 2.6801 3.77422 0
M  V30 3962 C 647.386 1.50173 3.05038 0
M  V30 3963 O 647.476 0.428832 3.665 0
M  V30 3964 N 647.436 1.70922 1.55541 0
M  V30 3965 C 647.336 2.7407 1.06402 0
M  V30 3966 N 647.386 2.74764 -0.260931 0
M  V30 3967 C 647.186 3.96781 1.78296 0
M  V30 3968 C 647.136 3.87909 3.13891 0
M  V30 3969 H 644.396 5.4027 6.79873 0
M  V30 3970 H 644.127 4.41549 5.32301 0
M  V30 3971 H 644.994 3.26371 7.47889 0
M  V30 3972 H 647.649 1.63978 5.5665 0
M  V30 3973 H 647.928 4.63439 5.3432 0
M  V30 3974 H 648.92 3.44728 6.25838 0
M  V30 3975 H 647.086 4.96652 7.57263 0
M  V30 3976 H 647.014 4.78425 3.73088 0
M  V30 3977 H 647.116 4.92593 1.26997 0
M  V30 3978 H 647.504 1.86285 -0.77595 0
M  V30 3979 H 647.307 3.63657 -0.773896 0
M  V30 3980 P 648.956 2.75334 8.47391 0
M  V30 3981 O 649.176 2.44571 9.90142 0
M  V30 3982 O 649.746 3.87688 7.92115 0
M  V30 3983 O 649.206 1.4459 7.59357 0
M  V30 3984 C 648.266 0.347608 7.69215 0
M  V30 3985 C 648.996 -0.96767 7.52806 0
M  V30 3986 O 649.206 -1.21036 6.1011 0
M  V30 3987 C 650.396 -1.04544 8.13308 0
M  V30 3988 O 650.786 -2.38311 8.41922 0
M  V30 3989 C 651.276 -0.491279 7.02284 0
M  V30 3990 C 650.566 -0.996264 5.77469 0
M  V30 3991 N 650.616 -0.0501916 4.62973 0
M  V30 3992 C 650.536 1.32786 4.63244 0
M  V30 3993 N 650.616 1.86957 3.44545 0
M  V30 3994 C 650.756 0.780241 2.58481 0
M  V30 3995 C 650.886 0.738536 1.17757 0
M  V30 3996 N 651.006 -0.58337 0.711393 0
M  V30 3997 C 651.006 -1.70816 1.51017 0
M  V30 3998 N 651.136 -2.87826 0.880757 0
M  V30 3999 N 650.876 -1.67126 2.8339 0
M  V30 4000 C 650.756 -0.401421 3.30572 0
M  V30 4001 H 647.777 0.374722 8.67691 0
M  V30 4002 H 647.507 0.443485 6.90277 0
M  V30 4003 H 648.374 -1.75537 7.96793 0
M  V30 4004 P 652.336 -2.75334 8.47391 0
M  V30 4005 O 652.556 -3.84128 9.44797 0
M  V30 4006 O 653.126 -1.51947 8.68712 0
M  V30 4007 O 652.586 -3.29363 6.99321 0
M  V30 4008 C 651.646 -4.24011 6.4274 0
M  V30 4009 C 652.376 -5.20775 5.52155 0
M  V30 4010 O 652.586 -4.56534 4.22446 0
M  V30 4011 C 653.776 -5.62629 5.96531 0
M  V30 4012 O 654.166 -6.87667 5.41053 0
M  V30 4013 C 654.656 -4.52537 5.39283 0
M  V30 4014 C 653.946 -4.20027 4.08623 0
M  V30 4015 N 653.996 -2.76189 3.71603 0
M  V30 4016 H 651.157 -4.797 7.24003 0
M  V30 4017 H 650.887 -3.69856 5.84513 0
M  V30 4018 H 651.754 -6.10356 5.41441 0
M  V30 4019 P 655.716 -7.20834 5.23717 0
M  V30 4020 O 655.936 -8.66104 5.38572 0
M  V30 4021 O 656.506 -6.33544 6.1349 0
M  V30 4022 O 655.966 -6.7751 3.72168 0
M  V30 4023 C 655.026 -7.20825 2.7076 0
M  V30 4024 C 655.756 -7.45864 1.40599 0
M  V30 4025 O 655.966 -6.17651 0.734225 0
M  V30 4026 C 657.156 -8.05808 1.51899 0
M  V30 4027 O 657.546 -8.74358 0.335205 0
M  V30 4028 C 658.036 -6.83093 1.70294 0
M  V30 4029 C 657.326 -5.79992 0.836974 0
M  V30 4030 N 657.376 -4.41864 1.38293 0
M  V30 4031 H 654.537 -8.13644 3.0377 0
M  V30 4032 H 654.267 -6.42788 2.55485 0
M  V30 4033 H 655.134 -8.12039 0.792769 0
M  V30 4034 P 659.096 -8.91 -4.48406e-12 0
M  V30 4035 O 659.316 -10.1726 -0.733694 0
M  V30 4036 O 659.886 -8.73148 1.23936 0
M  V30 4037 O 659.346 -7.66872 -0.971405 0
M  V30 4038 C 658.406 -7.42309 -2.04641 0
M  V30 4039 C 659.136 -6.86059 -3.24661 0
M  V30 4040 O 659.346 -5.42847 -3.03646 0
M  V30 4041 C 660.536 -7.41196 -3.50753 0
M  V30 4042 O 660.926 -7.27073 -4.86816 0
M  V30 4043 C 661.416 -6.5273 -2.63741 0
M  V30 4044 C 660.706 -5.1842 -2.73198 0
M  V30 4045 N 660.756 -4.38762 -1.4784 0
M  V30 4046 H 657.917 -8.36803 -2.32493 0
M  V30 4047 H 657.647 -6.70197 -1.71129 0
M  V30 4048 H 658.514 -7.03551 -4.13168 0
M  V30 4049 P 662.476 -7.20834 -5.23717 0
M  V30 4050 O 662.696 -7.79853 -6.57286 0
M  V30 4051 O 663.266 -7.79239 -4.12957 0
M  V30 4052 O 662.726 -5.63315 -5.29344 0
M  V30 4053 C 661.786 -4.80255 -6.01876 0
M  V30 4054 C 662.516 -3.64202 -6.65911 0
M  V30 4055 O 662.726 -2.60694 -5.64732 0
M  V30 4056 C 663.916 -3.93473 -7.1943 0
M  V30 4057 O 664.306 -3.02071 -8.21205 0
M  V30 4058 C 664.796 -3.73047 -5.97036 0
M  V30 4059 C 664.086 -2.58828 -5.25741 0
M  V30 4060 N 664.136 -2.68068 -3.77503 0
M  V30 4061 H 661.297 -5.40332 -6.79951 0
M  V30 4062 H 661.027 -4.41613 -5.32378 0
M  V30 4063 H 661.894 -3.26331 -7.47797 0
M  V30 4064 P 665.856 -2.75334 -8.47391 0
M  V30 4065 O 666.076 -2.44571 -9.90142 0
M  V30 4066 O 666.646 -3.87688 -7.92115 0
M  V30 4067 O 666.106 -1.4459 -7.59357 0
M  V30 4068 C 665.166 -0.347608 -7.69215 0
M  V30 4069 C 665.896 0.96767 -7.52806 0
M  V30 4070 O 666.106 1.21036 -6.1011 0
M  V30 4071 C 667.296 1.04544 -8.13308 0
M  V30 4072 O 667.686 2.38311 -8.41922 0
M  V30 4073 C 668.176 0.491279 -7.02284 0
M  V30 4074 C 667.466 0.996264 -5.77469 0
M  V30 4075 N 667.516 0.0501916 -4.62973 0
M  V30 4076 C 667.436 -1.32786 -4.63244 0
M  V30 4077 N 667.516 -1.86957 -3.44545 0
M  V30 4078 C 667.656 -0.780241 -2.58481 0
M  V30 4079 C 667.786 -0.738536 -1.17757 0
M  V30 4080 N 667.906 0.58337 -0.711393 0
M  V30 4081 C 667.906 1.70816 -1.51017 0
M  V30 4082 N 668.036 2.87826 -0.880757 0
M  V30 4083 N 667.776 1.67126 -2.8339 0
M  V30 4084 C 667.656 0.401421 -3.30572 0
M  V30 4085 H 664.677 -0.374722 -8.67691 0
M  V30 4086 H 664.407 -0.443485 -6.90277 0
M  V30 4087 H 665.274 1.75537 -7.96793 0
M  V30 4088 P 669.236 2.75334 -8.47391 0
M  V30 4089 O 669.456 3.84204 -9.44982 0
M  V30 4090 O 670.026 1.51982 -8.68909 0
M  V30 4091 O 669.486 3.29363 -6.99321 0
M  V30 4092 C 668.546 4.24066 -6.42823 0
M  V30 4093 C 669.276 5.20775 -5.52155 0
M  V30 4094 O 669.486 4.56607 -4.22514 0
M  V30 4095 C 670.676 5.62697 -5.96604 0
M  V30 4096 O 671.066 6.87667 -5.41053 0
M  V30 4097 C 671.556 4.52537 -5.39283 0
M  V30 4098 C 670.846 4.20027 -4.08623 0
M  V30 4099 N 670.896 2.76189 -3.71603 0
M  V30 4100 H 668.058 4.79756 -7.24086 0
M  V30 4101 H 667.786 3.69963 -5.84682 0
M  V30 4102 H 668.654 6.10431 -5.41508 0
M  V30 4103 H 671.309 4.78816 -3.28024 0
M  V30 4104 H 671.589 3.64957 -6.05871 0
M  V30 4105 H 672.58 4.88748 -5.21323 0
M  V30 4106 H 670.746 5.66789 -7.0643 0
M  V30 4107 P 672.616 7.20834 -5.23717 0
M  V30 4108 O 672.836 8.66104 -5.38572 0
M  V30 4109 O 673.406 6.33544 -6.1349 0
M  V30 4110 O 672.866 6.7751 -3.72168 0
M  V30 4111 C 671.926 7.20825 -2.7076 0
M  V30 4112 C 672.656 7.45864 -1.40599 0
M  V30 4113 O 672.866 6.17651 -0.734225 0
M  V30 4114 C 674.056 8.05808 -1.51899 0
M  V30 4115 O 674.446 8.74358 -0.335205 0
M  V30 4116 C 674.936 6.83093 -1.70294 0
M  V30 4117 C 674.226 5.79992 -0.836974 0
M  V30 4118 N 674.276 4.41864 -1.38293 0
M  V30 4119 H 671.437 8.13644 -3.0377 0
M  V30 4120 H 671.167 6.42788 -2.55485 0
M  V30 4121 H 672.034 8.12039 -0.792769 0
M  V30 4122 P 675.996 8.91 4.64125e-12 0
M  V30 4123 O 676.216 10.1726 0.733694 0
M  V30 4124 O 676.786 8.73148 -1.23936 0
M  V30 4125 O 676.246 7.66872 0.971405 0
M  V30 4126 C 675.306 7.42309 2.04641 0
M  V30 4127 C 676.036 6.86059 3.24661 0
M  V30 4128 O 676.246 5.42847 3.03646 0
M  V30 4129 C 677.436 7.41196 3.50753 0
M  V30 4130 O 677.826 7.27073 4.86816 0
M  V30 4131 C 678.316 6.5273 2.63741 0
M  V30 4132 C 677.606 5.1842 2.73198 0
M  V30 4133 N 677.656 4.38762 1.4784 0
M  V30 4134 H 674.817 8.36803 2.32493 0
M  V30 4135 H 674.547 6.70197 1.71129 0
M  V30 4136 H 675.414 7.03551 4.13168 0
M  V30 4137 P 679.376 7.20834 5.23717 0
M  V30 4138 O 679.596 7.79853 6.57286 0
M  V30 4139 O 680.166 7.79239 4.12957 0
M  V30 4140 O 679.626 5.63315 5.29344 0
M  V30 4141 C 678.686 4.80255 6.01876 0
M  V30 4142 C 679.416 3.64202 6.65911 0
M  V30 4143 O 679.626 2.60694 5.64732 0
M  V30 4144 C 680.816 3.93473 7.1943 0
M  V30 4145 O 681.206 3.02071 8.21205 0
M  V30 4146 C 681.696 3.73047 5.97036 0
M  V30 4147 C 680.986 2.58828 5.25741 0
M  V30 4148 N 681.036 2.68068 3.77503 0
M  V30 4149 H 678.197 5.40332 6.79951 0
M  V30 4150 H 677.927 4.41613 5.32378 0
M  V30 4151 H 678.794 3.26331 7.47797 0
M  V30 4152 P 682.756 2.75334 8.47391 0
M  V30 4153 O 682.976 2.44571 9.90142 0
M  V30 4154 O 683.546 3.87688 7.92115 0
M  V30 4155 O 683.006 1.4459 7.59357 0
M  V30 4156 C 682.066 0.347608 7.69215 0
M  V30 4157 C 682.796 -0.96767 7.52806 0
M  V30 4158 O 683.006 -1.21036 6.1011 0
M  V30 4159 C 684.196 -1.04544 8.13308 0
M  V30 4160 O 684.586 -2.38311 8.41922 0
M  V30 4161 C 685.076 -0.491279 7.02284 0
M  V30 4162 C 684.366 -0.996264 5.77469 0
M  V30 4163 N 684.416 -0.0501916 4.62973 0
M  V30 4164 C 684.336 1.32786 4.63244 0
M  V30 4165 N 684.416 1.86957 3.44545 0
M  V30 4166 C 684.556 0.780241 2.58481 0
M  V30 4167 C 684.686 0.738536 1.17757 0
M  V30 4168 N 684.806 -0.58337 0.711393 0
M  V30 4169 C 684.806 -1.70816 1.51017 0
M  V30 4170 N 684.936 -2.87826 0.880757 0
M  V30 4171 N 684.676 -1.67126 2.8339 0
M  V30 4172 C 684.556 -0.401421 3.30572 0
M  V30 4173 H 681.577 0.374722 8.67691 0
M  V30 4174 H 681.307 0.443485 6.90277 0
M  V30 4175 H 682.174 -1.75537 7.96793 0
M  V30 4176 P 686.136 -2.75334 8.47391 0
M  V30 4177 O 686.356 -3.84128 9.44797 0
M  V30 4178 O 686.926 -1.51947 8.68712 0
M  V30 4179 O 686.386 -3.29363 6.99321 0
M  V30 4180 C 685.446 -4.24011 6.4274 0
M  V30 4181 C 686.176 -5.20775 5.52155 0
M  V30 4182 O 686.386 -4.56534 4.22446 0
M  V30 4183 C 687.576 -5.62629 5.96531 0
M  V30 4184 O 687.966 -6.87667 5.41053 0
M  V30 4185 C 688.456 -4.52537 5.39283 0
M  V30 4186 C 687.746 -4.20027 4.08623 0
M  V30 4187 N 687.796 -2.76189 3.71603 0
M  V30 4188 C 687.716 -1.64862 4.52822 0
M  V30 4189 N 687.796 -0.512671 3.88633 0
M  V30 4190 C 687.936 -0.888083 2.54977 0
M  V30 4191 C 688.066 -0.094668 1.38677 0
M  V30 4192 O 688.086 1.13053 1.28163 0
M  V30 4193 N 688.186 -0.890102 0.232633 0
M  V30 4194 C 688.186 -2.26958 0.21772 0
M  V30 4195 N 688.316 -2.84626 -0.97925 0
M  V30 4196 N 688.056 -3.0178 1.31033 0
M  V30 4197 C 687.936 -2.26781 2.43843 0
M  V30 4198 H 684.957 -4.797 7.24003 0
M  V30 4199 H 684.687 -3.69856 5.84513 0
M  V30 4200 H 685.554 -6.10356 5.41441 0
M  V30 4201 H 688.209 -4.79061 3.27488 0
M  V30 4202 H 688.488 -3.64906 6.05785 0
M  V30 4203 H 689.48 -4.8868 5.2125 0
M  V30 4204 H 687.646 -5.66726 7.06352 0
M  V30 4205 H 687.597 -1.71169 5.60966 0
M  V30 4206 H 688.279 -0.419134 -0.644739 0
M  V30 4207 H 688.316 -3.87332 -1.06098 0
M  V30 4208 H 688.417 -2.26417 -1.82483 0
M  V30 4209 P 689.516 -7.20834 5.23717 0
M  V30 4210 O 689.736 -8.66104 5.38572 0
M  V30 4211 O 690.306 -6.33544 6.1349 0
M  V30 4212 O 689.766 -6.7751 3.72168 0
M  V30 4213 C 688.826 -7.20825 2.7076 0
M  V30 4214 C 689.556 -7.45864 1.40599 0
M  V30 4215 O 689.766 -6.17651 0.734225 0
M  V30 4216 C 690.956 -8.05808 1.51899 0
M  V30 4217 O 691.346 -8.74358 0.335205 0
M  V30 4218 C 691.836 -6.83093 1.70294 0
M  V30 4219 C 691.126 -5.79992 0.836974 0
M  V30 4220 N 691.176 -4.41864 1.38293 0
M  V30 4221 H 688.337 -8.13644 3.0377 0
M  V30 4222 H 688.067 -6.42788 2.55485 0
M  V30 4223 H 688.934 -8.12039 0.792769 0
M  V30 4224 P 692.896 -8.91 -4.67181e-12 0
M  V30 4225 O 693.116 -10.1726 -0.733694 0
M  V30 4226 O 693.686 -8.73148 1.23936 0
M  V30 4227 O 693.146 -7.66872 -0.971405 0
M  V30 4228 C 692.206 -7.42309 -2.04641 0
M  V30 4229 C 692.936 -6.86059 -3.24661 0
M  V30 4230 O 693.146 -5.42847 -3.03646 0
M  V30 4231 C 694.336 -7.41196 -3.50753 0
M  V30 4232 O 694.726 -7.27073 -4.86816 0
M  V30 4233 C 695.216 -6.5273 -2.63741 0
M  V30 4234 C 694.506 -5.1842 -2.73198 0
M  V30 4235 N 694.556 -4.38762 -1.4784 0
M  V30 4236 H 691.717 -8.36803 -2.32493 0
M  V30 4237 H 691.447 -6.70197 -1.71129 0
M  V30 4238 H 692.314 -7.03551 -4.13168 0
M  V30 4239 P 696.276 -7.20834 -5.23717 0
M  V30 4240 O 696.496 -7.79853 -6.57286 0
M  V30 4241 O 697.066 -7.79239 -4.12957 0
M  V30 4242 O 696.526 -5.63315 -5.29344 0
M  V30 4243 C 695.586 -4.80255 -6.01876 0
M  V30 4244 C 696.316 -3.64202 -6.65911 0
M  V30 4245 O 696.526 -2.60694 -5.64732 0
M  V30 4246 C 697.716 -3.93473 -7.1943 0
M  V30 4247 O 698.106 -3.02071 -8.21205 0
M  V30 4248 C 698.596 -3.73047 -5.97036 0
M  V30 4249 C 697.886 -2.58828 -5.25741 0
M  V30 4250 N 697.936 -2.68068 -3.77503 0
M  V30 4251 H 695.097 -5.40332 -6.79951 0
M  V30 4252 H 694.827 -4.41613 -5.32378 0
M  V30 4253 H 695.694 -3.26331 -7.47797 0
M  V30 4254 P 699.656 -2.75334 -8.47391 0
M  V30 4255 O 699.876 -2.44571 -9.90142 0
M  V30 4256 O 700.446 -3.87688 -7.92115 0
M  V30 4257 O 699.906 -1.4459 -7.59357 0
M  V30 4258 C 698.966 -0.347608 -7.69215 0
M  V30 4259 C 699.696 0.96767 -7.52806 0
M  V30 4260 O 699.906 1.21036 -6.1011 0
M  V30 4261 C 701.096 1.04544 -8.13308 0
M  V30 4262 O 701.486 2.38311 -8.41922 0
M  V30 4263 C 701.976 0.491279 -7.02284 0
M  V30 4264 C 701.266 0.996264 -5.77469 0
M  V30 4265 N 701.316 0.0501916 -4.62973 0
M  V30 4266 H 698.477 -0.374722 -8.67691 0
M  V30 4267 H 698.207 -0.443485 -6.90277 0
M  V30 4268 H 699.074 1.75537 -7.96793 0
M  V30 4269 P 703.036 2.75334 -8.47391 0
M  V30 4270 O 703.256 3.84128 -9.44797 0
M  V30 4271 O 703.826 1.51947 -8.68712 0
M  V30 4272 O 703.286 3.29363 -6.99321 0
M  V30 4273 C 702.346 4.24011 -6.4274 0
M  V30 4274 C 703.076 5.20775 -5.52155 0
M  V30 4275 O 703.286 4.56534 -4.22446 0
M  V30 4276 C 704.476 5.62629 -5.96531 0
M  V30 4277 O 704.866 6.87667 -5.41053 0
M  V30 4278 C 705.356 4.52537 -5.39283 0
M  V30 4279 C 704.646 4.20027 -4.08623 0
M  V30 4280 N 704.696 2.76189 -3.71603 0
M  V30 4281 C 704.616 1.64862 -4.52822 0
M  V30 4282 N 704.696 0.512671 -3.88633 0
M  V30 4283 C 704.836 0.888083 -2.54977 0
M  V30 4284 C 704.966 0.094668 -1.38677 0
M  V30 4285 N 705.086 0.890102 -0.232633 0
M  V30 4286 C 705.086 2.26958 -0.21772 0
M  V30 4287 N 705.216 2.84626 0.97925 0
M  V30 4288 N 704.956 3.0178 -1.31033 0
M  V30 4289 C 704.836 2.26781 -2.43843 0
M  V30 4290 H 701.857 4.797 -7.24003 0
M  V30 4291 H 701.587 3.69856 -5.84513 0
M  V30 4292 H 702.454 6.10356 -5.41441 0
M  V30 4293 P 706.416 7.20834 -5.23717 0
M  V30 4294 O 706.636 8.66104 -5.38572 0
M  V30 4295 O 707.206 6.33544 -6.1349 0
M  V30 4296 O 706.666 6.7751 -3.72168 0
M  V30 4297 C 705.726 7.20825 -2.7076 0
M  V30 4298 C 706.456 7.45864 -1.40599 0
M  V30 4299 O 706.666 6.17651 -0.734225 0
M  V30 4300 C 707.856 8.05808 -1.51899 0
M  V30 4301 O 708.246 8.74358 -0.335205 0
M  V30 4302 C 708.736 6.83093 -1.70294 0
M  V30 4303 C 708.026 5.79992 -0.836974 0
M  V30 4304 N 708.076 4.41864 -1.38293 0
M  V30 4305 C 707.996 3.99538 -2.69438 0
M  V30 4306 N 708.076 2.69909 -2.84277 0
M  V30 4307 C 708.216 2.21719 -1.5408 0
M  V30 4308 C 708.346 0.891712 -1.06628 0
M  V30 4309 N 708.466 0.856846 0.334985 0
M  V30 4310 C 708.466 1.9641 1.15789 0
M  V30 4311 N 708.596 1.72708 2.46522 0
M  V30 4312 N 708.336 3.21165 0.713741 0
M  V30 4313 C 708.216 3.26797 -0.639748 0
M  V30 4314 H 705.237 8.13644 -3.0377 0
M  V30 4315 H 704.967 6.42788 -2.55485 0
M  V30 4316 H 705.834 8.12039 -0.792769 0
M  V30 4317 P 709.796 8.91 4.82899e-12 0
M  V30 4318 O 710.016 10.1726 0.733694 0
M  V30 4319 O 710.586 8.73148 -1.23936 0
M  V30 4320 O 710.046 7.66872 0.971405 0
M  V30 4321 C 709.106 7.42309 2.04641 0
M  V30 4322 C 709.836 6.86059 3.24661 0
M  V30 4323 O 710.046 5.42847 3.03646 0
M  V30 4324 C 711.236 7.41196 3.50753 0
M  V30 4325 O 711.626 7.27073 4.86816 0
M  V30 4326 C 712.116 6.5273 2.63741 0
M  V30 4327 C 711.406 5.1842 2.73198 0
M  V30 4328 N 711.456 4.38762 1.4784 0
M  V30 4329 H 708.617 8.36803 2.32493 0
M  V30 4330 H 708.347 6.70197 1.71129 0
M  V30 4331 H 709.214 7.03551 4.13168 0
M  V30 4332 P 713.176 7.20834 5.23717 0
M  V30 4333 O 713.396 7.80006 6.57415 0
M  V30 4334 O 713.966 7.79416 4.13051 0
M  V30 4335 O 713.426 5.63315 5.29344 0
M  V30 4336 C 712.486 4.80318 6.01954 0
M  V30 4337 C 713.216 3.64202 6.65911 0
M  V30 4338 O 713.426 2.60736 5.64823 0
M  V30 4339 C 714.616 3.93521 7.19518 0
M  V30 4340 O 715.006 3.02071 8.21205 0
M  V30 4341 C 715.496 3.73047 5.97036 0
M  V30 4342 C 714.786 2.58828 5.25741 0
M  V30 4343 N 714.836 2.68068 3.77503 0
M  V30 4344 C 714.756 3.80474 2.99159 0
M  V30 4345 N 714.826 3.55622 1.71925 0
M  V30 4346 C 714.976 2.1832 1.65733 0
M  V30 4347 C 715.106 1.28842 0.572777 0
M  V30 4348 N 715.116 1.66875 -0.70098 0
M  V30 4349 N 715.226 -0.016788 0.859836 0
M  V30 4350 C 715.216 -0.398145 2.13316 0
M  V30 4351 N 715.096 0.328224 3.22333 0
M  V30 4352 C 714.976 1.62992 2.90383 0
M  V30 4353 H 711.998 5.40394 6.8003 0
M  V30 4354 H 711.726 4.41741 5.32532 0
M  V30 4355 H 712.594 3.26371 7.47889 0
M  V30 4356 H 715.249 1.64007 5.56746 0
M  V30 4357 H 715.529 4.63439 5.3432 0
M  V30 4358 H 716.52 3.44776 6.25925 0
M  V30 4359 H 714.686 4.96707 7.57347 0
M  V30 4360 H 714.645 4.8089 3.39924 0
M  V30 4361 H 715.026 2.66547 -0.941919 0
M  V30 4362 H 715.215 0.965341 -1.44766 0
M  V30 4363 H 715.323 -1.46427 2.29697 0
M  V30 4364 P 716.556 2.75334 8.47391 0
M  V30 4365 O 716.776 2.44571 9.90142 0
M  V30 4366 O 717.346 3.87688 7.92115 0
M  V30 4367 O 716.806 1.4459 7.59357 0
M  V30 4368 C 715.866 0.347608 7.69215 0
M  V30 4369 C 716.596 -0.96767 7.52806 0
M  V30 4370 O 716.806 -1.21036 6.1011 0
M  V30 4371 C 717.996 -1.04544 8.13308 0
M  V30 4372 O 718.386 -2.38311 8.41922 0
M  V30 4373 C 718.876 -0.491279 7.02284 0
M  V30 4374 C 718.166 -0.996264 5.77469 0
M  V30 4375 N 718.216 -0.0501916 4.62973 0
M  V30 4376 H 715.377 0.374722 8.67691 0
M  V30 4377 H 715.107 0.443485 6.90277 0
M  V30 4378 H 715.974 -1.75537 7.96793 0
M  V30 4379 P 719.936 -2.75334 8.47391 0
M  V30 4380 O 720.156 -3.84128 9.44797 0
M  V30 4381 O 720.726 -1.51947 8.68712 0
M  V30 4382 O 720.186 -3.29363 6.99321 0
M  V30 4383 C 719.246 -4.24011 6.4274 0
M  V30 4384 C 719.976 -5.20775 5.52155 0
M  V30 4385 O 720.186 -4.56534 4.22446 0
M  V30 4386 C 721.376 -5.62629 5.96531 0
M  V30 4387 O 721.766 -6.87667 5.41053 0
M  V30 4388 C 722.256 -4.52537 5.39283 0
M  V30 4389 C 721.546 -4.20027 4.08623 0
M  V30 4390 N 721.596 -2.76189 3.71603 0
M  V30 4391 H 718.757 -4.797 7.24003 0
M  V30 4392 H 718.487 -3.69856 5.84513 0
M  V30 4393 H 719.354 -6.10356 5.41441 0
M  V30 4394 P 723.316 -7.20834 5.23717 0
M  V30 4395 O 723.536 -8.66104 5.38572 0
M  V30 4396 O 724.106 -6.33544 6.1349 0
M  V30 4397 O 723.566 -6.7751 3.72168 0
M  V30 4398 C 722.626 -7.20825 2.7076 0
M  V30 4399 C 723.356 -7.45864 1.40599 0
M  V30 4400 O 723.566 -6.17651 0.734225 0
M  V30 4401 C 724.756 -8.05808 1.51899 0
M  V30 4402 O 725.146 -8.74358 0.335205 0
M  V30 4403 C 725.636 -6.83093 1.70294 0
M  V30 4404 C 724.926 -5.79992 0.836974 0
M  V30 4405 N 724.976 -4.41864 1.38293 0
M  V30 4406 C 724.896 -3.99538 2.69438 0
M  V30 4407 N 724.976 -2.69909 2.84277 0
M  V30 4408 C 725.116 -2.21719 1.5408 0
M  V30 4409 C 725.246 -0.891712 1.06628 0
M  V30 4410 N 725.366 -0.856846 -0.334985 0
M  V30 4411 C 725.366 -1.9641 -1.15789 0
M  V30 4412 N 725.496 -1.72708 -2.46522 0
M  V30 4413 N 725.236 -3.21165 -0.713741 0
M  V30 4414 C 725.116 -3.26797 0.639748 0
M  V30 4415 H 722.137 -8.13644 3.0377 0
M  V30 4416 H 721.867 -6.42788 2.55485 0
M  V30 4417 H 722.734 -8.12039 0.792769 0
M  V30 4418 P 726.696 -8.91 -4.98617e-12 0
M  V30 4419 O 726.916 -10.1726 -0.733694 0
M  V30 4420 O 727.486 -8.73148 1.23936 0
M  V30 4421 O 726.946 -7.66872 -0.971405 0
M  V30 4422 C 726.006 -7.42309 -2.04641 0
M  V30 4423 C 726.736 -6.86059 -3.24661 0
M  V30 4424 O 726.946 -5.42847 -3.03646 0
M  V30 4425 C 728.136 -7.41196 -3.50753 0
M  V30 4426 O 728.526 -7.27073 -4.86816 0
M  V30 4427 C 729.016 -6.5273 -2.63741 0
M  V30 4428 C 728.306 -5.1842 -2.73198 0
M  V30 4429 N 728.356 -4.38762 -1.4784 0
M  V30 4430 H 725.517 -8.36803 -2.32493 0
M  V30 4431 H 725.247 -6.70197 -1.71129 0
M  V30 4432 H 726.114 -7.03551 -4.13168 0
M  V30 4433 P 730.076 -7.20834 -5.23717 0
M  V30 4434 O 730.296 -7.79853 -6.57286 0
M  V30 4435 O 730.866 -7.79239 -4.12957 0
M  V30 4436 O 730.326 -5.63315 -5.29344 0
M  V30 4437 C 729.386 -4.80255 -6.01876 0
M  V30 4438 C 730.116 -3.64202 -6.65911 0
M  V30 4439 O 730.326 -2.60694 -5.64732 0
M  V30 4440 C 731.516 -3.93473 -7.1943 0
M  V30 4441 O 731.906 -3.02071 -8.21205 0
M  V30 4442 C 732.396 -3.73047 -5.97036 0
M  V30 4443 C 731.686 -2.58828 -5.25741 0
M  V30 4444 N 731.736 -2.68068 -3.77503 0
M  V30 4445 H 728.897 -5.40332 -6.79951 0
M  V30 4446 H 728.627 -4.41613 -5.32378 0
M  V30 4447 H 729.494 -3.26331 -7.47797 0
M  V30 4448 P 733.456 -2.75334 -8.47391 0
M  V30 4449 O 733.676 -2.44571 -9.90142 0
M  V30 4450 O 734.246 -3.87688 -7.92115 0
M  V30 4451 O 733.706 -1.4459 -7.59357 0
M  V30 4452 C 732.766 -0.347608 -7.69215 0
M  V30 4453 C 733.496 0.96767 -7.52806 0
M  V30 4454 O 733.706 1.21036 -6.1011 0
M  V30 4455 C 734.896 1.04544 -8.13308 0
M  V30 4456 O 735.286 2.38311 -8.41922 0
M  V30 4457 C 735.776 0.491279 -7.02284 0
M  V30 4458 C 735.066 0.996264 -5.77469 0
M  V30 4459 N 735.116 0.0501916 -4.62973 0
M  V30 4460 H 732.277 -0.374722 -8.67691 0
M  V30 4461 H 732.007 -0.443485 -6.90277 0
M  V30 4462 H 732.874 1.75537 -7.96793 0
M  V30 4463 P 736.836 2.75334 -8.47391 0
M  V30 4464 O 737.056 3.84204 -9.44982 0
M  V30 4465 O 737.626 1.51982 -8.68909 0
M  V30 4466 O 737.086 3.29363 -6.99321 0
M  V30 4467 C 736.146 4.24066 -6.42823 0
M  V30 4468 C 736.876 5.20775 -5.52155 0
M  V30 4469 O 737.086 4.56607 -4.22514 0
M  V30 4470 C 738.276 5.62697 -5.96604 0
M  V30 4471 O 738.666 6.87667 -5.41053 0
M  V30 4472 C 739.156 4.52537 -5.39283 0
M  V30 4473 C 738.446 4.20027 -4.08623 0
M  V30 4474 N 738.496 2.76189 -3.71603 0
M  V30 4475 C 738.416 1.66944 -4.54297 0
M  V30 4476 N 738.486 0.536169 -3.91344 0
M  V30 4477 C 738.636 0.901569 -2.58849 0
M  V30 4478 C 738.766 0.146599 -1.40236 0
M  V30 4479 N 738.776 -1.18234 -1.37046 0
M  V30 4480 N 738.886 0.822941 -0.249738 0
M  V30 4481 C 738.876 2.15179 -0.280525 0
M  V30 4482 N 738.756 2.96414 -1.30822 0
M  V30 4483 C 738.636 2.25804 -2.44748 0
M  V30 4484 H 735.658 4.79756 -7.24086 0
M  V30 4485 H 735.386 3.69963 -5.84682 0
M  V30 4486 H 736.254 6.10431 -5.41508 0
M  V30 4487 H 738.909 4.78816 -3.28024 0
M  V30 4488 H 739.189 3.64957 -6.05871 0
M  V30 4489 H 740.18 4.88748 -5.21323 0
M  V30 4490 H 738.346 5.66789 -7.0643 0
M  V30 4491 H 738.305 1.74684 -5.62396 0
M  V30 4492 H 738.686 -1.71949 -2.24394 0
M  V30 4493 H 738.875 -1.67511 -0.470742 0
M  V30 4494 H 738.983 2.63704 0.6828 0
M  V30 4495 P 740.216 7.20834 -5.23717 0
M  V30 4496 O 740.436 8.66274 -5.38678 0
M  V30 4497 O 741.006 6.33687 -6.13629 0
M  V30 4498 O 740.466 6.7751 -3.72168 0
M  V30 4499 C 739.526 7.20919 -2.70795 0
M  V30 4500 C 740.256 7.45864 -1.40599 0
M  V30 4501 O 740.466 6.17751 -0.734343 0
M  V30 4502 C 741.656 8.05906 -1.51917 0
M  V30 4503 O 742.046 8.74358 -0.335205 0
M  V30 4504 C 742.536 6.83093 -1.70294 0
M  V30 4505 C 741.826 5.79992 -0.836974 0
M  V30 4506 N 741.876 4.41864 -1.38293 0
M  V30 4507 H 739.038 8.13738 -3.03804 0
M  V30 4508 H 738.766 6.42974 -2.55559 0
M  V30 4509 H 739.634 8.12139 -0.792866 0
M  V30 4510 H 742.289 5.80178 0.160643 0
M  V30 4511 H 742.569 6.51379 -2.75643 0
M  V30 4512 H 743.56 7.01832 -1.3448 0
M  V30 4513 H 741.726 8.73771 -2.38364 0
M  V30 4514 P 743.596 8.91 5.14336e-12 0
M  V30 4515 O 743.816 10.1726 0.733694 0
M  V30 4516 O 744.386 8.73148 -1.23936 0
M  V30 4517 O 743.846 7.66872 0.971405 0
M  V30 4518 C 742.906 7.42309 2.04641 0
M  V30 4519 C 743.636 6.86059 3.24661 0
M  V30 4520 O 743.846 5.42847 3.03646 0
M  V30 4521 C 745.036 7.41196 3.50753 0
M  V30 4522 O 745.426 7.27073 4.86816 0
M  V30 4523 C 745.916 6.5273 2.63741 0
M  V30 4524 C 745.206 5.1842 2.73198 0
M  V30 4525 N 745.256 4.38762 1.4784 0
M  V30 4526 C 745.176 4.81605 0.168631 0
M  V30 4527 N 745.256 3.85454 -0.713363 0
M  V30 4528 C 745.396 2.6994 0.0566958 0
M  V30 4529 C 745.526 1.34815 -0.338502 0
M  V30 4530 O 745.546 0.869548 -1.47125 0
M  V30 4531 N 745.646 0.496304 0.77465 0
M  V30 4532 C 745.646 0.908403 2.09122 0
M  V30 4533 N 745.776 -0.0517805 3.00955 0
M  V30 4534 N 745.516 2.17875 2.46519 0
M  V30 4535 C 745.396 3.01988 1.4033 0
M  V30 4536 H 742.417 8.36803 2.32493 0
M  V30 4537 H 742.147 6.70197 1.71129 0
M  V30 4538 H 743.014 7.03551 4.13168 0
M  V30 4539 H 745.669 4.59498 3.54415 0
M  V30 4540 H 745.948 6.88898 1.59848 0
M  V30 4541 H 746.94 6.46749 3.03687 0
M  V30 4542 H 745.106 8.46908 3.20714 0
M  V30 4543 H 745.057 5.86405 -0.105564 0
M  V30 4544 H 745.739 -0.483664 0.597855 0
M  V30 4545 H 745.776 0.187865 4.0116 0
M  V30 4546 H 745.877 -1.03585 2.71726 0
M  V30 4547 P 746.976 7.20834 5.23717 0
M  V30 4548 O 747.196 7.79853 6.57286 0
M  V30 4549 O 747.766 7.79239 4.12957 0
M  V30 4550 O 747.226 5.63315 5.29344 0
M  V30 4551 C 746.286 4.80255 6.01876 0
M  V30 4552 C 747.016 3.64202 6.65911 0
M  V30 4553 O 747.226 2.60694 5.64732 0
M  V30 4554 C 748.416 3.93473 7.1943 0
M  V30 4555 O 748.806 3.02071 8.21205 0
M  V30 4556 C 749.296 3.73047 5.97036 0
M  V30 4557 C 748.586 2.58828 5.25741 0
M  V30 4558 N 748.636 2.68068 3.77503 0
M  V30 4559 H 745.797 5.40332 6.79951 0
M  V30 4560 H 745.527 4.41613 5.32378 0
M  V30 4561 H 746.394 3.26331 7.47797 0
M  V30 4562 P 750.356 2.75334 8.47391 0
M  V30 4563 O 750.576 2.44571 9.90142 0
M  V30 4564 O 751.146 3.87688 7.92115 0
M  V30 4565 O 750.606 1.4459 7.59357 0
M  V30 4566 C 749.666 0.347608 7.69215 0
M  V30 4567 C 750.396 -0.96767 7.52806 0
M  V30 4568 O 750.606 -1.21036 6.1011 0
M  V30 4569 C 751.796 -1.04544 8.13308 0
M  V30 4570 O 752.186 -2.38311 8.41922 0
M  V30 4571 C 752.676 -0.491279 7.02284 0
M  V30 4572 C 751.966 -0.996264 5.77469 0
M  V30 4573 N 752.016 -0.0501916 4.62973 0
M  V30 4574 H 749.177 0.374722 8.67691 0
M  V30 4575 H 748.907 0.443485 6.90277 0
M  V30 4576 H 749.774 -1.75537 7.96793 0
M  V30 4577 P 753.736 -2.75334 8.47391 0
M  V30 4578 O 753.956 -3.84128 9.44797 0
M  V30 4579 O 754.526 -1.51947 8.68712 0
M  V30 4580 O 753.986 -3.29363 6.99321 0
M  V30 4581 C 753.046 -4.24011 6.4274 0
M  V30 4582 C 753.776 -5.20775 5.52155 0
M  V30 4583 O 753.986 -4.56534 4.22446 0
M  V30 4584 C 755.176 -5.62629 5.96531 0
M  V30 4585 O 755.566 -6.87667 5.41053 0
M  V30 4586 C 756.056 -4.52537 5.39283 0
M  V30 4587 C 755.346 -4.20027 4.08623 0
M  V30 4588 N 755.396 -2.76189 3.71603 0
M  V30 4589 H 752.557 -4.797 7.24003 0
M  V30 4590 H 752.287 -3.69856 5.84513 0
M  V30 4591 H 753.154 -6.10356 5.41441 0
M  V30 4592 P 757.116 -7.20834 5.23717 0
M  V30 4593 O 757.336 -8.66274 5.38678 0
M  V30 4594 O 757.906 -6.33687 6.13629 0
M  V30 4595 O 757.366 -6.7751 3.72168 0
M  V30 4596 C 756.426 -7.20919 2.70795 0
M  V30 4597 C 757.156 -7.45864 1.40599 0
M  V30 4598 O 757.366 -6.17751 0.734343 0
M  V30 4599 C 758.556 -8.05906 1.51917 0
M  V30 4600 O 758.946 -8.74358 0.335205 0
M  V30 4601 C 759.436 -6.83093 1.70294 0
M  V30 4602 C 758.726 -5.79992 0.836974 0
M  V30 4603 N 758.776 -4.41864 1.38293 0
M  V30 4604 H 755.938 -8.13738 3.03804 0
M  V30 4605 H 755.666 -6.42974 2.55559 0
M  V30 4606 H 756.534 -8.12139 0.792866 0
M  V30 4607 H 759.189 -5.80178 -0.160643 0
M  V30 4608 H 759.469 -6.51379 2.75643 0
M  V30 4609 H 760.46 -7.01832 1.3448 0
M  V30 4610 H 758.626 -8.73771 2.38364 0
M  V30 4611 P 760.496 -8.91 -5.30054e-12 0
M  V30 4612 O 760.716 -10.1746 -0.733838 0
M  V30 4613 O 761.286 -8.73346 1.23964 0
M  V30 4614 O 760.746 -7.66872 -0.971405 0
M  V30 4615 C 759.806 -7.42405 -2.04668 0
M  V30 4616 C 760.536 -6.86059 -3.24661 0
M  V30 4617 O 760.746 -5.42934 -3.03695 0
M  V30 4618 C 761.936 -7.41287 -3.50796 0
M  V30 4619 O 762.326 -7.27073 -4.86816 0
M  V30 4620 C 762.816 -6.5273 -2.63741 0
M  V30 4621 C 762.106 -5.1842 -2.73198 0
M  V30 4622 N 762.156 -4.38762 -1.4784 0
M  V30 4623 H 759.318 -8.36899 -2.3252 0
M  V30 4624 H 759.046 -6.70391 -1.71179 0
M  V30 4625 H 759.914 -7.03638 -4.13219 0
M  V30 4626 H 762.569 -4.59931 -3.54016 0
M  V30 4627 H 762.849 -6.88995 -1.59871 0
M  V30 4628 H 763.84 -6.4684 -3.0373 0
M  V30 4629 H 762.006 -8.47002 -3.20749 0
M  V30 4630 P 763.875 -7.20834 -5.23717 0
M  V30 4631 O 764.095 -7.79853 -6.57286 0
M  V30 4632 O 764.665 -7.79239 -4.12957 0
M  V30 4633 O 764.125 -5.63315 -5.29344 0
M  V30 4634 C 763.185 -4.80255 -6.01876 0
M  V30 4635 C 763.915 -3.64202 -6.65911 0
M  V30 4636 O 764.125 -2.60694 -5.64732 0
M  V30 4637 C 765.315 -3.93473 -7.1943 0
M  V30 4638 O 765.705 -3.02071 -8.21205 0
M  V30 4639 C 766.195 -3.73047 -5.97036 0
M  V30 4640 C 765.485 -2.58828 -5.25741 0
M  V30 4641 N 765.535 -2.68068 -3.77503 0
M  V30 4642 H 762.696 -5.40332 -6.79951 0
M  V30 4643 H 762.426 -4.41613 -5.32378 0
M  V30 4644 H 763.293 -3.26331 -7.47797 0
M  V30 4645 P 767.255 -2.75334 -8.47391 0
M  V30 4646 O 767.475 -2.44619 -9.90336 0
M  V30 4647 O 768.045 -3.87776 -7.92294 0
M  V30 4648 O 767.505 -1.4459 -7.59357 0
M  V30 4649 C 766.565 -0.347653 -7.69315 0
M  V30 4650 C 767.295 0.96767 -7.52806 0
M  V30 4651 O 767.505 1.21055 -6.10208 0
M  V30 4652 C 768.695 1.04557 -8.13408 0
M  V30 4653 O 769.085 2.38311 -8.41922 0
M  V30 4654 C 769.575 0.491279 -7.02284 0
M  V30 4655 C 768.865 0.996264 -5.77469 0
M  V30 4656 N 768.915 0.0501916 -4.62973 0
M  V30 4657 H 766.077 -0.374765 -8.67791 0
M  V30 4658 H 765.805 -0.443613 -6.90476 0
M  V30 4659 H 766.673 1.75559 -7.96891 0
M  V30 4660 H 769.328 1.94563 -5.46818 0
M  V30 4661 H 769.608 -0.608651 -7.04676 0
M  V30 4662 H 770.599 0.889796 -7.09039 0
M  V30 4663 H 768.765 0.433128 -9.04664 0
M  V30 4664 P 770.635 2.75334 -8.47391 0
M  V30 4665 O 770.855 3.84128 -9.44797 0
M  V30 4666 O 771.425 1.51947 -8.68712 0
M  V30 4667 O 770.885 3.29363 -6.99321 0
M  V30 4668 C 769.945 4.24011 -6.4274 0
M  V30 4669 C 770.675 5.20775 -5.52155 0
M  V30 4670 O 770.885 4.56534 -4.22446 0
M  V30 4671 C 772.075 5.62629 -5.96531 0
M  V30 4672 O 772.465 6.87667 -5.41053 0
M  V30 4673 C 772.955 4.52537 -5.39283 0
M  V30 4674 C 772.245 4.20027 -4.08623 0
M  V30 4675 N 772.295 2.76189 -3.71603 0
M  V30 4676 H 769.456 4.797 -7.24003 0
M  V30 4677 H 769.186 3.69856 -5.84513 0
M  V30 4678 H 770.053 6.10356 -5.41441 0
M  V30 4679 P 774.015 7.20834 -5.23717 0
M  V30 4680 O 774.235 8.66189 -5.38625 0
M  V30 4681 O 774.805 6.33615 -6.1356 0
M  V30 4682 O 774.265 6.7751 -3.72168 0
M  V30 4683 C 773.325 7.20732 -2.70725 0
M  V30 4684 C 774.055 7.45864 -1.40599 0
M  V30 4685 O 774.265 6.17651 -0.734225 0
M  V30 4686 C 775.455 8.05808 -1.51899 0
M  V30 4687 O 775.845 8.74358 -0.335205 0
M  V30 4688 C 776.335 6.83093 -1.70294 0
M  V30 4689 C 775.625 5.79992 -0.836974 0
M  V30 4690 N 775.675 4.41769 -1.38263 0
M  V30 4691 C 775.825 3.38591 -0.481702 0
M  V30 4692 O 775.915 3.56839 0.718452 0
M  V30 4693 N 775.865 2.1206 -1.03569 0
M  V30 4694 C 775.775 1.80696 -2.36966 0
M  V30 4695 O 775.825 0.630473 -2.74862 0
M  V30 4696 C 775.625 2.94845 -3.23898 0
M  V30 4697 C 775.515 2.65253 -4.70362 0
M  V30 4698 C 775.575 4.19803 -2.73435 0
M  V30 4699 H 772.835 8.13644 -3.0377 0
M  V30 4700 H 772.566 6.42695 -2.55448 0
M  V30 4701 H 773.433 8.12039 -0.792769 0
M  V30 4702 H 776.088 5.79978 0.160587 0
M  V30 4703 H 776.367 6.51379 -2.75643 0
M  V30 4704 H 777.359 7.01734 -1.34462 0
M  V30 4705 H 775.525 8.73674 -2.38337 0
M  V30 4706 H 775.454 5.04492 -3.4095 0
M  V30 4707 H 776.484 2.83924 -5.1913 0
M  V30 4708 H 774.747 3.29824 -5.15163 0
M  V30 4709 H 775.235 1.59723 -4.84449 0
M  V30 4710 H 775.971 1.35644 -0.399345 0
M  V30 4711 P 777.395 8.91 5.45772e-12 0
M  V30 4712 O 777.615 10.1726 0.733694 0
M  V30 4713 O 778.185 8.73148 -1.23936 0
M  V30 4714 O 777.645 7.66872 0.971405 0
M  V30 4715 C 776.705 7.42309 2.04641 0
M  V30 4716 C 777.435 6.86059 3.24661 0
M  V30 4717 O 777.645 5.42847 3.03646 0
M  V30 4718 C 778.835 7.41196 3.50753 0
M  V30 4719 O 779.225 7.27073 4.86816 0
M  V30 4720 C 779.715 6.5273 2.63741 0
M  V30 4721 C 779.005 5.1842 2.73198 0
M  V30 4722 N 779.055 4.38762 1.4784 0
M  V30 4723 H 776.216 8.36803 2.32493 0
M  V30 4724 H 775.946 6.70197 1.71129 0
M  V30 4725 H 776.813 7.03551 4.13168 0
M  V30 4726 P 780.775 7.20834 5.23717 0
M  V30 4727 O 780.995 7.7993 6.57351 0
M  V30 4728 O 781.565 7.79328 4.13004 0
M  V30 4729 O 781.025 5.63315 5.29344 0
M  V30 4730 C 780.085 4.80193 6.01798 0
M  V30 4731 C 780.815 3.64202 6.65911 0
M  V30 4732 O 781.025 2.60694 5.64732 0
M  V30 4733 C 782.215 3.93473 7.1943 0
M  V30 4734 O 782.605 3.02071 8.21205 0
M  V30 4735 C 783.095 3.73047 5.97036 0
M  V30 4736 C 782.385 2.58828 5.25741 0
M  V30 4737 N 782.435 2.6801 3.77422 0
M  V30 4738 C 782.585 1.50443 3.07133 0
M  V30 4739 O 782.675 0.419406 3.61576 0
M  V30 4740 N 782.625 1.6403 1.69677 0
M  V30 4741 C 782.535 2.81206 0.986255 0
M  V30 4742 O 782.585 2.80892 -0.249754 0
M  V30 4743 C 782.385 3.99158 1.80325 0
M  V30 4744 C 782.275 5.29309 1.06921 0
M  V30 4745 C 782.335 3.89779 3.1476 0
M  V30 4746 H 779.595 5.40332 6.79951 0
M  V30 4747 H 779.326 4.41549 5.32301 0
M  V30 4748 H 780.193 3.26331 7.47797 0
M  V30 4749 H 782.848 1.6395 5.56554 0
M  V30 4750 H 783.127 4.63439 5.3432 0
M  V30 4751 H 784.119 3.44728 6.25838 0
M  V30 4752 H 782.285 4.96652 7.57263 0
M  V30 4753 H 782.214 4.80159 3.74441 0
M  V30 4754 H 783.244 5.81459 1.09608 0
M  V30 4755 H 781.507 5.9187 1.54487 0
M  V30 4756 H 781.995 5.10095 0.0220288 0
M  V30 4757 H 782.731 0.798962 1.16664 0
M  V30 4758 P 784.155 2.75334 8.47391 0
M  V30 4759 O 784.375 2.44619 9.90336 0
M  V30 4760 O 784.945 3.87776 7.92294 0
M  V30 4761 O 784.405 1.4459 7.59357 0
M  V30 4762 C 783.465 0.347653 7.69315 0
M  V30 4763 C 784.195 -0.96767 7.52806 0
M  V30 4764 O 784.405 -1.21055 6.10208 0
M  V30 4765 C 785.595 -1.04557 8.13408 0
M  V30 4766 O 785.985 -2.38311 8.41922 0
M  V30 4767 C 786.475 -0.491279 7.02284 0
M  V30 4768 C 785.765 -0.996264 5.77469 0
M  V30 4769 N 785.815 -0.0501916 4.62973 0
M  V30 4770 H 782.977 0.374765 8.67791 0
M  V30 4771 H 782.705 0.443613 6.90476 0
M  V30 4772 H 783.573 -1.75559 7.96891 0
M  V30 4773 H 786.228 -1.94563 5.46818 0
M  V30 4774 H 786.508 0.608651 7.04676 0
M  V30 4775 H 787.499 -0.889796 7.09039 0
M  V30 4776 H 785.665 -0.433128 9.04664 0
M  V30 4777 P 787.535 -2.75334 8.47391 0
M  V30 4778 O 787.755 -3.84204 9.44982 0
M  V30 4779 O 788.325 -1.51982 8.68909 0
M  V30 4780 O 787.785 -3.29363 6.99321 0
M  V30 4781 C 786.845 -4.24066 6.42823 0
M  V30 4782 C 787.575 -5.20775 5.52155 0
M  V30 4783 O 787.785 -4.56607 4.22514 0
M  V30 4784 C 788.975 -5.62697 5.96604 0
M  V30 4785 O 789.365 -6.87667 5.41053 0
M  V30 4786 C 789.855 -4.52537 5.39283 0
M  V30 4787 C 789.145 -4.20027 4.08623 0
M  V30 4788 N 789.195 -2.76189 3.71603 0
M  V30 4789 H 786.357 -4.79756 7.24086 0
M  V30 4790 H 786.085 -3.69963 5.84682 0
M  V30 4791 H 786.953 -6.10431 5.41508 0
M  V30 4792 H 789.608 -4.78816 3.28024 0
M  V30 4793 H 789.888 -3.64957 6.05871 0
M  V30 4794 H 790.879 -4.88748 5.21323 0
M  V30 4795 H 789.045 -5.66789 7.0643 0
M  V30 4796 P 790.915 -7.20834 5.23717 0
M  V30 4797 O 791.135 -8.66189 5.38625 0
M  V30 4798 O 791.705 -6.33615 6.1356 0
M  V30 4799 O 791.165 -6.7751 3.72168 0
M  V30 4800 C 790.225 -7.20732 2.70725 0
M  V30 4801 C 790.955 -7.45864 1.40599 0
M  V30 4802 O 791.165 -6.17651 0.734225 0
M  V30 4803 C 792.355 -8.05808 1.51899 0
M  V30 4804 O 792.745 -8.74358 0.335205 0
M  V30 4805 C 793.235 -6.83093 1.70294 0
M  V30 4806 C 792.525 -5.79992 0.836974 0
M  V30 4807 N 792.575 -4.41769 1.38263 0
M  V30 4808 C 792.725 -3.38591 0.481702 0
M  V30 4809 O 792.815 -3.56839 -0.718452 0
M  V30 4810 N 792.765 -2.1206 1.03569 0
M  V30 4811 C 792.675 -1.80696 2.36966 0
M  V30 4812 C 792.525 -2.94845 3.23898 0
M  V30 4813 C 792.475 -4.19803 2.73435 0
M  V30 4814 H 789.735 -8.13644 3.0377 0
M  V30 4815 H 789.466 -6.42695 2.55448 0
M  V30 4816 H 790.333 -8.12039 0.792769 0
M  V30 4817 H 792.988 -5.79978 -0.160587 0
M  V30 4818 H 793.267 -6.51379 2.75643 0
M  V30 4819 H 794.259 -7.01734 1.34462 0
M  V30 4820 H 792.425 -8.73674 2.38337 0
M  V30 4821 H 792.354 -5.04492 3.4095 0
M  V30 4822 P 794.295 -8.91 -5.6149e-12 0
M  V30 4823 O 794.515 -10.1746 -0.733838 0
M  V30 4824 O 795.085 -8.73346 1.23964 0
M  V30 4825 O 794.545 -7.66872 -0.971405 0
M  V30 4826 C 793.605 -7.42405 -2.04668 0
M  V30 4827 C 794.335 -6.86059 -3.24661 0
M  V30 4828 O 794.545 -5.42934 -3.03695 0
M  V30 4829 C 795.735 -7.41287 -3.50796 0
M  V30 4830 O 796.125 -7.27073 -4.86816 0
M  V30 4831 C 796.615 -6.5273 -2.63741 0
M  V30 4832 C 795.905 -5.1842 -2.73198 0
M  V30 4833 N 795.955 -4.38762 -1.4784 0
M  V30 4834 H 793.117 -8.36899 -2.3252 0
M  V30 4835 H 792.845 -6.70391 -1.71179 0
M  V30 4836 H 793.713 -7.03638 -4.13219 0
M  V30 4837 H 796.368 -4.59931 -3.54016 0
M  V30 4838 H 796.648 -6.88995 -1.59871 0
M  V30 4839 H 797.639 -6.4684 -3.0373 0
M  V30 4840 H 795.805 -8.47002 -3.20749 0
M  V30 4841 P 797.675 -7.20834 -5.23717 0
M  V30 4842 O 797.895 -7.79853 -6.57286 0
M  V30 4843 O 798.465 -7.79239 -4.12957 0
M  V30 4844 O 797.925 -5.63315 -5.29344 0
M  V30 4845 C 796.985 -4.80255 -6.01876 0
M  V30 4846 C 797.715 -3.64202 -6.65911 0
M  V30 4847 O 797.925 -2.60694 -5.64732 0
M  V30 4848 C 799.115 -3.93473 -7.1943 0
M  V30 4849 O 799.505 -3.02071 -8.21205 0
M  V30 4850 C 799.995 -3.73047 -5.97036 0
M  V30 4851 C 799.285 -2.58828 -5.25741 0
M  V30 4852 N 799.335 -2.68068 -3.77503 0
M  V30 4853 H 796.496 -5.40332 -6.79951 0
M  V30 4854 H 796.226 -4.41613 -5.32378 0
M  V30 4855 H 797.093 -3.26331 -7.47797 0
M  V30 4856 P 801.055 -2.75334 -8.47391 0
M  V30 4857 O 801.275 -2.44571 -9.90142 0
M  V30 4858 O 801.845 -3.87688 -7.92115 0
M  V30 4859 O 801.305 -1.4459 -7.59357 0
M  V30 4860 C 800.365 -0.347608 -7.69215 0
M  V30 4861 C 801.095 0.96767 -7.52806 0
M  V30 4862 O 801.305 1.21036 -6.1011 0
M  V30 4863 C 802.495 1.04544 -8.13308 0
M  V30 4864 O 802.885 2.38311 -8.41922 0
M  V30 4865 C 803.375 0.491279 -7.02284 0
M  V30 4866 C 802.665 0.996264 -5.77469 0
M  V30 4867 N 802.715 0.0501916 -4.62973 0
M  V30 4868 H 799.876 -0.374722 -8.67691 0
M  V30 4869 H 799.606 -0.443485 -6.90277 0
M  V30 4870 H 800.473 1.75537 -7.96793 0
M  V30 4871 P 804.435 2.75334 -8.47391 0
M  V30 4872 O 804.655 3.84128 -9.44797 0
M  V30 4873 O 805.225 1.51947 -8.68712 0
M  V30 4874 O 804.685 3.29363 -6.99321 0
M  V30 4875 C 803.745 4.24011 -6.4274 0
M  V30 4876 C 804.475 5.20775 -5.52155 0
M  V30 4877 O 804.685 4.56534 -4.22446 0
M  V30 4878 C 805.875 5.62629 -5.96531 0
M  V30 4879 O 806.265 6.87667 -5.41053 0
M  V30 4880 C 806.755 4.52537 -5.39283 0
M  V30 4881 C 806.045 4.20027 -4.08623 0
M  V30 4882 N 806.095 2.76189 -3.71603 0
M  V30 4883 H 803.256 4.797 -7.24003 0
M  V30 4884 H 802.986 3.69856 -5.84513 0
M  V30 4885 H 803.853 6.10356 -5.41441 0
M  V30 4886 P 807.815 7.20834 -5.23717 0
M  V30 4887 O 808.035 8.66104 -5.38572 0
M  V30 4888 O 808.605 6.33544 -6.1349 0
M  V30 4889 O 808.065 6.7751 -3.72168 0
M  V30 4890 C 807.125 7.20825 -2.7076 0
M  V30 4891 C 807.855 7.45864 -1.40599 0
M  V30 4892 O 808.065 6.17651 -0.734225 0
M  V30 4893 C 809.255 8.05808 -1.51899 0
M  V30 4894 O 809.645 8.74358 -0.335205 0
M  V30 4895 C 810.135 6.83093 -1.70294 0
M  V30 4896 C 809.425 5.79992 -0.836974 0
M  V30 4897 N 809.475 4.41864 -1.38293 0
M  V30 4898 H 806.636 8.13644 -3.0377 0
M  V30 4899 H 806.366 6.42788 -2.55485 0
M  V30 4900 H 807.233 8.12039 -0.792769 0
M  V30 4901 P 811.195 8.91 5.77209e-12 0
M  V30 4902 O 811.415 10.1726 0.733694 0
M  V30 4903 O 811.985 8.73148 -1.23936 0
M  V30 4904 O 811.445 7.66872 0.971405 0
M  V30 4905 C 810.505 7.42309 2.04641 0
M  V30 4906 C 811.235 6.86059 3.24661 0
M  V30 4907 O 811.445 5.42847 3.03646 0
M  V30 4908 C 812.635 7.41196 3.50753 0
M  V30 4909 O 813.025 7.27073 4.86816 0
M  V30 4910 C 813.515 6.5273 2.63741 0
M  V30 4911 C 812.805 5.1842 2.73198 0
M  V30 4912 N 812.855 4.38762 1.4784 0
M  V30 4913 C 812.775 4.81605 0.168631 0
M  V30 4914 N 812.855 3.85454 -0.713363 0
M  V30 4915 C 812.995 2.6994 0.0566958 0
M  V30 4916 C 813.125 1.34815 -0.338502 0
M  V30 4917 N 813.245 0.496304 0.77465 0
M  V30 4918 C 813.245 0.908403 2.09122 0
M  V30 4919 N 813.375 -0.0517805 3.00955 0
M  V30 4920 N 813.115 2.17875 2.46519 0
M  V30 4921 C 812.995 3.01988 1.4033 0
M  V30 4922 H 810.016 8.36803 2.32493 0
M  V30 4923 H 809.746 6.70197 1.71129 0
M  V30 4924 H 810.613 7.03551 4.13168 0
M  V30 4925 P 814.575 7.20834 5.23717 0
M  V30 4926 O 814.795 7.79853 6.57286 0
M  V30 4927 O 815.365 7.79239 4.12957 0
M  V30 4928 O 814.825 5.63315 5.29344 0
M  V30 4929 C 813.885 4.80255 6.01876 0
M  V30 4930 C 814.615 3.64202 6.65911 0
M  V30 4931 O 814.825 2.60694 5.64732 0
M  V30 4932 C 816.015 3.93473 7.1943 0
M  V30 4933 O 816.405 3.02071 8.21205 0
M  V30 4934 C 816.895 3.73047 5.97036 0
M  V30 4935 C 816.185 2.58828 5.25741 0
M  V30 4936 N 816.235 2.68068 3.77503 0
M  V30 4937 H 813.396 5.40332 6.79951 0
M  V30 4938 H 813.126 4.41613 5.32378 0
M  V30 4939 H 813.993 3.26331 7.47797 0
M  V30 4940 P 817.955 2.75334 8.47391 0
M  V30 4941 O 818.175 2.44571 9.90142 0
M  V30 4942 O 818.745 3.87688 7.92115 0
M  V30 4943 O 818.205 1.4459 7.59357 0
M  V30 4944 C 817.265 0.347608 7.69215 0
M  V30 4945 C 817.995 -0.96767 7.52806 0
M  V30 4946 O 818.205 -1.21036 6.1011 0
M  V30 4947 C 819.395 -1.04544 8.13308 0
M  V30 4948 O 819.785 -2.38311 8.41922 0
M  V30 4949 C 820.275 -0.491279 7.02284 0
M  V30 4950 C 819.565 -0.996264 5.77469 0
M  V30 4951 N 819.615 -0.0501916 4.62973 0
M  V30 4952 H 816.776 0.374722 8.67691 0
M  V30 4953 H 816.506 0.443485 6.90277 0
M  V30 4954 H 817.373 -1.75537 7.96793 0
M  V30 4955 P 821.335 -2.75334 8.47391 0
M  V30 4956 O 821.555 -3.84128 9.44797 0
M  V30 4957 O 822.125 -1.51947 8.68712 0
M  V30 4958 O 821.585 -3.29363 6.99321 0
M  V30 4959 C 820.645 -4.24011 6.4274 0
M  V30 4960 C 821.375 -5.20775 5.52155 0
M  V30 4961 O 821.585 -4.56534 4.22446 0
M  V30 4962 C 822.775 -5.62629 5.96531 0
M  V30 4963 O 823.165 -6.87667 5.41053 0
M  V30 4964 C 823.655 -4.52537 5.39283 0
M  V30 4965 C 822.945 -4.20027 4.08623 0
M  V30 4966 N 822.995 -2.76189 3.71603 0
M  V30 4967 H 820.156 -4.797 7.24003 0
M  V30 4968 H 819.886 -3.69856 5.84513 0
M  V30 4969 H 820.753 -6.10356 5.41441 0
M  V30 4970 P 824.715 -7.20834 5.23717 0
M  V30 4971 O 824.935 -8.66104 5.38572 0
M  V30 4972 O 825.505 -6.33544 6.1349 0
M  V30 4973 O 824.965 -6.7751 3.72168 0
M  V30 4974 C 824.025 -7.20825 2.7076 0
M  V30 4975 C 824.755 -7.45864 1.40599 0
M  V30 4976 O 824.965 -6.17651 0.734225 0
M  V30 4977 C 826.155 -8.05808 1.51899 0
M  V30 4978 O 826.545 -8.74358 0.335205 0
M  V30 4979 C 827.035 -6.83093 1.70294 0
M  V30 4980 C 826.325 -5.79992 0.836974 0
M  V30 4981 N 826.375 -4.41864 1.38293 0
M  V30 4982 H 823.536 -8.13644 3.0377 0
M  V30 4983 H 823.266 -6.42788 2.55485 0
M  V30 4984 H 824.133 -8.12039 0.792769 0
M  V30 4985 P 828.095 -8.91 -5.92927e-12 0
M  V30 4986 O 828.315 -10.1746 -0.733838 0
M  V30 4987 O 828.885 -8.73346 1.23964 0
M  V30 4988 O 828.345 -7.66872 -0.971405 0
M  V30 4989 C 827.405 -7.42405 -2.04668 0
M  V30 4990 C 828.135 -6.86059 -3.24661 0
M  V30 4991 O 828.345 -5.42934 -3.03695 0
M  V30 4992 C 829.535 -7.41287 -3.50796 0
M  V30 4993 O 829.925 -7.27073 -4.86816 0
M  V30 4994 C 830.415 -6.5273 -2.63741 0
M  V30 4995 C 829.705 -5.1842 -2.73198 0
M  V30 4996 N 829.755 -4.38762 -1.4784 0
M  V30 4997 C 829.675 -4.83651 -0.183876 0
M  V30 4998 N 829.745 -3.88759 0.699393 0
M  V30 4999 C 829.895 -2.7404 -0.0575568 0
M  V30 5000 C 830.025 -1.37902 0.293928 0
M  V30 5001 N 830.035 -0.938021 1.54797 0
M  V30 5002 N 830.145 -0.491817 -0.70549 0
M  V30 5003 C 830.135 -0.931735 -1.95979 0
M  V30 5004 N 830.015 -2.16017 -2.41481 0
M  V30 5005 C 829.895 -3.02547 -1.39121 0
M  V30 5006 H 826.917 -8.36899 -2.3252 0
M  V30 5007 H 826.645 -6.70391 -1.71179 0
M  V30 5008 H 827.513 -7.03638 -4.13219 0
M  V30 5009 H 830.168 -4.59931 -3.54016 0
M  V30 5010 H 830.448 -6.88995 -1.59871 0
M  V30 5011 H 831.439 -6.4684 -3.0373 0
M  V30 5012 H 829.605 -8.47002 -3.20749 0
M  V30 5013 H 829.564 -5.8885 0.0765548 0
M  V30 5014 H 829.945 -1.60276 2.32875 0
M  V30 5015 H 830.134 0.0699355 1.73859 0
M  V30 5016 H 830.242 -0.165507 -2.71897 0
M  V30 5017 P 831.475 -7.20834 -5.23717 0
M  V30 5018 O 831.695 -7.79853 -6.57286 0
M  V30 5019 O 832.265 -7.79239 -4.12957 0
M  V30 5020 O 831.725 -5.63315 -5.29344 0
M  V30 5021 C 830.785 -4.80255 -6.01876 0
M  V30 5022 C 831.515 -3.64202 -6.65911 0
M  V30 5023 O 831.725 -2.60694 -5.64732 0
M  V30 5024 C 832.915 -3.93473 -7.1943 0
M  V30 5025 O 833.305 -3.02071 -8.21205 0
M  V30 5026 C 833.795 -3.73047 -5.97036 0
M  V30 5027 C 833.085 -2.58828 -5.25741 0
M  V30 5028 N 833.135 -2.68068 -3.77503 0
M  V30 5029 H 830.296 -5.40332 -6.79951 0
M  V30 5030 H 830.026 -4.41613 -5.32378 0
M  V30 5031 H 830.893 -3.26331 -7.47797 0
M  V30 5032 P 834.855 -2.75334 -8.47391 0
M  V30 5033 O 835.075 -2.44571 -9.90142 0
M  V30 5034 O 835.645 -3.87688 -7.92115 0
M  V30 5035 O 835.105 -1.4459 -7.59357 0
M  V30 5036 C 834.165 -0.347608 -7.69215 0
M  V30 5037 C 834.895 0.96767 -7.52806 0
M  V30 5038 O 835.105 1.21036 -6.1011 0
M  V30 5039 C 836.295 1.04544 -8.13308 0
M  V30 5040 O 836.685 2.38311 -8.41922 0
M  V30 5041 C 837.175 0.491279 -7.02284 0
M  V30 5042 C 836.465 0.996264 -5.77469 0
M  V30 5043 N 836.515 0.0501916 -4.62973 0
M  V30 5044 C 836.435 -1.32786 -4.63244 0
M  V30 5045 N 836.515 -1.86957 -3.44545 0
M  V30 5046 C 836.655 -0.780241 -2.58481 0
M  V30 5047 C 836.785 -0.738536 -1.17757 0
M  V30 5048 N 836.905 0.58337 -0.711393 0
M  V30 5049 C 836.905 1.70816 -1.51017 0
M  V30 5050 N 837.035 2.87826 -0.880757 0
M  V30 5051 N 836.775 1.67126 -2.8339 0
M  V30 5052 C 836.655 0.401421 -3.30572 0
M  V30 5053 H 833.676 -0.374722 -8.67691 0
M  V30 5054 H 833.406 -0.443485 -6.90277 0
M  V30 5055 H 834.273 1.75537 -7.96793 0
M  V30 5056 P 838.235 2.75334 -8.47391 0
M  V30 5057 O 838.455 3.84128 -9.44797 0
M  V30 5058 O 839.025 1.51947 -8.68712 0
M  V30 5059 O 838.485 3.29363 -6.99321 0
M  V30 5060 C 837.545 4.24011 -6.4274 0
M  V30 5061 C 838.275 5.20775 -5.52155 0
M  V30 5062 O 838.485 4.56534 -4.22446 0
M  V30 5063 C 839.675 5.62629 -5.96531 0
M  V30 5064 O 840.065 6.87667 -5.41053 0
M  V30 5065 C 840.555 4.52537 -5.39283 0
M  V30 5066 C 839.845 4.20027 -4.08623 0
M  V30 5067 N 839.895 2.76189 -3.71603 0
M  V30 5068 H 837.056 4.797 -7.24003 0
M  V30 5069 H 836.786 3.69856 -5.84513 0
M  V30 5070 H 837.653 6.10356 -5.41441 0
M  V30 5071 P 841.615 7.20834 -5.23717 0
M  V30 5072 O 841.835 8.66104 -5.38572 0
M  V30 5073 O 842.405 6.33544 -6.1349 0
M  V30 5074 O 841.865 6.7751 -3.72168 0
M  V30 5075 C 840.925 7.20825 -2.7076 0
M  V30 5076 C 841.655 7.45864 -1.40599 0
M  V30 5077 O 841.865 6.17651 -0.734225 0
M  V30 5078 C 843.055 8.05808 -1.51899 0
M  V30 5079 O 843.445 8.74358 -0.335205 0
M  V30 5080 C 843.935 6.83093 -1.70294 0
M  V30 5081 C 843.225 5.79992 -0.836974 0
M  V30 5082 N 843.275 4.41864 -1.38293 0
M  V30 5083 H 840.436 8.13644 -3.0377 0
M  V30 5084 H 840.166 6.42788 -2.55485 0
M  V30 5085 H 841.033 8.12039 -0.792769 0
M  V30 5086 P 844.995 8.91 6.08645e-12 0
M  V30 5087 O 845.215 10.1726 0.733694 0
M  V30 5088 O 845.785 8.73148 -1.23936 0
M  V30 5089 O 845.245 7.66872 0.971405 0
M  V30 5090 C 844.305 7.42309 2.04641 0
M  V30 5091 C 845.035 6.86059 3.24661 0
M  V30 5092 O 845.245 5.42847 3.03646 0
M  V30 5093 C 846.435 7.41196 3.50753 0
M  V30 5094 O 846.825 7.27073 4.86816 0
M  V30 5095 C 847.315 6.5273 2.63741 0
M  V30 5096 C 846.605 5.1842 2.73198 0
M  V30 5097 N 846.655 4.38762 1.4784 0
M  V30 5098 H 843.816 8.36803 2.32493 0
M  V30 5099 H 843.546 6.70197 1.71129 0
M  V30 5100 H 844.413 7.03551 4.13168 0
M  V30 5101 P 848.375 7.20834 5.23717 0
M  V30 5102 O 848.595 7.7993 6.57351 0
M  V30 5103 O 849.165 7.79328 4.13004 0
M  V30 5104 O 848.625 5.63315 5.29344 0
M  V30 5105 C 847.685 4.80193 6.01798 0
M  V30 5106 C 848.415 3.64202 6.65911 0
M  V30 5107 O 848.625 2.60694 5.64732 0
M  V30 5108 C 849.815 3.93473 7.1943 0
M  V30 5109 O 850.205 3.02071 8.21205 0
M  V30 5110 C 850.695 3.73047 5.97036 0
M  V30 5111 C 849.985 2.58828 5.25741 0
M  V30 5112 N 850.035 2.6801 3.77422 0
M  V30 5113 C 850.185 1.50443 3.07133 0
M  V30 5114 O 850.275 0.419406 3.61576 0
M  V30 5115 N 850.225 1.6403 1.69677 0
M  V30 5116 C 850.135 2.81206 0.986255 0
M  V30 5117 O 850.185 2.80892 -0.249754 0
M  V30 5118 C 849.985 3.99158 1.80325 0
M  V30 5119 C 849.875 5.29309 1.06921 0
M  V30 5120 C 849.935 3.89779 3.1476 0
M  V30 5121 H 847.195 5.40332 6.79951 0
M  V30 5122 H 846.926 4.41549 5.32301 0
M  V30 5123 H 847.793 3.26331 7.47797 0
M  V30 5124 H 850.448 1.6395 5.56554 0
M  V30 5125 H 850.727 4.63439 5.3432 0
M  V30 5126 H 851.719 3.44728 6.25838 0
M  V30 5127 H 849.885 4.96652 7.57263 0
M  V30 5128 H 849.814 4.80159 3.74441 0
M  V30 5129 H 850.844 5.81459 1.09608 0
M  V30 5130 H 849.107 5.9187 1.54487 0
M  V30 5131 H 849.595 5.10095 0.0220288 0
M  V30 5132 H 850.331 0.798962 1.16664 0
M  V30 5133 P 851.755 2.75334 8.47391 0
M  V30 5134 O 851.975 2.44571 9.90142 0
M  V30 5135 O 852.545 3.87688 7.92115 0
M  V30 5136 O 852.005 1.4459 7.59357 0
M  V30 5137 C 851.065 0.347608 7.69215 0
M  V30 5138 C 851.795 -0.96767 7.52806 0
M  V30 5139 O 852.005 -1.21036 6.1011 0
M  V30 5140 C 853.195 -1.04544 8.13308 0
M  V30 5141 O 853.585 -2.38311 8.41922 0
M  V30 5142 C 854.075 -0.491279 7.02284 0
M  V30 5143 C 853.365 -0.996264 5.77469 0
M  V30 5144 N 853.415 -0.0501916 4.62973 0
M  V30 5145 H 850.576 0.374722 8.67691 0
M  V30 5146 H 850.306 0.443485 6.90277 0
M  V30 5147 H 851.173 -1.75537 7.96793 0
M  V30 5148 P 855.135 -2.75334 8.47391 0
M  V30 5149 O 855.355 -3.84128 9.44797 0
M  V30 5150 O 855.925 -1.51947 8.68712 0
M  V30 5151 O 855.385 -3.29363 6.99321 0
M  V30 5152 C 854.445 -4.24011 6.4274 0
M  V30 5153 C 855.175 -5.20775 5.52155 0
M  V30 5154 O 855.385 -4.56534 4.22446 0
M  V30 5155 C 856.575 -5.62629 5.96531 0
M  V30 5156 O 856.965 -6.87667 5.41053 0
M  V30 5157 C 857.455 -4.52537 5.39283 0
M  V30 5158 C 856.745 -4.20027 4.08623 0
M  V30 5159 N 856.795 -2.76189 3.71603 0
M  V30 5160 C 856.715 -1.64862 4.52822 0
M  V30 5161 N 856.795 -0.512671 3.88633 0
M  V30 5162 C 856.935 -0.888083 2.54977 0
M  V30 5163 C 857.065 -0.094668 1.38677 0
M  V30 5164 N 857.185 -0.890102 0.232633 0
M  V30 5165 C 857.185 -2.26958 0.21772 0
M  V30 5166 N 857.315 -2.84626 -0.97925 0
M  V30 5167 N 857.055 -3.0178 1.31033 0
M  V30 5168 C 856.935 -2.26781 2.43843 0
M  V30 5169 H 853.956 -4.797 7.24003 0
M  V30 5170 H 853.686 -3.69856 5.84513 0
M  V30 5171 H 854.553 -6.10356 5.41441 0
M  V30 5172 P 858.515 -7.20834 5.23717 0
M  V30 5173 O 858.735 -8.66104 5.38572 0
M  V30 5174 O 859.305 -6.33544 6.1349 0
M  V30 5175 O 858.765 -6.7751 3.72168 0
M  V30 5176 C 857.825 -7.20825 2.7076 0
M  V30 5177 C 858.555 -7.45864 1.40599 0
M  V30 5178 O 858.765 -6.17651 0.734225 0
M  V30 5179 C 859.955 -8.05808 1.51899 0
M  V30 5180 O 860.345 -8.74358 0.335205 0
M  V30 5181 C 860.835 -6.83093 1.70294 0
M  V30 5182 C 860.125 -5.79992 0.836974 0
M  V30 5183 N 860.175 -4.41864 1.38293 0
M  V30 5184 H 857.336 -8.13644 3.0377 0
M  V30 5185 H 857.066 -6.42788 2.55485 0
M  V30 5186 H 857.933 -8.12039 0.792769 0
M  V30 5187 P 861.895 -8.91 -6.24363e-12 0
M  V30 5188 O 862.115 -10.1726 -0.733694 0
M  V30 5189 O 862.685 -8.73148 1.23936 0
M  V30 5190 O 862.145 -7.66872 -0.971405 0
M  V30 5191 C 861.205 -7.42309 -2.04641 0
M  V30 5192 C 861.935 -6.86059 -3.24661 0
M  V30 5193 O 862.145 -5.42847 -3.03646 0
M  V30 5194 C 863.335 -7.41196 -3.50753 0
M  V30 5195 O 863.725 -7.27073 -4.86816 0
M  V30 5196 C 864.215 -6.5273 -2.63741 0
M  V30 5197 C 863.505 -5.1842 -2.73198 0
M  V30 5198 N 863.555 -4.38762 -1.4784 0
M  V30 5199 H 860.716 -8.36803 -2.32493 0
M  V30 5200 H 860.446 -6.70197 -1.71129 0
M  V30 5201 H 861.313 -7.03551 -4.13168 0
M  V30 5202 P 865.275 -7.20834 -5.23717 0
M  V30 5203 O 865.495 -7.79853 -6.57286 0
M  V30 5204 O 866.065 -7.79239 -4.12957 0
M  V30 5205 O 865.525 -5.63315 -5.29344 0
M  V30 5206 C 864.585 -4.80255 -6.01876 0
M  V30 5207 C 865.315 -3.64202 -6.65911 0
M  V30 5208 O 865.525 -2.60694 -5.64732 0
M  V30 5209 C 866.715 -3.93473 -7.1943 0
M  V30 5210 O 867.105 -3.02071 -8.21205 0
M  V30 5211 C 867.595 -3.73047 -5.97036 0
M  V30 5212 C 866.885 -2.58828 -5.25741 0
M  V30 5213 N 866.935 -2.68068 -3.77503 0
M  V30 5214 H 864.096 -5.40332 -6.79951 0
M  V30 5215 H 863.826 -4.41613 -5.32378 0
M  V30 5216 H 864.693 -3.26331 -7.47797 0
M  V30 5217 P 868.655 -2.75334 -8.47391 0
M  V30 5218 O 868.875 -2.44571 -9.90142 0
M  V30 5219 O 869.445 -3.87688 -7.92115 0
M  V30 5220 O 868.905 -1.4459 -7.59357 0
M  V30 5221 C 867.965 -0.347608 -7.69215 0
M  V30 5222 C 868.695 0.96767 -7.52806 0
M  V30 5223 O 868.905 1.21036 -6.1011 0
M  V30 5224 C 870.095 1.04544 -8.13308 0
M  V30 5225 O 870.485 2.38311 -8.41922 0
M  V30 5226 C 870.975 0.491279 -7.02284 0
M  V30 5227 C 870.265 0.996264 -5.77469 0
M  V30 5228 N 870.315 0.0501916 -4.62973 0
M  V30 5229 H 867.476 -0.374722 -8.67691 0
M  V30 5230 H 867.206 -0.443485 -6.90277 0
M  V30 5231 H 868.073 1.75537 -7.96793 0
M  V30 5232 P 872.035 2.75334 -8.47391 0
M  V30 5233 O 872.255 3.84166 -9.4489 0
M  V30 5234 O 872.825 1.51964 -8.6881 0
M  V30 5235 O 872.285 3.29363 -6.99321 0
M  V30 5236 C 871.345 4.23956 -6.42656 0
M  V30 5237 C 872.075 5.20775 -5.52155 0
M  V30 5238 O 872.285 4.56534 -4.22446 0
M  V30 5239 C 873.475 5.62629 -5.96531 0
M  V30 5240 O 873.865 6.87667 -5.41053 0
M  V30 5241 C 874.355 4.52537 -5.39283 0
M  V30 5242 C 873.645 4.20027 -4.08623 0
M  V30 5243 N 873.695 2.7613 -3.71522 0
M  V30 5244 C 873.845 2.45612 -2.37989 0
M  V30 5245 O 873.935 3.30919 -1.51621 0
M  V30 5246 N 873.885 1.10684 -2.08435 0
M  V30 5247 C 873.795 0.0690084 -2.9792 0
M  V30 5248 O 873.845 -1.10553 -2.59426 0
M  V30 5249 C 873.645 0.481522 -4.35345 0
M  V30 5250 C 873.535 -0.618778 -5.36443 0
M  V30 5251 C 873.595 1.78906 -4.67968 0
M  V30 5252 H 870.855 4.797 -7.24003 0
M  V30 5253 H 870.586 3.69802 -5.84429 0
M  V30 5254 H 871.453 6.10356 -5.41441 0
M  V30 5255 H 874.108 4.78651 -3.27911 0
M  V30 5256 H 874.387 3.64957 -6.05871 0
M  V30 5257 H 875.379 4.8868 -5.2125 0
M  V30 5258 H 873.545 5.66726 -7.06352 0
M  V30 5259 H 873.474 2.07737 -5.72367 0
M  V30 5260 H 874.504 -0.754375 -5.86871 0
M  V30 5261 H 872.767 -0.359721 -6.10641 0
M  V30 5262 H 873.255 -1.55533 -4.8581 0
M  V30 5263 H 873.991 0.862651 -1.12037 0
M  V30 5264 P 875.415 7.20834 -5.23717 0
M  V30 5265 O 875.635 8.66104 -5.38572 0
M  V30 5266 O 876.205 6.33544 -6.1349 0
M  V30 5267 O 875.665 6.7751 -3.72168 0
M  V30 5268 C 874.725 7.20825 -2.7076 0
M  V30 5269 C 875.455 7.45864 -1.40599 0
M  V30 5270 O 875.665 6.17651 -0.734225 0
M  V30 5271 C 876.855 8.05808 -1.51899 0
M  V30 5272 O 877.245 8.74358 -0.335205 0
M  V30 5273 C 877.735 6.83093 -1.70294 0
M  V30 5274 C 877.025 5.79992 -0.836974 0
M  V30 5275 N 877.075 4.41864 -1.38293 0
M  V30 5276 H 874.236 8.13644 -3.0377 0
M  V30 5277 H 873.966 6.42788 -2.55485 0
M  V30 5278 H 874.833 8.12039 -0.792769 0
M  V30 5279 P 878.795 8.91 6.40081e-12 0
M  V30 5280 O 879.015 10.1726 0.733694 0
M  V30 5281 O 879.585 8.73148 -1.23936 0
M  V30 5282 O 879.045 7.66872 0.971405 0
M  V30 5283 C 878.105 7.42309 2.04641 0
M  V30 5284 C 878.835 6.86059 3.24661 0
M  V30 5285 O 879.045 5.42847 3.03646 0
M  V30 5286 C 880.235 7.41196 3.50753 0
M  V30 5287 O 880.625 7.27073 4.86816 0
M  V30 5288 C 881.115 6.5273 2.63741 0
M  V30 5289 C 880.405 5.1842 2.73198 0
M  V30 5290 N 880.455 4.38762 1.4784 0
M  V30 5291 H 877.616 8.36803 2.32493 0
M  V30 5292 H 877.346 6.70197 1.71129 0
M  V30 5293 H 878.213 7.03551 4.13168 0
M  V30 5294 H 880.494 6.36132 5.14416 0
M  V30 5295 H 884.516 -9.0732 -2.85239 0
M  V30 5296 O 884.396 -8.67639 -2.00036 0
M  V30 5297 P 882.955 -8.7635 -1.60911 0
M  V30 5298 O 882.735 -10.1388 -1.11561 0
M  V30 5299 O 882.165 -8.36503 -2.79617 0
M  V30 5300 O 882.705 -7.71806 -0.42951 0
M  V30 5301 C 883.645 -7.67148 0.673689 0
M  V30 5302 C 882.915 -7.33374 1.95559 0
M  V30 5303 O 882.705 -5.88721 2.00726 0
M  V30 5304 C 881.515 -7.92526 2.10483 0
M  V30 5305 O 881.125 -8.02971 3.47653 0
M  V30 5306 C 880.635 -6.89602 1.41652 0
M  V30 5307 C 881.345 -5.59201 1.75185 0
M  V30 5308 N 881.295 -4.58301 0.657969 0
M  V30 5309 H 884.134 -8.65116 0.777161 0
M  V30 5310 H 884.406 -6.9022 0.46725 0
M  V30 5311 H 883.538 -7.66548 2.79458 0
M  V30 5312 H 880.883 -5.16165 2.65183 0
M  V30 5313 H 880.603 -7.06433 0.329384 0
M  V30 5314 H 879.612 -6.90926 1.82021 0
M  V30 5315 H 881.446 -8.90873 1.62657 0
M  V30 5316 P 879.575 -8.03563 3.84925 0
M  V30 5317 O 879.355 -8.85821 5.0569 0
M  V30 5318 O 878.785 -8.41101 2.65469 0
M  V30 5319 O 879.325 -6.4965 4.18908 0
M  V30 5320 C 880.265 -5.81037 5.05421 0
M  V30 5321 C 879.535 -4.78366 5.89277 0
M  V30 5322 O 879.325 -3.58302 5.08433 0
M  V30 5323 C 878.135 -5.17448 6.36119 0
M  V30 5324 O 877.745 -4.45271 7.53232 0
M  V30 5325 C 877.255 -4.74639 5.19936 0
M  V30 5326 C 877.965 -3.49432 4.70418 0
M  V30 5327 N 877.915 -3.32099 3.22613 0
M  V30 5328 H 880.754 -6.54213 5.71376 0
M  V30 5329 H 881.026 -5.30936 4.43503 0
M  V30 5330 H 880.158 -4.55889 6.76652 0
M  V30 5331 H 877.503 -2.61715 5.17932 0
M  V30 5332 H 877.223 -5.52155 4.41878 0
M  V30 5333 H 876.232 -4.51981 5.53374 0
M  V30 5334 H 878.066 -6.25124 6.55234 0
M  V30 5335 P 876.195 -4.23843 7.83734 0
M  V30 5336 O 875.975 -4.19407 9.29784 0
M  V30 5337 O 875.405 -5.24426 7.09156 0
M  V30 5338 O 875.945 -2.7935 7.20758 0
M  V30 5339 C 876.885 -1.7299 7.50419 0
M  V30 5340 C 876.155 -0.406376 7.57911 0
M  V30 5341 O 875.945 0.0897726 6.21935 0
M  V30 5342 C 874.755 -0.447224 8.1878 0
M  V30 5343 O 874.365 0.825065 8.71101 0
M  V30 5344 C 873.875 -0.783801 6.99623 0
M  V30 5345 C 874.585 -0.0619192 5.85967 0
M  V30 5346 N 874.535 -0.790462 4.56202 0
M  V30 5347 C 874.615 -2.13895 4.34171 0
M  V30 5348 N 874.545 -2.46449 3.08687 0
M  V30 5349 C 874.395 -1.2525 2.43697 0
M  V30 5350 C 874.265 -0.914535 1.07318 0
M  V30 5351 N 874.255 -1.80782 0.0887348 0
M  V30 5352 N 874.145 0.386745 0.768133 0
M  V30 5353 C 874.155 1.28096 1.75159 0
M  V30 5354 N 874.275 1.09708 3.04861 0
M  V30 5355 C 874.395 -0.214857 3.32306 0
M  V30 5356 H 877.374 -1.93423 8.4679 0
M  V30 5357 H 877.646 -1.68852 6.70877 0
M  V30 5358 H 876.778 0.289041 8.15388 0
M  V30 5359 H 874.123 0.927006 5.72848 0
M  V30 5360 H 873.843 -1.86973 6.82036 0
M  V30 5361 H 872.852 -0.403953 7.13357 0
M  V30 5362 H 874.686 -1.20599 8.97534 0
M  V30 5363 H 874.727 -2.86846 5.14318 0
M  V30 5364 H 874.346 -2.81082 0.302037 0
M  V30 5365 H 874.157 -1.49688 -0.889064 0
M  V30 5366 H 874.049 2.31317 1.43855 0
M  V30 5367 P 872.815 1.17771 8.83182 0
M  V30 5368 O 872.595 2.07206 9.98732 0
M  V30 5369 O 872.025 -0.0743816 8.81969 0
M  V30 5370 O 872.565 1.97652 7.47304 0
M  V30 5371 C 873.505 3.01133 7.08783 0
M  V30 5372 C 872.775 4.12613 6.37049 0
M  V30 5373 O 872.565 3.72827 4.97879 0
M  V30 5374 C 871.375 4.45085 6.88694 0
M  V30 5375 O 870.985 5.7877 6.5624 0
M  V30 5376 C 870.495 3.47817 6.12078 0
M  V30 5377 C 871.205 3.39414 4.77697 0
M  V30 5378 N 871.155 2.04615 4.15333 0
M  V30 5379 H 873.994 3.41248 7.98759 0
M  V30 5380 H 874.266 2.5837 6.41742 0
M  V30 5381 H 873.398 5.02657 6.42673 0
M  V30 5382 P 869.435 6.144 6.45285 0
M  V30 5383 O 869.215 7.54673 6.86199 0
M  V30 5384 O 868.645 5.12391 7.179 0
M  V30 5385 O 869.185 5.99158 4.88404 0
M  V30 5386 C 870.125 6.60234 3.96415 0
M  V30 5387 C 869.395 7.08259 2.72856 0
M  V30 5388 O 869.185 5.9427 1.83651 0
M  V30 5389 C 867.995 7.64886 2.9555 0
M  V30 5390 O 867.605 8.53963 1.90717 0
M  V30 5391 C 867.115 6.4116 2.90739 0
M  V30 5392 C 867.825 5.55375 1.86963 0
M  V30 5393 N 867.775 4.09664 2.15742 0
M  V30 5394 H 870.614 7.45574 4.45629 0
M  V30 5395 H 870.886 5.86232 3.67314 0
M  V30 5396 H 870.018 7.84412 2.24479 0
M  V30 5397 P 866.055 8.7635 1.60911 0
M  V30 5398 O 865.835 10.1388 1.11561 0
M  V30 5399 O 865.265 8.36503 2.79617 0
M  V30 5400 O 865.805 7.71806 0.42951 0
M  V30 5401 C 866.745 7.67148 -0.673689 0
M  V30 5402 C 866.015 7.33374 -1.95559 0
M  V30 5403 O 865.805 5.88721 -2.00726 0
M  V30 5404 C 864.615 7.92526 -2.10483 0
M  V30 5405 O 864.225 8.02971 -3.47653 0
M  V30 5406 C 863.735 6.89602 -1.41652 0
M  V30 5407 C 864.445 5.59201 -1.75185 0
M  V30 5408 N 864.395 4.58235 -0.662552 0
M  V30 5409 H 867.234 8.65116 -0.777161 0
M  V30 5410 H 867.506 6.90173 -0.474152 0
M  V30 5411 H 866.638 7.66548 -2.79458 0
M  V30 5412 P 862.675 8.03563 -3.84925 0
M  V30 5413 O 862.455 8.85821 -5.0569 0
M  V30 5414 O 861.885 8.41101 -2.65469 0
M  V30 5415 O 862.425 6.4965 -4.18908 0
M  V30 5416 C 863.365 5.81037 -5.05421 0
M  V30 5417 C 862.635 4.78366 -5.89277 0
M  V30 5418 O 862.425 3.58302 -5.08433 0
M  V30 5419 C 861.235 5.17448 -6.36119 0
M  V30 5420 O 860.845 4.45271 -7.53232 0
M  V30 5421 C 860.355 4.74639 -5.19936 0
M  V30 5422 C 861.065 3.49432 -4.70418 0
M  V30 5423 N 861.015 3.32099 -3.22613 0
M  V30 5424 H 863.854 6.54213 -5.71376 0
M  V30 5425 H 864.126 5.30936 -4.43503 0
M  V30 5426 H 863.258 4.55889 -6.76652 0
M  V30 5427 H 860.603 2.61715 -5.17932 0
M  V30 5428 H 860.323 5.52155 -4.41878 0
M  V30 5429 H 859.332 4.51981 -5.53374 0
M  V30 5430 H 861.166 6.25124 -6.55234 0
M  V30 5431 P 859.295 4.23843 -7.83734 0
M  V30 5432 O 859.075 4.19407 -9.29784 0
M  V30 5433 O 858.505 5.24426 -7.09156 0
M  V30 5434 O 859.045 2.7935 -7.20758 0
M  V30 5435 C 859.985 1.72945 -7.50224 0
M  V30 5436 C 859.255 0.406376 -7.57911 0
M  V30 5437 O 859.045 -0.0897726 -6.21935 0
M  V30 5438 C 857.855 0.438983 -8.18724 0
M  V30 5439 O 857.465 -0.825065 -8.71101 0
M  V30 5440 C 856.975 0.783689 -6.99524 0
M  V30 5441 C 857.685 0.0619086 -5.85867 0
M  V30 5442 N 857.635 0.78573 -4.56183 0
M  V30 5443 C 857.485 0.0292889 -3.41887 0
M  V30 5444 O 857.395 -1.18445 -3.4419 0
M  V30 5445 N 857.445 0.744061 -2.23964 0
M  V30 5446 C 857.535 2.10932 -2.10362 0
M  V30 5447 C 857.685 2.8202 -3.34994 0
M  V30 5448 C 857.735 2.15547 -4.52261 0
M  V30 5449 H 860.476 1.93379 -8.46595 0
M  V30 5450 H 860.745 1.68132 -6.70852 0
M  V30 5451 H 859.878 -0.289041 -8.15388 0
M  V30 5452 H 857.223 -0.926847 -5.72749 0
M  V30 5453 H 856.944 1.86973 -6.82036 0
M  V30 5454 H 855.952 0.403896 -7.13257 0
M  V30 5455 H 857.786 1.20585 -8.97435 0
M  V30 5456 H 857.857 2.71231 -5.45042 0
M  V30 5457 P 855.915 -1.17771 -8.83182 0
M  V30 5458 O 855.695 -2.07206 -9.98732 0
M  V30 5459 O 855.125 0.0743816 -8.81969 0
M  V30 5460 O 855.665 -1.97652 -7.47304 0
M  V30 5461 C 856.605 -3.01133 -7.08783 0
M  V30 5462 C 855.875 -4.12613 -6.37049 0
M  V30 5463 O 855.665 -3.72827 -4.97879 0
M  V30 5464 C 854.475 -4.45085 -6.88694 0
M  V30 5465 O 854.085 -5.7877 -6.5624 0
M  V30 5466 C 853.595 -3.47817 -6.12078 0
M  V30 5467 C 854.305 -3.39414 -4.77697 0
M  V30 5468 N 854.255 -2.04615 -4.15333 0
M  V30 5469 H 857.094 -3.41248 -7.98759 0
M  V30 5470 H 857.366 -2.5837 -6.41742 0
M  V30 5471 H 856.498 -5.02657 -6.42673 0
M  V30 5472 P 852.535 -6.144 -6.45285 0
M  V30 5473 O 852.315 -7.54673 -6.86199 0
M  V30 5474 O 851.745 -5.12391 -7.179 0
M  V30 5475 O 852.285 -5.99158 -4.88404 0
M  V30 5476 C 853.225 -6.60234 -3.96415 0
M  V30 5477 C 852.495 -7.08259 -2.72856 0
M  V30 5478 O 852.285 -5.9427 -1.83651 0
M  V30 5479 C 851.095 -7.64886 -2.9555 0
M  V30 5480 O 850.705 -8.53963 -1.90717 0
M  V30 5481 C 850.215 -6.4116 -2.90739 0
M  V30 5482 C 850.925 -5.55375 -1.86963 0
M  V30 5483 N 850.875 -4.09448 -2.16152 0
M  V30 5484 C 850.955 -3.46824 -3.37593 0
M  V30 5485 N 850.885 -2.17422 -3.29777 0
M  V30 5486 C 850.735 -1.93065 -1.94427 0
M  V30 5487 C 850.605 -0.738053 -1.20141 0
M  V30 5488 N 850.595 0.474256 -1.74676 0
M  V30 5489 N 850.485 -0.850049 0.13045 0
M  V30 5490 C 850.495 -2.06169 0.676992 0
M  V30 5491 N 850.615 -3.23842 0.101312 0
M  V30 5492 C 850.735 -3.09402 -1.23122 0
M  V30 5493 H 853.714 -7.45574 -4.45629 0
M  V30 5494 H 853.986 -5.85864 -3.679 0
M  V30 5495 H 853.118 -7.84412 -2.24479 0
M  V30 5496 H 850.463 -5.73457 -0.888562 0
M  V30 5497 H 850.183 -5.90877 -3.88583 0
M  V30 5498 H 849.192 -6.6596 -2.58858 0
M  V30 5499 H 851.026 -8.16339 -3.92049 0
M  V30 5500 H 851.067 -4.00505 -4.3174 0
M  V30 5501 H 850.686 0.581337 -2.76658 0
M  V30 5502 H 850.497 1.30811 -1.14888 0
M  V30 5503 H 850.389 -2.08295 1.75542 0
M  V30 5504 P 849.155 -8.7635 -1.60911 0
M  V30 5505 O 848.935 -10.1388 -1.11561 0
M  V30 5506 O 848.365 -8.36503 -2.79617 0
M  V30 5507 O 848.905 -7.71806 -0.42951 0
M  V30 5508 C 849.845 -7.67148 0.673689 0
M  V30 5509 C 849.115 -7.33374 1.95559 0
M  V30 5510 O 848.905 -5.88721 2.00726 0
M  V30 5511 C 847.715 -7.92526 2.10483 0
M  V30 5512 O 847.325 -8.02971 3.47653 0
M  V30 5513 C 846.835 -6.89602 1.41652 0
M  V30 5514 C 847.545 -5.59201 1.75185 0
M  V30 5515 N 847.495 -4.58235 0.662552 0
M  V30 5516 H 850.334 -8.65116 0.777161 0
M  V30 5517 H 850.606 -6.90173 0.474152 0
M  V30 5518 H 849.738 -7.66548 2.79458 0
M  V30 5519 P 845.775 -8.03563 3.84925 0
M  V30 5520 O 845.555 -8.85821 5.0569 0
M  V30 5521 O 844.985 -8.41101 2.65469 0
M  V30 5522 O 845.525 -6.4965 4.18908 0
M  V30 5523 C 846.465 -5.81037 5.05421 0
M  V30 5524 C 845.735 -4.78366 5.89277 0
M  V30 5525 O 845.525 -3.58302 5.08433 0
M  V30 5526 C 844.335 -5.17448 6.36119 0
M  V30 5527 O 843.945 -4.45271 7.53232 0
M  V30 5528 C 843.455 -4.74639 5.19936 0
M  V30 5529 C 844.165 -3.49432 4.70418 0
M  V30 5530 N 844.115 -3.31776 3.22945 0
M  V30 5531 H 846.954 -6.54213 5.71376 0
M  V30 5532 H 847.226 -5.30492 4.44033 0
M  V30 5533 H 846.358 -4.55889 6.76652 0
M  V30 5534 P 842.395 -4.23843 7.83734 0
M  V30 5535 O 842.175 -4.19407 9.29784 0
M  V30 5536 O 841.605 -5.24426 7.09156 0
M  V30 5537 O 842.145 -2.7935 7.20758 0
M  V30 5538 C 843.085 -1.7299 7.50419 0
M  V30 5539 C 842.355 -0.406376 7.57911 0
M  V30 5540 O 842.145 0.0897726 6.21935 0
M  V30 5541 C 840.955 -0.447224 8.1878 0
M  V30 5542 O 840.565 0.825065 8.71101 0
M  V30 5543 C 840.075 -0.783801 6.99623 0
M  V30 5544 C 840.785 -0.0619192 5.85967 0
M  V30 5545 N 840.735 -0.7859 4.56281 0
M  V30 5546 H 843.574 -1.93423 8.4679 0
M  V30 5547 H 843.846 -1.68181 6.71046 0
M  V30 5548 H 842.978 0.289041 8.15388 0
M  V30 5549 P 839.015 1.17771 8.83182 0
M  V30 5550 O 838.795 2.07206 9.98732 0
M  V30 5551 O 838.225 -0.0743816 8.81969 0
M  V30 5552 O 838.765 1.97652 7.47304 0
M  V30 5553 C 839.705 3.01055 7.08599 0
M  V30 5554 C 838.975 4.12613 6.37049 0
M  V30 5555 O 838.765 3.72827 4.97879 0
M  V30 5556 C 837.575 4.45719 6.88164 0
M  V30 5557 O 837.185 5.7877 6.5624 0
M  V30 5558 C 836.695 3.47768 6.11991 0
M  V30 5559 C 837.405 3.39356 4.77615 0
M  V30 5560 N 837.355 2.04571 4.15244 0
M  V30 5561 C 837.205 1.98587 2.78314 0
M  V30 5562 O 837.115 2.98134 2.08835 0
M  V30 5563 N 837.165 0.714467 2.24925 0
M  V30 5564 C 837.255 -0.470001 2.94169 0
M  V30 5565 C 837.405 -0.312541 4.36783 0
M  V30 5566 C 837.455 0.914512 4.92583 0
M  V30 5567 H 840.196 3.41169 7.98575 0
M  V30 5568 H 840.465 2.58295 6.41556 0
M  V30 5569 H 839.598 5.02657 6.42673 0
M  V30 5570 H 836.943 4.11637 4.08885 0
M  V30 5571 H 836.664 2.49626 6.61679 0
M  V30 5572 H 835.672 3.86566 6.00778 0
M  V30 5573 H 837.506 4.29943 7.96918 0
M  V30 5574 H 837.577 1.00937 6.00374 0
M  V30 5575 P 835.635 6.144 6.45285 0
M  V30 5576 O 835.415 7.54673 6.86199 0
M  V30 5577 O 834.845 5.12391 7.179 0
M  V30 5578 O 835.385 5.99158 4.88404 0
M  V30 5579 C 836.325 6.60234 3.96415 0
M  V30 5580 C 835.595 7.08259 2.72856 0
M  V30 5581 O 835.385 5.9427 1.83651 0
M  V30 5582 C 834.195 7.64886 2.9555 0
M  V30 5583 O 833.805 8.53963 1.90717 0
M  V30 5584 C 833.315 6.4116 2.90739 0
M  V30 5585 C 834.025 5.55375 1.86963 0
M  V30 5586 N 833.975 4.09664 2.15742 0
M  V30 5587 H 836.814 7.45574 4.45629 0
M  V30 5588 H 837.086 5.86232 3.67314 0
M  V30 5589 H 836.218 7.84412 2.24479 0
M  V30 5590 P 832.255 8.7635 1.60911 0
M  V30 5591 O 832.035 10.1388 1.11561 0
M  V30 5592 O 831.465 8.36503 2.79617 0
M  V30 5593 O 832.005 7.71806 0.42951 0
M  V30 5594 C 832.945 7.66948 -0.673514 0
M  V30 5595 C 832.215 7.33374 -1.95559 0
M  V30 5596 O 832.005 5.88721 -2.00726 0
M  V30 5597 C 830.815 7.92218 -2.1125 0
M  V30 5598 O 830.425 8.02971 -3.47653 0
M  V30 5599 C 829.935 6.89504 -1.41631 0
M  V30 5600 C 830.645 5.59106 -1.75155 0
M  V30 5601 N 830.595 4.58136 -0.662409 0
M  V30 5602 C 830.445 3.26059 -1.02863 0
M  V30 5603 O 830.355 2.90743 -2.19009 0
M  V30 5604 N 830.405 2.35995 0.0155585 0
M  V30 5605 C 830.495 2.65248 1.35603 0
M  V30 5606 O 830.445 1.75605 2.20651 0
M  V30 5607 C 830.645 4.05747 1.64698 0
M  V30 5608 C 830.755 4.42345 3.09553 0
M  V30 5609 C 830.695 4.96734 0.652411 0
M  V30 5610 H 833.436 8.64917 -0.776982 0
M  V30 5611 H 833.705 6.89974 -0.474015 0
M  V30 5612 H 832.838 7.66548 -2.79458 0
M  V30 5613 H 830.183 5.16076 -2.65138 0
M  V30 5614 H 829.904 7.06433 -0.329384 0
M  V30 5615 H 828.912 6.90829 -1.81996 0
M  V30 5616 H 830.746 8.90774 -1.62639 0
M  V30 5617 H 830.817 6.02181 0.895285 0
M  V30 5618 H 829.787 4.80252 3.45468 0
M  V30 5619 H 831.524 5.20015 3.22119 0
M  V30 5620 H 831.036 3.53269 3.67833 0
M  V30 5621 H 830.3 1.39558 -0.227499 0
M  V30 5622 P 828.875 8.03563 -3.84925 0
M  V30 5623 O 828.655 8.85821 -5.0569 0
M  V30 5624 O 828.085 8.41101 -2.65469 0
M  V30 5625 O 828.625 6.4965 -4.18908 0
M  V30 5626 C 829.565 5.81037 -5.05421 0
M  V30 5627 C 828.835 4.78366 -5.89277 0
M  V30 5628 O 828.625 3.58302 -5.08433 0
M  V30 5629 C 827.435 5.17448 -6.36119 0
M  V30 5630 O 827.045 4.45271 -7.53232 0
M  V30 5631 C 826.555 4.74639 -5.19936 0
M  V30 5632 C 827.265 3.49432 -4.70418 0
M  V30 5633 N 827.215 3.31776 -3.22945 0
M  V30 5634 H 830.054 6.54213 -5.71376 0
M  V30 5635 H 830.326 5.30492 -4.44033 0
M  V30 5636 H 829.458 4.55889 -6.76652 0
M  V30 5637 P 825.495 4.23843 -7.83734 0
M  V30 5638 O 825.275 4.19407 -9.29784 0
M  V30 5639 O 824.705 5.24426 -7.09156 0
M  V30 5640 O 825.245 2.7935 -7.20758 0
M  V30 5641 C 826.185 1.7299 -7.50419 0
M  V30 5642 C 825.455 0.406376 -7.57911 0
M  V30 5643 O 825.245 -0.0897726 -6.21935 0
M  V30 5644 C 824.055 0.447224 -8.1878 0
M  V30 5645 O 823.665 -0.825065 -8.71101 0
M  V30 5646 C 823.175 0.783801 -6.99623 0
M  V30 5647 C 823.885 0.0619192 -5.85967 0
M  V30 5648 N 823.835 0.7859 -4.56281 0
M  V30 5649 H 826.674 1.93423 -8.4679 0
M  V30 5650 H 826.946 1.68181 -6.71046 0
M  V30 5651 H 826.078 -0.289041 -8.15388 0
M  V30 5652 P 822.115 -1.17771 -8.83182 0
M  V30 5653 O 821.895 -2.07206 -9.98732 0
M  V30 5654 O 821.325 0.0743816 -8.81969 0
M  V30 5655 O 821.865 -1.97652 -7.47304 0
M  V30 5656 C 822.805 -3.01133 -7.08783 0
M  V30 5657 C 822.075 -4.12613 -6.37049 0
M  V30 5658 O 821.865 -3.72827 -4.97879 0
M  V30 5659 C 820.675 -4.45085 -6.88694 0
M  V30 5660 O 820.285 -5.7877 -6.5624 0
M  V30 5661 C 819.795 -3.47817 -6.12078 0
M  V30 5662 C 820.505 -3.39414 -4.77697 0
M  V30 5663 N 820.455 -2.04199 -4.15538 0
M  V30 5664 H 823.294 -3.41248 -7.98759 0
M  V30 5665 H 823.566 -2.57728 -6.42 0
M  V30 5666 H 822.698 -5.02657 -6.42673 0
M  V30 5667 H 820.043 -4.11708 -4.08956 0
M  V30 5668 H 819.763 -2.49626 -6.61679 0
M  V30 5669 H 818.772 -3.8662 -6.00862 0
M  V30 5670 H 820.606 -4.29991 -7.97006 0
M  V30 5671 P 818.735 -6.144 -6.45285 0
M  V30 5672 O 818.515 -7.54673 -6.86199 0
M  V30 5673 O 817.945 -5.12391 -7.179 0
M  V30 5674 O 818.485 -5.99158 -4.88404 0
M  V30 5675 C 819.425 -6.60234 -3.96415 0
M  V30 5676 C 818.695 -7.08259 -2.72856 0
M  V30 5677 O 818.485 -5.9427 -1.83651 0
M  V30 5678 C 817.295 -7.64886 -2.9555 0
M  V30 5679 O 816.905 -8.53963 -1.90717 0
M  V30 5680 C 816.415 -6.4116 -2.90739 0
M  V30 5681 C 817.125 -5.55375 -1.86963 0
M  V30 5682 N 817.075 -4.09448 -2.16152 0
M  V30 5683 H 819.914 -7.45574 -4.45629 0
M  V30 5684 H 820.186 -5.85864 -3.679 0
M  V30 5685 H 819.318 -7.84412 -2.24479 0
M  V30 5686 H 816.663 -5.73457 -0.888562 0
M  V30 5687 H 816.383 -5.90877 -3.88583 0
M  V30 5688 H 815.392 -6.6596 -2.58858 0
M  V30 5689 H 817.226 -8.16339 -3.92049 0
M  V30 5690 P 815.355 -8.7635 -1.60911 0
M  V30 5691 O 815.135 -10.1388 -1.11561 0
M  V30 5692 O 814.565 -8.36503 -2.79617 0
M  V30 5693 O 815.105 -7.71806 -0.42951 0
M  V30 5694 C 816.045 -7.66948 0.673514 0
M  V30 5695 C 815.315 -7.33374 1.95559 0
M  V30 5696 O 815.105 -5.88721 2.00726 0
M  V30 5697 C 813.915 -7.92218 2.1125 0
M  V30 5698 O 813.525 -8.02971 3.47653 0
M  V30 5699 C 813.035 -6.89504 1.41631 0
M  V30 5700 C 813.745 -5.59106 1.75155 0
M  V30 5701 N 813.695 -4.58136 0.662409 0
M  V30 5702 C 813.545 -3.26059 1.02863 0
M  V30 5703 O 813.455 -2.90743 2.19009 0
M  V30 5704 N 813.505 -2.35995 -0.0155585 0
M  V30 5705 C 813.595 -2.65248 -1.35603 0
M  V30 5706 C 813.745 -4.05747 -1.64698 0
M  V30 5707 C 813.795 -4.96734 -0.652411 0
M  V30 5708 H 816.536 -8.64917 0.776982 0
M  V30 5709 H 816.805 -6.89974 0.474015 0
M  V30 5710 H 815.938 -7.66548 2.79458 0
M  V30 5711 H 813.283 -5.16076 2.65138 0
M  V30 5712 H 813.004 -7.06433 0.329384 0
M  V30 5713 H 812.012 -6.90829 1.81996 0
M  V30 5714 H 813.846 -8.90774 1.62639 0
M  V30 5715 H 813.917 -6.02181 -0.895285 0
M  V30 5716 P 811.975 -8.03563 3.84925 0
M  V30 5717 O 811.755 -8.85821 5.0569 0
M  V30 5718 O 811.185 -8.41101 2.65469 0
M  V30 5719 O 811.725 -6.4965 4.18908 0
M  V30 5720 C 812.665 -5.81037 5.05421 0
M  V30 5721 C 811.935 -4.78366 5.89277 0
M  V30 5722 O 811.725 -3.58302 5.08433 0
M  V30 5723 C 810.535 -5.17448 6.36119 0
M  V30 5724 O 810.145 -4.45271 7.53232 0
M  V30 5725 C 809.655 -4.74639 5.19936 0
M  V30 5726 C 810.365 -3.49432 4.70418 0
M  V30 5727 N 810.315 -3.31776 3.22945 0
M  V30 5728 H 813.154 -6.54213 5.71376 0
M  V30 5729 H 813.426 -5.30492 4.44033 0
M  V30 5730 H 812.558 -4.55889 6.76652 0
M  V30 5731 P 808.595 -4.23843 7.83734 0
M  V30 5732 O 808.375 -4.19407 9.29784 0
M  V30 5733 O 807.805 -5.24426 7.09156 0
M  V30 5734 O 808.345 -2.7935 7.20758 0
M  V30 5735 C 809.285 -1.7299 7.50419 0
M  V30 5736 C 808.555 -0.406376 7.57911 0
M  V30 5737 O 808.345 0.0897726 6.21935 0
M  V30 5738 C 807.155 -0.447224 8.1878 0
M  V30 5739 O 806.765 0.825065 8.71101 0
M  V30 5740 C 806.275 -0.783801 6.99623 0
M  V30 5741 C 806.985 -0.0619192 5.85967 0
M  V30 5742 N 806.935 -0.7859 4.56281 0
M  V30 5743 H 809.774 -1.93423 8.4679 0
M  V30 5744 H 810.046 -1.68181 6.71046 0
M  V30 5745 H 809.178 0.289041 8.15388 0
M  V30 5746 P 805.215 1.17771 8.83182 0
M  V30 5747 O 804.995 2.07206 9.98732 0
M  V30 5748 O 804.425 -0.0743816 8.81969 0
M  V30 5749 O 804.965 1.97652 7.47304 0
M  V30 5750 C 805.905 3.01133 7.08783 0
M  V30 5751 C 805.175 4.12613 6.37049 0
M  V30 5752 O 804.965 3.72827 4.97879 0
M  V30 5753 C 803.775 4.45085 6.88694 0
M  V30 5754 O 803.385 5.7877 6.5624 0
M  V30 5755 C 802.895 3.47817 6.12078 0
M  V30 5756 C 803.605 3.39414 4.77697 0
M  V30 5757 N 803.555 2.04615 4.15333 0
M  V30 5758 H 806.394 3.41248 7.98759 0
M  V30 5759 H 806.666 2.5837 6.41742 0
M  V30 5760 H 805.798 5.02657 6.42673 0
M  V30 5761 P 801.835 6.144 6.45285 0
M  V30 5762 O 801.615 7.54673 6.86199 0
M  V30 5763 O 801.045 5.12391 7.179 0
M  V30 5764 O 801.585 5.99158 4.88404 0
M  V30 5765 C 802.525 6.60234 3.96415 0
M  V30 5766 C 801.795 7.08259 2.72856 0
M  V30 5767 O 801.585 5.9427 1.83651 0
M  V30 5768 C 800.395 7.64886 2.9555 0
M  V30 5769 O 800.005 8.53963 1.90717 0
M  V30 5770 C 799.515 6.4116 2.90739 0
M  V30 5771 C 800.225 5.55375 1.86963 0
M  V30 5772 N 800.175 4.09448 2.16152 0
M  V30 5773 H 803.014 7.45574 4.45629 0
M  V30 5774 H 803.286 5.85864 3.679 0
M  V30 5775 H 802.418 7.84412 2.24479 0
M  V30 5776 H 799.763 5.73457 0.888562 0
M  V30 5777 H 799.483 5.90877 3.88583 0
M  V30 5778 H 798.492 6.6596 2.58858 0
M  V30 5779 H 800.326 8.16339 3.92049 0
M  V30 5780 P 798.455 8.7635 1.60911 0
M  V30 5781 O 798.235 10.1388 1.11561 0
M  V30 5782 O 797.665 8.36503 2.79617 0
M  V30 5783 O 798.205 7.71806 0.42951 0
M  V30 5784 C 799.145 7.67148 -0.673689 0
M  V30 5785 C 798.415 7.33374 -1.95559 0
M  V30 5786 O 798.205 5.88721 -2.00726 0
M  V30 5787 C 797.015 7.92526 -2.10483 0
M  V30 5788 O 796.625 8.02971 -3.47653 0
M  V30 5789 C 796.135 6.89602 -1.41652 0
M  V30 5790 C 796.845 5.59201 -1.75185 0
M  V30 5791 N 796.795 4.58235 -0.662552 0
M  V30 5792 H 799.634 8.65116 -0.777161 0
M  V30 5793 H 799.906 6.90173 -0.474152 0
M  V30 5794 H 799.038 7.66548 -2.79458 0
M  V30 5795 P 795.075 8.03563 -3.84925 0
M  V30 5796 O 794.855 8.85821 -5.0569 0
M  V30 5797 O 794.285 8.41101 -2.65469 0
M  V30 5798 O 794.825 6.4965 -4.18908 0
M  V30 5799 C 795.765 5.81037 -5.05421 0
M  V30 5800 C 795.035 4.78366 -5.89277 0
M  V30 5801 O 794.825 3.58302 -5.08433 0
M  V30 5802 C 793.635 5.17448 -6.36119 0
M  V30 5803 O 793.245 4.45271 -7.53232 0
M  V30 5804 C 792.755 4.74639 -5.19936 0
M  V30 5805 C 793.465 3.49432 -4.70418 0
M  V30 5806 N 793.415 3.31776 -3.22945 0
M  V30 5807 C 793.495 4.27147 -2.23315 0
M  V30 5808 N 793.415 3.78447 -1.02186 0
M  V30 5809 C 793.275 2.41001 -1.21732 0
M  V30 5810 C 793.145 1.36111 -0.27694 0
M  V30 5811 N 793.025 0.113683 -0.912949 0
M  V30 5812 C 793.025 -0.0846396 -2.27943 0
M  V30 5813 N 792.895 -1.34737 -2.6916 0
M  V30 5814 N 793.155 0.902521 -3.16379 0
M  V30 5815 C 793.275 2.11937 -2.56849 0
M  V30 5816 H 796.254 6.54213 -5.71376 0
M  V30 5817 H 796.526 5.30492 -4.44033 0
M  V30 5818 H 795.658 4.55889 -6.76652 0
M  V30 5819 P 791.695 4.23843 -7.83734 0
M  V30 5820 O 791.475 4.19407 -9.29784 0
M  V30 5821 O 790.905 5.24426 -7.09156 0
M  V30 5822 O 791.445 2.7935 -7.20758 0
M  V30 5823 C 792.385 1.7299 -7.50419 0
M  V30 5824 C 791.655 0.406376 -7.57911 0
M  V30 5825 O 791.445 -0.0897726 -6.21935 0
M  V30 5826 C 790.255 0.447224 -8.1878 0
M  V30 5827 O 789.865 -0.825065 -8.71101 0
M  V30 5828 C 789.375 0.783801 -6.99623 0
M  V30 5829 C 790.085 0.0619192 -5.85967 0
M  V30 5830 N 790.035 0.7859 -4.56281 0
M  V30 5831 H 792.874 1.93423 -8.4679 0
M  V30 5832 H 793.146 1.68181 -6.71046 0
M  V30 5833 H 792.278 -0.289041 -8.15388 0
M  V30 5834 P 788.315 -1.17771 -8.83182 0
M  V30 5835 O 788.095 -2.07206 -9.98732 0
M  V30 5836 O 787.525 0.0743816 -8.81969 0
M  V30 5837 O 788.065 -1.97652 -7.47304 0
M  V30 5838 C 789.005 -3.01133 -7.08783 0
M  V30 5839 C 788.275 -4.12613 -6.37049 0
M  V30 5840 O 788.065 -3.72827 -4.97879 0
M  V30 5841 C 786.875 -4.45085 -6.88694 0
M  V30 5842 O 786.485 -5.7877 -6.5624 0
M  V30 5843 C 785.995 -3.47817 -6.12078 0
M  V30 5844 C 786.705 -3.39414 -4.77697 0
M  V30 5845 N 786.655 -2.04615 -4.15333 0
M  V30 5846 H 789.494 -3.41248 -7.98759 0
M  V30 5847 H 789.766 -2.5837 -6.41742 0
M  V30 5848 H 788.898 -5.02657 -6.42673 0
M  V30 5849 P 784.935 -6.144 -6.45285 0
M  V30 5850 O 784.715 -7.54673 -6.86199 0
M  V30 5851 O 784.145 -5.12391 -7.179 0
M  V30 5852 O 784.685 -5.99158 -4.88404 0
M  V30 5853 C 785.625 -6.60234 -3.96415 0
M  V30 5854 C 784.895 -7.08259 -2.72856 0
M  V30 5855 O 784.685 -5.9427 -1.83651 0
M  V30 5856 C 783.495 -7.64886 -2.9555 0
M  V30 5857 O 783.105 -8.53963 -1.90717 0
M  V30 5858 C 782.615 -6.4116 -2.90739 0
M  V30 5859 C 783.325 -5.55375 -1.86963 0
M  V30 5860 N 783.275 -4.09448 -2.16152 0
M  V30 5861 C 783.355 -3.46824 -3.37593 0
M  V30 5862 N 783.285 -2.17422 -3.29777 0
M  V30 5863 C 783.135 -1.93065 -1.94427 0
M  V30 5864 C 783.005 -0.738053 -1.20141 0
M  V30 5865 N 782.995 0.474256 -1.74676 0
M  V30 5866 N 782.885 -0.850049 0.13045 0
M  V30 5867 C 782.895 -2.06169 0.676992 0
M  V30 5868 N 783.015 -3.23842 0.101312 0
M  V30 5869 C 783.135 -3.09402 -1.23122 0
M  V30 5870 H 786.114 -7.45574 -4.45629 0
M  V30 5871 H 786.386 -5.85864 -3.679 0
M  V30 5872 H 785.518 -7.84412 -2.24479 0
M  V30 5873 H 782.863 -5.73457 -0.888562 0
M  V30 5874 H 782.583 -5.90877 -3.88583 0
M  V30 5875 H 781.592 -6.6596 -2.58858 0
M  V30 5876 H 783.426 -8.16339 -3.92049 0
M  V30 5877 H 783.467 -4.00505 -4.3174 0
M  V30 5878 H 783.086 0.581337 -2.76658 0
M  V30 5879 H 782.897 1.30811 -1.14888 0
M  V30 5880 H 782.789 -2.08295 1.75542 0
M  V30 5881 P 781.555 -8.7635 -1.60911 0
M  V30 5882 O 781.335 -10.1388 -1.11561 0
M  V30 5883 O 780.765 -8.36503 -2.79617 0
M  V30 5884 O 781.305 -7.71806 -0.42951 0
M  V30 5885 C 782.245 -7.67148 0.673689 0
M  V30 5886 C 781.515 -7.33374 1.95559 0
M  V30 5887 O 781.305 -5.88721 2.00726 0
M  V30 5888 C 780.115 -7.92526 2.10483 0
M  V30 5889 O 779.725 -8.02971 3.47653 0
M  V30 5890 C 779.235 -6.89602 1.41652 0
M  V30 5891 C 779.945 -5.59201 1.75185 0
M  V30 5892 N 779.895 -4.58235 0.662552 0
M  V30 5893 H 782.734 -8.65116 0.777161 0
M  V30 5894 H 783.006 -6.90173 0.474152 0
M  V30 5895 H 782.138 -7.66548 2.79458 0
M  V30 5896 P 778.175 -8.03563 3.84925 0
M  V30 5897 O 777.955 -8.85821 5.0569 0
M  V30 5898 O 777.385 -8.41101 2.65469 0
M  V30 5899 O 777.925 -6.4965 4.18908 0
M  V30 5900 C 778.865 -5.81037 5.05421 0
M  V30 5901 C 778.135 -4.78366 5.89277 0
M  V30 5902 O 777.925 -3.58302 5.08433 0
M  V30 5903 C 776.735 -5.17448 6.36119 0
M  V30 5904 O 776.345 -4.45271 7.53232 0
M  V30 5905 C 775.855 -4.74639 5.19936 0
M  V30 5906 C 776.565 -3.49432 4.70418 0
M  V30 5907 N 776.515 -3.32099 3.22613 0
M  V30 5908 C 776.595 -4.28245 2.25527 0
M  V30 5909 N 776.525 -3.80823 1.04874 0
M  V30 5910 C 776.375 -2.44571 1.23535 0
M  V30 5911 C 776.245 -1.37068 0.330675 0
M  V30 5912 N 776.235 -1.51472 -0.990824 0
M  V30 5913 N 776.125 -0.138614 0.848756 0
M  V30 5914 C 776.135 0.00675923 2.16999 0
M  V30 5915 N 776.255 -0.904372 3.11122 0
M  V30 5916 C 776.375 -2.12707 2.56212 0
M  V30 5917 H 779.354 -6.54213 5.71376 0
M  V30 5918 H 779.626 -5.30936 4.43503 0
M  V30 5919 H 778.758 -4.55889 6.76652 0
M  V30 5920 H 776.103 -2.61715 5.17932 0
M  V30 5921 H 775.823 -5.52155 4.41878 0
M  V30 5922 H 774.832 -4.51981 5.53374 0
M  V30 5923 H 776.666 -6.25124 6.55234 0
M  V30 5924 H 776.707 -5.34372 2.47488 0
M  V30 5925 H 776.326 -2.45153 -1.4078 0
M  V30 5926 H 776.137 -0.688422 -1.59911 0
M  V30 5927 H 776.029 1.02584 2.52346 0
M  V30 5928 P 774.795 -4.23843 7.83734 0
M  V30 5929 O 774.575 -4.19407 9.29784 0
M  V30 5930 O 774.005 -5.24426 7.09156 0
M  V30 5931 O 774.545 -2.7935 7.20758 0
M  V30 5932 C 775.485 -1.7299 7.50419 0
M  V30 5933 C 774.755 -0.406376 7.57911 0
M  V30 5934 O 774.545 0.0897726 6.21935 0
M  V30 5935 C 773.355 -0.447224 8.1878 0
M  V30 5936 O 772.965 0.825065 8.71101 0
M  V30 5937 C 772.475 -0.783801 6.99623 0
M  V30 5938 C 773.185 -0.0619192 5.85967 0
M  V30 5939 N 773.135 -0.7859 4.56281 0
M  V30 5940 H 775.974 -1.93423 8.4679 0
M  V30 5941 H 776.246 -1.68181 6.71046 0
M  V30 5942 H 775.378 0.289041 8.15388 0
M  V30 5943 P 771.415 1.17771 8.83182 0
M  V30 5944 O 771.195 2.07206 9.98732 0
M  V30 5945 O 770.625 -0.0743816 8.81969 0
M  V30 5946 O 771.165 1.97652 7.47304 0
M  V30 5947 C 772.105 3.01133 7.08783 0
M  V30 5948 C 771.375 4.12613 6.37049 0
M  V30 5949 O 771.165 3.72827 4.97879 0
M  V30 5950 C 769.975 4.45085 6.88694 0
M  V30 5951 O 769.585 5.7877 6.5624 0
M  V30 5952 C 769.095 3.47817 6.12078 0
M  V30 5953 C 769.805 3.39414 4.77697 0
M  V30 5954 N 769.755 2.04615 4.15333 0
M  V30 5955 H 772.594 3.41248 7.98759 0
M  V30 5956 H 772.866 2.5837 6.41742 0
M  V30 5957 H 771.998 5.02657 6.42673 0
M  V30 5958 P 768.035 6.144 6.45285 0
M  V30 5959 O 767.815 7.54673 6.86199 0
M  V30 5960 O 767.245 5.12391 7.179 0
M  V30 5961 O 767.785 5.99158 4.88404 0
M  V30 5962 C 768.725 6.60234 3.96415 0
M  V30 5963 C 767.995 7.08259 2.72856 0
M  V30 5964 O 767.785 5.9427 1.83651 0
M  V30 5965 C 766.595 7.64886 2.9555 0
M  V30 5966 O 766.205 8.53963 1.90717 0
M  V30 5967 C 765.715 6.4116 2.90739 0
M  V30 5968 C 766.425 5.55375 1.86963 0
M  V30 5969 N 766.375 4.09664 2.15742 0
M  V30 5970 H 769.214 7.45574 4.45629 0
M  V30 5971 H 769.486 5.86232 3.67314 0
M  V30 5972 H 768.618 7.84412 2.24479 0
M  V30 5973 P 764.656 8.7635 1.60911 0
M  V30 5974 O 764.436 10.1388 1.11561 0
M  V30 5975 O 763.866 8.36503 2.79617 0
M  V30 5976 O 764.406 7.71806 0.42951 0
M  V30 5977 C 765.346 7.67148 -0.673689 0
M  V30 5978 C 764.616 7.33374 -1.95559 0
M  V30 5979 O 764.406 5.88721 -2.00726 0
M  V30 5980 C 763.216 7.92526 -2.10483 0
M  V30 5981 O 762.826 8.02971 -3.47653 0
M  V30 5982 C 762.336 6.89602 -1.41652 0
M  V30 5983 C 763.046 5.59201 -1.75185 0
M  V30 5984 N 762.996 4.58235 -0.662552 0
M  V30 5985 H 765.835 8.65116 -0.777161 0
M  V30 5986 H 766.107 6.90173 -0.474152 0
M  V30 5987 H 765.239 7.66548 -2.79458 0
M  V30 5988 P 761.276 8.03563 -3.84925 0
M  V30 5989 O 761.056 8.85821 -5.0569 0
M  V30 5990 O 760.486 8.41101 -2.65469 0
M  V30 5991 O 761.026 6.4965 -4.18908 0
M  V30 5992 C 761.966 5.81037 -5.05421 0
M  V30 5993 C 761.236 4.78366 -5.89277 0
M  V30 5994 O 761.026 3.58302 -5.08433 0
M  V30 5995 C 759.836 5.17448 -6.36119 0
M  V30 5996 O 759.446 4.45271 -7.53232 0
M  V30 5997 C 758.956 4.74639 -5.19936 0
M  V30 5998 C 759.666 3.49432 -4.70418 0
M  V30 5999 N 759.616 3.31776 -3.22945 0
M  V30 6000 H 762.455 6.54213 -5.71376 0
M  V30 6001 H 762.727 5.30492 -4.44033 0
M  V30 6002 H 761.859 4.55889 -6.76652 0
M  V30 6003 P 757.896 4.23843 -7.83734 0
M  V30 6004 O 757.676 4.19407 -9.29784 0
M  V30 6005 O 757.106 5.24426 -7.09156 0
M  V30 6006 O 757.646 2.7935 -7.20758 0
M  V30 6007 C 758.586 1.7299 -7.50419 0
M  V30 6008 C 757.856 0.406376 -7.57911 0
M  V30 6009 O 757.646 -0.0897726 -6.21935 0
M  V30 6010 C 756.456 0.447224 -8.1878 0
M  V30 6011 O 756.066 -0.825065 -8.71101 0
M  V30 6012 C 755.576 0.783801 -6.99623 0
M  V30 6013 C 756.286 0.0619192 -5.85967 0
M  V30 6014 N 756.236 0.7859 -4.56281 0
M  V30 6015 H 759.075 1.93423 -8.4679 0
M  V30 6016 H 759.347 1.68181 -6.71046 0
M  V30 6017 H 758.479 -0.289041 -8.15388 0
M  V30 6018 P 754.516 -1.17771 -8.83182 0
M  V30 6019 O 754.296 -2.07206 -9.98732 0
M  V30 6020 O 753.726 0.0743816 -8.81969 0
M  V30 6021 O 754.266 -1.97652 -7.47304 0
M  V30 6022 C 755.206 -3.01133 -7.08783 0
M  V30 6023 C 754.476 -4.12613 -6.37049 0
M  V30 6024 O 754.266 -3.72827 -4.97879 0
M  V30 6025 C 753.076 -4.45085 -6.88694 0
M  V30 6026 O 752.686 -5.7877 -6.5624 0
M  V30 6027 C 752.196 -3.47817 -6.12078 0
M  V30 6028 C 752.906 -3.39414 -4.77697 0
M  V30 6029 N 752.856 -2.04615 -4.15333 0
M  V30 6030 H 755.695 -3.41248 -7.98759 0
M  V30 6031 H 755.967 -2.5837 -6.41742 0
M  V30 6032 H 755.099 -5.02657 -6.42673 0
M  V30 6033 P 751.136 -6.144 -6.45285 0
M  V30 6034 O 750.916 -7.54673 -6.86199 0
M  V30 6035 O 750.346 -5.12391 -7.179 0
M  V30 6036 O 750.886 -5.99158 -4.88404 0
M  V30 6037 C 751.826 -6.60234 -3.96415 0
M  V30 6038 C 751.096 -7.08259 -2.72856 0
M  V30 6039 O 750.886 -5.9427 -1.83651 0
M  V30 6040 C 749.696 -7.64886 -2.9555 0
M  V30 6041 O 749.306 -8.53963 -1.90717 0
M  V30 6042 C 748.816 -6.4116 -2.90739 0
M  V30 6043 C 749.526 -5.55375 -1.86963 0
M  V30 6044 N 749.476 -4.09448 -2.16152 0
M  V30 6045 H 752.315 -7.45574 -4.45629 0
M  V30 6046 H 752.587 -5.85864 -3.679 0
M  V30 6047 H 751.719 -7.84412 -2.24479 0
M  V30 6048 H 749.064 -5.73457 -0.888562 0
M  V30 6049 H 748.784 -5.90877 -3.88583 0
M  V30 6050 H 747.793 -6.6596 -2.58858 0
M  V30 6051 H 749.627 -8.16339 -3.92049 0
M  V30 6052 P 747.756 -8.7635 -1.60911 0
M  V30 6053 O 747.536 -10.1388 -1.11561 0
M  V30 6054 O 746.966 -8.36503 -2.79617 0
M  V30 6055 O 747.506 -7.71906 -0.429565 0
M  V30 6056 C 748.446 -7.67148 0.673689 0
M  V30 6057 C 747.716 -7.33666 1.94851 0
M  V30 6058 O 747.506 -5.88816 2.00759 0
M  V30 6059 C 746.316 -7.92526 2.10483 0
M  V30 6060 O 745.926 -8.03063 3.47693 0
M  V30 6061 C 745.436 -6.89602 1.41652 0
M  V30 6062 C 746.146 -5.59201 1.75185 0
M  V30 6063 N 746.096 -4.58235 0.662552 0
M  V30 6064 C 745.946 -3.24451 1.01643 0
M  V30 6065 O 745.856 -2.94958 2.21722 0
M  V30 6066 N 745.896 -2.30408 -0.165238 0
M  V30 6067 C 745.996 -2.66048 -1.25118 0
M  V30 6068 N 745.946 -1.70787 -2.16813 0
M  V30 6069 C 746.146 -4.02732 -1.64413 0
M  V30 6070 C 746.196 -4.9488 -0.63991 0
M  V30 6071 H 748.936 -8.65017 0.777072 0
M  V30 6072 H 749.206 -6.90173 0.474152 0
M  V30 6073 H 748.339 -7.66642 2.79492 0
M  V30 6074 H 745.684 -5.16254 2.65229 0
M  V30 6075 H 745.404 -7.06532 0.329431 0
M  V30 6076 H 744.413 -6.91023 1.82047 0
M  V30 6077 H 746.247 -8.90873 1.62657 0
M  V30 6078 H 746.319 -6.00104 -0.892197 0
M  V30 6079 H 746.217 -4.31733 -2.69229 0
M  V30 6080 H 745.829 -0.724835 -1.8844 0
M  V30 6081 H 746.025 -1.94716 -3.16734 0
M  V30 6082 P 744.376 -8.03563 3.84925 0
M  V30 6083 O 744.156 -8.85821 5.0569 0
M  V30 6084 O 743.586 -8.41101 2.65469 0
M  V30 6085 O 744.126 -6.4965 4.18908 0
M  V30 6086 C 745.066 -5.81037 5.05421 0
M  V30 6087 C 744.336 -4.78366 5.89277 0
M  V30 6088 O 744.126 -3.58302 5.08433 0
M  V30 6089 C 742.936 -5.17448 6.36119 0
M  V30 6090 O 742.546 -4.45271 7.53232 0
M  V30 6091 C 742.056 -4.74639 5.19936 0
M  V30 6092 C 742.766 -3.49432 4.70418 0
M  V30 6093 N 742.716 -3.31776 3.22945 0
M  V30 6094 H 745.555 -6.54213 5.71376 0
M  V30 6095 H 745.827 -5.30492 4.44033 0
M  V30 6096 H 744.959 -4.55889 6.76652 0
M  V30 6097 P 740.996 -4.23843 7.83734 0
M  V30 6098 O 740.776 -4.19407 9.29784 0
M  V30 6099 O 740.206 -5.24426 7.09156 0
M  V30 6100 O 740.746 -2.7935 7.20758 0
M  V30 6101 C 741.686 -1.72945 7.50224 0
M  V30 6102 C 740.956 -0.406376 7.57911 0
M  V30 6103 O 740.746 0.0897726 6.21935 0
M  V30 6104 C 739.556 -0.438983 8.18724 0
M  V30 6105 O 739.166 0.825065 8.71101 0
M  V30 6106 C 738.676 -0.783689 6.99524 0
M  V30 6107 C 739.386 -0.0619086 5.85867 0
M  V30 6108 N 739.336 -0.78573 4.56183 0
M  V30 6109 C 739.186 -0.0292889 3.41887 0
M  V30 6110 O 739.096 1.18445 3.4419 0
M  V30 6111 N 739.146 -0.744061 2.23964 0
M  V30 6112 C 739.236 -2.10932 2.10362 0
M  V30 6113 O 739.186 -2.64117 0.98825 0
M  V30 6114 C 739.386 -2.8202 3.34994 0
M  V30 6115 C 739.496 -4.31095 3.25037 0
M  V30 6116 C 739.436 -2.15547 4.52261 0
M  V30 6117 H 742.177 -1.93379 8.46595 0
M  V30 6118 H 742.446 -1.68132 6.70852 0
M  V30 6119 H 741.579 0.289041 8.15388 0
M  V30 6120 H 738.924 0.926847 5.72749 0
M  V30 6121 H 738.645 -1.86973 6.82036 0
M  V30 6122 H 737.653 -0.403896 7.13257 0
M  V30 6123 H 739.487 -1.20585 8.97435 0
M  V30 6124 H 739.558 -2.71231 5.45042 0
M  V30 6125 H 738.528 -4.76966 3.49992 0
M  V30 6126 H 740.265 -4.67047 3.95024 0
M  V30 6127 H 739.777 -4.58996 2.22312 0
M  V30 6128 H 739.041 -0.214893 1.39758 0
M  V30 6129 P 737.616 1.17771 8.83182 0
M  V30 6130 O 737.396 2.07206 9.98732 0
M  V30 6131 O 736.826 -0.0743816 8.81969 0
M  V30 6132 O 737.366 1.97652 7.47304 0
M  V30 6133 C 738.306 3.01133 7.08783 0
M  V30 6134 C 737.576 4.12613 6.37049 0
M  V30 6135 O 737.366 3.72827 4.97879 0
M  V30 6136 C 736.176 4.45085 6.88694 0
M  V30 6137 O 735.786 5.7877 6.5624 0
M  V30 6138 C 735.296 3.47817 6.12078 0
M  V30 6139 C 736.006 3.39414 4.77697 0
M  V30 6140 N 735.956 2.04615 4.15333 0
M  V30 6141 H 738.795 3.41248 7.98759 0
M  V30 6142 H 739.067 2.5837 6.41742 0
M  V30 6143 H 738.199 5.02657 6.42673 0
M  V30 6144 P 734.236 6.144 6.45285 0
M  V30 6145 O 734.016 7.54673 6.86199 0
M  V30 6146 O 733.446 5.12391 7.179 0
M  V30 6147 O 733.986 5.99158 4.88404 0
M  V30 6148 C 734.926 6.60234 3.96415 0
M  V30 6149 C 734.196 7.08259 2.72856 0
M  V30 6150 O 733.986 5.9427 1.83651 0
M  V30 6151 C 732.796 7.64886 2.9555 0
M  V30 6152 O 732.406 8.53963 1.90717 0
M  V30 6153 C 731.916 6.4116 2.90739 0
M  V30 6154 C 732.626 5.55375 1.86963 0
M  V30 6155 N 732.576 4.09664 2.15742 0
M  V30 6156 H 735.415 7.45574 4.45629 0
M  V30 6157 H 735.687 5.86232 3.67314 0
M  V30 6158 H 734.819 7.84412 2.24479 0
M  V30 6159 P 730.856 8.7635 1.60911 0
M  V30 6160 O 730.636 10.1388 1.11561 0
M  V30 6161 O 730.066 8.36503 2.79617 0
M  V30 6162 O 730.606 7.71806 0.42951 0
M  V30 6163 C 731.546 7.67148 -0.673689 0
M  V30 6164 C 730.816 7.33374 -1.95559 0
M  V30 6165 O 730.606 5.88721 -2.00726 0
M  V30 6166 C 729.416 7.92526 -2.10483 0
M  V30 6167 O 729.026 8.02971 -3.47653 0
M  V30 6168 C 728.536 6.89602 -1.41652 0
M  V30 6169 C 729.246 5.59201 -1.75185 0
M  V30 6170 N 729.196 4.58235 -0.662552 0
M  V30 6171 H 732.035 8.65116 -0.777161 0
M  V30 6172 H 732.307 6.90173 -0.474152 0
M  V30 6173 H 731.439 7.66548 -2.79458 0
M  V30 6174 P 727.476 8.03563 -3.84925 0
M  V30 6175 O 727.256 8.85821 -5.0569 0
M  V30 6176 O 726.686 8.41101 -2.65469 0
M  V30 6177 O 727.226 6.4965 -4.18908 0
M  V30 6178 C 728.166 5.80886 -5.05289 0
M  V30 6179 C 727.436 4.78366 -5.89277 0
M  V30 6180 O 727.226 3.58302 -5.08433 0
M  V30 6181 C 726.036 5.16748 -6.36559 0
M  V30 6182 O 725.646 4.45271 -7.53232 0
M  V30 6183 C 725.156 4.74572 -5.19863 0
M  V30 6184 C 725.866 3.49373 -4.70338 0
M  V30 6185 N 725.816 3.31704 -3.22876 0
M  V30 6186 C 725.666 2.03326 -2.74871 0
M  V30 6187 O 725.576 1.06486 -3.48076 0
M  V30 6188 N 725.626 1.91838 -1.37456 0
M  V30 6189 C 725.716 2.94295 -0.462035 0
M  V30 6190 C 725.866 4.25064 -1.05249 0
M  V30 6191 C 725.916 4.40214 -2.39192 0
M  V30 6192 H 728.657 6.54063 -5.71245 0
M  V30 6193 H 728.926 5.30339 -4.43905 0
M  V30 6194 H 728.059 4.55889 -6.76652 0
M  V30 6195 H 725.404 2.6167 -5.17842 0
M  V30 6196 H 725.125 5.52155 -4.41878 0
M  V30 6197 H 724.133 4.51918 -5.53297 0
M  V30 6198 H 725.967 6.25055 -6.55162 0
M  V30 6199 H 726.038 5.39798 -2.81523 0
M  V30 6200 P 724.096 4.23843 -7.83734 0
M  V30 6201 O 723.876 4.19407 -9.29784 0
M  V30 6202 O 723.306 5.24426 -7.09156 0
M  V30 6203 O 723.846 2.7935 -7.20758 0
M  V30 6204 C 724.786 1.7299 -7.50419 0
M  V30 6205 C 724.056 0.406376 -7.57911 0
M  V30 6206 O 723.846 -0.0897726 -6.21935 0
M  V30 6207 C 722.656 0.447224 -8.1878 0
M  V30 6208 O 722.266 -0.825065 -8.71101 0
M  V30 6209 C 721.776 0.783801 -6.99623 0
M  V30 6210 C 722.486 0.0619192 -5.85967 0
M  V30 6211 N 722.436 0.7859 -4.56281 0
M  V30 6212 H 725.275 1.93423 -8.4679 0
M  V30 6213 H 725.547 1.68181 -6.71046 0
M  V30 6214 H 724.679 -0.289041 -8.15388 0
M  V30 6215 P 720.716 -1.17771 -8.83182 0
M  V30 6216 O 720.496 -2.07206 -9.98732 0
M  V30 6217 O 719.926 0.0743816 -8.81969 0
M  V30 6218 O 720.466 -1.97652 -7.47304 0
M  V30 6219 C 721.406 -3.01133 -7.08783 0
M  V30 6220 C 720.676 -4.12613 -6.37049 0
M  V30 6221 O 720.466 -3.72827 -4.97879 0
M  V30 6222 C 719.276 -4.45085 -6.88694 0
M  V30 6223 O 718.886 -5.7877 -6.5624 0
M  V30 6224 C 718.396 -3.47817 -6.12078 0
M  V30 6225 C 719.106 -3.39414 -4.77697 0
M  V30 6226 N 719.056 -2.04615 -4.15333 0
M  V30 6227 H 721.895 -3.41248 -7.98759 0
M  V30 6228 H 722.167 -2.5837 -6.41742 0
M  V30 6229 H 721.299 -5.02657 -6.42673 0
M  V30 6230 P 717.336 -6.144 -6.45285 0
M  V30 6231 O 717.116 -7.54673 -6.86199 0
M  V30 6232 O 716.546 -5.12391 -7.179 0
M  V30 6233 O 717.086 -5.99158 -4.88404 0
M  V30 6234 C 718.026 -6.60062 -3.96313 0
M  V30 6235 C 717.296 -7.08259 -2.72856 0
M  V30 6236 O 717.086 -5.9427 -1.83651 0
M  V30 6237 C 715.896 -7.65087 -2.94749 0
M  V30 6238 O 715.506 -8.53963 -1.90717 0
M  V30 6239 C 715.016 -6.41069 -2.90698 0
M  V30 6240 C 715.726 -5.5528 -1.86931 0
M  V30 6241 N 715.676 -4.09575 -2.15696 0
M  V30 6242 C 715.526 -3.24249 -1.08435 0
M  V30 6243 O 715.436 -3.63946 0.0628747 0
M  V30 6244 N 715.486 -1.90009 -1.39973 0
M  V30 6245 C 715.576 -1.34884 -2.65614 0
M  V30 6246 O 715.526 -0.123716 -2.81728 0
M  V30 6247 C 715.726 -2.3145 -3.71736 0
M  V30 6248 C 715.836 -1.75913 -5.10438 0
M  V30 6249 C 715.776 -3.63518 -3.44754 0
M  V30 6250 H 718.517 -7.45402 -4.45526 0
M  V30 6251 H 718.786 -5.86062 -3.67208 0
M  V30 6252 H 717.919 -7.84412 -2.24479 0
M  V30 6253 H 715.264 -5.73358 -0.888409 0
M  V30 6254 H 714.985 -5.90877 -3.88583 0
M  V30 6255 H 713.993 -6.65867 -2.58821 0
M  V30 6256 H 715.827 -8.16248 -3.92006 0
M  V30 6257 H 715.898 -4.34551 -4.26383 0
M  V30 6258 H 714.868 -1.85471 -5.61775 0
M  V30 6259 H 716.605 -2.31364 -5.66257 0
M  V30 6260 H 716.117 -0.695936 -5.05229 0
M  V30 6261 H 715.381 -1.26277 -0.63625 0
M  V30 6262 P 713.956 -8.7635 -1.60911 0
M  V30 6263 O 713.736 -10.1388 -1.11561 0
M  V30 6264 O 713.166 -8.36503 -2.79617 0
M  V30 6265 O 713.706 -7.71806 -0.42951 0
M  V30 6266 C 714.646 -7.67148 0.673689 0
M  V30 6267 C 713.916 -7.33374 1.95559 0
M  V30 6268 O 713.706 -5.88721 2.00726 0
M  V30 6269 C 712.516 -7.92526 2.10483 0
M  V30 6270 O 712.126 -8.02971 3.47653 0
M  V30 6271 C 711.636 -6.89602 1.41652 0
M  V30 6272 C 712.346 -5.59201 1.75185 0
M  V30 6273 N 712.296 -4.58235 0.662552 0
M  V30 6274 H 715.135 -8.65116 0.777161 0
M  V30 6275 H 715.407 -6.90173 0.474152 0
M  V30 6276 H 714.539 -7.66548 2.79458 0
M  V30 6277 P 710.576 -8.03563 3.84925 0
M  V30 6278 O 710.356 -8.85821 5.0569 0
M  V30 6279 O 709.786 -8.41101 2.65469 0
M  V30 6280 O 710.326 -6.4965 4.18908 0
M  V30 6281 C 711.266 -5.80886 5.05289 0
M  V30 6282 C 710.536 -4.78366 5.89277 0
M  V30 6283 O 710.326 -3.58302 5.08433 0
M  V30 6284 C 709.136 -5.16748 6.36559 0
M  V30 6285 O 708.746 -4.45271 7.53232 0
M  V30 6286 C 708.256 -4.74572 5.19863 0
M  V30 6287 C 708.966 -3.49373 4.70338 0
M  V30 6288 N 708.916 -3.31704 3.22876 0
M  V30 6289 C 708.766 -2.03326 2.74871 0
M  V30 6290 O 708.676 -1.06486 3.48076 0
M  V30 6291 N 708.726 -1.91838 1.37456 0
M  V30 6292 C 708.816 -2.94295 0.462035 0
M  V30 6293 C 708.966 -4.25064 1.05249 0
M  V30 6294 C 709.016 -4.40214 2.39192 0
M  V30 6295 H 711.757 -6.54063 5.71245 0
M  V30 6296 H 712.026 -5.30339 4.43905 0
M  V30 6297 H 711.159 -4.55889 6.76652 0
M  V30 6298 H 708.504 -2.6167 5.17842 0
M  V30 6299 H 708.225 -5.52155 4.41878 0
M  V30 6300 H 707.233 -4.51918 5.53297 0
M  V30 6301 H 709.067 -6.25055 6.55162 0
M  V30 6302 H 709.138 -5.39798 2.81523 0
M  V30 6303 P 707.196 -4.23843 7.83734 0
M  V30 6304 O 706.976 -4.19407 9.29784 0
M  V30 6305 O 706.406 -5.24426 7.09156 0
M  V30 6306 O 706.946 -2.7935 7.20758 0
M  V30 6307 C 707.886 -1.72945 7.50224 0
M  V30 6308 C 707.156 -0.406376 7.57911 0
M  V30 6309 O 706.946 0.0897726 6.21935 0
M  V30 6310 C 705.756 -0.438983 8.18724 0
M  V30 6311 O 705.366 0.825065 8.71101 0
M  V30 6312 C 704.876 -0.783689 6.99524 0
M  V30 6313 C 705.586 -0.0619086 5.85867 0
M  V30 6314 N 705.536 -0.78573 4.56183 0
M  V30 6315 C 705.386 -0.0292889 3.41887 0
M  V30 6316 O 705.296 1.18445 3.4419 0
M  V30 6317 N 705.346 -0.744061 2.23964 0
M  V30 6318 C 705.436 -2.10932 2.10362 0
M  V30 6319 C 705.586 -2.8202 3.34994 0
M  V30 6320 C 705.636 -2.15547 4.52261 0
M  V30 6321 H 708.377 -1.93379 8.46595 0
M  V30 6322 H 708.646 -1.68132 6.70852 0
M  V30 6323 H 707.779 0.289041 8.15388 0
M  V30 6324 H 705.124 0.926847 5.72749 0
M  V30 6325 H 704.845 -1.86973 6.82036 0
M  V30 6326 H 703.853 -0.403896 7.13257 0
M  V30 6327 H 705.687 -1.20585 8.97435 0
M  V30 6328 H 705.758 -2.71231 5.45042 0
M  V30 6329 P 703.816 1.17771 8.83182 0
M  V30 6330 O 703.596 2.07206 9.98732 0
M  V30 6331 O 703.026 -0.0743816 8.81969 0
M  V30 6332 O 703.566 1.97652 7.47304 0
M  V30 6333 C 704.506 3.01133 7.08783 0
M  V30 6334 C 703.776 4.12613 6.37049 0
M  V30 6335 O 703.566 3.72827 4.97879 0
M  V30 6336 C 702.376 4.45085 6.88694 0
M  V30 6337 O 701.986 5.7877 6.5624 0
M  V30 6338 C 701.496 3.47817 6.12078 0
M  V30 6339 C 702.206 3.39414 4.77697 0
M  V30 6340 N 702.156 2.04199 4.15538 0
M  V30 6341 H 704.995 3.41248 7.98759 0
M  V30 6342 H 705.267 2.57728 6.42 0
M  V30 6343 H 704.399 5.02657 6.42673 0
M  V30 6344 H 701.744 4.11708 4.08956 0
M  V30 6345 H 701.464 2.49626 6.61679 0
M  V30 6346 H 700.473 3.8662 6.00862 0
M  V30 6347 H 702.307 4.29991 7.97006 0
M  V30 6348 P 700.436 6.144 6.45285 0
M  V30 6349 O 700.216 7.54673 6.86199 0
M  V30 6350 O 699.646 5.12391 7.179 0
M  V30 6351 O 700.186 5.99158 4.88404 0
M  V30 6352 C 701.126 6.60234 3.96415 0
M  V30 6353 C 700.396 7.08259 2.72856 0
M  V30 6354 O 700.186 5.9427 1.83651 0
M  V30 6355 C 698.996 7.64886 2.9555 0
M  V30 6356 O 698.606 8.53963 1.90717 0
M  V30 6357 C 698.116 6.4116 2.90739 0
M  V30 6358 C 698.826 5.55375 1.86963 0
M  V30 6359 N 698.776 4.09664 2.15742 0
M  V30 6360 H 701.615 7.45574 4.45629 0
M  V30 6361 H 701.887 5.86232 3.67314 0
M  V30 6362 H 701.019 7.84412 2.24479 0
M  V30 6363 P 697.056 8.7635 1.60911 0
M  V30 6364 O 696.836 10.1388 1.11561 0
M  V30 6365 O 696.266 8.36503 2.79617 0
M  V30 6366 O 696.806 7.71806 0.42951 0
M  V30 6367 C 697.746 7.67148 -0.673689 0
M  V30 6368 C 697.016 7.33374 -1.95559 0
M  V30 6369 O 696.806 5.88721 -2.00726 0
M  V30 6370 C 695.616 7.92526 -2.10483 0
M  V30 6371 O 695.226 8.02971 -3.47653 0
M  V30 6372 C 694.736 6.89602 -1.41652 0
M  V30 6373 C 695.446 5.59201 -1.75185 0
M  V30 6374 N 695.396 4.58301 -0.657969 0
M  V30 6375 H 698.235 8.65116 -0.777161 0
M  V30 6376 H 698.507 6.9022 -0.46725 0
M  V30 6377 H 697.639 7.66548 -2.79458 0
M  V30 6378 H 694.984 5.16165 -2.65183 0
M  V30 6379 H 694.704 7.06433 -0.329384 0
M  V30 6380 H 693.713 6.90926 -1.82021 0
M  V30 6381 H 695.547 8.90873 -1.62657 0
M  V30 6382 P 693.676 8.03563 -3.84925 0
M  V30 6383 O 693.456 8.85821 -5.0569 0
M  V30 6384 O 692.886 8.41101 -2.65469 0
M  V30 6385 O 693.426 6.4965 -4.18908 0
M  V30 6386 C 694.366 5.81037 -5.05421 0
M  V30 6387 C 693.636 4.78366 -5.89277 0
M  V30 6388 O 693.426 3.58302 -5.08433 0
M  V30 6389 C 692.236 5.17448 -6.36119 0
M  V30 6390 O 691.846 4.45271 -7.53232 0
M  V30 6391 C 691.356 4.74639 -5.19936 0
M  V30 6392 C 692.066 3.49432 -4.70418 0
M  V30 6393 N 692.016 3.32099 -3.22613 0
M  V30 6394 H 694.855 6.54213 -5.71376 0
M  V30 6395 H 695.127 5.30936 -4.43503 0
M  V30 6396 H 694.259 4.55889 -6.76652 0
M  V30 6397 H 691.604 2.61715 -5.17932 0
M  V30 6398 H 691.324 5.52155 -4.41878 0
M  V30 6399 H 690.333 4.51981 -5.53374 0
M  V30 6400 H 692.167 6.25124 -6.55234 0
M  V30 6401 P 690.296 4.23843 -7.83734 0
M  V30 6402 O 690.076 4.19407 -9.29784 0
M  V30 6403 O 689.506 5.24426 -7.09156 0
M  V30 6404 O 690.046 2.79386 -7.20852 0
M  V30 6405 C 690.986 1.7299 -7.50419 0
M  V30 6406 C 690.256 0.41401 -7.5797 0
M  V30 6407 O 690.046 -0.089787 -6.22035 0
M  V30 6408 C 688.856 0.447224 -8.1878 0
M  V30 6409 O 688.466 -0.825159 -8.71201 0
M  V30 6410 C 687.976 0.783801 -6.99623 0
M  V30 6411 C 688.686 0.0619192 -5.85967 0
M  V30 6412 N 688.636 0.7859 -4.56281 0
M  V30 6413 C 688.486 0.0359258 -3.39981 0
M  V30 6414 O 688.396 -1.19723 -3.49038 0
M  V30 6415 N 688.436 0.869151 -2.14025 0
M  V30 6416 C 688.536 2.01207 -2.14363 0
M  V30 6417 N 688.486 2.58978 -0.954287 0
M  V30 6418 C 688.686 2.80817 -3.32215 0
M  V30 6419 C 688.736 2.13785 -4.50884 0
M  V30 6420 H 691.476 1.93401 -8.46693 0
M  V30 6421 H 691.746 1.68181 -6.71046 0
M  V30 6422 H 690.879 -0.289076 -8.15488 0
M  V30 6423 H 688.224 -0.927166 -5.72947 0
M  V30 6424 H 687.944 1.87 -6.82132 0
M  V30 6425 H 686.953 0.404009 -7.13457 0
M  V30 6426 H 688.787 1.20599 -8.97534 0
M  V30 6427 H 688.859 2.70295 -5.43162 0
M  V30 6428 H 688.757 3.89465 -3.27406 0
M  V30 6429 H 688.369 2.01616 -0.107046 0
M  V30 6430 H 688.565 3.61403 -0.873101 0
M  V30 6431 P 686.916 -1.17771 -8.83182 0
M  V30 6432 O 686.696 -2.07206 -9.98732 0
M  V30 6433 O 686.126 0.0743816 -8.81969 0
M  V30 6434 O 686.666 -1.97652 -7.47304 0
M  V30 6435 C 687.606 -3.01055 -7.08599 0
M  V30 6436 C 686.876 -4.12613 -6.37049 0
M  V30 6437 O 686.666 -3.72827 -4.97879 0
M  V30 6438 C 685.476 -4.45719 -6.88164 0
M  V30 6439 O 685.086 -5.7877 -6.5624 0
M  V30 6440 C 684.596 -3.47768 -6.11991 0
M  V30 6441 C 685.306 -3.39356 -4.77615 0
M  V30 6442 N 685.256 -2.04571 -4.15244 0
M  V30 6443 C 685.106 -1.98587 -2.78314 0
M  V30 6444 O 685.016 -2.98134 -2.08835 0
M  V30 6445 N 685.066 -0.714467 -2.24925 0
M  V30 6446 C 685.156 0.470001 -2.94169 0
M  V30 6447 C 685.306 0.312541 -4.36783 0
M  V30 6448 C 685.356 -0.914512 -4.92583 0
M  V30 6449 H 688.097 -3.41169 -7.98575 0
M  V30 6450 H 688.366 -2.58295 -6.41556 0
M  V30 6451 H 687.499 -5.02657 -6.42673 0
M  V30 6452 H 684.844 -4.11637 -4.08885 0
M  V30 6453 H 684.565 -2.49626 -6.61679 0
M  V30 6454 H 683.573 -3.86566 -6.00778 0
M  V30 6455 H 685.407 -4.29943 -7.96918 0
M  V30 6456 H 685.478 -1.00937 -6.00374 0
M  V30 6457 P 683.536 -6.144 -6.45285 0
M  V30 6458 O 683.316 -7.54673 -6.86199 0
M  V30 6459 O 682.746 -5.12391 -7.179 0
M  V30 6460 O 683.286 -5.99158 -4.88404 0
M  V30 6461 C 684.226 -6.60234 -3.96415 0
M  V30 6462 C 683.496 -7.08259 -2.72856 0
M  V30 6463 O 683.286 -5.9427 -1.83651 0
M  V30 6464 C 682.096 -7.64886 -2.9555 0
M  V30 6465 O 681.706 -8.53963 -1.90717 0
M  V30 6466 C 681.216 -6.4116 -2.90739 0
M  V30 6467 C 681.926 -5.55375 -1.86963 0
M  V30 6468 N 681.876 -4.09448 -2.16152 0
M  V30 6469 H 684.715 -7.45574 -4.45629 0
M  V30 6470 H 684.987 -5.85864 -3.679 0
M  V30 6471 H 684.119 -7.84412 -2.24479 0
M  V30 6472 H 681.464 -5.73457 -0.888562 0
M  V30 6473 H 681.184 -5.90877 -3.88583 0
M  V30 6474 H 680.193 -6.6596 -2.58858 0
M  V30 6475 H 682.027 -8.16339 -3.92049 0
M  V30 6476 P 680.156 -8.7635 -1.60911 0
M  V30 6477 O 679.936 -10.1388 -1.11561 0
M  V30 6478 O 679.366 -8.36503 -2.79617 0
M  V30 6479 O 679.906 -7.71806 -0.42951 0
M  V30 6480 C 680.846 -7.67148 0.673689 0
M  V30 6481 C 680.116 -7.33374 1.95559 0
M  V30 6482 O 679.906 -5.88721 2.00726 0
M  V30 6483 C 678.716 -7.92526 2.10483 0
M  V30 6484 O 678.326 -8.02971 3.47653 0
M  V30 6485 C 677.836 -6.89602 1.41652 0
M  V30 6486 C 678.546 -5.59201 1.75185 0
M  V30 6487 N 678.496 -4.58301 0.657969 0
M  V30 6488 H 681.335 -8.65116 0.777161 0
M  V30 6489 H 681.607 -6.9022 0.46725 0
M  V30 6490 H 680.739 -7.66548 2.79458 0
M  V30 6491 H 678.084 -5.16165 2.65183 0
M  V30 6492 H 677.804 -7.06433 0.329384 0
M  V30 6493 H 676.813 -6.90926 1.82021 0
M  V30 6494 H 678.647 -8.90873 1.62657 0
M  V30 6495 P 676.776 -8.03563 3.84925 0
M  V30 6496 O 676.556 -8.85821 5.0569 0
M  V30 6497 O 675.986 -8.41101 2.65469 0
M  V30 6498 O 676.526 -6.4965 4.18908 0
M  V30 6499 C 677.466 -5.81037 5.05421 0
M  V30 6500 C 676.736 -4.78366 5.89277 0
M  V30 6501 O 676.526 -3.58302 5.08433 0
M  V30 6502 C 675.336 -5.17448 6.36119 0
M  V30 6503 O 674.946 -4.45271 7.53232 0
M  V30 6504 C 674.456 -4.74639 5.19936 0
M  V30 6505 C 675.166 -3.49432 4.70418 0
M  V30 6506 N 675.116 -3.32099 3.22613 0
M  V30 6507 H 677.955 -6.54213 5.71376 0
M  V30 6508 H 678.227 -5.30936 4.43503 0
M  V30 6509 H 677.359 -4.55889 6.76652 0
M  V30 6510 H 674.704 -2.61715 5.17932 0
M  V30 6511 H 674.424 -5.52155 4.41878 0
M  V30 6512 H 673.433 -4.51981 5.53374 0
M  V30 6513 H 675.267 -6.25124 6.55234 0
M  V30 6514 P 673.396 -4.23843 7.83734 0
M  V30 6515 O 673.176 -4.19407 9.29784 0
M  V30 6516 O 672.606 -5.24426 7.09156 0
M  V30 6517 O 673.146 -2.7935 7.20758 0
M  V30 6518 C 674.086 -1.7299 7.50419 0
M  V30 6519 C 673.356 -0.406376 7.57911 0
M  V30 6520 O 673.146 0.0897726 6.21935 0
M  V30 6521 C 671.956 -0.447224 8.1878 0
M  V30 6522 O 671.566 0.825065 8.71101 0
M  V30 6523 C 671.076 -0.783801 6.99623 0
M  V30 6524 C 671.786 -0.0619192 5.85967 0
M  V30 6525 N 671.736 -0.7859 4.56281 0
M  V30 6526 H 674.575 -1.93423 8.4679 0
M  V30 6527 H 674.847 -1.68181 6.71046 0
M  V30 6528 H 673.979 0.289041 8.15388 0
M  V30 6529 P 670.016 1.17771 8.83182 0
M  V30 6530 O 669.796 2.07206 9.98732 0
M  V30 6531 O 669.226 -0.0743816 8.81969 0
M  V30 6532 O 669.766 1.97652 7.47304 0
M  V30 6533 C 670.706 3.01055 7.08599 0
M  V30 6534 C 669.976 4.12613 6.37049 0
M  V30 6535 O 669.766 3.72827 4.97879 0
M  V30 6536 C 668.576 4.45719 6.88164 0
M  V30 6537 O 668.186 5.7877 6.5624 0
M  V30 6538 C 667.696 3.47768 6.11991 0
M  V30 6539 C 668.406 3.39356 4.77615 0
M  V30 6540 N 668.356 2.04571 4.15244 0
M  V30 6541 C 668.206 1.98587 2.78314 0
M  V30 6542 O 668.116 2.98134 2.08835 0
M  V30 6543 N 668.166 0.714467 2.24925 0
M  V30 6544 C 668.256 -0.470001 2.94169 0
M  V30 6545 C 668.406 -0.312541 4.36783 0
M  V30 6546 C 668.456 0.914512 4.92583 0
M  V30 6547 H 671.197 3.41169 7.98575 0
M  V30 6548 H 671.466 2.58295 6.41556 0
M  V30 6549 H 670.599 5.02657 6.42673 0
M  V30 6550 H 667.944 4.11637 4.08885 0
M  V30 6551 H 667.665 2.49626 6.61679 0
M  V30 6552 H 666.673 3.86566 6.00778 0
M  V30 6553 H 668.507 4.29943 7.96918 0
M  V30 6554 H 668.578 1.00937 6.00374 0
M  V30 6555 P 666.636 6.144 6.45285 0
M  V30 6556 O 666.416 7.54673 6.86199 0
M  V30 6557 O 665.846 5.12391 7.179 0
M  V30 6558 O 666.386 5.99158 4.88404 0
M  V30 6559 C 667.326 6.60234 3.96415 0
M  V30 6560 C 666.596 7.08259 2.72856 0
M  V30 6561 O 666.386 5.9427 1.83651 0
M  V30 6562 C 665.196 7.64886 2.9555 0
M  V30 6563 O 664.806 8.53963 1.90717 0
M  V30 6564 C 664.316 6.4116 2.90739 0
M  V30 6565 C 665.026 5.55375 1.86963 0
M  V30 6566 N 664.976 4.09664 2.15742 0
M  V30 6567 H 667.815 7.45574 4.45629 0
M  V30 6568 H 668.087 5.86232 3.67314 0
M  V30 6569 H 667.219 7.84412 2.24479 0
M  V30 6570 P 663.256 8.7635 1.60911 0
M  V30 6571 O 663.036 10.1388 1.11561 0
M  V30 6572 O 662.466 8.36503 2.79617 0
M  V30 6573 O 663.006 7.71806 0.42951 0
M  V30 6574 C 663.946 7.67148 -0.673689 0
M  V30 6575 C 663.216 7.33374 -1.95559 0
M  V30 6576 O 663.006 5.88721 -2.00726 0
M  V30 6577 C 661.816 7.92526 -2.10483 0
M  V30 6578 O 661.426 8.02971 -3.47653 0
M  V30 6579 C 660.936 6.89602 -1.41652 0
M  V30 6580 C 661.646 5.59201 -1.75185 0
M  V30 6581 N 661.596 4.58235 -0.662552 0
M  V30 6582 H 664.435 8.65116 -0.777161 0
M  V30 6583 H 664.707 6.90173 -0.474152 0
M  V30 6584 H 663.839 7.66548 -2.79458 0
M  V30 6585 P 659.876 8.03563 -3.84925 0
M  V30 6586 O 659.656 8.85821 -5.0569 0
M  V30 6587 O 659.086 8.41101 -2.65469 0
M  V30 6588 O 659.626 6.4965 -4.18908 0
M  V30 6589 C 660.566 5.81037 -5.05421 0
M  V30 6590 C 659.836 4.78366 -5.89277 0
M  V30 6591 O 659.626 3.58302 -5.08433 0
M  V30 6592 C 658.436 5.17448 -6.36119 0
M  V30 6593 O 658.046 4.45271 -7.53232 0
M  V30 6594 C 657.556 4.74639 -5.19936 0
M  V30 6595 C 658.266 3.49432 -4.70418 0
M  V30 6596 N 658.216 3.31776 -3.22945 0
M  V30 6597 H 661.055 6.54213 -5.71376 0
M  V30 6598 H 661.327 5.30492 -4.44033 0
M  V30 6599 H 660.459 4.55889 -6.76652 0
M  V30 6600 P 656.496 4.23843 -7.83734 0
M  V30 6601 O 656.276 4.19407 -9.29784 0
M  V30 6602 O 655.706 5.24426 -7.09156 0
M  V30 6603 O 656.246 2.7935 -7.20758 0
M  V30 6604 C 657.186 1.7299 -7.50419 0
M  V30 6605 C 656.456 0.406376 -7.57911 0
M  V30 6606 O 656.246 -0.0897726 -6.21935 0
M  V30 6607 C 655.056 0.447224 -8.1878 0
M  V30 6608 O 654.666 -0.825065 -8.71101 0
M  V30 6609 C 654.176 0.783801 -6.99623 0
M  V30 6610 C 654.886 0.0619192 -5.85967 0
M  V30 6611 N 654.836 0.790462 -4.56202 0
M  V30 6612 H 657.675 1.93423 -8.4679 0
M  V30 6613 H 657.947 1.68852 -6.70877 0
M  V30 6614 H 657.079 -0.289041 -8.15388 0
M  V30 6615 H 654.424 -0.927006 -5.72848 0
M  V30 6616 H 654.144 1.86973 -6.82036 0
M  V30 6617 H 653.153 0.403953 -7.13357 0
M  V30 6618 H 654.987 1.20599 -8.97534 0
M  V30 6619 P 653.116 -1.17771 -8.83182 0
M  V30 6620 O 652.896 -2.07206 -9.98732 0
M  V30 6621 O 652.326 0.0743816 -8.81969 0
M  V30 6622 O 652.866 -1.97652 -7.47304 0
M  V30 6623 C 653.806 -3.01055 -7.08599 0
M  V30 6624 C 653.076 -4.12613 -6.37049 0
M  V30 6625 O 652.866 -3.72827 -4.97879 0
M  V30 6626 C 651.676 -4.45719 -6.88164 0
M  V30 6627 O 651.286 -5.7877 -6.5624 0
M  V30 6628 C 650.796 -3.47768 -6.11991 0
M  V30 6629 C 651.506 -3.39356 -4.77615 0
M  V30 6630 N 651.456 -2.04571 -4.15244 0
M  V30 6631 C 651.306 -1.98587 -2.78314 0
M  V30 6632 O 651.216 -2.98134 -2.08835 0
M  V30 6633 N 651.266 -0.714467 -2.24925 0
M  V30 6634 C 651.356 0.470001 -2.94169 0
M  V30 6635 C 651.506 0.312541 -4.36783 0
M  V30 6636 C 651.556 -0.914512 -4.92583 0
M  V30 6637 H 654.297 -3.41169 -7.98575 0
M  V30 6638 H 654.566 -2.58295 -6.41556 0
M  V30 6639 H 653.699 -5.02657 -6.42673 0
M  V30 6640 H 651.044 -4.11637 -4.08885 0
M  V30 6641 H 650.765 -2.49626 -6.61679 0
M  V30 6642 H 649.773 -3.86566 -6.00778 0
M  V30 6643 H 651.607 -4.29943 -7.96918 0
M  V30 6644 H 651.678 -1.00937 -6.00374 0
M  V30 6645 P 649.736 -6.144 -6.45285 0
M  V30 6646 O 649.516 -7.54673 -6.86199 0
M  V30 6647 O 648.946 -5.12391 -7.179 0
M  V30 6648 O 649.486 -5.99158 -4.88404 0
M  V30 6649 C 650.426 -6.60234 -3.96415 0
M  V30 6650 C 649.696 -7.08259 -2.72856 0
M  V30 6651 O 649.486 -5.9427 -1.83651 0
M  V30 6652 C 648.296 -7.64886 -2.9555 0
M  V30 6653 O 647.906 -8.53963 -1.90717 0
M  V30 6654 C 647.416 -6.4116 -2.90739 0
M  V30 6655 C 648.126 -5.55375 -1.86963 0
M  V30 6656 N 648.076 -4.09664 -2.15742 0
M  V30 6657 C 648.156 -3.44381 -3.37233 0
M  V30 6658 N 648.076 -2.14131 -3.28347 0
M  V30 6659 C 647.936 -1.90247 -1.91588 0
M  V30 6660 C 647.806 -0.683992 -1.20892 0
M  V30 6661 O 647.786 0.46618 -1.64523 0
M  V30 6662 N 647.686 -0.903396 0.173998 0
M  V30 6663 C 647.686 -2.14171 0.784879 0
M  V30 6664 N 647.556 -2.1435 2.11317 0
M  V30 6665 N 647.816 -3.28784 0.119316 0
M  V30 6666 C 647.936 -3.0977 -1.22194 0
M  V30 6667 H 650.915 -7.45574 -4.45629 0
M  V30 6668 H 651.187 -5.86232 -3.67314 0
M  V30 6669 H 650.319 -7.84412 -2.24479 0
M  V30 6670 H 647.664 -5.73556 -0.888715 0
M  V30 6671 H 647.384 -5.9096 -3.88638 0
M  V30 6672 H 646.393 -6.66053 -2.58894 0
M  V30 6673 H 648.227 -8.16429 -3.92093 0
M  V30 6674 H 648.276 -3.96785 -4.32043 0
M  V30 6675 H 647.594 -0.0999567 0.761467 0
M  V30 6676 H 647.557 -3.03436 2.63076 0
M  V30 6677 H 647.456 -1.25228 2.62233 0
M  V30 6678 P 646.356 -8.7635 -1.60911 0
M  V30 6679 O 646.136 -10.1388 -1.11561 0
M  V30 6680 O 645.566 -8.36503 -2.79617 0
M  V30 6681 O 646.106 -7.71806 -0.42951 0
M  V30 6682 C 647.046 -7.66948 0.673514 0
M  V30 6683 C 646.316 -7.33374 1.95559 0
M  V30 6684 O 646.106 -5.88721 2.00726 0
M  V30 6685 C 644.916 -7.92218 2.1125 0
M  V30 6686 O 644.526 -8.02971 3.47653 0
M  V30 6687 C 644.036 -6.89504 1.41631 0
M  V30 6688 C 644.746 -5.59106 1.75155 0
M  V30 6689 N 644.696 -4.58136 0.662409 0
M  V30 6690 C 644.546 -3.26059 1.02863 0
M  V30 6691 O 644.456 -2.90743 2.19009 0
M  V30 6692 N 644.506 -2.35995 -0.0155585 0
M  V30 6693 C 644.596 -2.65248 -1.35603 0
M  V30 6694 O 644.546 -1.75605 -2.20651 0
M  V30 6695 C 644.746 -4.05747 -1.64698 0
M  V30 6696 C 644.856 -4.42345 -3.09553 0
M  V30 6697 C 644.796 -4.96734 -0.652411 0
M  V30 6698 H 647.537 -8.64917 0.776982 0
M  V30 6699 H 647.806 -6.89974 0.474015 0
M  V30 6700 H 646.939 -7.66548 2.79458 0
M  V30 6701 H 644.284 -5.16076 2.65138 0
M  V30 6702 H 644.005 -7.06433 0.329384 0
M  V30 6703 H 643.013 -6.90829 1.81996 0
M  V30 6704 H 644.847 -8.90774 1.62639 0
M  V30 6705 H 644.918 -6.02181 -0.895285 0
M  V30 6706 H 643.888 -4.80252 -3.45468 0
M  V30 6707 H 645.625 -5.20015 -3.22119 0
M  V30 6708 H 645.137 -3.53269 -3.67833 0
M  V30 6709 H 644.401 -1.39558 0.227499 0
M  V30 6710 P 642.976 -8.03563 3.84925 0
M  V30 6711 O 642.756 -8.85821 5.0569 0
M  V30 6712 O 642.186 -8.41101 2.65469 0
M  V30 6713 O 642.726 -6.49734 4.18962 0
M  V30 6714 C 643.666 -5.81037 5.05421 0
M  V30 6715 C 642.936 -4.79018 5.88876 0
M  V30 6716 O 642.726 -3.58359 5.08515 0
M  V30 6717 C 641.536 -5.17448 6.36119 0
M  V30 6718 O 641.146 -4.45322 7.53318 0
M  V30 6719 C 640.656 -4.74639 5.19936 0
M  V30 6720 C 641.366 -3.49432 4.70418 0
M  V30 6721 N 641.316 -3.31776 3.22945 0
M  V30 6722 C 641.166 -2.02742 2.72939 0
M  V30 6723 O 641.076 -1.08301 3.52749 0
M  V30 6724 N 641.116 -1.96117 1.22063 0
M  V30 6725 C 641.216 -2.8878 0.551566 0
M  V30 6726 N 641.166 -2.65609 -0.750198 0
M  V30 6727 C 641.366 -4.22457 1.03707 0
M  V30 6728 C 641.416 -4.37979 2.39113 0
M  V30 6729 H 644.156 -6.54138 5.7131 0
M  V30 6730 H 644.426 -5.30492 4.44033 0
M  V30 6731 H 643.559 -4.55945 6.76735 0
M  V30 6732 H 640.904 -2.6176 5.18021 0
M  V30 6733 H 640.624 -5.52233 4.41941 0
M  V30 6734 H 639.633 -4.52045 5.53452 0
M  V30 6735 H 641.467 -6.25124 6.55234 0
M  V30 6736 H 641.539 -5.37936 2.80552 0
M  V30 6737 H 641.437 -5.07528 0.359553 0
M  V30 6738 H 641.049 -1.69403 -1.09847 0
M  V30 6739 H 641.245 -3.43701 -1.41792 0
M  V30 6740 P 639.596 -4.23843 7.83734 0
M  V30 6741 O 639.376 -4.19407 9.29784 0
M  V30 6742 O 638.806 -5.24426 7.09156 0
M  V30 6743 O 639.346 -2.7935 7.20758 0
M  V30 6744 C 640.286 -1.7299 7.50419 0
M  V30 6745 C 639.556 -0.406376 7.57911 0
M  V30 6746 O 639.346 0.0897726 6.21935 0
M  V30 6747 C 638.156 -0.447224 8.1878 0
M  V30 6748 O 637.766 0.825065 8.71101 0
M  V30 6749 C 637.276 -0.783801 6.99623 0
M  V30 6750 C 637.986 -0.0619192 5.85967 0
M  V30 6751 N 637.936 -0.7859 4.56281 0
M  V30 6752 H 640.775 -1.93423 8.4679 0
M  V30 6753 H 641.047 -1.68181 6.71046 0
M  V30 6754 H 640.179 0.289041 8.15388 0
M  V30 6755 P 636.216 1.17771 8.83182 0
M  V30 6756 O 635.996 2.07206 9.98732 0
M  V30 6757 O 635.426 -0.0743816 8.81969 0
M  V30 6758 O 635.966 1.97652 7.47304 0
M  V30 6759 C 636.906 3.01133 7.08783 0
M  V30 6760 C 636.176 4.12613 6.37049 0
M  V30 6761 O 635.966 3.72827 4.97879 0
M  V30 6762 C 634.776 4.45085 6.88694 0
M  V30 6763 O 634.386 5.7877 6.5624 0
M  V30 6764 C 633.896 3.47817 6.12078 0
M  V30 6765 C 634.606 3.39414 4.77697 0
M  V30 6766 N 634.556 2.04199 4.15538 0
M  V30 6767 H 637.395 3.41248 7.98759 0
M  V30 6768 H 637.667 2.57728 6.42 0
M  V30 6769 H 636.799 5.02657 6.42673 0
M  V30 6770 H 634.144 4.11708 4.08956 0
M  V30 6771 H 633.864 2.49626 6.61679 0
M  V30 6772 H 632.873 3.8662 6.00862 0
M  V30 6773 H 634.707 4.29991 7.97006 0
M  V30 6774 P 632.836 6.144 6.45285 0
M  V30 6775 O 632.616 7.54673 6.86199 0
M  V30 6776 O 632.046 5.12391 7.179 0
M  V30 6777 O 632.586 5.99158 4.88404 0
M  V30 6778 C 633.526 6.60234 3.96415 0
M  V30 6779 C 632.796 7.08259 2.72856 0
M  V30 6780 O 632.586 5.9427 1.83651 0
M  V30 6781 C 631.396 7.64886 2.9555 0
M  V30 6782 O 631.006 8.53963 1.90717 0
M  V30 6783 C 630.516 6.4116 2.90739 0
M  V30 6784 C 631.226 5.55375 1.86963 0
M  V30 6785 N 631.176 4.09664 2.15742 0
M  V30 6786 H 634.015 7.45574 4.45629 0
M  V30 6787 H 634.287 5.86232 3.67314 0
M  V30 6788 H 633.419 7.84412 2.24479 0
M  V30 6789 P 629.456 8.7635 1.60911 0
M  V30 6790 O 629.236 10.1388 1.11561 0
M  V30 6791 O 628.666 8.36503 2.79617 0
M  V30 6792 O 629.206 7.71806 0.42951 0
M  V30 6793 C 630.146 7.67148 -0.673689 0
M  V30 6794 C 629.416 7.33374 -1.95559 0
M  V30 6795 O 629.206 5.88721 -2.00726 0
M  V30 6796 C 628.016 7.92526 -2.10483 0
M  V30 6797 O 627.626 8.02971 -3.47653 0
M  V30 6798 C 627.136 6.89602 -1.41652 0
M  V30 6799 C 627.846 5.59201 -1.75185 0
M  V30 6800 N 627.796 4.58301 -0.657969 0
M  V30 6801 H 630.635 8.65116 -0.777161 0
M  V30 6802 H 630.907 6.9022 -0.46725 0
M  V30 6803 H 630.039 7.66548 -2.79458 0
M  V30 6804 H 627.384 5.16165 -2.65183 0
M  V30 6805 H 627.104 7.06433 -0.329384 0
M  V30 6806 H 626.113 6.90926 -1.82021 0
M  V30 6807 H 627.947 8.90873 -1.62657 0
M  V30 6808 P 626.076 8.03563 -3.84925 0
M  V30 6809 O 625.856 8.85821 -5.0569 0
M  V30 6810 O 625.286 8.41101 -2.65469 0
M  V30 6811 O 625.826 6.4965 -4.18908 0
M  V30 6812 C 626.766 5.80886 -5.05289 0
M  V30 6813 C 626.036 4.78366 -5.89277 0
M  V30 6814 O 625.826 3.58302 -5.08433 0
M  V30 6815 C 624.636 5.16748 -6.36559 0
M  V30 6816 O 624.246 4.45271 -7.53232 0
M  V30 6817 C 623.756 4.74572 -5.19863 0
M  V30 6818 C 624.466 3.49373 -4.70338 0
M  V30 6819 N 624.416 3.31704 -3.22876 0
M  V30 6820 C 624.266 2.03326 -2.74871 0
M  V30 6821 O 624.176 1.06486 -3.48076 0
M  V30 6822 N 624.226 1.91838 -1.37456 0
M  V30 6823 C 624.316 2.94295 -0.462035 0
M  V30 6824 O 624.266 2.71763 0.752928 0
M  V30 6825 C 624.466 4.25064 -1.05249 0
M  V30 6826 C 624.576 5.39815 -0.095697 0
M  V30 6827 C 624.516 4.40214 -2.39192 0
M  V30 6828 H 627.257 6.54063 -5.71245 0
M  V30 6829 H 627.526 5.30339 -4.43905 0
M  V30 6830 H 626.659 4.55889 -6.76652 0
M  V30 6831 H 624.004 2.6167 -5.17842 0
M  V30 6832 H 623.725 5.52155 -4.41878 0
M  V30 6833 H 622.733 4.51918 -5.53297 0
M  V30 6834 H 624.567 6.25055 -6.55162 0
M  V30 6835 H 624.638 5.39798 -2.81523 0
M  V30 6836 H 623.608 5.91593 -0.0279582 0
M  V30 6837 H 625.345 6.10038 -0.450573 0
M  V30 6838 H 624.857 5.02007 0.89937 0
M  V30 6839 H 624.121 0.995326 -1.00435 0
M  V30 6840 P 622.696 4.23843 -7.83734 0
M  V30 6841 O 622.476 4.19407 -9.29784 0
M  V30 6842 O 621.906 5.24426 -7.09156 0
M  V30 6843 O 622.446 2.7935 -7.20758 0
M  V30 6844 C 623.386 1.7299 -7.50419 0
M  V30 6845 C 622.656 0.406376 -7.57911 0
M  V30 6846 O 622.446 -0.0897726 -6.21935 0
M  V30 6847 C 621.256 0.447224 -8.1878 0
M  V30 6848 O 620.866 -0.825065 -8.71101 0
M  V30 6849 C 620.376 0.783801 -6.99623 0
M  V30 6850 C 621.086 0.0619192 -5.85967 0
M  V30 6851 N 621.036 0.7859 -4.56281 0
M  V30 6852 H 623.875 1.93423 -8.4679 0
M  V30 6853 H 624.147 1.68181 -6.71046 0
M  V30 6854 H 623.279 -0.289041 -8.15388 0
M  V30 6855 P 619.316 -1.17771 -8.83182 0
M  V30 6856 O 619.096 -2.07206 -9.98732 0
M  V30 6857 O 618.526 0.0743816 -8.81969 0
M  V30 6858 O 619.066 -1.97652 -7.47304 0
M  V30 6859 C 620.006 -3.01133 -7.08783 0
M  V30 6860 C 619.276 -4.12613 -6.37049 0
M  V30 6861 O 619.066 -3.72827 -4.97879 0
M  V30 6862 C 617.876 -4.45085 -6.88694 0
M  V30 6863 O 617.486 -5.7877 -6.5624 0
M  V30 6864 C 616.996 -3.47817 -6.12078 0
M  V30 6865 C 617.706 -3.39414 -4.77697 0
M  V30 6866 N 617.656 -2.04615 -4.15333 0
M  V30 6867 H 620.495 -3.41248 -7.98759 0
M  V30 6868 H 620.767 -2.5837 -6.41742 0
M  V30 6869 H 619.899 -5.02657 -6.42673 0
M  V30 6870 P 615.936 -6.144 -6.45285 0
M  V30 6871 O 615.716 -7.54673 -6.86199 0
M  V30 6872 O 615.146 -5.12391 -7.179 0
M  V30 6873 O 615.686 -5.99158 -4.88404 0
M  V30 6874 C 616.626 -6.60234 -3.96415 0
M  V30 6875 C 615.896 -7.08259 -2.72856 0
M  V30 6876 O 615.686 -5.9427 -1.83651 0
M  V30 6877 C 614.496 -7.64886 -2.9555 0
M  V30 6878 O 614.106 -8.53963 -1.90717 0
M  V30 6879 C 613.616 -6.4116 -2.90739 0
M  V30 6880 C 614.326 -5.55375 -1.86963 0
M  V30 6881 N 614.276 -4.09448 -2.16152 0
M  V30 6882 H 617.115 -7.45574 -4.45629 0
M  V30 6883 H 617.387 -5.85864 -3.679 0
M  V30 6884 H 616.519 -7.84412 -2.24479 0
M  V30 6885 H 613.864 -5.73457 -0.888562 0
M  V30 6886 H 613.584 -5.90877 -3.88583 0
M  V30 6887 H 612.593 -6.6596 -2.58858 0
M  V30 6888 H 614.427 -8.16339 -3.92049 0
M  V30 6889 P 612.556 -8.7635 -1.60911 0
M  V30 6890 O 612.336 -10.1388 -1.11561 0
M  V30 6891 O 611.766 -8.36503 -2.79617 0
M  V30 6892 O 612.306 -7.71906 -0.429565 0
M  V30 6893 C 613.246 -7.67148 0.673689 0
M  V30 6894 C 612.516 -7.33666 1.94851 0
M  V30 6895 O 612.306 -5.88816 2.00759 0
M  V30 6896 C 611.116 -7.92526 2.10483 0
M  V30 6897 O 610.726 -8.03063 3.47693 0
M  V30 6898 C 610.236 -6.89602 1.41652 0
M  V30 6899 C 610.946 -5.59201 1.75185 0
M  V30 6900 N 610.896 -4.58235 0.662552 0
M  V30 6901 C 610.746 -3.24451 1.01643 0
M  V30 6902 O 610.656 -2.94958 2.21722 0
M  V30 6903 N 610.696 -2.30408 -0.165238 0
M  V30 6904 C 610.796 -2.66048 -1.25118 0
M  V30 6905 N 610.746 -1.70787 -2.16813 0
M  V30 6906 C 610.946 -4.02732 -1.64413 0
M  V30 6907 C 610.996 -4.9488 -0.63991 0
M  V30 6908 H 613.736 -8.65017 0.777072 0
M  V30 6909 H 614.006 -6.90173 0.474152 0
M  V30 6910 H 613.139 -7.66642 2.79492 0
M  V30 6911 H 610.484 -5.16254 2.65229 0
M  V30 6912 H 610.204 -7.06532 0.329431 0
M  V30 6913 H 609.213 -6.91023 1.82047 0
M  V30 6914 H 611.047 -8.90873 1.62657 0
M  V30 6915 H 611.119 -6.00104 -0.892197 0
M  V30 6916 H 611.017 -4.31733 -2.69229 0
M  V30 6917 H 610.629 -0.724835 -1.8844 0
M  V30 6918 H 610.825 -1.94716 -3.16734 0
M  V30 6919 P 609.176 -8.03563 3.84925 0
M  V30 6920 O 608.956 -8.85821 5.0569 0
M  V30 6921 O 608.386 -8.41101 2.65469 0
M  V30 6922 O 608.926 -6.4965 4.18908 0
M  V30 6923 C 609.866 -5.81037 5.05421 0
M  V30 6924 C 609.136 -4.78366 5.89277 0
M  V30 6925 O 608.926 -3.58302 5.08433 0
M  V30 6926 C 607.736 -5.17448 6.36119 0
M  V30 6927 O 607.346 -4.45271 7.53232 0
M  V30 6928 C 606.856 -4.74639 5.19936 0
M  V30 6929 C 607.566 -3.49432 4.70418 0
M  V30 6930 N 607.516 -3.31776 3.22945 0
M  V30 6931 H 610.355 -6.54213 5.71376 0
M  V30 6932 H 610.627 -5.30492 4.44033 0
M  V30 6933 H 609.759 -4.55889 6.76652 0
M  V30 6934 P 605.796 -4.23843 7.83734 0
M  V30 6935 O 605.576 -4.19407 9.29784 0
M  V30 6936 O 605.006 -5.24426 7.09156 0
M  V30 6937 O 605.546 -2.7935 7.20758 0
M  V30 6938 C 606.486 -1.72945 7.50224 0
M  V30 6939 C 605.756 -0.406376 7.57911 0
M  V30 6940 O 605.546 0.0897726 6.21935 0
M  V30 6941 C 604.356 -0.438983 8.18724 0
M  V30 6942 O 603.966 0.825065 8.71101 0
M  V30 6943 C 603.476 -0.783689 6.99524 0
M  V30 6944 C 604.186 -0.0619086 5.85867 0
M  V30 6945 N 604.136 -0.78573 4.56183 0
M  V30 6946 C 603.986 -0.0292889 3.41887 0
M  V30 6947 O 603.896 1.18445 3.4419 0
M  V30 6948 N 603.946 -0.744061 2.23964 0
M  V30 6949 C 604.036 -2.10932 2.10362 0
M  V30 6950 O 603.986 -2.64117 0.98825 0
M  V30 6951 C 604.186 -2.8202 3.34994 0
M  V30 6952 C 604.296 -4.31095 3.25037 0
M  V30 6953 C 604.236 -2.15547 4.52261 0
M  V30 6954 H 606.977 -1.93379 8.46595 0
M  V30 6955 H 607.246 -1.68132 6.70852 0
M  V30 6956 H 606.379 0.289041 8.15388 0
M  V30 6957 H 603.724 0.926847 5.72749 0
M  V30 6958 H 603.445 -1.86973 6.82036 0
M  V30 6959 H 602.453 -0.403896 7.13257 0
M  V30 6960 H 604.287 -1.20585 8.97435 0
M  V30 6961 H 604.358 -2.71231 5.45042 0
M  V30 6962 H 603.328 -4.76966 3.49992 0
M  V30 6963 H 605.065 -4.67047 3.95024 0
M  V30 6964 H 604.577 -4.58996 2.22312 0
M  V30 6965 H 603.841 -0.214893 1.39758 0
M  V30 6966 P 602.416 1.17771 8.83182 0
M  V30 6967 O 602.196 2.07206 9.98732 0
M  V30 6968 O 601.626 -0.0743816 8.81969 0
M  V30 6969 O 602.166 1.97652 7.47304 0
M  V30 6970 C 603.106 3.01133 7.08783 0
M  V30 6971 C 602.376 4.12613 6.37049 0
M  V30 6972 O 602.166 3.72827 4.97879 0
M  V30 6973 C 600.976 4.45085 6.88694 0
M  V30 6974 O 600.586 5.7877 6.5624 0
M  V30 6975 C 600.096 3.47817 6.12078 0
M  V30 6976 C 600.806 3.39414 4.77697 0
M  V30 6977 N 600.756 2.04615 4.15333 0
M  V30 6978 H 603.595 3.41248 7.98759 0
M  V30 6979 H 603.867 2.5837 6.41742 0
M  V30 6980 H 602.999 5.02657 6.42673 0
M  V30 6981 P 599.036 6.144 6.45285 0
M  V30 6982 O 598.816 7.54673 6.86199 0
M  V30 6983 O 598.246 5.12391 7.179 0
M  V30 6984 O 598.786 5.99158 4.88404 0
M  V30 6985 C 599.726 6.60234 3.96415 0
M  V30 6986 C 598.996 7.08259 2.72856 0
M  V30 6987 O 598.786 5.9427 1.83651 0
M  V30 6988 C 597.596 7.64886 2.9555 0
M  V30 6989 O 597.206 8.53963 1.90717 0
M  V30 6990 C 596.716 6.4116 2.90739 0
M  V30 6991 C 597.426 5.55375 1.86963 0
M  V30 6992 N 597.376 4.09664 2.15742 0
M  V30 6993 H 600.215 7.45574 4.45629 0
M  V30 6994 H 600.487 5.86232 3.67314 0
M  V30 6995 H 599.619 7.84412 2.24479 0
M  V30 6996 P 595.656 8.7635 1.60911 0
M  V30 6997 O 595.437 10.1388 1.11561 0
M  V30 6998 O 594.866 8.36503 2.79617 0
M  V30 6999 O 595.406 7.71806 0.42951 0
M  V30 7000 C 596.346 7.66948 -0.673514 0
M  V30 7001 C 595.616 7.33374 -1.95559 0
M  V30 7002 O 595.406 5.88721 -2.00726 0
M  V30 7003 C 594.216 7.92218 -2.1125 0
M  V30 7004 O 593.827 8.02971 -3.47653 0
M  V30 7005 C 593.337 6.89504 -1.41631 0
M  V30 7006 C 594.046 5.59106 -1.75155 0
M  V30 7007 N 593.996 4.58136 -0.662409 0
M  V30 7008 C 593.846 3.26059 -1.02863 0
M  V30 7009 O 593.756 2.90743 -2.19009 0
M  V30 7010 N 593.806 2.35995 0.0155585 0
M  V30 7011 C 593.896 2.65248 1.35603 0
M  V30 7012 C 594.046 4.05747 1.64698 0
M  V30 7013 C 594.096 4.96734 0.652411 0
M  V30 7014 H 596.837 8.64917 -0.776982 0
M  V30 7015 H 597.106 6.89974 -0.474015 0
M  V30 7016 H 596.24 7.66548 -2.79458 0
M  V30 7017 H 593.584 5.16076 -2.65138 0
M  V30 7018 H 593.305 7.06433 -0.329384 0
M  V30 7019 H 592.313 6.90829 -1.81996 0
M  V30 7020 H 594.147 8.90774 -1.62639 0
M  V30 7021 H 594.218 6.02181 0.895285 0
M  V30 7022 P 592.277 8.03563 -3.84925 0
M  V30 7023 O 592.057 8.85821 -5.0569 0
M  V30 7024 O 591.487 8.41101 -2.65469 0
M  V30 7025 O 592.027 6.4965 -4.18908 0
M  V30 7026 C 592.967 5.81037 -5.05421 0
M  V30 7027 C 592.237 4.78366 -5.89277 0
M  V30 7028 O 592.027 3.58302 -5.08433 0
M  V30 7029 C 590.837 5.17448 -6.36119 0
M  V30 7030 O 590.447 4.45271 -7.53232 0
M  V30 7031 C 589.957 4.74639 -5.19936 0
M  V30 7032 C 590.667 3.49432 -4.70418 0
M  V30 7033 N 590.617 3.31776 -3.22945 0
M  V30 7034 H 593.456 6.54213 -5.71376 0
M  V30 7035 H 593.728 5.30492 -4.44033 0
M  V30 7036 H 592.86 4.55889 -6.76652 0
M  V30 7037 P 588.897 4.23843 -7.83734 0
M  V30 7038 O 588.677 4.19407 -9.29784 0
M  V30 7039 O 588.107 5.24426 -7.09156 0
M  V30 7040 O 588.647 2.7935 -7.20758 0
M  V30 7041 C 589.587 1.7299 -7.50419 0
M  V30 7042 C 588.857 0.406376 -7.57911 0
M  V30 7043 O 588.647 -0.0897726 -6.21935 0
M  V30 7044 C 587.457 0.447224 -8.1878 0
M  V30 7045 O 587.067 -0.825065 -8.71101 0
M  V30 7046 C 586.577 0.783801 -6.99623 0
M  V30 7047 C 587.287 0.0619192 -5.85967 0
M  V30 7048 N 587.237 0.790462 -4.56202 0
M  V30 7049 H 590.076 1.93423 -8.4679 0
M  V30 7050 H 590.348 1.68852 -6.70877 0
M  V30 7051 H 589.48 -0.289041 -8.15388 0
M  V30 7052 H 586.825 -0.927006 -5.72848 0
M  V30 7053 H 586.545 1.86973 -6.82036 0
M  V30 7054 H 585.554 0.403953 -7.13357 0
M  V30 7055 H 587.388 1.20599 -8.97534 0
M  V30 7056 P 585.517 -1.17771 -8.83182 0
M  V30 7057 O 585.297 -2.07206 -9.98732 0
M  V30 7058 O 584.727 0.0743816 -8.81969 0
M  V30 7059 O 585.267 -1.97652 -7.47304 0
M  V30 7060 C 586.207 -3.01133 -7.08783 0
M  V30 7061 C 585.477 -4.12613 -6.37049 0
M  V30 7062 O 585.267 -3.72827 -4.97879 0
M  V30 7063 C 584.077 -4.45085 -6.88694 0
M  V30 7064 O 583.687 -5.7877 -6.5624 0
M  V30 7065 C 583.197 -3.47817 -6.12078 0
M  V30 7066 C 583.907 -3.39414 -4.77697 0
M  V30 7067 N 583.857 -2.04199 -4.15538 0
M  V30 7068 H 586.696 -3.41248 -7.98759 0
M  V30 7069 H 586.968 -2.57728 -6.42 0
M  V30 7070 H 586.1 -5.02657 -6.42673 0
M  V30 7071 H 583.445 -4.11708 -4.08956 0
M  V30 7072 H 583.165 -2.49626 -6.61679 0
M  V30 7073 H 582.174 -3.8662 -6.00862 0
M  V30 7074 H 584.008 -4.29991 -7.97006 0
M  V30 7075 P 582.137 -6.144 -6.45285 0
M  V30 7076 O 581.917 -7.54673 -6.86199 0
M  V30 7077 O 581.347 -5.12391 -7.179 0
M  V30 7078 O 581.887 -5.99158 -4.88404 0
M  V30 7079 C 582.827 -6.60062 -3.96313 0
M  V30 7080 C 582.097 -7.08259 -2.72856 0
M  V30 7081 O 581.887 -5.9427 -1.83651 0
M  V30 7082 C 580.697 -7.65087 -2.94749 0
M  V30 7083 O 580.307 -8.53963 -1.90717 0
M  V30 7084 C 579.817 -6.41069 -2.90698 0
M  V30 7085 C 580.527 -5.5528 -1.86931 0
M  V30 7086 N 580.477 -4.09575 -2.15696 0
M  V30 7087 C 580.327 -3.24249 -1.08435 0
M  V30 7088 O 580.237 -3.63946 0.0628747 0
M  V30 7089 N 580.287 -1.90009 -1.39973 0
M  V30 7090 C 580.377 -1.34884 -2.65614 0
M  V30 7091 C 580.527 -2.3145 -3.71736 0
M  V30 7092 C 580.577 -3.63518 -3.44754 0
M  V30 7093 H 583.318 -7.45402 -4.45526 0
M  V30 7094 H 583.587 -5.86062 -3.67208 0
M  V30 7095 H 582.72 -7.84412 -2.24479 0
M  V30 7096 H 580.065 -5.73358 -0.888409 0
M  V30 7097 H 579.786 -5.90877 -3.88583 0
M  V30 7098 H 578.794 -6.65867 -2.58821 0
M  V30 7099 H 580.628 -8.16248 -3.92006 0
M  V30 7100 H 580.699 -4.34551 -4.26383 0
M  V30 7101 P 578.757 -8.7635 -1.60911 0
M  V30 7102 O 578.537 -10.1388 -1.11561 0
M  V30 7103 O 577.967 -8.36503 -2.79617 0
M  V30 7104 O 578.507 -7.71806 -0.42951 0
M  V30 7105 C 579.447 -7.67148 0.673689 0
M  V30 7106 C 578.717 -7.33374 1.95559 0
M  V30 7107 O 578.507 -5.88721 2.00726 0
M  V30 7108 C 577.317 -7.92526 2.10483 0
M  V30 7109 O 576.927 -8.02971 3.47653 0
M  V30 7110 C 576.437 -6.89602 1.41652 0
M  V30 7111 C 577.147 -5.59201 1.75185 0
M  V30 7112 N 577.097 -4.58235 0.662552 0
M  V30 7113 H 579.936 -8.65116 0.777161 0
M  V30 7114 H 580.208 -6.90173 0.474152 0
M  V30 7115 H 579.34 -7.66548 2.79458 0
M  V30 7116 P 575.377 -8.03563 3.84925 0
M  V30 7117 O 575.157 -8.85821 5.0569 0
M  V30 7118 O 574.587 -8.41101 2.65469 0
M  V30 7119 O 575.127 -6.4965 4.18908 0
M  V30 7120 C 576.067 -5.81037 5.05421 0
M  V30 7121 C 575.337 -4.78366 5.89277 0
M  V30 7122 O 575.127 -3.58302 5.08433 0
M  V30 7123 C 573.937 -5.17448 6.36119 0
M  V30 7124 O 573.547 -4.45271 7.53232 0
M  V30 7125 C 573.057 -4.74639 5.19936 0
M  V30 7126 C 573.767 -3.49432 4.70418 0
M  V30 7127 N 573.717 -3.31776 3.22945 0
M  V30 7128 H 576.556 -6.54213 5.71376 0
M  V30 7129 H 576.828 -5.30492 4.44033 0
M  V30 7130 H 575.96 -4.55889 6.76652 0
M  V30 7131 P 571.997 -4.23843 7.83734 0
M  V30 7132 O 571.777 -4.19407 9.29784 0
M  V30 7133 O 571.207 -5.24426 7.09156 0
M  V30 7134 O 571.747 -2.79386 7.20852 0
M  V30 7135 C 572.687 -1.7299 7.50419 0
M  V30 7136 C 571.957 -0.41401 7.5797 0
M  V30 7137 O 571.747 0.089787 6.22035 0
M  V30 7138 C 570.557 -0.447224 8.1878 0
M  V30 7139 O 570.167 0.825159 8.71201 0
M  V30 7140 C 569.677 -0.783801 6.99623 0
M  V30 7141 C 570.387 -0.0619192 5.85967 0
M  V30 7142 N 570.337 -0.7859 4.56281 0
M  V30 7143 C 570.187 -0.0359258 3.39981 0
M  V30 7144 O 570.097 1.19723 3.49038 0
M  V30 7145 N 570.137 -0.869151 2.14025 0
M  V30 7146 C 570.237 -2.01207 2.14363 0
M  V30 7147 N 570.187 -2.58978 0.954287 0
M  V30 7148 C 570.387 -2.80817 3.32215 0
M  V30 7149 C 570.437 -2.13785 4.50884 0
M  V30 7150 H 573.177 -1.93401 8.46693 0
M  V30 7151 H 573.447 -1.68181 6.71046 0
M  V30 7152 H 572.58 0.289076 8.15488 0
M  V30 7153 H 569.925 0.927166 5.72947 0
M  V30 7154 H 569.645 -1.87 6.82132 0
M  V30 7155 H 568.654 -0.404009 7.13457 0
M  V30 7156 H 570.488 -1.20599 8.97534 0
M  V30 7157 H 570.56 -2.70295 5.43162 0
M  V30 7158 H 570.458 -3.89465 3.27406 0
M  V30 7159 H 570.07 -2.01616 0.107046 0
M  V30 7160 H 570.266 -3.61403 0.873101 0
M  V30 7161 P 568.617 1.17771 8.83182 0
M  V30 7162 O 568.397 2.07206 9.98732 0
M  V30 7163 O 567.827 -0.0743816 8.81969 0
M  V30 7164 O 568.367 1.97652 7.47304 0
M  V30 7165 C 569.307 3.01133 7.08783 0
M  V30 7166 C 568.577 4.12613 6.37049 0
M  V30 7167 O 568.367 3.72827 4.97879 0
M  V30 7168 C 567.177 4.45085 6.88694 0
M  V30 7169 O 566.787 5.7877 6.5624 0
M  V30 7170 C 566.297 3.47817 6.12078 0
M  V30 7171 C 567.007 3.39414 4.77697 0
M  V30 7172 N 566.957 2.04615 4.15333 0
M  V30 7173 H 569.796 3.41248 7.98759 0
M  V30 7174 H 570.068 2.5837 6.41742 0
M  V30 7175 H 569.2 5.02657 6.42673 0
M  V30 7176 P 565.237 6.144 6.45285 0
M  V30 7177 O 565.017 7.54673 6.86199 0
M  V30 7178 O 564.447 5.12391 7.179 0
M  V30 7179 O 564.987 5.99158 4.88404 0
M  V30 7180 C 565.927 6.60234 3.96415 0
M  V30 7181 C 565.197 7.08259 2.72856 0
M  V30 7182 O 564.987 5.9427 1.83651 0
M  V30 7183 C 563.797 7.64886 2.9555 0
M  V30 7184 O 563.407 8.53963 1.90717 0
M  V30 7185 C 562.917 6.4116 2.90739 0
M  V30 7186 C 563.627 5.55375 1.86963 0
M  V30 7187 N 563.577 4.09664 2.15742 0
M  V30 7188 H 566.416 7.45574 4.45629 0
M  V30 7189 H 566.688 5.86232 3.67314 0
M  V30 7190 H 565.82 7.84412 2.24479 0
M  V30 7191 P 561.857 8.7635 1.60911 0
M  V30 7192 O 561.637 10.1388 1.11561 0
M  V30 7193 O 561.067 8.36503 2.79617 0
M  V30 7194 O 561.607 7.71806 0.42951 0
M  V30 7195 C 562.547 7.67148 -0.673689 0
M  V30 7196 C 561.817 7.33374 -1.95559 0
M  V30 7197 O 561.607 5.88721 -2.00726 0
M  V30 7198 C 560.417 7.92526 -2.10483 0
M  V30 7199 O 560.027 8.02971 -3.47653 0
M  V30 7200 C 559.537 6.89602 -1.41652 0
M  V30 7201 C 560.247 5.59201 -1.75185 0
M  V30 7202 N 560.197 4.58301 -0.657969 0
M  V30 7203 H 563.036 8.65116 -0.777161 0
M  V30 7204 H 563.308 6.9022 -0.46725 0
M  V30 7205 H 562.44 7.66548 -2.79458 0
M  V30 7206 H 559.785 5.16165 -2.65183 0
M  V30 7207 H 559.505 7.06433 -0.329384 0
M  V30 7208 H 558.514 6.90926 -1.82021 0
M  V30 7209 H 560.348 8.90873 -1.62657 0
M  V30 7210 P 558.477 8.03563 -3.84925 0
M  V30 7211 O 558.257 8.85821 -5.0569 0
M  V30 7212 O 557.687 8.41101 -2.65469 0
M  V30 7213 O 558.227 6.4965 -4.18908 0
M  V30 7214 C 559.167 5.81037 -5.05421 0
M  V30 7215 C 558.437 4.78366 -5.89277 0
M  V30 7216 O 558.227 3.58302 -5.08433 0
M  V30 7217 C 557.037 5.17448 -6.36119 0
M  V30 7218 O 556.647 4.45271 -7.53232 0
M  V30 7219 C 556.157 4.74639 -5.19936 0
M  V30 7220 C 556.867 3.49432 -4.70418 0
M  V30 7221 N 556.817 3.31776 -3.22945 0
M  V30 7222 C 556.897 4.27147 -2.23315 0
M  V30 7223 N 556.817 3.78447 -1.02186 0
M  V30 7224 C 556.677 2.41001 -1.21732 0
M  V30 7225 C 556.547 1.36111 -0.27694 0
M  V30 7226 O 556.527 1.42065 0.951767 0
M  V30 7227 N 556.427 0.113683 -0.912949 0
M  V30 7228 C 556.427 -0.0846396 -2.27943 0
M  V30 7229 N 556.297 -1.34737 -2.6916 0
M  V30 7230 N 556.557 0.902521 -3.16379 0
M  V30 7231 C 556.677 2.11937 -2.56849 0
M  V30 7232 H 559.656 6.54213 -5.71376 0
M  V30 7233 H 559.928 5.30492 -4.44033 0
M  V30 7234 H 559.06 4.55889 -6.76652 0
M  V30 7235 H 556.405 2.6176 -5.18021 0
M  V30 7236 H 556.125 5.52233 -4.41941 0
M  V30 7237 H 555.134 4.52045 -5.53452 0
M  V30 7238 H 556.968 6.25193 -6.55307 0
M  V30 7239 H 557.017 5.3351 -2.43857 0
M  V30 7240 H 556.335 -0.69331 -0.330371 0
M  V30 7241 H 556.298 -1.56433 -3.6988 0
M  V30 7242 H 556.197 -2.10701 -2.00133 0
M  V30 7243 P 555.097 4.23843 -7.83734 0
M  V30 7244 O 554.877 4.19407 -9.29784 0
M  V30 7245 O 554.307 5.24426 -7.09156 0
M  V30 7246 O 554.847 2.79386 -7.20852 0
M  V30 7247 C 555.787 1.7299 -7.50419 0
M  V30 7248 C 555.057 0.41401 -7.5797 0
M  V30 7249 O 554.847 -0.089787 -6.22035 0
M  V30 7250 C 553.657 0.447224 -8.1878 0
M  V30 7251 O 553.267 -0.825159 -8.71201 0
M  V30 7252 C 552.777 0.783801 -6.99623 0
M  V30 7253 C 553.487 0.0619192 -5.85967 0
M  V30 7254 N 553.437 0.7859 -4.56281 0
M  V30 7255 C 553.287 0.0359258 -3.39981 0
M  V30 7256 O 553.197 -1.19723 -3.49038 0
M  V30 7257 N 553.237 0.869151 -2.14025 0
M  V30 7258 C 553.337 2.01207 -2.14363 0
M  V30 7259 N 553.287 2.58978 -0.954287 0
M  V30 7260 C 553.487 2.80817 -3.32215 0
M  V30 7261 C 553.537 2.13785 -4.50884 0
M  V30 7262 H 556.277 1.93401 -8.46693 0
M  V30 7263 H 556.547 1.68181 -6.71046 0
M  V30 7264 H 555.68 -0.289076 -8.15488 0
M  V30 7265 H 553.025 -0.927166 -5.72947 0
M  V30 7266 H 552.745 1.87 -6.82132 0
M  V30 7267 H 551.754 0.404009 -7.13457 0
M  V30 7268 H 553.588 1.20599 -8.97534 0
M  V30 7269 H 553.66 2.70295 -5.43162 0
M  V30 7270 H 553.558 3.89465 -3.27406 0
M  V30 7271 H 553.17 2.01616 -0.107046 0
M  V30 7272 H 553.366 3.61403 -0.873101 0
M  V30 7273 P 551.717 -1.17771 -8.83182 0
M  V30 7274 O 551.497 -2.07206 -9.98732 0
M  V30 7275 O 550.927 0.0743816 -8.81969 0
M  V30 7276 O 551.467 -1.97652 -7.47304 0
M  V30 7277 C 552.407 -3.01133 -7.08783 0
M  V30 7278 C 551.677 -4.12613 -6.37049 0
M  V30 7279 O 551.467 -3.72827 -4.97879 0
M  V30 7280 C 550.277 -4.45085 -6.88694 0
M  V30 7281 O 549.887 -5.7877 -6.5624 0
M  V30 7282 C 549.397 -3.47817 -6.12078 0
M  V30 7283 C 550.107 -3.39414 -4.77697 0
M  V30 7284 N 550.057 -2.04199 -4.15538 0
M  V30 7285 H 552.896 -3.41248 -7.98759 0
M  V30 7286 H 553.168 -2.57728 -6.42 0
M  V30 7287 H 552.3 -5.02657 -6.42673 0
M  V30 7288 H 549.645 -4.11708 -4.08956 0
M  V30 7289 H 549.365 -2.49626 -6.61679 0
M  V30 7290 H 548.374 -3.8662 -6.00862 0
M  V30 7291 H 550.208 -4.29991 -7.97006 0
M  V30 7292 P 548.337 -6.144 -6.45285 0
M  V30 7293 O 548.117 -7.54673 -6.86199 0
M  V30 7294 O 547.547 -5.12391 -7.179 0
M  V30 7295 O 548.087 -5.99158 -4.88404 0
M  V30 7296 C 549.027 -6.60234 -3.96415 0
M  V30 7297 C 548.297 -7.08259 -2.72856 0
M  V30 7298 O 548.087 -5.9427 -1.83651 0
M  V30 7299 C 546.897 -7.64886 -2.9555 0
M  V30 7300 O 546.507 -8.53963 -1.90717 0
M  V30 7301 C 546.017 -6.4116 -2.90739 0
M  V30 7302 C 546.727 -5.55375 -1.86963 0
M  V30 7303 N 546.677 -4.09448 -2.16152 0
M  V30 7304 H 549.516 -7.45574 -4.45629 0
M  V30 7305 H 549.788 -5.85864 -3.679 0
M  V30 7306 H 548.92 -7.84412 -2.24479 0
M  V30 7307 H 546.265 -5.73457 -0.888562 0
M  V30 7308 H 545.985 -5.90877 -3.88583 0
M  V30 7309 H 544.994 -6.6596 -2.58858 0
M  V30 7310 H 546.828 -8.16339 -3.92049 0
M  V30 7311 P 544.957 -8.7635 -1.60911 0
M  V30 7312 O 544.737 -10.1388 -1.11561 0
M  V30 7313 O 544.167 -8.36503 -2.79617 0
M  V30 7314 O 544.707 -7.71806 -0.42951 0
M  V30 7315 C 545.647 -7.67148 0.673689 0
M  V30 7316 C 544.917 -7.33374 1.95559 0
M  V30 7317 O 544.707 -5.88721 2.00726 0
M  V30 7318 C 543.517 -7.92526 2.10483 0
M  V30 7319 O 543.127 -8.02971 3.47653 0
M  V30 7320 C 542.637 -6.89602 1.41652 0
M  V30 7321 C 543.347 -5.59201 1.75185 0
M  V30 7322 N 543.297 -4.58235 0.662552 0
M  V30 7323 C 543.377 -4.7683 -0.704049 0
M  V30 7324 N 543.297 -3.66233 -1.39775 0
M  V30 7325 C 543.157 -2.66526 -0.431739 0
M  V30 7326 C 543.027 -1.26394 -0.575992 0
M  V30 7327 N 542.907 -0.62859 0.67177 0
M  V30 7328 C 542.907 -1.27134 1.89385 0
M  V30 7329 N 542.777 -0.492035 2.96951 0
M  V30 7330 N 543.037 -2.58978 2.02907 0
M  V30 7331 C 543.157 -3.22433 0.832218 0
M  V30 7332 H 546.136 -8.65116 0.777161 0
M  V30 7333 H 546.408 -6.90173 0.474152 0
M  V30 7334 H 545.54 -7.66548 2.79458 0
M  V30 7335 P 541.577 -8.03563 3.84925 0
M  V30 7336 O 541.357 -8.85821 5.0569 0
M  V30 7337 O 540.787 -8.41101 2.65469 0
M  V30 7338 O 541.327 -6.4965 4.18908 0
M  V30 7339 C 542.267 -5.80886 5.05289 0
M  V30 7340 C 541.537 -4.78366 5.89277 0
M  V30 7341 O 541.327 -3.58302 5.08433 0
M  V30 7342 C 540.137 -5.16748 6.36559 0
M  V30 7343 O 539.747 -4.45271 7.53232 0
M  V30 7344 C 539.257 -4.74572 5.19863 0
M  V30 7345 C 539.967 -3.49373 4.70338 0
M  V30 7346 N 539.917 -3.31704 3.22876 0
M  V30 7347 C 539.767 -2.03326 2.74871 0
M  V30 7348 O 539.677 -1.06486 3.48076 0
M  V30 7349 N 539.727 -1.91838 1.37456 0
M  V30 7350 C 539.817 -2.94295 0.462035 0
M  V30 7351 C 539.967 -4.25064 1.05249 0
M  V30 7352 C 540.017 -4.40214 2.39192 0
M  V30 7353 H 542.758 -6.54063 5.71245 0
M  V30 7354 H 543.027 -5.30339 4.43905 0
M  V30 7355 H 542.16 -4.55889 6.76652 0
M  V30 7356 H 539.505 -2.6167 5.17842 0
M  V30 7357 H 539.226 -5.52155 4.41878 0
M  V30 7358 H 538.234 -4.51918 5.53297 0
M  V30 7359 H 540.068 -6.25055 6.55162 0
M  V30 7360 H 540.139 -5.39798 2.81523 0
M  V30 7361 P 538.197 -4.23843 7.83734 0
M  V30 7362 O 537.977 -4.19407 9.29784 0
M  V30 7363 O 537.407 -5.24426 7.09156 0
M  V30 7364 O 537.947 -2.7935 7.20758 0
M  V30 7365 C 538.887 -1.7299 7.50419 0
M  V30 7366 C 538.157 -0.406376 7.57911 0
M  V30 7367 O 537.947 0.0897726 6.21935 0
M  V30 7368 C 536.757 -0.447224 8.1878 0
M  V30 7369 O 536.367 0.825065 8.71101 0
M  V30 7370 C 535.877 -0.783801 6.99623 0
M  V30 7371 C 536.587 -0.0619192 5.85967 0
M  V30 7372 N 536.537 -0.7859 4.56281 0
M  V30 7373 H 539.376 -1.93423 8.4679 0
M  V30 7374 H 539.648 -1.68181 6.71046 0
M  V30 7375 H 538.78 0.289041 8.15388 0
M  V30 7376 P 534.817 1.17771 8.83182 0
M  V30 7377 O 534.597 2.07206 9.98732 0
M  V30 7378 O 534.027 -0.0743816 8.81969 0
M  V30 7379 O 534.567 1.97652 7.47304 0
M  V30 7380 C 535.507 3.01133 7.08783 0
M  V30 7381 C 534.777 4.12613 6.37049 0
M  V30 7382 O 534.567 3.72827 4.97879 0
M  V30 7383 C 533.377 4.45085 6.88694 0
M  V30 7384 O 532.987 5.7877 6.5624 0
M  V30 7385 C 532.497 3.47817 6.12078 0
M  V30 7386 C 533.207 3.39414 4.77697 0
M  V30 7387 N 533.157 2.04615 4.15333 0
M  V30 7388 H 535.996 3.41248 7.98759 0
M  V30 7389 H 536.268 2.5837 6.41742 0
M  V30 7390 H 535.4 5.02657 6.42673 0
M  V30 7391 P 531.437 6.144 6.45285 0
M  V30 7392 O 531.217 7.54673 6.86199 0
M  V30 7393 O 530.647 5.12391 7.179 0
M  V30 7394 O 531.187 5.99158 4.88404 0
M  V30 7395 C 532.127 6.60234 3.96415 0
M  V30 7396 C 531.397 7.08259 2.72856 0
M  V30 7397 O 531.187 5.9427 1.83651 0
M  V30 7398 C 529.997 7.64886 2.9555 0
M  V30 7399 O 529.607 8.53963 1.90717 0
M  V30 7400 C 529.117 6.4116 2.90739 0
M  V30 7401 C 529.827 5.55375 1.86963 0
M  V30 7402 N 529.777 4.09664 2.15742 0
M  V30 7403 H 532.616 7.45574 4.45629 0
M  V30 7404 H 532.888 5.86232 3.67314 0
M  V30 7405 H 532.02 7.84412 2.24479 0
M  V30 7406 P 528.057 8.7635 1.60911 0
M  V30 7407 O 527.837 10.1388 1.11561 0
M  V30 7408 O 527.267 8.36503 2.79617 0
M  V30 7409 O 527.807 7.71806 0.42951 0
M  V30 7410 C 528.747 7.67148 -0.673689 0
M  V30 7411 C 528.017 7.33374 -1.95559 0
M  V30 7412 O 527.807 5.88721 -2.00726 0
M  V30 7413 C 526.617 7.92526 -2.10483 0
M  V30 7414 O 526.227 8.02971 -3.47653 0
M  V30 7415 C 525.737 6.89602 -1.41652 0
M  V30 7416 C 526.447 5.59201 -1.75185 0
M  V30 7417 N 526.397 4.58235 -0.662552 0
M  V30 7418 H 529.236 8.65116 -0.777161 0
M  V30 7419 H 529.508 6.90173 -0.474152 0
M  V30 7420 H 528.64 7.66548 -2.79458 0
M  V30 7421 P 524.677 8.03563 -3.84925 0
M  V30 7422 O 524.457 8.85821 -5.0569 0
M  V30 7423 O 523.887 8.41101 -2.65469 0
M  V30 7424 O 524.427 6.4965 -4.18908 0
M  V30 7425 C 525.367 5.81037 -5.05421 0
M  V30 7426 C 524.637 4.78366 -5.89277 0
M  V30 7427 O 524.427 3.58302 -5.08433 0
M  V30 7428 C 523.237 5.17448 -6.36119 0
M  V30 7429 O 522.847 4.45271 -7.53232 0
M  V30 7430 C 522.357 4.74639 -5.19936 0
M  V30 7431 C 523.067 3.49432 -4.70418 0
M  V30 7432 N 523.017 3.31776 -3.22945 0
M  V30 7433 H 525.856 6.54213 -5.71376 0
M  V30 7434 H 526.128 5.30492 -4.44033 0
M  V30 7435 H 525.26 4.55889 -6.76652 0
M  V30 7436 P 521.297 4.23843 -7.83734 0
M  V30 7437 O 521.077 4.19407 -9.29784 0
M  V30 7438 O 520.507 5.24426 -7.09156 0
M  V30 7439 O 521.047 2.7935 -7.20758 0
M  V30 7440 C 521.987 1.7299 -7.50419 0
M  V30 7441 C 521.257 0.406376 -7.57911 0
M  V30 7442 O 521.047 -0.0897726 -6.21935 0
M  V30 7443 C 519.857 0.447224 -8.1878 0
M  V30 7444 O 519.467 -0.825065 -8.71101 0
M  V30 7445 C 518.977 0.783801 -6.99623 0
M  V30 7446 C 519.687 0.0619192 -5.85967 0
M  V30 7447 N 519.637 0.7859 -4.56281 0
M  V30 7448 H 522.476 1.93423 -8.4679 0
M  V30 7449 H 522.748 1.68181 -6.71046 0
M  V30 7450 H 521.88 -0.289041 -8.15388 0
M  V30 7451 P 517.917 -1.17771 -8.83182 0
M  V30 7452 O 517.697 -2.07206 -9.98732 0
M  V30 7453 O 517.127 0.0743816 -8.81969 0
M  V30 7454 O 517.667 -1.97652 -7.47304 0
M  V30 7455 C 518.607 -3.01133 -7.08783 0
M  V30 7456 C 517.877 -4.12613 -6.37049 0
M  V30 7457 O 517.667 -3.72827 -4.97879 0
M  V30 7458 C 516.477 -4.45085 -6.88694 0
M  V30 7459 O 516.087 -5.7877 -6.5624 0
M  V30 7460 C 515.597 -3.47817 -6.12078 0
M  V30 7461 C 516.307 -3.39414 -4.77697 0
M  V30 7462 N 516.257 -2.04615 -4.15333 0
M  V30 7463 H 519.096 -3.41248 -7.98759 0
M  V30 7464 H 519.368 -2.5837 -6.41742 0
M  V30 7465 H 518.5 -5.02657 -6.42673 0
M  V30 7466 P 514.537 -6.144 -6.45285 0
M  V30 7467 O 514.317 -7.54673 -6.86199 0
M  V30 7468 O 513.747 -5.12391 -7.179 0
M  V30 7469 O 514.287 -5.99158 -4.88404 0
M  V30 7470 C 515.227 -6.60234 -3.96415 0
M  V30 7471 C 514.497 -7.08259 -2.72856 0
M  V30 7472 O 514.287 -5.9427 -1.83651 0
M  V30 7473 C 513.097 -7.64886 -2.9555 0
M  V30 7474 O 512.707 -8.53963 -1.90717 0
M  V30 7475 C 512.217 -6.4116 -2.90739 0
M  V30 7476 C 512.927 -5.55375 -1.86963 0
M  V30 7477 N 512.877 -4.09448 -2.16152 0
M  V30 7478 C 512.957 -3.46824 -3.37593 0
M  V30 7479 N 512.887 -2.17422 -3.29777 0
M  V30 7480 C 512.737 -1.93065 -1.94427 0
M  V30 7481 C 512.607 -0.738053 -1.20141 0
M  V30 7482 N 512.597 0.474256 -1.74676 0
M  V30 7483 N 512.487 -0.850049 0.13045 0
M  V30 7484 C 512.497 -2.06169 0.676992 0
M  V30 7485 N 512.617 -3.23842 0.101312 0
M  V30 7486 C 512.737 -3.09402 -1.23122 0
M  V30 7487 H 515.716 -7.45574 -4.45629 0
M  V30 7488 H 515.988 -5.85864 -3.679 0
M  V30 7489 H 515.12 -7.84412 -2.24479 0
M  V30 7490 H 512.465 -5.73457 -0.888562 0
M  V30 7491 H 512.185 -5.90877 -3.88583 0
M  V30 7492 H 511.194 -6.6596 -2.58858 0
M  V30 7493 H 513.028 -8.16339 -3.92049 0
M  V30 7494 H 513.069 -4.00505 -4.3174 0
M  V30 7495 H 512.688 0.581337 -2.76658 0
M  V30 7496 H 512.499 1.30811 -1.14888 0
M  V30 7497 H 512.391 -2.08295 1.75542 0
M  V30 7498 P 511.157 -8.7635 -1.60911 0
M  V30 7499 O 510.937 -10.1388 -1.11561 0
M  V30 7500 O 510.367 -8.36503 -2.79617 0
M  V30 7501 O 510.907 -7.71806 -0.42951 0
M  V30 7502 C 511.847 -7.67148 0.673689 0
M  V30 7503 C 511.117 -7.33374 1.95559 0
M  V30 7504 O 510.907 -5.88721 2.00726 0
M  V30 7505 C 509.717 -7.92526 2.10483 0
M  V30 7506 O 509.327 -8.02971 3.47653 0
M  V30 7507 C 508.837 -6.89602 1.41652 0
M  V30 7508 C 509.547 -5.59201 1.75185 0
M  V30 7509 N 509.497 -4.58235 0.662552 0
M  V30 7510 H 512.336 -8.65116 0.777161 0
M  V30 7511 H 512.608 -6.90173 0.474152 0
M  V30 7512 H 511.74 -7.66548 2.79458 0
M  V30 7513 P 507.777 -8.03563 3.84925 0
M  V30 7514 O 507.557 -8.85821 5.0569 0
M  V30 7515 O 506.987 -8.41101 2.65469 0
M  V30 7516 O 507.527 -6.49734 4.18962 0
M  V30 7517 C 508.467 -5.81037 5.05421 0
M  V30 7518 C 507.737 -4.79018 5.88876 0
M  V30 7519 O 507.527 -3.58359 5.08515 0
M  V30 7520 C 506.337 -5.17448 6.36119 0
M  V30 7521 O 505.947 -4.45322 7.53318 0
M  V30 7522 C 505.457 -4.74639 5.19936 0
M  V30 7523 C 506.167 -3.49432 4.70418 0
M  V30 7524 N 506.117 -3.31776 3.22945 0
M  V30 7525 C 505.967 -2.02742 2.72939 0
M  V30 7526 O 505.877 -1.08301 3.52749 0
M  V30 7527 N 505.917 -1.96117 1.22063 0
M  V30 7528 C 506.017 -2.8878 0.551566 0
M  V30 7529 N 505.967 -2.65609 -0.750198 0
M  V30 7530 C 506.167 -4.22457 1.03707 0
M  V30 7531 C 506.217 -4.37979 2.39113 0
M  V30 7532 H 508.957 -6.54138 5.7131 0
M  V30 7533 H 509.227 -5.30492 4.44033 0
M  V30 7534 H 508.36 -4.55945 6.76735 0
M  V30 7535 H 505.705 -2.6176 5.18021 0
M  V30 7536 H 505.425 -5.52233 4.41941 0
M  V30 7537 H 504.434 -4.52045 5.53452 0
M  V30 7538 H 506.268 -6.25124 6.55234 0
M  V30 7539 H 506.34 -5.37936 2.80552 0
M  V30 7540 H 506.238 -5.07528 0.359553 0
M  V30 7541 H 505.85 -1.69403 -1.09847 0
M  V30 7542 H 506.046 -3.43701 -1.41792 0
M  V30 7543 P 504.397 -4.23843 7.83734 0
M  V30 7544 O 504.177 -4.19407 9.29784 0
M  V30 7545 O 503.607 -5.24426 7.09156 0
M  V30 7546 O 504.147 -2.7935 7.20758 0
M  V30 7547 C 505.087 -1.7299 7.50419 0
M  V30 7548 C 504.357 -0.406376 7.57911 0
M  V30 7549 O 504.147 0.0897726 6.21935 0
M  V30 7550 C 502.957 -0.447224 8.1878 0
M  V30 7551 O 502.567 0.825065 8.71101 0
M  V30 7552 C 502.077 -0.783801 6.99623 0
M  V30 7553 C 502.787 -0.0619192 5.85967 0
M  V30 7554 N 502.737 -0.790462 4.56202 0
M  V30 7555 C 502.817 -2.13895 4.34171 0
M  V30 7556 N 502.747 -2.46449 3.08687 0
M  V30 7557 C 502.597 -1.2525 2.43697 0
M  V30 7558 C 502.467 -0.914535 1.07318 0
M  V30 7559 N 502.457 -1.80782 0.0887348 0
M  V30 7560 N 502.347 0.386745 0.768133 0
M  V30 7561 C 502.357 1.28096 1.75159 0
M  V30 7562 N 502.477 1.09708 3.04861 0
M  V30 7563 C 502.597 -0.214857 3.32306 0
M  V30 7564 H 505.576 -1.93423 8.4679 0
M  V30 7565 H 505.848 -1.68852 6.70877 0
M  V30 7566 H 504.98 0.289041 8.15388 0
M  V30 7567 H 502.325 0.927006 5.72848 0
M  V30 7568 H 502.045 -1.86973 6.82036 0
M  V30 7569 H 501.054 -0.403953 7.13357 0
M  V30 7570 H 502.888 -1.20599 8.97534 0
M  V30 7571 H 502.929 -2.86846 5.14318 0
M  V30 7572 H 502.548 -2.81082 0.302037 0
M  V30 7573 H 502.359 -1.49688 -0.889064 0
M  V30 7574 H 502.251 2.31317 1.43855 0
M  V30 7575 P 501.017 1.17771 8.83182 0
M  V30 7576 O 500.797 2.07206 9.98732 0
M  V30 7577 O 500.227 -0.0743816 8.81969 0
M  V30 7578 O 500.767 1.97652 7.47304 0
M  V30 7579 C 501.707 3.01133 7.08783 0
M  V30 7580 C 500.977 4.12613 6.37049 0
M  V30 7581 O 500.767 3.72827 4.97879 0
M  V30 7582 C 499.577 4.45085 6.88694 0
M  V30 7583 O 499.187 5.7877 6.5624 0
M  V30 7584 C 498.697 3.47817 6.12078 0
M  V30 7585 C 499.407 3.39414 4.77697 0
M  V30 7586 N 499.357 2.04615 4.15333 0
M  V30 7587 H 502.196 3.41248 7.98759 0
M  V30 7588 H 502.468 2.5837 6.41742 0
M  V30 7589 H 501.6 5.02657 6.42673 0
M  V30 7590 P 497.637 6.144 6.45285 0
M  V30 7591 O 497.417 7.54673 6.86199 0
M  V30 7592 O 496.847 5.12391 7.179 0
M  V30 7593 O 497.387 5.99236 4.88467 0
M  V30 7594 C 498.327 6.60234 3.96415 0
M  V30 7595 C 497.597 7.08079 2.736 0
M  V30 7596 O 497.387 5.94365 1.8368 0
M  V30 7597 C 496.197 7.64886 2.9555 0
M  V30 7598 O 495.807 8.5406 1.90739 0
M  V30 7599 C 495.317 6.4116 2.90739 0
M  V30 7600 C 496.027 5.55375 1.86963 0
M  V30 7601 N 495.977 4.09664 2.15742 0
M  V30 7602 C 495.827 3.22231 1.08477 0
M  V30 7603 O 495.737 3.68951 -0.0600489 0
M  V30 7604 N 495.777 1.76692 1.48799 0
M  V30 7605 C 495.877 1.41695 2.57602 0
M  V30 7606 N 495.827 0.107296 2.75791 0
M  V30 7607 C 496.027 2.29178 3.69733 0
M  V30 7608 C 496.077 3.62753 3.42653 0
M  V30 7609 H 498.817 7.45488 4.45578 0
M  V30 7610 H 499.087 5.86232 3.67314 0
M  V30 7611 H 498.22 7.84508 2.24507 0
M  V30 7612 H 495.565 5.73556 0.888715 0
M  V30 7613 H 495.285 5.9096 3.88638 0
M  V30 7614 H 494.294 6.66053 2.58894 0
M  V30 7615 H 496.128 8.16339 3.92049 0
M  V30 7616 H 496.2 4.33052 4.24913 0
M  V30 7617 H 496.098 1.9103 4.71577 0
M  V30 7618 H 495.71 -0.521221 1.95056 0
M  V30 7619 H 495.906 -0.286429 3.70695 0
M  V30 7620 P 494.257 8.7635 1.60911 0
M  V30 7621 O 494.037 10.1388 1.11561 0
M  V30 7622 O 493.467 8.36503 2.79617 0
M  V30 7623 O 494.007 7.71806 0.42951 0
M  V30 7624 C 494.947 7.67148 -0.673689 0
M  V30 7625 C 494.217 7.33374 -1.95559 0
M  V30 7626 O 494.007 5.88721 -2.00726 0
M  V30 7627 C 492.817 7.92526 -2.10483 0
M  V30 7628 O 492.427 8.02971 -3.47653 0
M  V30 7629 C 491.937 6.89602 -1.41652 0
M  V30 7630 C 492.647 5.59201 -1.75185 0
M  V30 7631 N 492.597 4.58301 -0.657969 0
M  V30 7632 H 495.436 8.65116 -0.777161 0
M  V30 7633 H 495.708 6.9022 -0.46725 0
M  V30 7634 H 494.84 7.66548 -2.79458 0
M  V30 7635 H 492.185 5.16165 -2.65183 0
M  V30 7636 H 491.905 7.06433 -0.329384 0
M  V30 7637 H 490.914 6.90926 -1.82021 0
M  V30 7638 H 492.748 8.90873 -1.62657 0
M  V30 7639 P 490.877 8.03563 -3.84925 0
M  V30 7640 O 490.657 8.85821 -5.0569 0
M  V30 7641 O 490.087 8.41101 -2.65469 0
M  V30 7642 O 490.627 6.4965 -4.18908 0
M  V30 7643 C 491.567 5.81037 -5.05421 0
M  V30 7644 C 490.837 4.78366 -5.89277 0
M  V30 7645 O 490.627 3.58302 -5.08433 0
M  V30 7646 C 489.437 5.17448 -6.36119 0
M  V30 7647 O 489.047 4.45271 -7.53232 0
M  V30 7648 C 488.557 4.74639 -5.19936 0
M  V30 7649 C 489.267 3.49432 -4.70418 0
M  V30 7650 N 489.217 3.31776 -3.22945 0
M  V30 7651 H 492.056 6.54213 -5.71376 0
M  V30 7652 H 492.328 5.30492 -4.44033 0
M  V30 7653 H 491.46 4.55889 -6.76652 0
M  V30 7654 P 487.497 4.23843 -7.83734 0
M  V30 7655 O 487.277 4.19407 -9.29784 0
M  V30 7656 O 486.707 5.24426 -7.09156 0
M  V30 7657 O 487.247 2.7935 -7.20758 0
M  V30 7658 C 488.187 1.7299 -7.50419 0
M  V30 7659 C 487.457 0.406376 -7.57911 0
M  V30 7660 O 487.247 -0.0897726 -6.21935 0
M  V30 7661 C 486.057 0.447224 -8.1878 0
M  V30 7662 O 485.667 -0.825065 -8.71101 0
M  V30 7663 C 485.177 0.783801 -6.99623 0
M  V30 7664 C 485.887 0.0619192 -5.85967 0
M  V30 7665 N 485.837 0.7859 -4.56281 0
M  V30 7666 H 488.676 1.93423 -8.4679 0
M  V30 7667 H 488.948 1.68181 -6.71046 0
M  V30 7668 H 488.08 -0.289041 -8.15388 0
M  V30 7669 P 484.117 -1.17771 -8.83182 0
M  V30 7670 O 483.897 -2.07206 -9.98732 0
M  V30 7671 O 483.327 0.0743816 -8.81969 0
M  V30 7672 O 483.867 -1.97652 -7.47304 0
M  V30 7673 C 484.807 -3.01133 -7.08783 0
M  V30 7674 C 484.077 -4.12613 -6.37049 0
M  V30 7675 O 483.867 -3.72827 -4.97879 0
M  V30 7676 C 482.677 -4.45085 -6.88694 0
M  V30 7677 O 482.287 -5.7877 -6.5624 0
M  V30 7678 C 481.797 -3.47817 -6.12078 0
M  V30 7679 C 482.507 -3.39414 -4.77697 0
M  V30 7680 N 482.457 -2.04199 -4.15538 0
M  V30 7681 H 485.296 -3.41248 -7.98759 0
M  V30 7682 H 485.568 -2.57728 -6.42 0
M  V30 7683 H 484.7 -5.02657 -6.42673 0
M  V30 7684 H 482.045 -4.11708 -4.08956 0
M  V30 7685 H 481.765 -2.49626 -6.61679 0
M  V30 7686 H 480.774 -3.8662 -6.00862 0
M  V30 7687 H 482.608 -4.29991 -7.97006 0
M  V30 7688 P 480.737 -6.144 -6.45285 0
M  V30 7689 O 480.517 -7.54673 -6.86199 0
M  V30 7690 O 479.947 -5.12391 -7.179 0
M  V30 7691 O 480.487 -5.99158 -4.88404 0
M  V30 7692 C 481.427 -6.60062 -3.96313 0
M  V30 7693 C 480.697 -7.08259 -2.72856 0
M  V30 7694 O 480.487 -5.9427 -1.83651 0
M  V30 7695 C 479.297 -7.65087 -2.94749 0
M  V30 7696 O 478.907 -8.53963 -1.90717 0
M  V30 7697 C 478.417 -6.41069 -2.90698 0
M  V30 7698 C 479.127 -5.5528 -1.86931 0
M  V30 7699 N 479.077 -4.09575 -2.15696 0
M  V30 7700 C 478.927 -3.24249 -1.08435 0
M  V30 7701 O 478.837 -3.63946 0.0628747 0
M  V30 7702 N 478.887 -1.90009 -1.39973 0
M  V30 7703 C 478.977 -1.34884 -2.65614 0
M  V30 7704 C 479.127 -2.3145 -3.71736 0
M  V30 7705 C 479.177 -3.63518 -3.44754 0
M  V30 7706 H 481.918 -7.45402 -4.45526 0
M  V30 7707 H 482.187 -5.86062 -3.67208 0
M  V30 7708 H 481.32 -7.84412 -2.24479 0
M  V30 7709 H 478.665 -5.73358 -0.888409 0
M  V30 7710 H 478.386 -5.90877 -3.88583 0
M  V30 7711 H 477.394 -6.65867 -2.58821 0
M  V30 7712 H 479.228 -8.16248 -3.92006 0
M  V30 7713 H 479.299 -4.34551 -4.26383 0
M  V30 7714 P 477.357 -8.7635 -1.60911 0
M  V30 7715 O 477.137 -10.1388 -1.11561 0
M  V30 7716 O 476.567 -8.36503 -2.79617 0
M  V30 7717 O 477.107 -7.71806 -0.42951 0
M  V30 7718 C 478.047 -7.67148 0.673689 0
M  V30 7719 C 477.317 -7.33374 1.95559 0
M  V30 7720 O 477.107 -5.88721 2.00726 0
M  V30 7721 C 475.917 -7.92526 2.10483 0
M  V30 7722 O 475.527 -8.02971 3.47653 0
M  V30 7723 C 475.037 -6.89602 1.41652 0
M  V30 7724 C 475.747 -5.59201 1.75185 0
M  V30 7725 N 475.697 -4.58235 0.662552 0
M  V30 7726 H 478.536 -8.65116 0.777161 0
M  V30 7727 H 478.808 -6.90173 0.474152 0
M  V30 7728 H 477.94 -7.66548 2.79458 0
M  V30 7729 P 473.977 -8.03563 3.84925 0
M  V30 7730 O 473.757 -8.85821 5.0569 0
M  V30 7731 O 473.187 -8.41101 2.65469 0
M  V30 7732 O 473.727 -6.4965 4.18908 0
M  V30 7733 C 474.667 -5.80886 5.05289 0
M  V30 7734 C 473.937 -4.78366 5.89277 0
M  V30 7735 O 473.727 -3.58302 5.08433 0
M  V30 7736 C 472.537 -5.16748 6.36559 0
M  V30 7737 O 472.147 -4.45271 7.53232 0
M  V30 7738 C 471.657 -4.74572 5.19863 0
M  V30 7739 C 472.367 -3.49373 4.70338 0
M  V30 7740 N 472.317 -3.31704 3.22876 0
M  V30 7741 C 472.167 -2.03326 2.74871 0
M  V30 7742 O 472.077 -1.06486 3.48076 0
M  V30 7743 N 472.127 -1.91838 1.37456 0
M  V30 7744 C 472.217 -2.94295 0.462035 0
M  V30 7745 C 472.367 -4.25064 1.05249 0
M  V30 7746 C 472.417 -4.40214 2.39192 0
M  V30 7747 H 475.158 -6.54063 5.71245 0
M  V30 7748 H 475.427 -5.30339 4.43905 0
M  V30 7749 H 474.56 -4.55889 6.76652 0
M  V30 7750 H 471.905 -2.6167 5.17842 0
M  V30 7751 H 471.626 -5.52155 4.41878 0
M  V30 7752 H 470.634 -4.51918 5.53297 0
M  V30 7753 H 472.468 -6.25055 6.55162 0
M  V30 7754 H 472.539 -5.39798 2.81523 0
M  V30 7755 P 470.597 -4.23843 7.83734 0
M  V30 7756 O 470.377 -4.19407 9.29784 0
M  V30 7757 O 469.807 -5.24426 7.09156 0
M  V30 7758 O 470.347 -2.7935 7.20758 0
M  V30 7759 C 471.287 -1.7299 7.50419 0
M  V30 7760 C 470.557 -0.406376 7.57911 0
M  V30 7761 O 470.347 0.0897726 6.21935 0
M  V30 7762 C 469.157 -0.447224 8.1878 0
M  V30 7763 O 468.767 0.825065 8.71101 0
M  V30 7764 C 468.277 -0.783801 6.99623 0
M  V30 7765 C 468.987 -0.0619192 5.85967 0
M  V30 7766 N 468.937 -0.7859 4.56281 0
M  V30 7767 H 471.776 -1.93423 8.4679 0
M  V30 7768 H 472.048 -1.68181 6.71046 0
M  V30 7769 H 471.18 0.289041 8.15388 0
M  V30 7770 P 467.217 1.17771 8.83182 0
M  V30 7771 O 466.997 2.07206 9.98732 0
M  V30 7772 O 466.427 -0.0743816 8.81969 0
M  V30 7773 O 466.967 1.97652 7.47304 0
M  V30 7774 C 467.907 3.01133 7.08783 0
M  V30 7775 C 467.177 4.12613 6.37049 0
M  V30 7776 O 466.967 3.72827 4.97879 0
M  V30 7777 C 465.777 4.45085 6.88694 0
M  V30 7778 O 465.387 5.7877 6.5624 0
M  V30 7779 C 464.897 3.47817 6.12078 0
M  V30 7780 C 465.607 3.39414 4.77697 0
M  V30 7781 N 465.557 2.04615 4.15333 0
M  V30 7782 H 468.396 3.41248 7.98759 0
M  V30 7783 H 468.668 2.5837 6.41742 0
M  V30 7784 H 467.8 5.02657 6.42673 0
M  V30 7785 P 463.837 6.144 6.45285 0
M  V30 7786 O 463.617 7.54673 6.86199 0
M  V30 7787 O 463.047 5.12391 7.179 0
M  V30 7788 O 463.587 5.99158 4.88404 0
M  V30 7789 C 464.527 6.60234 3.96415 0
M  V30 7790 C 463.797 7.08259 2.72856 0
M  V30 7791 O 463.587 5.9427 1.83651 0
M  V30 7792 C 462.397 7.64886 2.9555 0
M  V30 7793 O 462.007 8.53963 1.90717 0
M  V30 7794 C 461.517 6.4116 2.90739 0
M  V30 7795 C 462.227 5.55375 1.86963 0
M  V30 7796 N 462.177 4.09664 2.15742 0
M  V30 7797 H 465.016 7.45574 4.45629 0
M  V30 7798 H 465.288 5.86232 3.67314 0
M  V30 7799 H 464.42 7.84412 2.24479 0
M  V30 7800 P 460.457 8.7635 1.60911 0
M  V30 7801 O 460.237 10.1388 1.11561 0
M  V30 7802 O 459.667 8.36503 2.79617 0
M  V30 7803 O 460.207 7.71806 0.42951 0
M  V30 7804 C 461.147 7.67148 -0.673689 0
M  V30 7805 C 460.417 7.33374 -1.95559 0
M  V30 7806 O 460.207 5.88721 -2.00726 0
M  V30 7807 C 459.017 7.92526 -2.10483 0
M  V30 7808 O 458.627 8.02971 -3.47653 0
M  V30 7809 C 458.137 6.89602 -1.41652 0
M  V30 7810 C 458.847 5.59201 -1.75185 0
M  V30 7811 N 458.797 4.58235 -0.662552 0
M  V30 7812 H 461.636 8.65116 -0.777161 0
M  V30 7813 H 461.908 6.90173 -0.474152 0
M  V30 7814 H 461.04 7.66548 -2.79458 0
M  V30 7815 P 457.077 8.03563 -3.84925 0
M  V30 7816 O 456.857 8.85821 -5.0569 0
M  V30 7817 O 456.287 8.41101 -2.65469 0
M  V30 7818 O 456.827 6.4965 -4.18908 0
M  V30 7819 C 457.767 5.81037 -5.05421 0
M  V30 7820 C 457.037 4.78366 -5.89277 0
M  V30 7821 O 456.827 3.58302 -5.08433 0
M  V30 7822 C 455.637 5.17448 -6.36119 0
M  V30 7823 O 455.247 4.45271 -7.53232 0
M  V30 7824 C 454.757 4.74639 -5.19936 0
M  V30 7825 C 455.467 3.49432 -4.70418 0
M  V30 7826 N 455.417 3.31776 -3.22945 0
M  V30 7827 H 458.256 6.54213 -5.71376 0
M  V30 7828 H 458.528 5.30492 -4.44033 0
M  V30 7829 H 457.66 4.55889 -6.76652 0
M  V30 7830 P 453.697 4.23843 -7.83734 0
M  V30 7831 O 453.477 4.19407 -9.29784 0
M  V30 7832 O 452.907 5.24426 -7.09156 0
M  V30 7833 O 453.447 2.7935 -7.20758 0
M  V30 7834 C 454.387 1.7299 -7.50419 0
M  V30 7835 C 453.657 0.406376 -7.57911 0
M  V30 7836 O 453.447 -0.0897726 -6.21935 0
M  V30 7837 C 452.257 0.447224 -8.1878 0
M  V30 7838 O 451.867 -0.825065 -8.71101 0
M  V30 7839 C 451.377 0.783801 -6.99623 0
M  V30 7840 C 452.087 0.0619192 -5.85967 0
M  V30 7841 N 452.037 0.7859 -4.56281 0
M  V30 7842 H 454.876 1.93423 -8.4679 0
M  V30 7843 H 455.148 1.68181 -6.71046 0
M  V30 7844 H 454.28 -0.289041 -8.15388 0
M  V30 7845 P 450.317 -1.17771 -8.83182 0
M  V30 7846 O 450.097 -2.07206 -9.98732 0
M  V30 7847 O 449.527 0.0743816 -8.81969 0
M  V30 7848 O 450.067 -1.97652 -7.47304 0
M  V30 7849 C 451.007 -3.01133 -7.08783 0
M  V30 7850 C 450.277 -4.12613 -6.37049 0
M  V30 7851 O 450.067 -3.72827 -4.97879 0
M  V30 7852 C 448.877 -4.45085 -6.88694 0
M  V30 7853 O 448.487 -5.7877 -6.5624 0
M  V30 7854 C 447.997 -3.47817 -6.12078 0
M  V30 7855 C 448.707 -3.39414 -4.77697 0
M  V30 7856 N 448.657 -2.04615 -4.15333 0
M  V30 7857 H 451.496 -3.41248 -7.98759 0
M  V30 7858 H 451.768 -2.5837 -6.41742 0
M  V30 7859 H 450.9 -5.02657 -6.42673 0
M  V30 7860 P 446.937 -6.144 -6.45285 0
M  V30 7861 O 446.717 -7.54673 -6.86199 0
M  V30 7862 O 446.147 -5.12391 -7.179 0
M  V30 7863 O 446.687 -5.99158 -4.88404 0
M  V30 7864 C 447.627 -6.60234 -3.96415 0
M  V30 7865 C 446.897 -7.08259 -2.72856 0
M  V30 7866 O 446.687 -5.9427 -1.83651 0
M  V30 7867 C 445.497 -7.64886 -2.9555 0
M  V30 7868 O 445.107 -8.53963 -1.90717 0
M  V30 7869 C 444.617 -6.4116 -2.90739 0
M  V30 7870 C 445.327 -5.55375 -1.86963 0
M  V30 7871 N 445.277 -4.09448 -2.16152 0
M  V30 7872 H 448.116 -7.45574 -4.45629 0
M  V30 7873 H 448.388 -5.85864 -3.679 0
M  V30 7874 H 447.52 -7.84412 -2.24479 0
M  V30 7875 H 444.865 -5.73457 -0.888562 0
M  V30 7876 H 444.585 -5.90877 -3.88583 0
M  V30 7877 H 443.594 -6.6596 -2.58858 0
M  V30 7878 H 445.428 -8.16339 -3.92049 0
M  V30 7879 P 443.557 -8.7635 -1.60911 0
M  V30 7880 O 443.337 -10.1388 -1.11561 0
M  V30 7881 O 442.767 -8.36503 -2.79617 0
M  V30 7882 O 443.307 -7.71806 -0.42951 0
M  V30 7883 C 444.247 -7.67148 0.673689 0
M  V30 7884 C 443.517 -7.33374 1.95559 0
M  V30 7885 O 443.307 -5.88721 2.00726 0
M  V30 7886 C 442.117 -7.92526 2.10483 0
M  V30 7887 O 441.727 -8.02971 3.47653 0
M  V30 7888 C 441.237 -6.89602 1.41652 0
M  V30 7889 C 441.947 -5.59201 1.75185 0
M  V30 7890 N 441.897 -4.58235 0.662552 0
M  V30 7891 H 444.736 -8.65116 0.777161 0
M  V30 7892 H 445.008 -6.90173 0.474152 0
M  V30 7893 H 444.14 -7.66548 2.79458 0
M  V30 7894 P 440.177 -8.03563 3.84925 0
M  V30 7895 O 439.957 -8.85821 5.0569 0
M  V30 7896 O 439.387 -8.41101 2.65469 0
M  V30 7897 O 439.927 -6.4965 4.18908 0
M  V30 7898 C 440.867 -5.81037 5.05421 0
M  V30 7899 C 440.137 -4.78366 5.89277 0
M  V30 7900 O 439.927 -3.58302 5.08433 0
M  V30 7901 C 438.737 -5.17448 6.36119 0
M  V30 7902 O 438.347 -4.45271 7.53232 0
M  V30 7903 C 437.857 -4.74639 5.19936 0
M  V30 7904 C 438.567 -3.49432 4.70418 0
M  V30 7905 N 438.517 -3.32099 3.22613 0
M  V30 7906 H 441.356 -6.54213 5.71376 0
M  V30 7907 H 441.628 -5.30936 4.43503 0
M  V30 7908 H 440.76 -4.55889 6.76652 0
M  V30 7909 H 438.105 -2.61715 5.17932 0
M  V30 7910 H 437.825 -5.52155 4.41878 0
M  V30 7911 H 436.834 -4.51981 5.53374 0
M  V30 7912 H 438.668 -6.25124 6.55234 0
M  V30 7913 P 436.797 -4.23843 7.83734 0
M  V30 7914 O 436.577 -4.19407 9.29784 0
M  V30 7915 O 436.007 -5.24426 7.09156 0
M  V30 7916 O 436.547 -2.7935 7.20758 0
M  V30 7917 C 437.487 -1.7299 7.50419 0
M  V30 7918 C 436.757 -0.406376 7.57911 0
M  V30 7919 O 436.547 0.0897726 6.21935 0
M  V30 7920 C 435.357 -0.447224 8.1878 0
M  V30 7921 O 434.967 0.825065 8.71101 0
M  V30 7922 C 434.477 -0.783801 6.99623 0
M  V30 7923 C 435.187 -0.0619192 5.85967 0
M  V30 7924 N 435.137 -0.7859 4.56281 0
M  V30 7925 H 437.976 -1.93423 8.4679 0
M  V30 7926 H 438.248 -1.68181 6.71046 0
M  V30 7927 H 437.38 0.289041 8.15388 0
M  V30 7928 P 433.417 1.17771 8.83182 0
M  V30 7929 O 433.197 2.07206 9.98732 0
M  V30 7930 O 432.627 -0.0743816 8.81969 0
M  V30 7931 O 433.167 1.97652 7.47304 0
M  V30 7932 C 434.107 3.01133 7.08783 0
M  V30 7933 C 433.377 4.12613 6.37049 0
M  V30 7934 O 433.167 3.72827 4.97879 0
M  V30 7935 C 431.977 4.45085 6.88694 0
M  V30 7936 O 431.587 5.7877 6.5624 0
M  V30 7937 C 431.097 3.47817 6.12078 0
M  V30 7938 C 431.807 3.39414 4.77697 0
M  V30 7939 N 431.757 2.04199 4.15538 0
M  V30 7940 C 431.837 0.821545 4.76977 0
M  V30 7941 N 431.767 -0.1794 3.94592 0
M  V30 7942 C 431.617 0.419121 2.70776 0
M  V30 7943 C 431.487 -0.109072 1.40577 0
M  V30 7944 N 431.477 -1.4104 1.1344 0
M  V30 7945 N 431.367 0.764381 0.39411 0
M  V30 7946 C 431.377 2.06587 0.664135 0
M  V30 7947 N 431.497 2.67948 1.82153 0
M  V30 7948 C 431.617 1.77942 2.8147 0
M  V30 7949 H 434.596 3.41248 7.98759 0
M  V30 7950 H 434.868 2.57728 6.42 0
M  V30 7951 H 434 5.02657 6.42673 0
M  V30 7952 H 431.345 4.11708 4.08956 0
M  V30 7953 H 431.065 2.49626 6.61679 0
M  V30 7954 H 430.074 3.8662 6.00862 0
M  V30 7955 H 431.908 4.29991 7.97006 0
M  V30 7956 H 431.949 0.702451 5.84696 0
M  V30 7957 H 431.568 -2.09647 1.89651 0
M  V30 7958 H 431.379 -1.73358 0.160575 0
M  V30 7959 H 431.271 2.71695 -0.195838 0
M  V30 7960 P 430.037 6.144 6.45285 0
M  V30 7961 O 429.817 7.54673 6.86199 0
M  V30 7962 O 429.247 5.12391 7.179 0
M  V30 7963 O 429.787 5.99158 4.88404 0
M  V30 7964 C 430.727 6.60234 3.96415 0
M  V30 7965 C 429.997 7.08259 2.72856 0
M  V30 7966 O 429.787 5.9427 1.83651 0
M  V30 7967 C 428.597 7.64886 2.9555 0
M  V30 7968 O 428.207 8.53963 1.90717 0
M  V30 7969 C 427.717 6.4116 2.90739 0
M  V30 7970 C 428.427 5.55375 1.86963 0
M  V30 7971 N 428.377 4.09664 2.15742 0
M  V30 7972 H 431.216 7.45574 4.45629 0
M  V30 7973 H 431.488 5.86232 3.67314 0
M  V30 7974 H 430.62 7.84412 2.24479 0
M  V30 7975 P 426.657 8.7635 1.60911 0
M  V30 7976 O 426.437 10.1388 1.11561 0
M  V30 7977 O 425.867 8.36503 2.79617 0
M  V30 7978 O 426.407 7.71906 0.429565 0
M  V30 7979 C 427.347 7.67148 -0.673689 0
M  V30 7980 C 426.617 7.33666 -1.94851 0
M  V30 7981 O 426.407 5.88816 -2.00759 0
M  V30 7982 C 425.217 7.92526 -2.10483 0
M  V30 7983 O 424.827 8.03063 -3.47693 0
M  V30 7984 C 424.337 6.89602 -1.41652 0
M  V30 7985 C 425.047 5.59201 -1.75185 0
M  V30 7986 N 424.997 4.58235 -0.662552 0
M  V30 7987 C 424.847 3.24451 -1.01643 0
M  V30 7988 O 424.757 2.94958 -2.21722 0
M  V30 7989 N 424.797 2.30408 0.165238 0
M  V30 7990 C 424.897 2.66048 1.25118 0
M  V30 7991 N 424.847 1.70787 2.16813 0
M  V30 7992 C 425.047 4.02732 1.64413 0
M  V30 7993 C 425.097 4.9488 0.63991 0
M  V30 7994 H 427.837 8.65017 -0.777072 0
M  V30 7995 H 428.107 6.90173 -0.474152 0
M  V30 7996 H 427.24 7.66642 -2.79492 0
M  V30 7997 H 424.585 5.16254 -2.65229 0
M  V30 7998 H 424.305 7.06532 -0.329431 0
M  V30 7999 H 423.314 6.91023 -1.82047 0
M  V30 8000 H 425.148 8.90873 -1.62657 0
M  V30 8001 H 425.22 6.00104 0.892197 0
M  V30 8002 H 425.118 4.31733 2.69229 0
M  V30 8003 H 424.73 0.724835 1.8844 0
M  V30 8004 H 424.926 1.94716 3.16734 0
M  V30 8005 P 423.278 8.03563 -3.84925 0
M  V30 8006 O 423.058 8.85821 -5.0569 0
M  V30 8007 O 422.488 8.41101 -2.65469 0
M  V30 8008 O 423.028 6.4965 -4.18908 0
M  V30 8009 C 423.968 5.81037 -5.05421 0
M  V30 8010 C 423.238 4.78366 -5.89277 0
M  V30 8011 O 423.028 3.58302 -5.08433 0
M  V30 8012 C 421.838 5.17448 -6.36119 0
M  V30 8013 O 421.448 4.45271 -7.53232 0
M  V30 8014 C 420.958 4.74639 -5.19936 0
M  V30 8015 C 421.668 3.49432 -4.70418 0
M  V30 8016 N 421.618 3.32099 -3.22613 0
M  V30 8017 H 424.457 6.54213 -5.71376 0
M  V30 8018 H 424.729 5.30936 -4.43503 0
M  V30 8019 H 423.861 4.55889 -6.76652 0
M  V30 8020 H 421.206 2.61715 -5.17932 0
M  V30 8021 H 420.926 5.52155 -4.41878 0
M  V30 8022 H 419.935 4.51981 -5.53374 0
M  V30 8023 H 421.769 6.25124 -6.55234 0
M  V30 8024 P 419.898 4.23843 -7.83734 0
M  V30 8025 O 419.678 4.19407 -9.29784 0
M  V30 8026 O 419.108 5.24426 -7.09156 0
M  V30 8027 O 419.648 2.7935 -7.20758 0
M  V30 8028 C 420.588 1.7299 -7.50419 0
M  V30 8029 C 419.858 0.406376 -7.57911 0
M  V30 8030 O 419.648 -0.0897726 -6.21935 0
M  V30 8031 C 418.458 0.447224 -8.1878 0
M  V30 8032 O 418.068 -0.825065 -8.71101 0
M  V30 8033 C 417.578 0.783801 -6.99623 0
M  V30 8034 C 418.288 0.0619192 -5.85967 0
M  V30 8035 N 418.238 0.7859 -4.56281 0
M  V30 8036 H 421.077 1.93423 -8.4679 0
M  V30 8037 H 421.349 1.68181 -6.71046 0
M  V30 8038 H 420.481 -0.289041 -8.15388 0
M  V30 8039 P 416.518 -1.17771 -8.83182 0
M  V30 8040 O 416.298 -2.07206 -9.98732 0
M  V30 8041 O 415.728 0.0743816 -8.81969 0
M  V30 8042 O 416.268 -1.97652 -7.47304 0
M  V30 8043 C 417.208 -3.01133 -7.08783 0
M  V30 8044 C 416.478 -4.12613 -6.37049 0
M  V30 8045 O 416.268 -3.72827 -4.97879 0
M  V30 8046 C 415.078 -4.45085 -6.88694 0
M  V30 8047 O 414.688 -5.7877 -6.5624 0
M  V30 8048 C 414.198 -3.47817 -6.12078 0
M  V30 8049 C 414.908 -3.39414 -4.77697 0
M  V30 8050 N 414.858 -2.04199 -4.15538 0
M  V30 8051 C 414.938 -0.821545 -4.76977 0
M  V30 8052 N 414.868 0.1794 -3.94592 0
M  V30 8053 C 414.718 -0.419121 -2.70776 0
M  V30 8054 C 414.588 0.109072 -1.40577 0
M  V30 8055 N 414.578 1.4104 -1.1344 0
M  V30 8056 N 414.468 -0.764381 -0.39411 0
M  V30 8057 C 414.478 -2.06587 -0.664135 0
M  V30 8058 N 414.598 -2.67948 -1.82153 0
M  V30 8059 C 414.718 -1.77942 -2.8147 0
M  V30 8060 H 417.697 -3.41248 -7.98759 0
M  V30 8061 H 417.969 -2.57728 -6.42 0
M  V30 8062 H 417.101 -5.02657 -6.42673 0
M  V30 8063 H 414.446 -4.11708 -4.08956 0
M  V30 8064 H 414.166 -2.49626 -6.61679 0
M  V30 8065 H 413.175 -3.8662 -6.00862 0
M  V30 8066 H 415.009 -4.29991 -7.97006 0
M  V30 8067 H 415.05 -0.702451 -5.84696 0
M  V30 8068 H 414.669 2.09647 -1.89651 0
M  V30 8069 H 414.48 1.73358 -0.160575 0
M  V30 8070 H 414.372 -2.71695 0.195838 0
M  V30 8071 P 413.138 -6.144 -6.45285 0
M  V30 8072 O 412.918 -7.54673 -6.86199 0
M  V30 8073 O 412.348 -5.12391 -7.179 0
M  V30 8074 O 412.888 -5.99158 -4.88404 0
M  V30 8075 C 413.828 -6.60234 -3.96415 0
M  V30 8076 C 413.098 -7.08259 -2.72856 0
M  V30 8077 O 412.888 -5.9427 -1.83651 0
M  V30 8078 C 411.698 -7.64886 -2.9555 0
M  V30 8079 O 411.308 -8.53963 -1.90717 0
M  V30 8080 C 410.818 -6.4116 -2.90739 0
M  V30 8081 C 411.528 -5.55375 -1.86963 0
M  V30 8082 N 411.478 -4.09664 -2.15742 0
M  V30 8083 C 411.558 -3.44381 -3.37233 0
M  V30 8084 N 411.478 -2.14131 -3.28347 0
M  V30 8085 C 411.338 -1.90247 -1.91588 0
M  V30 8086 C 411.208 -0.683992 -1.20892 0
M  V30 8087 N 411.088 -0.903396 0.173998 0
M  V30 8088 C 411.088 -2.14171 0.784879 0
M  V30 8089 N 410.958 -2.1435 2.11317 0
M  V30 8090 N 411.218 -3.28784 0.119316 0
M  V30 8091 C 411.338 -3.0977 -1.22194 0
M  V30 8092 H 414.317 -7.45574 -4.45629 0
M  V30 8093 H 414.589 -5.86232 -3.67314 0
M  V30 8094 H 413.721 -7.84412 -2.24479 0
M  V30 8095 P 409.758 -8.7635 -1.60911 0
M  V30 8096 O 409.538 -10.1388 -1.11561 0
M  V30 8097 O 408.968 -8.36503 -2.79617 0
M  V30 8098 O 409.508 -7.71806 -0.42951 0
M  V30 8099 C 410.448 -7.67148 0.673689 0
M  V30 8100 C 409.718 -7.33374 1.95559 0
M  V30 8101 O 409.508 -5.88721 2.00726 0
M  V30 8102 C 408.318 -7.92526 2.10483 0
M  V30 8103 O 407.928 -8.02971 3.47653 0
M  V30 8104 C 407.438 -6.89602 1.41652 0
M  V30 8105 C 408.148 -5.59201 1.75185 0
M  V30 8106 N 408.098 -4.58301 0.657969 0
M  V30 8107 C 408.178 -4.79019 -0.692603 0
M  V30 8108 N 408.108 -3.69736 -1.38998 0
M  V30 8109 C 407.958 -2.70474 -0.438135 0
M  V30 8110 C 407.828 -1.30327 -0.538142 0
M  V30 8111 N 407.818 -0.64304 -1.69192 0
M  V30 8112 N 407.708 -0.611027 0.605183 0
M  V30 8113 C 407.718 -1.27002 1.75953 0
M  V30 8114 N 407.838 -2.56038 1.98546 0
M  V30 8115 C 407.958 -3.22681 0.822541 0
M  V30 8116 H 410.937 -8.65116 0.777161 0
M  V30 8117 H 411.209 -6.9022 0.46725 0
M  V30 8118 H 410.341 -7.66548 2.79458 0
M  V30 8119 H 407.686 -5.16165 2.65183 0
M  V30 8120 H 407.406 -7.06433 0.329384 0
M  V30 8121 H 406.415 -6.90926 1.82021 0
M  V30 8122 H 408.249 -8.90873 1.62657 0
M  V30 8123 H 408.29 -5.77785 -1.13874 0
M  V30 8124 H 407.909 -1.15585 -2.57991 0
M  V30 8125 H 407.72 0.382989 -1.69835 0
M  V30 8126 H 407.612 -0.653331 2.64449 0
M  V30 8127 P 406.378 -8.03563 3.84925 0
M  V30 8128 O 406.158 -8.85821 5.0569 0
M  V30 8129 O 405.588 -8.41101 2.65469 0
M  V30 8130 O 406.128 -6.4965 4.18908 0
M  V30 8131 C 407.068 -5.81037 5.05421 0
M  V30 8132 C 406.338 -4.78366 5.89277 0
M  V30 8133 O 406.128 -3.58302 5.08433 0
M  V30 8134 C 404.938 -5.17448 6.36119 0
M  V30 8135 O 404.548 -4.45271 7.53232 0
M  V30 8136 C 404.058 -4.74639 5.19936 0
M  V30 8137 C 404.768 -3.49432 4.70418 0
M  V30 8138 N 404.718 -3.31776 3.22945 0
M  V30 8139 H 407.557 -6.54213 5.71376 0
M  V30 8140 H 407.829 -5.30492 4.44033 0
M  V30 8141 H 406.961 -4.55889 6.76652 0
M  V30 8142 P 402.998 -4.23843 7.83734 0
M  V30 8143 O 402.778 -4.19407 9.29784 0
M  V30 8144 O 402.208 -5.24426 7.09156 0
M  V30 8145 O 402.748 -2.79386 7.20852 0
M  V30 8146 C 403.688 -1.7299 7.50419 0
M  V30 8147 C 402.958 -0.41401 7.5797 0
M  V30 8148 O 402.748 0.089787 6.22035 0
M  V30 8149 C 401.558 -0.447224 8.1878 0
M  V30 8150 O 401.168 0.825159 8.71201 0
M  V30 8151 C 400.678 -0.783801 6.99623 0
M  V30 8152 C 401.388 -0.0619192 5.85967 0
M  V30 8153 N 401.338 -0.7859 4.56281 0
M  V30 8154 C 401.188 -0.0359258 3.39981 0
M  V30 8155 O 401.098 1.19723 3.49038 0
M  V30 8156 N 401.138 -0.869151 2.14025 0
M  V30 8157 C 401.238 -2.01207 2.14363 0
M  V30 8158 N 401.188 -2.58978 0.954287 0
M  V30 8159 C 401.388 -2.80817 3.32215 0
M  V30 8160 C 401.438 -2.13785 4.50884 0
M  V30 8161 H 404.178 -1.93401 8.46693 0
M  V30 8162 H 404.448 -1.68181 6.71046 0
M  V30 8163 H 403.581 0.289076 8.15488 0
M  V30 8164 H 400.926 0.927166 5.72947 0
M  V30 8165 H 400.646 -1.87 6.82132 0
M  V30 8166 H 399.655 -0.404009 7.13457 0
M  V30 8167 H 401.489 -1.20599 8.97534 0
M  V30 8168 H 401.561 -2.70295 5.43162 0
M  V30 8169 H 401.459 -3.89465 3.27406 0
M  V30 8170 H 401.071 -2.01616 0.107046 0
M  V30 8171 H 401.267 -3.61403 0.873101 0
M  V30 8172 P 399.618 1.17771 8.83182 0
M  V30 8173 O 399.398 2.07206 9.98732 0
M  V30 8174 O 398.828 -0.0743816 8.81969 0
M  V30 8175 O 399.368 1.97652 7.47304 0
M  V30 8176 C 400.308 3.01055 7.08599 0
M  V30 8177 C 399.578 4.12613 6.37049 0
M  V30 8178 O 399.368 3.72827 4.97879 0
M  V30 8179 C 398.178 4.45719 6.88164 0
M  V30 8180 O 397.788 5.7877 6.5624 0
M  V30 8181 C 397.298 3.47768 6.11991 0
M  V30 8182 C 398.008 3.39356 4.77615 0
M  V30 8183 N 397.958 2.04571 4.15244 0
M  V30 8184 C 397.808 1.98587 2.78314 0
M  V30 8185 O 397.718 2.98134 2.08835 0
M  V30 8186 N 397.768 0.714467 2.24925 0
M  V30 8187 C 397.858 -0.470001 2.94169 0
M  V30 8188 O 397.808 -1.55587 2.35195 0
M  V30 8189 C 398.008 -0.312541 4.36783 0
M  V30 8190 C 398.118 -1.57711 5.16352 0
M  V30 8191 C 398.058 0.914512 4.92583 0
M  V30 8192 H 400.799 3.41169 7.98575 0
M  V30 8193 H 401.068 2.58295 6.41556 0
M  V30 8194 H 400.201 5.02657 6.42673 0
M  V30 8195 H 397.546 4.11637 4.08885 0
M  V30 8196 H 397.267 2.49626 6.61679 0
M  V30 8197 H 396.275 3.86566 6.00778 0
M  V30 8198 H 398.109 4.29943 7.96918 0
M  V30 8199 H 398.18 1.00937 6.00374 0
M  V30 8200 H 397.15 -1.80153 5.63503 0
M  V30 8201 H 398.887 -1.4566 5.94104 0
M  V30 8202 H 398.399 -2.40664 4.49645 0
M  V30 8203 H 397.663 0.647622 1.25697 0
M  V30 8204 P 396.238 6.144 6.45285 0
M  V30 8205 O 396.018 7.54673 6.86199 0
M  V30 8206 O 395.448 5.12391 7.179 0
M  V30 8207 O 395.988 5.99158 4.88404 0
M  V30 8208 C 396.928 6.60234 3.96415 0
M  V30 8209 C 396.198 7.08259 2.72856 0
M  V30 8210 O 395.988 5.9427 1.83651 0
M  V30 8211 C 394.798 7.64886 2.9555 0
M  V30 8212 O 394.408 8.53963 1.90717 0
M  V30 8213 C 393.918 6.4116 2.90739 0
M  V30 8214 C 394.628 5.55375 1.86963 0
M  V30 8215 N 394.578 4.09448 2.16152 0
M  V30 8216 H 397.417 7.45574 4.45629 0
M  V30 8217 H 397.689 5.85864 3.679 0
M  V30 8218 H 396.821 7.84412 2.24479 0
M  V30 8219 H 394.166 5.73457 0.888562 0
M  V30 8220 H 393.886 5.90877 3.88583 0
M  V30 8221 H 392.895 6.6596 2.58858 0
M  V30 8222 H 394.729 8.16339 3.92049 0
M  V30 8223 P 392.858 8.7635 1.60911 0
M  V30 8224 O 392.638 10.1388 1.11561 0
M  V30 8225 O 392.068 8.36503 2.79617 0
M  V30 8226 O 392.608 7.71906 0.429565 0
M  V30 8227 C 393.548 7.67148 -0.673689 0
M  V30 8228 C 392.818 7.33666 -1.94851 0
M  V30 8229 O 392.608 5.88816 -2.00759 0
M  V30 8230 C 391.418 7.92526 -2.10483 0
M  V30 8231 O 391.028 8.03063 -3.47693 0
M  V30 8232 C 390.538 6.89602 -1.41652 0
M  V30 8233 C 391.248 5.59201 -1.75185 0
M  V30 8234 N 391.198 4.58235 -0.662552 0
M  V30 8235 C 391.048 3.24451 -1.01643 0
M  V30 8236 O 390.958 2.94958 -2.21722 0
M  V30 8237 N 390.998 2.30408 0.165238 0
M  V30 8238 C 391.098 2.66048 1.25118 0
M  V30 8239 N 391.048 1.70787 2.16813 0
M  V30 8240 C 391.248 4.02732 1.64413 0
M  V30 8241 C 391.298 4.9488 0.63991 0
M  V30 8242 H 394.038 8.65017 -0.777072 0
M  V30 8243 H 394.308 6.90173 -0.474152 0
M  V30 8244 H 393.441 7.66642 -2.79492 0
M  V30 8245 H 390.786 5.16254 -2.65229 0
M  V30 8246 H 390.506 7.06532 -0.329431 0
M  V30 8247 H 389.515 6.91023 -1.82047 0
M  V30 8248 H 391.349 8.90873 -1.62657 0
M  V30 8249 H 391.421 6.00104 0.892197 0
M  V30 8250 H 391.319 4.31733 2.69229 0
M  V30 8251 H 390.931 0.724835 1.8844 0
M  V30 8252 H 391.127 1.94716 3.16734 0
M  V30 8253 P 389.478 8.03563 -3.84925 0
M  V30 8254 O 389.258 8.85821 -5.0569 0
M  V30 8255 O 388.688 8.41101 -2.65469 0
M  V30 8256 O 389.228 6.4965 -4.18908 0
M  V30 8257 C 390.168 5.81037 -5.05421 0
M  V30 8258 C 389.438 4.78366 -5.89277 0
M  V30 8259 O 389.228 3.58302 -5.08433 0
M  V30 8260 C 388.038 5.17448 -6.36119 0
M  V30 8261 O 387.648 4.45271 -7.53232 0
M  V30 8262 C 387.158 4.74639 -5.19936 0
M  V30 8263 C 387.868 3.49432 -4.70418 0
M  V30 8264 N 387.818 3.31776 -3.22945 0
M  V30 8265 C 387.898 4.27147 -2.23315 0
M  V30 8266 N 387.818 3.78447 -1.02186 0
M  V30 8267 C 387.678 2.41001 -1.21732 0
M  V30 8268 C 387.548 1.36111 -0.27694 0
M  V30 8269 N 387.428 0.113683 -0.912949 0
M  V30 8270 C 387.428 -0.0846396 -2.27943 0
M  V30 8271 N 387.298 -1.34737 -2.6916 0
M  V30 8272 N 387.558 0.902521 -3.16379 0
M  V30 8273 C 387.678 2.11937 -2.56849 0
M  V30 8274 H 390.657 6.54213 -5.71376 0
M  V30 8275 H 390.929 5.30492 -4.44033 0
M  V30 8276 H 390.061 4.55889 -6.76652 0
M  V30 8277 P 386.098 4.23843 -7.83734 0
M  V30 8278 O 385.878 4.19407 -9.29784 0
M  V30 8279 O 385.308 5.24426 -7.09156 0
M  V30 8280 O 385.848 2.7935 -7.20758 0
M  V30 8281 C 386.788 1.7299 -7.50419 0
M  V30 8282 C 386.058 0.406376 -7.57911 0
M  V30 8283 O 385.848 -0.0897726 -6.21935 0
M  V30 8284 C 384.658 0.447224 -8.1878 0
M  V30 8285 O 384.268 -0.825065 -8.71101 0
M  V30 8286 C 383.778 0.783801 -6.99623 0
M  V30 8287 C 384.488 0.0619192 -5.85967 0
M  V30 8288 N 384.438 0.790462 -4.56202 0
M  V30 8289 C 384.518 2.13895 -4.34171 0
M  V30 8290 N 384.448 2.46449 -3.08687 0
M  V30 8291 C 384.298 1.2525 -2.43697 0
M  V30 8292 C 384.168 0.914535 -1.07318 0
M  V30 8293 N 384.158 1.80782 -0.0887348 0
M  V30 8294 N 384.048 -0.386745 -0.768133 0
M  V30 8295 C 384.058 -1.28096 -1.75159 0
M  V30 8296 N 384.178 -1.09708 -3.04861 0
M  V30 8297 C 384.298 0.214857 -3.32306 0
M  V30 8298 H 387.277 1.93423 -8.4679 0
M  V30 8299 H 387.549 1.68852 -6.70877 0
M  V30 8300 H 386.681 -0.289041 -8.15388 0
M  V30 8301 H 384.026 -0.927006 -5.72848 0
M  V30 8302 H 383.746 1.86973 -6.82036 0
M  V30 8303 H 382.755 0.403953 -7.13357 0
M  V30 8304 H 384.589 1.20599 -8.97534 0
M  V30 8305 H 384.63 2.86846 -5.14318 0
M  V30 8306 H 384.249 2.81082 -0.302037 0
M  V30 8307 H 384.06 1.49688 0.889064 0
M  V30 8308 H 383.952 -2.31317 -1.43855 0
M  V30 8309 P 382.718 -1.17771 -8.83182 0
M  V30 8310 O 382.498 -2.07206 -9.98732 0
M  V30 8311 O 381.928 0.0743816 -8.81969 0
M  V30 8312 O 382.468 -1.97652 -7.47304 0
M  V30 8313 C 383.408 -3.01055 -7.08599 0
M  V30 8314 C 382.678 -4.12613 -6.37049 0
M  V30 8315 O 382.468 -3.72827 -4.97879 0
M  V30 8316 C 381.278 -4.45719 -6.88164 0
M  V30 8317 O 380.888 -5.7877 -6.5624 0
M  V30 8318 C 380.398 -3.47768 -6.11991 0
M  V30 8319 C 381.108 -3.39356 -4.77615 0
M  V30 8320 N 381.058 -2.04571 -4.15244 0
M  V30 8321 C 380.908 -1.98587 -2.78314 0
M  V30 8322 O 380.818 -2.98134 -2.08835 0
M  V30 8323 N 380.868 -0.714467 -2.24925 0
M  V30 8324 C 380.958 0.470001 -2.94169 0
M  V30 8325 O 380.908 1.55587 -2.35195 0
M  V30 8326 C 381.108 0.312541 -4.36783 0
M  V30 8327 C 381.218 1.57711 -5.16352 0
M  V30 8328 C 381.158 -0.914512 -4.92583 0
M  V30 8329 H 383.899 -3.41169 -7.98575 0
M  V30 8330 H 384.168 -2.58295 -6.41556 0
M  V30 8331 H 383.301 -5.02657 -6.42673 0
M  V30 8332 H 380.646 -4.11637 -4.08885 0
M  V30 8333 H 380.367 -2.49626 -6.61679 0
M  V30 8334 H 379.375 -3.86566 -6.00778 0
M  V30 8335 H 381.209 -4.29943 -7.96918 0
M  V30 8336 H 381.28 -1.00937 -6.00374 0
M  V30 8337 H 380.25 1.80153 -5.63503 0
M  V30 8338 H 381.987 1.4566 -5.94104 0
M  V30 8339 H 381.499 2.40664 -4.49645 0
M  V30 8340 H 380.763 -0.647622 -1.25697 0
M  V30 8341 P 379.338 -6.144 -6.45285 0
M  V30 8342 O 379.118 -7.54673 -6.86199 0
M  V30 8343 O 378.548 -5.12391 -7.179 0
M  V30 8344 O 379.088 -5.99158 -4.88404 0
M  V30 8345 C 380.028 -6.60234 -3.96415 0
M  V30 8346 C 379.298 -7.08259 -2.72856 0
M  V30 8347 O 379.088 -5.9427 -1.83651 0
M  V30 8348 C 377.898 -7.64886 -2.9555 0
M  V30 8349 O 377.508 -8.53963 -1.90717 0
M  V30 8350 C 377.018 -6.4116 -2.90739 0
M  V30 8351 C 377.728 -5.55375 -1.86963 0
M  V30 8352 N 377.678 -4.09664 -2.15742 0
M  V30 8353 H 380.517 -7.45574 -4.45629 0
M  V30 8354 H 380.789 -5.86232 -3.67314 0
M  V30 8355 H 379.921 -7.84412 -2.24479 0
M  V30 8356 P 375.958 -8.7635 -1.60911 0
M  V30 8357 O 375.738 -10.1388 -1.11561 0
M  V30 8358 O 375.168 -8.36503 -2.79617 0
M  V30 8359 O 375.708 -7.71806 -0.42951 0
M  V30 8360 C 376.648 -7.67148 0.673689 0
M  V30 8361 C 375.918 -7.33374 1.95559 0
M  V30 8362 O 375.708 -5.88721 2.00726 0
M  V30 8363 C 374.518 -7.92526 2.10483 0
M  V30 8364 O 374.128 -8.02971 3.47653 0
M  V30 8365 C 373.638 -6.89602 1.41652 0
M  V30 8366 C 374.348 -5.59201 1.75185 0
M  V30 8367 N 374.298 -4.58301 0.657969 0
M  V30 8368 H 377.137 -8.65116 0.777161 0
M  V30 8369 H 377.409 -6.9022 0.46725 0
M  V30 8370 H 376.541 -7.66548 2.79458 0
M  V30 8371 H 373.886 -5.16165 2.65183 0
M  V30 8372 H 373.606 -7.06433 0.329384 0
M  V30 8373 H 372.615 -6.90926 1.82021 0
M  V30 8374 H 374.449 -8.90873 1.62657 0
M  V30 8375 P 372.578 -8.03563 3.84925 0
M  V30 8376 O 372.358 -8.85821 5.0569 0
M  V30 8377 O 371.788 -8.41101 2.65469 0
M  V30 8378 O 372.328 -6.4965 4.18908 0
M  V30 8379 C 373.268 -5.80886 5.05289 0
M  V30 8380 C 372.538 -4.78366 5.89277 0
M  V30 8381 O 372.328 -3.58302 5.08433 0
M  V30 8382 C 371.138 -5.16748 6.36559 0
M  V30 8383 O 370.748 -4.45271 7.53232 0
M  V30 8384 C 370.258 -4.74572 5.19863 0
M  V30 8385 C 370.968 -3.49373 4.70338 0
M  V30 8386 N 370.918 -3.31704 3.22876 0
M  V30 8387 C 370.768 -2.03326 2.74871 0
M  V30 8388 O 370.678 -1.06486 3.48076 0
M  V30 8389 N 370.728 -1.91838 1.37456 0
M  V30 8390 C 370.818 -2.94295 0.462035 0
M  V30 8391 C 370.968 -4.25064 1.05249 0
M  V30 8392 C 371.018 -4.40214 2.39192 0
M  V30 8393 H 373.759 -6.54063 5.71245 0
M  V30 8394 H 374.028 -5.30339 4.43905 0
M  V30 8395 H 373.161 -4.55889 6.76652 0
M  V30 8396 H 370.506 -2.6167 5.17842 0
M  V30 8397 H 370.227 -5.52155 4.41878 0
M  V30 8398 H 369.235 -4.51918 5.53297 0
M  V30 8399 H 371.069 -6.25055 6.55162 0
M  V30 8400 H 371.14 -5.39798 2.81523 0
M  V30 8401 P 369.198 -4.23843 7.83734 0
M  V30 8402 O 368.978 -4.19407 9.29784 0
M  V30 8403 O 368.408 -5.24426 7.09156 0
M  V30 8404 O 368.948 -2.7935 7.20758 0
M  V30 8405 C 369.888 -1.7299 7.50419 0
M  V30 8406 C 369.158 -0.406376 7.57911 0
M  V30 8407 O 368.948 0.0897726 6.21935 0
M  V30 8408 C 367.758 -0.447224 8.1878 0
M  V30 8409 O 367.368 0.825065 8.71101 0
M  V30 8410 C 366.878 -0.783801 6.99623 0
M  V30 8411 C 367.588 -0.0619192 5.85967 0
M  V30 8412 N 367.538 -0.7859 4.56281 0
M  V30 8413 H 370.377 -1.93423 8.4679 0
M  V30 8414 H 370.649 -1.68181 6.71046 0
M  V30 8415 H 369.781 0.289041 8.15388 0
M  V30 8416 P 365.818 1.17771 8.83182 0
M  V30 8417 O 365.598 2.07206 9.98732 0
M  V30 8418 O 365.028 -0.0743816 8.81969 0
M  V30 8419 O 365.568 1.97652 7.47304 0
M  V30 8420 C 366.508 3.01133 7.08783 0
M  V30 8421 C 365.778 4.12613 6.37049 0
M  V30 8422 O 365.568 3.72827 4.97879 0
M  V30 8423 C 364.378 4.45085 6.88694 0
M  V30 8424 O 363.988 5.7877 6.5624 0
M  V30 8425 C 363.498 3.47817 6.12078 0
M  V30 8426 C 364.208 3.39414 4.77697 0
M  V30 8427 N 364.158 2.04615 4.15333 0
M  V30 8428 H 366.997 3.41248 7.98759 0
M  V30 8429 H 367.269 2.5837 6.41742 0
M  V30 8430 H 366.401 5.02657 6.42673 0
M  V30 8431 P 362.438 6.144 6.45285 0
M  V30 8432 O 362.218 7.54673 6.86199 0
M  V30 8433 O 361.648 5.12391 7.179 0
M  V30 8434 O 362.188 5.99158 4.88404 0
M  V30 8435 C 363.128 6.60234 3.96415 0
M  V30 8436 C 362.398 7.08259 2.72856 0
M  V30 8437 O 362.188 5.9427 1.83651 0
M  V30 8438 C 360.998 7.64886 2.9555 0
M  V30 8439 O 360.608 8.53963 1.90717 0
M  V30 8440 C 360.118 6.4116 2.90739 0
M  V30 8441 C 360.828 5.55375 1.86963 0
M  V30 8442 N 360.778 4.09448 2.16152 0
M  V30 8443 H 363.617 7.45574 4.45629 0
M  V30 8444 H 363.889 5.85864 3.679 0
M  V30 8445 H 363.021 7.84412 2.24479 0
M  V30 8446 H 360.366 5.73457 0.888562 0
M  V30 8447 H 360.086 5.90877 3.88583 0
M  V30 8448 H 359.095 6.6596 2.58858 0
M  V30 8449 H 360.929 8.16339 3.92049 0
M  V30 8450 P 359.058 8.7635 1.60911 0
M  V30 8451 O 358.838 10.1388 1.11561 0
M  V30 8452 O 358.268 8.36503 2.79617 0
M  V30 8453 O 358.808 7.71806 0.42951 0
M  V30 8454 C 359.748 7.67148 -0.673689 0
M  V30 8455 C 359.018 7.33374 -1.95559 0
M  V30 8456 O 358.808 5.88721 -2.00726 0
M  V30 8457 C 357.618 7.92526 -2.10483 0
M  V30 8458 O 357.228 8.02971 -3.47653 0
M  V30 8459 C 356.738 6.89602 -1.41652 0
M  V30 8460 C 357.448 5.59201 -1.75185 0
M  V30 8461 N 357.398 4.58235 -0.662552 0
M  V30 8462 H 360.237 8.65116 -0.777161 0
M  V30 8463 H 360.509 6.90173 -0.474152 0
M  V30 8464 H 359.641 7.66548 -2.79458 0
M  V30 8465 P 355.678 8.03563 -3.84925 0
M  V30 8466 O 355.458 8.85821 -5.0569 0
M  V30 8467 O 354.888 8.41101 -2.65469 0
M  V30 8468 O 355.428 6.4965 -4.18908 0
M  V30 8469 C 356.368 5.81037 -5.05421 0
M  V30 8470 C 355.638 4.78366 -5.89277 0
M  V30 8471 O 355.428 3.58302 -5.08433 0
M  V30 8472 C 354.238 5.17448 -6.36119 0
M  V30 8473 O 353.848 4.45271 -7.53232 0
M  V30 8474 C 353.358 4.74639 -5.19936 0
M  V30 8475 C 354.068 3.49432 -4.70418 0
M  V30 8476 N 354.018 3.31776 -3.22945 0
M  V30 8477 H 356.857 6.54213 -5.71376 0
M  V30 8478 H 357.129 5.30492 -4.44033 0
M  V30 8479 H 356.261 4.55889 -6.76652 0
M  V30 8480 P 352.298 4.23843 -7.83734 0
M  V30 8481 O 352.078 4.19407 -9.29784 0
M  V30 8482 O 351.508 5.24426 -7.09156 0
M  V30 8483 O 352.048 2.7935 -7.20758 0
M  V30 8484 C 352.988 1.7299 -7.50419 0
M  V30 8485 C 352.258 0.406376 -7.57911 0
M  V30 8486 O 352.048 -0.0897726 -6.21935 0
M  V30 8487 C 350.858 0.447224 -8.1878 0
M  V30 8488 O 350.468 -0.825065 -8.71101 0
M  V30 8489 C 349.978 0.783801 -6.99623 0
M  V30 8490 C 350.688 0.0619192 -5.85967 0
M  V30 8491 N 350.638 0.790462 -4.56202 0
M  V30 8492 H 353.477 1.93423 -8.4679 0
M  V30 8493 H 353.749 1.68852 -6.70877 0
M  V30 8494 H 352.881 -0.289041 -8.15388 0
M  V30 8495 H 350.226 -0.927006 -5.72848 0
M  V30 8496 H 349.946 1.86973 -6.82036 0
M  V30 8497 H 348.955 0.403953 -7.13357 0
M  V30 8498 H 350.789 1.20599 -8.97534 0
M  V30 8499 P 348.918 -1.17771 -8.83182 0
M  V30 8500 O 348.698 -2.07206 -9.98732 0
M  V30 8501 O 348.128 0.0743816 -8.81969 0
M  V30 8502 O 348.668 -1.97678 -7.474 0
M  V30 8503 C 349.608 -3.01133 -7.08783 0
M  V30 8504 C 348.878 -4.1203 -6.37546 0
M  V30 8505 O 348.668 -3.72887 -4.9796 0
M  V30 8506 C 347.478 -4.45085 -6.88694 0
M  V30 8507 O 347.088 -5.78836 -6.56315 0
M  V30 8508 C 346.598 -3.47817 -6.12078 0
M  V30 8509 C 347.308 -3.39414 -4.77697 0
M  V30 8510 N 347.258 -2.04615 -4.15333 0
M  V30 8511 C 347.108 -1.96929 -2.77162 0
M  V30 8512 O 347.018 -3.02017 -2.12006 0
M  V30 8513 N 347.058 -0.55485 -2.24237 0
M  V30 8514 C 347.158 0.367808 -2.9169 0
M  V30 8515 N 347.108 1.53426 -2.29427 0
M  V30 8516 C 347.308 0.319148 -4.33828 0
M  V30 8517 C 347.358 -0.920672 -4.90433 0
M  V30 8518 H 350.098 -3.41209 -7.98667 0
M  V30 8519 H 350.368 -2.5837 -6.41742 0
M  V30 8520 H 349.501 -5.02718 -6.42752 0
M  V30 8521 H 346.846 -4.11779 -4.09026 0
M  V30 8522 H 346.566 -2.49661 -6.61772 0
M  V30 8523 H 345.575 -3.86674 -6.00946 0
M  V30 8524 H 347.409 -4.29991 -7.97006 0
M  V30 8525 H 347.481 -1.00589 -5.98303 0
M  V30 8526 H 347.379 1.22639 -4.93799 0
M  V30 8527 H 346.991 1.56819 -1.27167 0
M  V30 8528 H 347.187 2.41062 -2.83063 0
M  V30 8529 P 345.538 -6.144 -6.45285 0
M  V30 8530 O 345.318 -7.54673 -6.86199 0
M  V30 8531 O 344.748 -5.12391 -7.179 0
M  V30 8532 O 345.288 -5.99158 -4.88404 0
M  V30 8533 C 346.228 -6.60234 -3.96415 0
M  V30 8534 C 345.498 -7.08259 -2.72856 0
M  V30 8535 O 345.288 -5.9427 -1.83651 0
M  V30 8536 C 344.098 -7.64886 -2.9555 0
M  V30 8537 O 343.708 -8.53963 -1.90717 0
M  V30 8538 C 343.218 -6.4116 -2.90739 0
M  V30 8539 C 343.928 -5.55375 -1.86963 0
M  V30 8540 N 343.878 -4.09664 -2.15742 0
M  V30 8541 H 346.717 -7.45574 -4.45629 0
M  V30 8542 H 346.989 -5.86232 -3.67314 0
M  V30 8543 H 346.121 -7.84412 -2.24479 0
M  V30 8544 P 342.158 -8.7635 -1.60911 0
M  V30 8545 O 341.938 -10.1388 -1.11561 0
M  V30 8546 O 341.368 -8.36503 -2.79617 0
M  V30 8547 O 341.908 -7.71806 -0.42951 0
M  V30 8548 C 342.848 -7.67148 0.673689 0
M  V30 8549 C 342.118 -7.33374 1.95559 0
M  V30 8550 O 341.908 -5.88721 2.00726 0
M  V30 8551 C 340.718 -7.92526 2.10483 0
M  V30 8552 O 340.328 -8.02971 3.47653 0
M  V30 8553 C 339.838 -6.89602 1.41652 0
M  V30 8554 C 340.548 -5.59201 1.75185 0
M  V30 8555 N 340.498 -4.58235 0.662552 0
M  V30 8556 H 343.337 -8.65116 0.777161 0
M  V30 8557 H 343.609 -6.90173 0.474152 0
M  V30 8558 H 342.741 -7.66548 2.79458 0
M  V30 8559 P 338.778 -8.03563 3.84925 0
M  V30 8560 O 338.558 -8.85821 5.0569 0
M  V30 8561 O 337.988 -8.41101 2.65469 0
M  V30 8562 O 338.528 -6.4965 4.18908 0
M  V30 8563 C 339.468 -5.81037 5.05421 0
M  V30 8564 C 338.738 -4.78366 5.89277 0
M  V30 8565 O 338.528 -3.58302 5.08433 0
M  V30 8566 C 337.338 -5.17448 6.36119 0
M  V30 8567 O 336.948 -4.45271 7.53232 0
M  V30 8568 C 336.458 -4.74639 5.19936 0
M  V30 8569 C 337.168 -3.49432 4.70418 0
M  V30 8570 N 337.118 -3.31776 3.22945 0
M  V30 8571 H 339.957 -6.54213 5.71376 0
M  V30 8572 H 340.229 -5.30492 4.44033 0
M  V30 8573 H 339.361 -4.55889 6.76652 0
M  V30 8574 P 335.398 -4.23843 7.83734 0
M  V30 8575 O 335.178 -4.19407 9.29784 0
M  V30 8576 O 334.608 -5.24426 7.09156 0
M  V30 8577 O 335.148 -2.7935 7.20758 0
M  V30 8578 C 336.088 -1.7299 7.50419 0
M  V30 8579 C 335.358 -0.406376 7.57911 0
M  V30 8580 O 335.148 0.0897726 6.21935 0
M  V30 8581 C 333.958 -0.447224 8.1878 0
M  V30 8582 O 333.568 0.825065 8.71101 0
M  V30 8583 C 333.078 -0.783801 6.99623 0
M  V30 8584 C 333.788 -0.0619192 5.85967 0
M  V30 8585 N 333.738 -0.7859 4.56281 0
M  V30 8586 H 336.577 -1.93423 8.4679 0
M  V30 8587 H 336.849 -1.68181 6.71046 0
M  V30 8588 H 335.981 0.289041 8.15388 0
M  V30 8589 P 332.018 1.17771 8.83182 0
M  V30 8590 O 331.798 2.07206 9.98732 0
M  V30 8591 O 331.228 -0.0743816 8.81969 0
M  V30 8592 O 331.768 1.97652 7.47304 0
M  V30 8593 C 332.708 3.01055 7.08599 0
M  V30 8594 C 331.978 4.12613 6.37049 0
M  V30 8595 O 331.768 3.72827 4.97879 0
M  V30 8596 C 330.578 4.45719 6.88164 0
M  V30 8597 O 330.188 5.7877 6.5624 0
M  V30 8598 C 329.698 3.47768 6.11991 0
M  V30 8599 C 330.408 3.39356 4.77615 0
M  V30 8600 N 330.358 2.04571 4.15244 0
M  V30 8601 C 330.208 1.98587 2.78314 0
M  V30 8602 O 330.118 2.98134 2.08835 0
M  V30 8603 N 330.168 0.714467 2.24925 0
M  V30 8604 C 330.258 -0.470001 2.94169 0
M  V30 8605 C 330.408 -0.312541 4.36783 0
M  V30 8606 C 330.458 0.914512 4.92583 0
M  V30 8607 H 333.199 3.41169 7.98575 0
M  V30 8608 H 333.468 2.58295 6.41556 0
M  V30 8609 H 332.601 5.02657 6.42673 0
M  V30 8610 H 329.946 4.11637 4.08885 0
M  V30 8611 H 329.667 2.49626 6.61679 0
M  V30 8612 H 328.675 3.86566 6.00778 0
M  V30 8613 H 330.509 4.29943 7.96918 0
M  V30 8614 H 330.58 1.00937 6.00374 0
M  V30 8615 P 328.638 6.144 6.45285 0
M  V30 8616 O 328.418 7.54673 6.86199 0
M  V30 8617 O 327.848 5.12391 7.179 0
M  V30 8618 O 328.388 5.99158 4.88404 0
M  V30 8619 C 329.328 6.60062 3.96313 0
M  V30 8620 C 328.598 7.08259 2.72856 0
M  V30 8621 O 328.388 5.9427 1.83651 0
M  V30 8622 C 327.198 7.65087 2.94749 0
M  V30 8623 O 326.808 8.53963 1.90717 0
M  V30 8624 C 326.318 6.41069 2.90698 0
M  V30 8625 C 327.028 5.5528 1.86931 0
M  V30 8626 N 326.978 4.09575 2.15696 0
M  V30 8627 C 326.828 3.24249 1.08435 0
M  V30 8628 O 326.738 3.63946 -0.0628747 0
M  V30 8629 N 326.788 1.90009 1.39973 0
M  V30 8630 C 326.878 1.34884 2.65614 0
M  V30 8631 O 326.828 0.123716 2.81728 0
M  V30 8632 C 327.028 2.3145 3.71736 0
M  V30 8633 C 327.138 1.75913 5.10438 0
M  V30 8634 C 327.078 3.63518 3.44754 0
M  V30 8635 H 329.819 7.45402 4.45526 0
M  V30 8636 H 330.088 5.86062 3.67208 0
M  V30 8637 H 329.221 7.84412 2.24479 0
M  V30 8638 H 326.566 5.73358 0.888409 0
M  V30 8639 H 326.287 5.90877 3.88583 0
M  V30 8640 H 325.295 6.65867 2.58821 0
M  V30 8641 H 327.129 8.16248 3.92006 0
M  V30 8642 H 327.2 4.34551 4.26383 0
M  V30 8643 H 326.17 1.85471 5.61775 0
M  V30 8644 H 327.907 2.31364 5.66257 0
M  V30 8645 H 327.419 0.695936 5.05229 0
M  V30 8646 H 326.683 1.26277 0.63625 0
M  V30 8647 P 325.258 8.7635 1.60911 0
M  V30 8648 O 325.038 10.1388 1.11561 0
M  V30 8649 O 324.468 8.36503 2.79617 0
M  V30 8650 O 325.008 7.71806 0.42951 0
M  V30 8651 C 325.948 7.67148 -0.673689 0
M  V30 8652 C 325.218 7.33374 -1.95559 0
M  V30 8653 O 325.008 5.88721 -2.00726 0
M  V30 8654 C 323.818 7.92526 -2.10483 0
M  V30 8655 O 323.428 8.02971 -3.47653 0
M  V30 8656 C 322.938 6.89602 -1.41652 0
M  V30 8657 C 323.648 5.59201 -1.75185 0
M  V30 8658 N 323.598 4.58235 -0.662552 0
M  V30 8659 H 326.437 8.65116 -0.777161 0
M  V30 8660 H 326.709 6.90173 -0.474152 0
M  V30 8661 H 325.841 7.66548 -2.79458 0
M  V30 8662 P 321.878 8.03563 -3.84925 0
M  V30 8663 O 321.658 8.85821 -5.0569 0
M  V30 8664 O 321.088 8.41101 -2.65469 0
M  V30 8665 O 321.628 6.4965 -4.18908 0
M  V30 8666 C 322.568 5.80886 -5.05289 0
M  V30 8667 C 321.838 4.78366 -5.89277 0
M  V30 8668 O 321.628 3.58302 -5.08433 0
M  V30 8669 C 320.438 5.16748 -6.36559 0
M  V30 8670 O 320.048 4.45271 -7.53232 0
M  V30 8671 C 319.558 4.74572 -5.19863 0
M  V30 8672 C 320.268 3.49373 -4.70338 0
M  V30 8673 N 320.218 3.31704 -3.22876 0
M  V30 8674 C 320.068 2.03326 -2.74871 0
M  V30 8675 O 319.978 1.06486 -3.48076 0
M  V30 8676 N 320.028 1.91838 -1.37456 0
M  V30 8677 C 320.118 2.94295 -0.462035 0
M  V30 8678 O 320.068 2.71763 0.752928 0
M  V30 8679 C 320.268 4.25064 -1.05249 0
M  V30 8680 C 320.378 5.39815 -0.095697 0
M  V30 8681 C 320.318 4.40214 -2.39192 0
M  V30 8682 H 323.059 6.54063 -5.71245 0
M  V30 8683 H 323.328 5.30339 -4.43905 0
M  V30 8684 H 322.461 4.55889 -6.76652 0
M  V30 8685 H 319.806 2.6167 -5.17842 0
M  V30 8686 H 319.527 5.52155 -4.41878 0
M  V30 8687 H 318.535 4.51918 -5.53297 0
M  V30 8688 H 320.369 6.25055 -6.55162 0
M  V30 8689 H 320.44 5.39798 -2.81523 0
M  V30 8690 H 319.41 5.91593 -0.0279582 0
M  V30 8691 H 321.147 6.10038 -0.450573 0
M  V30 8692 H 320.659 5.02007 0.89937 0
M  V30 8693 H 319.923 0.995326 -1.00435 0
M  V30 8694 P 318.498 4.23843 -7.83734 0
M  V30 8695 O 318.278 4.19407 -9.29784 0
M  V30 8696 O 317.708 5.24426 -7.09156 0
M  V30 8697 O 318.248 2.79386 -7.20852 0
M  V30 8698 C 319.188 1.7299 -7.50419 0
M  V30 8699 C 318.458 0.41401 -7.5797 0
M  V30 8700 O 318.248 -0.089787 -6.22035 0
M  V30 8701 C 317.058 0.447224 -8.1878 0
M  V30 8702 O 316.668 -0.825159 -8.71201 0
M  V30 8703 C 316.178 0.783801 -6.99623 0
M  V30 8704 C 316.888 0.0619192 -5.85967 0
M  V30 8705 N 316.838 0.7859 -4.56281 0
M  V30 8706 C 316.688 0.0359258 -3.39981 0
M  V30 8707 O 316.598 -1.19723 -3.49038 0
M  V30 8708 N 316.638 0.869151 -2.14025 0
M  V30 8709 C 316.738 2.01207 -2.14363 0
M  V30 8710 N 316.688 2.58978 -0.954287 0
M  V30 8711 C 316.888 2.80817 -3.32215 0
M  V30 8712 C 316.938 2.13785 -4.50884 0
M  V30 8713 H 319.678 1.93401 -8.46693 0
M  V30 8714 H 319.948 1.68181 -6.71046 0
M  V30 8715 H 319.081 -0.289076 -8.15488 0
M  V30 8716 H 316.426 -0.927166 -5.72947 0
M  V30 8717 H 316.146 1.87 -6.82132 0
M  V30 8718 H 315.155 0.404009 -7.13457 0
M  V30 8719 H 316.989 1.20599 -8.97534 0
M  V30 8720 H 317.061 2.70295 -5.43162 0
M  V30 8721 H 316.959 3.89465 -3.27406 0
M  V30 8722 H 316.571 2.01616 -0.107046 0
M  V30 8723 H 316.767 3.61403 -0.873101 0
M  V30 8724 P 315.118 -1.17771 -8.83182 0
M  V30 8725 O 314.898 -2.07206 -9.98732 0
M  V30 8726 O 314.328 0.0743816 -8.81969 0
M  V30 8727 O 314.868 -1.97652 -7.47304 0
M  V30 8728 C 315.808 -3.01133 -7.08783 0
M  V30 8729 C 315.078 -4.12613 -6.37049 0
M  V30 8730 O 314.868 -3.72827 -4.97879 0
M  V30 8731 C 313.678 -4.45085 -6.88694 0
M  V30 8732 O 313.288 -5.7877 -6.5624 0
M  V30 8733 C 312.798 -3.47817 -6.12078 0
M  V30 8734 C 313.508 -3.39414 -4.77697 0
M  V30 8735 N 313.458 -2.04199 -4.15538 0
M  V30 8736 C 313.538 -0.821545 -4.76977 0
M  V30 8737 N 313.468 0.1794 -3.94592 0
M  V30 8738 C 313.318 -0.419121 -2.70776 0
M  V30 8739 C 313.188 0.109072 -1.40577 0
M  V30 8740 N 313.178 1.4104 -1.1344 0
M  V30 8741 N 313.068 -0.764381 -0.39411 0
M  V30 8742 C 313.078 -2.06587 -0.664135 0
M  V30 8743 N 313.198 -2.67948 -1.82153 0
M  V30 8744 C 313.318 -1.77942 -2.8147 0
M  V30 8745 H 316.297 -3.41248 -7.98759 0
M  V30 8746 H 316.569 -2.57728 -6.42 0
M  V30 8747 H 315.701 -5.02657 -6.42673 0
M  V30 8748 H 313.046 -4.11708 -4.08956 0
M  V30 8749 H 312.766 -2.49626 -6.61679 0
M  V30 8750 H 311.775 -3.8662 -6.00862 0
M  V30 8751 H 313.609 -4.29991 -7.97006 0
M  V30 8752 H 313.65 -0.702451 -5.84696 0
M  V30 8753 H 313.269 2.09647 -1.89651 0
M  V30 8754 H 313.08 1.73358 -0.160575 0
M  V30 8755 H 312.972 -2.71695 0.195838 0
M  V30 8756 P 311.738 -6.144 -6.45285 0
M  V30 8757 O 311.518 -7.54673 -6.86199 0
M  V30 8758 O 310.948 -5.12391 -7.179 0
M  V30 8759 O 311.488 -5.99158 -4.88404 0
M  V30 8760 C 312.428 -6.60234 -3.96415 0
M  V30 8761 C 311.698 -7.08259 -2.72856 0
M  V30 8762 O 311.488 -5.9427 -1.83651 0
M  V30 8763 C 310.298 -7.64886 -2.9555 0
M  V30 8764 O 309.908 -8.53963 -1.90717 0
M  V30 8765 C 309.418 -6.4116 -2.90739 0
M  V30 8766 C 310.128 -5.55375 -1.86963 0
M  V30 8767 N 310.078 -4.09664 -2.15742 0
M  V30 8768 H 312.917 -7.45574 -4.45629 0
M  V30 8769 H 313.189 -5.86232 -3.67314 0
M  V30 8770 H 312.321 -7.84412 -2.24479 0
M  V30 8771 P 308.358 -8.7635 -1.60911 0
M  V30 8772 O 308.138 -10.1388 -1.11561 0
M  V30 8773 O 307.568 -8.36503 -2.79617 0
M  V30 8774 O 308.108 -7.71806 -0.42951 0
M  V30 8775 C 309.048 -7.67148 0.673689 0
M  V30 8776 C 308.318 -7.33374 1.95559 0
M  V30 8777 O 308.108 -5.88721 2.00726 0
M  V30 8778 C 306.918 -7.92526 2.10483 0
M  V30 8779 O 306.528 -8.02971 3.47653 0
M  V30 8780 C 306.038 -6.89602 1.41652 0
M  V30 8781 C 306.748 -5.59201 1.75185 0
M  V30 8782 N 306.698 -4.58235 0.662552 0
M  V30 8783 C 306.778 -4.7683 -0.704049 0
M  V30 8784 N 306.698 -3.66233 -1.39775 0
M  V30 8785 C 306.558 -2.66526 -0.431739 0
M  V30 8786 C 306.428 -1.26394 -0.575992 0
M  V30 8787 N 306.308 -0.62859 0.67177 0
M  V30 8788 C 306.308 -1.27134 1.89385 0
M  V30 8789 N 306.178 -0.492035 2.96951 0
M  V30 8790 N 306.438 -2.58978 2.02907 0
M  V30 8791 C 306.558 -3.22433 0.832218 0
M  V30 8792 H 309.537 -8.65116 0.777161 0
M  V30 8793 H 309.809 -6.90173 0.474152 0
M  V30 8794 H 308.941 -7.66548 2.79458 0
M  V30 8795 P 304.978 -8.03563 3.84925 0
M  V30 8796 O 304.758 -8.85821 5.0569 0
M  V30 8797 O 304.188 -8.41101 2.65469 0
M  V30 8798 O 304.728 -6.4965 4.18908 0
M  V30 8799 C 305.668 -5.81037 5.05421 0
M  V30 8800 C 304.938 -4.78366 5.89277 0
M  V30 8801 O 304.728 -3.58302 5.08433 0
M  V30 8802 C 303.538 -5.17448 6.36119 0
M  V30 8803 O 303.148 -4.45271 7.53232 0
M  V30 8804 C 302.658 -4.74639 5.19936 0
M  V30 8805 C 303.368 -3.49432 4.70418 0
M  V30 8806 N 303.318 -3.31776 3.22945 0
M  V30 8807 H 306.157 -6.54213 5.71376 0
M  V30 8808 H 306.429 -5.30492 4.44033 0
M  V30 8809 H 305.561 -4.55889 6.76652 0
M  V30 8810 P 301.598 -4.23843 7.83734 0
M  V30 8811 O 301.378 -4.19407 9.29784 0
M  V30 8812 O 300.808 -5.24426 7.09156 0
M  V30 8813 O 301.348 -2.7935 7.20758 0
M  V30 8814 C 302.288 -1.7299 7.50419 0
M  V30 8815 C 301.558 -0.406376 7.57911 0
M  V30 8816 O 301.348 0.0897726 6.21935 0
M  V30 8817 C 300.158 -0.447224 8.1878 0
M  V30 8818 O 299.768 0.825065 8.71101 0
M  V30 8819 C 299.278 -0.783801 6.99623 0
M  V30 8820 C 299.988 -0.0619192 5.85967 0
M  V30 8821 N 299.938 -0.7859 4.56281 0
M  V30 8822 H 302.777 -1.93423 8.4679 0
M  V30 8823 H 303.049 -1.68181 6.71046 0
M  V30 8824 H 302.181 0.289041 8.15388 0
M  V30 8825 P 298.218 1.17771 8.83182 0
M  V30 8826 O 297.998 2.07206 9.98732 0
M  V30 8827 O 297.428 -0.0743816 8.81969 0
M  V30 8828 O 297.968 1.97652 7.47304 0
M  V30 8829 C 298.908 3.01133 7.08783 0
M  V30 8830 C 298.178 4.12613 6.37049 0
M  V30 8831 O 297.968 3.72827 4.97879 0
M  V30 8832 C 296.778 4.45085 6.88694 0
M  V30 8833 O 296.388 5.7877 6.5624 0
M  V30 8834 C 295.898 3.47817 6.12078 0
M  V30 8835 C 296.608 3.39414 4.77697 0
M  V30 8836 N 296.558 2.04615 4.15333 0
M  V30 8837 H 299.397 3.41248 7.98759 0
M  V30 8838 H 299.669 2.5837 6.41742 0
M  V30 8839 H 298.801 5.02657 6.42673 0
M  V30 8840 P 294.838 6.144 6.45285 0
M  V30 8841 O 294.618 7.54673 6.86199 0
M  V30 8842 O 294.048 5.12391 7.179 0
M  V30 8843 O 294.588 5.99158 4.88404 0
M  V30 8844 C 295.528 6.60234 3.96415 0
M  V30 8845 C 294.798 7.08259 2.72856 0
M  V30 8846 O 294.588 5.9427 1.83651 0
M  V30 8847 C 293.398 7.64886 2.9555 0
M  V30 8848 O 293.008 8.53963 1.90717 0
M  V30 8849 C 292.518 6.4116 2.90739 0
M  V30 8850 C 293.228 5.55375 1.86963 0
M  V30 8851 N 293.178 4.09448 2.16152 0
M  V30 8852 H 296.017 7.45574 4.45629 0
M  V30 8853 H 296.289 5.85864 3.679 0
M  V30 8854 H 295.421 7.84412 2.24479 0
M  V30 8855 H 292.766 5.73457 0.888562 0
M  V30 8856 H 292.486 5.90877 3.88583 0
M  V30 8857 H 291.495 6.6596 2.58858 0
M  V30 8858 H 293.329 8.16339 3.92049 0
M  V30 8859 P 291.458 8.7635 1.60911 0
M  V30 8860 O 291.238 10.1388 1.11561 0
M  V30 8861 O 290.668 8.36503 2.79617 0
M  V30 8862 O 291.208 7.71806 0.42951 0
M  V30 8863 C 292.148 7.67148 -0.673689 0
M  V30 8864 C 291.418 7.33374 -1.95559 0
M  V30 8865 O 291.208 5.88721 -2.00726 0
M  V30 8866 C 290.018 7.92526 -2.10483 0
M  V30 8867 O 289.628 8.02971 -3.47653 0
M  V30 8868 C 289.138 6.89602 -1.41652 0
M  V30 8869 C 289.848 5.59201 -1.75185 0
M  V30 8870 N 289.798 4.58235 -0.662552 0
M  V30 8871 H 292.637 8.65116 -0.777161 0
M  V30 8872 H 292.909 6.90173 -0.474152 0
M  V30 8873 H 292.041 7.66548 -2.79458 0
M  V30 8874 P 288.078 8.03563 -3.84925 0
M  V30 8875 O 287.858 8.85821 -5.0569 0
M  V30 8876 O 287.288 8.41101 -2.65469 0
M  V30 8877 O 287.828 6.4965 -4.18908 0
M  V30 8878 C 288.768 5.81037 -5.05421 0
M  V30 8879 C 288.038 4.78366 -5.89277 0
M  V30 8880 O 287.828 3.58302 -5.08433 0
M  V30 8881 C 286.638 5.17448 -6.36119 0
M  V30 8882 O 286.248 4.45271 -7.53232 0
M  V30 8883 C 285.758 4.74639 -5.19936 0
M  V30 8884 C 286.468 3.49432 -4.70418 0
M  V30 8885 N 286.418 3.31776 -3.22945 0
M  V30 8886 H 289.257 6.54213 -5.71376 0
M  V30 8887 H 289.529 5.30492 -4.44033 0
M  V30 8888 H 288.661 4.55889 -6.76652 0
M  V30 8889 P 284.698 4.23843 -7.83734 0
M  V30 8890 O 284.478 4.19407 -9.29784 0
M  V30 8891 O 283.908 5.24426 -7.09156 0
M  V30 8892 O 284.448 2.7935 -7.20758 0
M  V30 8893 C 285.388 1.7299 -7.50419 0
M  V30 8894 C 284.658 0.406376 -7.57911 0
M  V30 8895 O 284.448 -0.0897726 -6.21935 0
M  V30 8896 C 283.258 0.447224 -8.1878 0
M  V30 8897 O 282.868 -0.825065 -8.71101 0
M  V30 8898 C 282.378 0.783801 -6.99623 0
M  V30 8899 C 283.088 0.0619192 -5.85967 0
M  V30 8900 N 283.038 0.7859 -4.56281 0
M  V30 8901 H 285.877 1.93423 -8.4679 0
M  V30 8902 H 286.149 1.68181 -6.71046 0
M  V30 8903 H 285.281 -0.289041 -8.15388 0
M  V30 8904 P 281.318 -1.17771 -8.83182 0
M  V30 8905 O 281.098 -2.07206 -9.98732 0
M  V30 8906 O 280.528 0.0743816 -8.81969 0
M  V30 8907 O 281.068 -1.97652 -7.47304 0
M  V30 8908 C 282.008 -3.01133 -7.08783 0
M  V30 8909 C 281.278 -4.12613 -6.37049 0
M  V30 8910 O 281.068 -3.72827 -4.97879 0
M  V30 8911 C 279.878 -4.45085 -6.88694 0
M  V30 8912 O 279.488 -5.7877 -6.5624 0
M  V30 8913 C 278.998 -3.47817 -6.12078 0
M  V30 8914 C 279.708 -3.39414 -4.77697 0
M  V30 8915 N 279.658 -2.04615 -4.15333 0
M  V30 8916 H 282.497 -3.41248 -7.98759 0
M  V30 8917 H 282.769 -2.5837 -6.41742 0
M  V30 8918 H 281.901 -5.02657 -6.42673 0
M  V30 8919 P 277.938 -6.144 -6.45285 0
M  V30 8920 O 277.718 -7.54673 -6.86199 0
M  V30 8921 O 277.148 -5.12391 -7.179 0
M  V30 8922 O 277.688 -5.99158 -4.88404 0
M  V30 8923 C 278.628 -6.60234 -3.96415 0
M  V30 8924 C 277.898 -7.08259 -2.72856 0
M  V30 8925 O 277.688 -5.9427 -1.83651 0
M  V30 8926 C 276.498 -7.64886 -2.9555 0
M  V30 8927 O 276.108 -8.53963 -1.90717 0
M  V30 8928 C 275.618 -6.4116 -2.90739 0
M  V30 8929 C 276.328 -5.55375 -1.86963 0
M  V30 8930 N 276.278 -4.09664 -2.15742 0
M  V30 8931 H 279.117 -7.45574 -4.45629 0
M  V30 8932 H 279.389 -5.86232 -3.67314 0
M  V30 8933 H 278.521 -7.84412 -2.24479 0
M  V30 8934 P 274.558 -8.7635 -1.60911 0
M  V30 8935 O 274.338 -10.1388 -1.11561 0
M  V30 8936 O 273.768 -8.36503 -2.79617 0
M  V30 8937 O 274.308 -7.71806 -0.42951 0
M  V30 8938 C 275.248 -7.67148 0.673689 0
M  V30 8939 C 274.518 -7.33374 1.95559 0
M  V30 8940 O 274.308 -5.88721 2.00726 0
M  V30 8941 C 273.118 -7.92526 2.10483 0
M  V30 8942 O 272.728 -8.02971 3.47653 0
M  V30 8943 C 272.238 -6.89602 1.41652 0
M  V30 8944 C 272.948 -5.59201 1.75185 0
M  V30 8945 N 272.898 -4.58235 0.662552 0
M  V30 8946 H 275.737 -8.65116 0.777161 0
M  V30 8947 H 276.009 -6.90173 0.474152 0
M  V30 8948 H 275.141 -7.66548 2.79458 0
M  V30 8949 P 271.178 -8.03563 3.84925 0
M  V30 8950 O 270.958 -8.85821 5.0569 0
M  V30 8951 O 270.388 -8.41101 2.65469 0
M  V30 8952 O 270.928 -6.4965 4.18908 0
M  V30 8953 C 271.868 -5.81037 5.05421 0
M  V30 8954 C 271.138 -4.78366 5.89277 0
M  V30 8955 O 270.928 -3.58302 5.08433 0
M  V30 8956 C 269.738 -5.17448 6.36119 0
M  V30 8957 O 269.348 -4.45271 7.53232 0
M  V30 8958 C 268.858 -4.74639 5.19936 0
M  V30 8959 C 269.568 -3.49432 4.70418 0
M  V30 8960 N 269.518 -3.31776 3.22945 0
M  V30 8961 H 272.357 -6.54213 5.71376 0
M  V30 8962 H 272.629 -5.30492 4.44033 0
M  V30 8963 H 271.761 -4.55889 6.76652 0
M  V30 8964 P 267.798 -4.23843 7.83734 0
M  V30 8965 O 267.578 -4.19407 9.29784 0
M  V30 8966 O 267.008 -5.24426 7.09156 0
M  V30 8967 O 267.548 -2.7935 7.20758 0
M  V30 8968 C 268.488 -1.7299 7.50419 0
M  V30 8969 C 267.758 -0.406376 7.57911 0
M  V30 8970 O 267.548 0.0897726 6.21935 0
M  V30 8971 C 266.358 -0.447224 8.1878 0
M  V30 8972 O 265.968 0.825065 8.71101 0
M  V30 8973 C 265.478 -0.783801 6.99623 0
M  V30 8974 C 266.188 -0.0619192 5.85967 0
M  V30 8975 N 266.138 -0.790462 4.56202 0
M  V30 8976 H 268.977 -1.93423 8.4679 0
M  V30 8977 H 269.249 -1.68852 6.70877 0
M  V30 8978 H 268.381 0.289041 8.15388 0
M  V30 8979 H 265.726 0.927006 5.72848 0
M  V30 8980 H 265.446 -1.86973 6.82036 0
M  V30 8981 H 264.455 -0.403953 7.13357 0
M  V30 8982 H 266.289 -1.20599 8.97534 0
M  V30 8983 P 264.418 1.17771 8.83182 0
M  V30 8984 O 264.198 2.07206 9.98732 0
M  V30 8985 O 263.628 -0.0743816 8.81969 0
M  V30 8986 O 264.168 1.97652 7.47304 0
M  V30 8987 C 265.108 3.01055 7.08599 0
M  V30 8988 C 264.378 4.12613 6.37049 0
M  V30 8989 O 264.168 3.72827 4.97879 0
M  V30 8990 C 262.978 4.45719 6.88164 0
M  V30 8991 O 262.588 5.7877 6.5624 0
M  V30 8992 C 262.098 3.47768 6.11991 0
M  V30 8993 C 262.808 3.39356 4.77615 0
M  V30 8994 N 262.758 2.04571 4.15244 0
M  V30 8995 C 262.608 1.98587 2.78314 0
M  V30 8996 O 262.518 2.98134 2.08835 0
M  V30 8997 N 262.568 0.714467 2.24925 0
M  V30 8998 C 262.658 -0.470001 2.94169 0
M  V30 8999 O 262.608 -1.55587 2.35195 0
M  V30 9000 C 262.808 -0.312541 4.36783 0
M  V30 9001 C 262.918 -1.57711 5.16352 0
M  V30 9002 C 262.858 0.914512 4.92583 0
M  V30 9003 H 265.599 3.41169 7.98575 0
M  V30 9004 H 265.868 2.58295 6.41556 0
M  V30 9005 H 265.001 5.02657 6.42673 0
M  V30 9006 H 262.346 4.11637 4.08885 0
M  V30 9007 H 262.067 2.49626 6.61679 0
M  V30 9008 H 261.075 3.86566 6.00778 0
M  V30 9009 H 262.909 4.29943 7.96918 0
M  V30 9010 H 262.98 1.00937 6.00374 0
M  V30 9011 H 261.95 -1.80153 5.63503 0
M  V30 9012 H 263.687 -1.4566 5.94104 0
M  V30 9013 H 263.199 -2.40664 4.49645 0
M  V30 9014 H 262.463 0.647622 1.25697 0
M  V30 9015 P 261.038 6.144 6.45285 0
M  V30 9016 O 260.818 7.54673 6.86199 0
M  V30 9017 O 260.248 5.12391 7.179 0
M  V30 9018 O 260.788 5.99158 4.88404 0
M  V30 9019 C 261.728 6.60234 3.96415 0
M  V30 9020 C 260.998 7.08259 2.72856 0
M  V30 9021 O 260.788 5.9427 1.83651 0
M  V30 9022 C 259.598 7.64886 2.9555 0
M  V30 9023 O 259.208 8.53963 1.90717 0
M  V30 9024 C 258.718 6.4116 2.90739 0
M  V30 9025 C 259.428 5.55375 1.86963 0
M  V30 9026 N 259.378 4.09664 2.15742 0
M  V30 9027 H 262.217 7.45574 4.45629 0
M  V30 9028 H 262.489 5.86232 3.67314 0
M  V30 9029 H 261.621 7.84412 2.24479 0
M  V30 9030 P 257.658 8.7635 1.60911 0
M  V30 9031 O 257.438 10.1388 1.11561 0
M  V30 9032 O 256.868 8.36503 2.79617 0
M  V30 9033 O 257.408 7.71806 0.42951 0
M  V30 9034 C 258.348 7.66948 -0.673514 0
M  V30 9035 C 257.618 7.33374 -1.95559 0
M  V30 9036 O 257.408 5.88721 -2.00726 0
M  V30 9037 C 256.218 7.92218 -2.1125 0
M  V30 9038 O 255.828 8.02971 -3.47653 0
M  V30 9039 C 255.338 6.89504 -1.41631 0
M  V30 9040 C 256.048 5.59106 -1.75155 0
M  V30 9041 N 255.998 4.58136 -0.662409 0
M  V30 9042 C 255.848 3.26059 -1.02863 0
M  V30 9043 O 255.758 2.90743 -2.19009 0
M  V30 9044 N 255.808 2.35995 0.0155585 0
M  V30 9045 C 255.898 2.65248 1.35603 0
M  V30 9046 O 255.848 1.75605 2.20651 0
M  V30 9047 C 256.048 4.05747 1.64698 0
M  V30 9048 C 256.158 4.42345 3.09553 0
M  V30 9049 C 256.098 4.96734 0.652411 0
M  V30 9050 H 258.839 8.64917 -0.776982 0
M  V30 9051 H 259.108 6.89974 -0.474015 0
M  V30 9052 H 258.241 7.66548 -2.79458 0
M  V30 9053 H 255.586 5.16076 -2.65138 0
M  V30 9054 H 255.307 7.06433 -0.329384 0
M  V30 9055 H 254.315 6.90829 -1.81996 0
M  V30 9056 H 256.149 8.90774 -1.62639 0
M  V30 9057 H 256.22 6.02181 0.895285 0
M  V30 9058 H 255.19 4.80252 3.45468 0
M  V30 9059 H 256.927 5.20015 3.22119 0
M  V30 9060 H 256.439 3.53269 3.67833 0
M  V30 9061 H 255.703 1.39558 -0.227499 0
M  V30 9062 P 254.279 8.03563 -3.84925 0
M  V30 9063 O 254.059 8.85821 -5.0569 0
M  V30 9064 O 253.489 8.41101 -2.65469 0
M  V30 9065 O 254.029 6.4965 -4.18908 0
M  V30 9066 C 254.969 5.81037 -5.05421 0
M  V30 9067 C 254.239 4.78366 -5.89277 0
M  V30 9068 O 254.029 3.58302 -5.08433 0
M  V30 9069 C 252.839 5.17448 -6.36119 0
M  V30 9070 O 252.449 4.45271 -7.53232 0
M  V30 9071 C 251.959 4.74639 -5.19936 0
M  V30 9072 C 252.669 3.49432 -4.70418 0
M  V30 9073 N 252.619 3.32099 -3.22613 0
M  V30 9074 H 255.458 6.54213 -5.71376 0
M  V30 9075 H 255.73 5.30936 -4.43503 0
M  V30 9076 H 254.862 4.55889 -6.76652 0
M  V30 9077 H 252.207 2.61715 -5.17932 0
M  V30 9078 H 251.927 5.52155 -4.41878 0
M  V30 9079 H 250.936 4.51981 -5.53374 0
M  V30 9080 H 252.77 6.25124 -6.55234 0
M  V30 9081 P 250.899 4.23843 -7.83734 0
M  V30 9082 O 250.679 4.19407 -9.29784 0
M  V30 9083 O 250.109 5.24426 -7.09156 0
M  V30 9084 O 250.649 2.79386 -7.20852 0
M  V30 9085 C 251.589 1.7299 -7.50419 0
M  V30 9086 C 250.859 0.41401 -7.5797 0
M  V30 9087 O 250.649 -0.089787 -6.22035 0
M  V30 9088 C 249.459 0.447224 -8.1878 0
M  V30 9089 O 249.069 -0.825159 -8.71201 0
M  V30 9090 C 248.579 0.783801 -6.99623 0
M  V30 9091 C 249.289 0.0619192 -5.85967 0
M  V30 9092 N 249.239 0.7859 -4.56281 0
M  V30 9093 C 249.089 0.0359258 -3.39981 0
M  V30 9094 O 248.999 -1.19723 -3.49038 0
M  V30 9095 N 249.039 0.869151 -2.14025 0
M  V30 9096 C 249.139 2.01207 -2.14363 0
M  V30 9097 N 249.089 2.58978 -0.954287 0
M  V30 9098 C 249.289 2.80817 -3.32215 0
M  V30 9099 C 249.339 2.13785 -4.50884 0
M  V30 9100 H 252.079 1.93401 -8.46693 0
M  V30 9101 H 252.349 1.68181 -6.71046 0
M  V30 9102 H 251.482 -0.289076 -8.15488 0
M  V30 9103 H 248.827 -0.927166 -5.72947 0
M  V30 9104 H 248.547 1.87 -6.82132 0
M  V30 9105 H 247.556 0.404009 -7.13457 0
M  V30 9106 H 249.39 1.20599 -8.97534 0
M  V30 9107 H 249.462 2.70295 -5.43162 0
M  V30 9108 H 249.36 3.89465 -3.27406 0
M  V30 9109 H 248.972 2.01616 -0.107046 0
M  V30 9110 H 249.168 3.61403 -0.873101 0
M  V30 9111 P 247.519 -1.17771 -8.83182 0
M  V30 9112 O 247.299 -2.07206 -9.98732 0
M  V30 9113 O 246.729 0.0743816 -8.81969 0
M  V30 9114 O 247.269 -1.97652 -7.47304 0
M  V30 9115 C 248.209 -3.01133 -7.08783 0
M  V30 9116 C 247.479 -4.12613 -6.37049 0
M  V30 9117 O 247.269 -3.72827 -4.97879 0
M  V30 9118 C 246.079 -4.45085 -6.88694 0
M  V30 9119 O 245.689 -5.7877 -6.5624 0
M  V30 9120 C 245.199 -3.47817 -6.12078 0
M  V30 9121 C 245.909 -3.39414 -4.77697 0
M  V30 9122 N 245.859 -2.04615 -4.15333 0
M  V30 9123 H 248.698 -3.41248 -7.98759 0
M  V30 9124 H 248.97 -2.5837 -6.41742 0
M  V30 9125 H 248.102 -5.02657 -6.42673 0
M  V30 9126 P 244.139 -6.144 -6.45285 0
M  V30 9127 O 243.919 -7.54673 -6.86199 0
M  V30 9128 O 243.349 -5.12391 -7.179 0
M  V30 9129 O 243.889 -5.99158 -4.88404 0
M  V30 9130 C 244.829 -6.60234 -3.96415 0
M  V30 9131 C 244.099 -7.08259 -2.72856 0
M  V30 9132 O 243.889 -5.9427 -1.83651 0
M  V30 9133 C 242.699 -7.64886 -2.9555 0
M  V30 9134 O 242.309 -8.53963 -1.90717 0
M  V30 9135 C 241.819 -6.4116 -2.90739 0
M  V30 9136 C 242.529 -5.55375 -1.86963 0
M  V30 9137 N 242.479 -4.09664 -2.15742 0
M  V30 9138 H 245.318 -7.45574 -4.45629 0
M  V30 9139 H 245.59 -5.86232 -3.67314 0
M  V30 9140 H 244.722 -7.84412 -2.24479 0
M  V30 9141 P 240.759 -8.7635 -1.60911 0
M  V30 9142 O 240.539 -10.1388 -1.11561 0
M  V30 9143 O 239.969 -8.36503 -2.79617 0
M  V30 9144 O 240.509 -7.71806 -0.42951 0
M  V30 9145 C 241.449 -7.67148 0.673689 0
M  V30 9146 C 240.719 -7.33374 1.95559 0
M  V30 9147 O 240.509 -5.88721 2.00726 0
M  V30 9148 C 239.319 -7.92526 2.10483 0
M  V30 9149 O 238.929 -8.02971 3.47653 0
M  V30 9150 C 238.439 -6.89602 1.41652 0
M  V30 9151 C 239.149 -5.59201 1.75185 0
M  V30 9152 N 239.099 -4.58235 0.662552 0
M  V30 9153 H 241.938 -8.65116 0.777161 0
M  V30 9154 H 242.21 -6.90173 0.474152 0
M  V30 9155 H 241.342 -7.66548 2.79458 0
M  V30 9156 P 237.379 -8.03563 3.84925 0
M  V30 9157 O 237.159 -8.85821 5.0569 0
M  V30 9158 O 236.589 -8.41101 2.65469 0
M  V30 9159 O 237.129 -6.4965 4.18908 0
M  V30 9160 C 238.069 -5.81037 5.05421 0
M  V30 9161 C 237.339 -4.78366 5.89277 0
M  V30 9162 O 237.129 -3.58302 5.08433 0
M  V30 9163 C 235.939 -5.17448 6.36119 0
M  V30 9164 O 235.549 -4.45271 7.53232 0
M  V30 9165 C 235.059 -4.74639 5.19936 0
M  V30 9166 C 235.769 -3.49432 4.70418 0
M  V30 9167 N 235.719 -3.32099 3.22613 0
M  V30 9168 C 235.799 -4.28245 2.25527 0
M  V30 9169 N 235.729 -3.80823 1.04874 0
M  V30 9170 C 235.579 -2.44571 1.23535 0
M  V30 9171 C 235.449 -1.37068 0.330675 0
M  V30 9172 N 235.439 -1.51472 -0.990824 0
M  V30 9173 N 235.329 -0.138614 0.848756 0
M  V30 9174 C 235.339 0.00675923 2.16999 0
M  V30 9175 N 235.459 -0.904372 3.11122 0
M  V30 9176 C 235.579 -2.12707 2.56212 0
M  V30 9177 H 238.558 -6.54213 5.71376 0
M  V30 9178 H 238.83 -5.30936 4.43503 0
M  V30 9179 H 237.962 -4.55889 6.76652 0
M  V30 9180 H 235.307 -2.61715 5.17932 0
M  V30 9181 H 235.027 -5.52155 4.41878 0
M  V30 9182 H 234.036 -4.51981 5.53374 0
M  V30 9183 H 235.87 -6.25124 6.55234 0
M  V30 9184 H 235.911 -5.34372 2.47488 0
M  V30 9185 H 235.53 -2.45153 -1.4078 0
M  V30 9186 H 235.341 -0.688422 -1.59911 0
M  V30 9187 H 235.233 1.02584 2.52346 0
M  V30 9188 P 233.999 -4.23843 7.83734 0
M  V30 9189 O 233.779 -4.19407 9.29784 0
M  V30 9190 O 233.209 -5.24426 7.09156 0
M  V30 9191 O 233.749 -2.7935 7.20758 0
M  V30 9192 C 234.689 -1.7299 7.50419 0
M  V30 9193 C 233.959 -0.406376 7.57911 0
M  V30 9194 O 233.749 0.0897726 6.21935 0
M  V30 9195 C 232.559 -0.447224 8.1878 0
M  V30 9196 O 232.169 0.825065 8.71101 0
M  V30 9197 C 231.679 -0.783801 6.99623 0
M  V30 9198 C 232.389 -0.0619192 5.85967 0
M  V30 9199 N 232.339 -0.7859 4.56281 0
M  V30 9200 C 232.419 -2.14308 4.31736 0
M  V30 9201 N 232.339 -2.46106 3.05116 0
M  V30 9202 C 232.199 -1.23422 2.4014 0
M  V30 9203 C 232.069 -0.938381 1.02409 0
M  V30 9204 N 231.949 0.444647 0.805413 0
M  V30 9205 C 231.949 1.40829 1.79435 0
M  V30 9206 N 231.819 2.67213 1.38558 0
M  V30 9207 N 232.079 1.12947 3.09005 0
M  V30 9208 C 232.199 -0.204887 3.32369 0
M  V30 9209 H 235.178 -1.93423 8.4679 0
M  V30 9210 H 235.45 -1.68181 6.71046 0
M  V30 9211 H 234.582 0.289041 8.15388 0
M  V30 9212 P 230.619 1.17771 8.83182 0
M  V30 9213 O 230.399 2.07206 9.98732 0
M  V30 9214 O 229.829 -0.0743816 8.81969 0
M  V30 9215 O 230.369 1.97652 7.47304 0
M  V30 9216 C 231.309 3.01133 7.08783 0
M  V30 9217 C 230.579 4.12613 6.37049 0
M  V30 9218 O 230.369 3.72827 4.97879 0
M  V30 9219 C 229.179 4.45085 6.88694 0
M  V30 9220 O 228.789 5.7877 6.5624 0
M  V30 9221 C 228.299 3.47817 6.12078 0
M  V30 9222 C 229.009 3.39414 4.77697 0
M  V30 9223 N 228.959 2.04199 4.15538 0
M  V30 9224 H 231.798 3.41248 7.98759 0
M  V30 9225 H 232.07 2.57728 6.42 0
M  V30 9226 H 231.202 5.02657 6.42673 0
M  V30 9227 H 228.547 4.11708 4.08956 0
M  V30 9228 H 228.267 2.49626 6.61679 0
M  V30 9229 H 227.276 3.8662 6.00862 0
M  V30 9230 H 229.11 4.29991 7.97006 0
M  V30 9231 P 227.239 6.144 6.45285 0
M  V30 9232 O 227.019 7.54673 6.86199 0
M  V30 9233 O 226.449 5.12391 7.179 0
M  V30 9234 O 226.989 5.99158 4.88404 0
M  V30 9235 C 227.929 6.60234 3.96415 0
M  V30 9236 C 227.199 7.08259 2.72856 0
M  V30 9237 O 226.989 5.9427 1.83651 0
M  V30 9238 C 225.799 7.64886 2.9555 0
M  V30 9239 O 225.409 8.53963 1.90717 0
M  V30 9240 C 224.919 6.4116 2.90739 0
M  V30 9241 C 225.629 5.55375 1.86963 0
M  V30 9242 N 225.579 4.09664 2.15742 0
M  V30 9243 C 225.659 3.44381 3.37233 0
M  V30 9244 N 225.579 2.14131 3.28347 0
M  V30 9245 C 225.439 1.90247 1.91588 0
M  V30 9246 C 225.309 0.683992 1.20892 0
M  V30 9247 O 225.289 -0.46618 1.64523 0
M  V30 9248 N 225.189 0.903396 -0.173998 0
M  V30 9249 C 225.189 2.14171 -0.784879 0
M  V30 9250 N 225.059 2.1435 -2.11317 0
M  V30 9251 N 225.319 3.28784 -0.119316 0
M  V30 9252 C 225.439 3.0977 1.22194 0
M  V30 9253 H 228.418 7.45574 4.45629 0
M  V30 9254 H 228.69 5.86232 3.67314 0
M  V30 9255 H 227.822 7.84412 2.24479 0
M  V30 9256 H 225.167 5.73556 0.888715 0
M  V30 9257 H 224.887 5.9096 3.88638 0
M  V30 9258 H 223.896 6.66053 2.58894 0
M  V30 9259 H 225.73 8.16429 3.92093 0
M  V30 9260 H 225.779 3.96785 4.32043 0
M  V30 9261 H 225.097 0.0999567 -0.761467 0
M  V30 9262 H 225.06 3.03436 -2.63076 0
M  V30 9263 H 224.959 1.25228 -2.62233 0
M  V30 9264 P 223.859 8.7635 1.60911 0
M  V30 9265 O 223.639 10.1388 1.11561 0
M  V30 9266 O 223.069 8.36503 2.79617 0
M  V30 9267 O 223.609 7.71806 0.42951 0
M  V30 9268 C 224.549 7.67148 -0.673689 0
M  V30 9269 C 223.819 7.33374 -1.95559 0
M  V30 9270 O 223.609 5.88721 -2.00726 0
M  V30 9271 C 222.419 7.92526 -2.10483 0
M  V30 9272 O 222.029 8.02971 -3.47653 0
M  V30 9273 C 221.539 6.89602 -1.41652 0
M  V30 9274 C 222.249 5.59201 -1.75185 0
M  V30 9275 N 222.199 4.58301 -0.657969 0
M  V30 9276 H 225.038 8.65116 -0.777161 0
M  V30 9277 H 225.31 6.9022 -0.46725 0
M  V30 9278 H 224.442 7.66548 -2.79458 0
M  V30 9279 H 221.787 5.16165 -2.65183 0
M  V30 9280 H 221.507 7.06433 -0.329384 0
M  V30 9281 H 220.516 6.90926 -1.82021 0
M  V30 9282 H 222.35 8.90873 -1.62657 0
M  V30 9283 P 220.479 8.03563 -3.84925 0
M  V30 9284 O 220.259 8.85821 -5.0569 0
M  V30 9285 O 219.689 8.41101 -2.65469 0
M  V30 9286 O 220.229 6.4965 -4.18908 0
M  V30 9287 C 221.169 5.81037 -5.05421 0
M  V30 9288 C 220.439 4.78366 -5.89277 0
M  V30 9289 O 220.229 3.58302 -5.08433 0
M  V30 9290 C 219.039 5.17448 -6.36119 0
M  V30 9291 O 218.649 4.45271 -7.53232 0
M  V30 9292 C 218.159 4.74639 -5.19936 0
M  V30 9293 C 218.869 3.49432 -4.70418 0
M  V30 9294 N 218.819 3.31776 -3.22945 0
M  V30 9295 H 221.658 6.54213 -5.71376 0
M  V30 9296 H 221.93 5.30492 -4.44033 0
M  V30 9297 H 221.062 4.55889 -6.76652 0
M  V30 9298 P 217.099 4.23843 -7.83734 0
M  V30 9299 O 216.879 4.19407 -9.29784 0
M  V30 9300 O 216.309 5.24426 -7.09156 0
M  V30 9301 O 216.849 2.79386 -7.20852 0
M  V30 9302 C 217.789 1.7299 -7.50419 0
M  V30 9303 C 217.059 0.41401 -7.5797 0
M  V30 9304 O 216.849 -0.089787 -6.22035 0
M  V30 9305 C 215.659 0.447224 -8.1878 0
M  V30 9306 O 215.269 -0.825159 -8.71201 0
M  V30 9307 C 214.779 0.783801 -6.99623 0
M  V30 9308 C 215.489 0.0619192 -5.85967 0
M  V30 9309 N 215.439 0.7859 -4.56281 0
M  V30 9310 C 215.289 0.0359258 -3.39981 0
M  V30 9311 O 215.199 -1.19723 -3.49038 0
M  V30 9312 N 215.239 0.869151 -2.14025 0
M  V30 9313 C 215.339 2.01207 -2.14363 0
M  V30 9314 N 215.289 2.58978 -0.954287 0
M  V30 9315 C 215.489 2.80817 -3.32215 0
M  V30 9316 C 215.539 2.13785 -4.50884 0
M  V30 9317 H 218.279 1.93401 -8.46693 0
M  V30 9318 H 218.549 1.68181 -6.71046 0
M  V30 9319 H 217.682 -0.289076 -8.15488 0
M  V30 9320 H 215.027 -0.927166 -5.72947 0
M  V30 9321 H 214.747 1.87 -6.82132 0
M  V30 9322 H 213.756 0.404009 -7.13457 0
M  V30 9323 H 215.59 1.20599 -8.97534 0
M  V30 9324 H 215.662 2.70295 -5.43162 0
M  V30 9325 H 215.56 3.89465 -3.27406 0
M  V30 9326 H 215.172 2.01616 -0.107046 0
M  V30 9327 H 215.368 3.61403 -0.873101 0
M  V30 9328 P 213.719 -1.17771 -8.83182 0
M  V30 9329 O 213.499 -2.07206 -9.98732 0
M  V30 9330 O 212.929 0.0743816 -8.81969 0
M  V30 9331 O 213.469 -1.97652 -7.47304 0
M  V30 9332 C 214.409 -3.01133 -7.08783 0
M  V30 9333 C 213.679 -4.12613 -6.37049 0
M  V30 9334 O 213.469 -3.72827 -4.97879 0
M  V30 9335 C 212.279 -4.45085 -6.88694 0
M  V30 9336 O 211.889 -5.7877 -6.5624 0
M  V30 9337 C 211.399 -3.47817 -6.12078 0
M  V30 9338 C 212.109 -3.39414 -4.77697 0
M  V30 9339 N 212.059 -2.04615 -4.15333 0
M  V30 9340 H 214.898 -3.41248 -7.98759 0
M  V30 9341 H 215.17 -2.5837 -6.41742 0
M  V30 9342 H 214.302 -5.02657 -6.42673 0
M  V30 9343 P 210.339 -6.144 -6.45285 0
M  V30 9344 O 210.119 -7.54673 -6.86199 0
M  V30 9345 O 209.549 -5.12391 -7.179 0
M  V30 9346 O 210.089 -5.99158 -4.88404 0
M  V30 9347 C 211.029 -6.60062 -3.96313 0
M  V30 9348 C 210.299 -7.08259 -2.72856 0
M  V30 9349 O 210.089 -5.9427 -1.83651 0
M  V30 9350 C 208.899 -7.65087 -2.94749 0
M  V30 9351 O 208.509 -8.53963 -1.90717 0
M  V30 9352 C 208.019 -6.41069 -2.90698 0
M  V30 9353 C 208.729 -5.5528 -1.86931 0
M  V30 9354 N 208.679 -4.09575 -2.15696 0
M  V30 9355 C 208.529 -3.24249 -1.08435 0
M  V30 9356 O 208.439 -3.63946 0.0628747 0
M  V30 9357 N 208.489 -1.90009 -1.39973 0
M  V30 9358 C 208.579 -1.34884 -2.65614 0
M  V30 9359 O 208.529 -0.123716 -2.81728 0
M  V30 9360 C 208.729 -2.3145 -3.71736 0
M  V30 9361 C 208.839 -1.75913 -5.10438 0
M  V30 9362 C 208.779 -3.63518 -3.44754 0
M  V30 9363 H 211.52 -7.45402 -4.45526 0
M  V30 9364 H 211.789 -5.86062 -3.67208 0
M  V30 9365 H 210.922 -7.84412 -2.24479 0
M  V30 9366 H 208.267 -5.73358 -0.888409 0
M  V30 9367 H 207.988 -5.90877 -3.88583 0
M  V30 9368 H 206.996 -6.65867 -2.58821 0
M  V30 9369 H 208.83 -8.16248 -3.92006 0
M  V30 9370 H 208.901 -4.34551 -4.26383 0
M  V30 9371 H 207.871 -1.85471 -5.61775 0
M  V30 9372 H 209.608 -2.31364 -5.66257 0
M  V30 9373 H 209.12 -0.695936 -5.05229 0
M  V30 9374 H 208.384 -1.26277 -0.63625 0
M  V30 9375 P 206.959 -8.7635 -1.60911 0
M  V30 9376 O 206.739 -10.1388 -1.11561 0
M  V30 9377 O 206.169 -8.36503 -2.79617 0
M  V30 9378 O 206.709 -7.71806 -0.42951 0
M  V30 9379 C 207.649 -7.66948 0.673514 0
M  V30 9380 C 206.919 -7.33374 1.95559 0
M  V30 9381 O 206.709 -5.88721 2.00726 0
M  V30 9382 C 205.519 -7.92218 2.1125 0
M  V30 9383 O 205.129 -8.02971 3.47653 0
M  V30 9384 C 204.639 -6.89504 1.41631 0
M  V30 9385 C 205.349 -5.59106 1.75155 0
M  V30 9386 N 205.299 -4.58136 0.662409 0
M  V30 9387 C 205.149 -3.26059 1.02863 0
M  V30 9388 O 205.059 -2.90743 2.19009 0
M  V30 9389 N 205.109 -2.35995 -0.0155585 0
M  V30 9390 C 205.199 -2.65248 -1.35603 0
M  V30 9391 C 205.349 -4.05747 -1.64698 0
M  V30 9392 C 205.399 -4.96734 -0.652411 0
M  V30 9393 H 208.14 -8.64917 0.776982 0
M  V30 9394 H 208.409 -6.89974 0.474015 0
M  V30 9395 H 207.542 -7.66548 2.79458 0
M  V30 9396 H 204.887 -5.16076 2.65138 0
M  V30 9397 H 204.608 -7.06433 0.329384 0
M  V30 9398 H 203.616 -6.90829 1.81996 0
M  V30 9399 H 205.45 -8.90774 1.62639 0
M  V30 9400 H 205.521 -6.02181 -0.895285 0
M  V30 9401 P 203.579 -8.03563 3.84925 0
M  V30 9402 O 203.359 -8.85821 5.0569 0
M  V30 9403 O 202.789 -8.41101 2.65469 0
M  V30 9404 O 203.329 -6.4965 4.18908 0
M  V30 9405 C 204.269 -5.81037 5.05421 0
M  V30 9406 C 203.539 -4.78366 5.89277 0
M  V30 9407 O 203.329 -3.58302 5.08433 0
M  V30 9408 C 202.139 -5.17448 6.36119 0
M  V30 9409 O 201.749 -4.45271 7.53232 0
M  V30 9410 C 201.259 -4.74639 5.19936 0
M  V30 9411 C 201.969 -3.49432 4.70418 0
M  V30 9412 N 201.919 -3.31776 3.22945 0
M  V30 9413 H 204.758 -6.54213 5.71376 0
M  V30 9414 H 205.03 -5.30492 4.44033 0
M  V30 9415 H 204.162 -4.55889 6.76652 0
M  V30 9416 P 200.199 -4.23843 7.83734 0
M  V30 9417 O 199.979 -4.19407 9.29784 0
M  V30 9418 O 199.409 -5.24426 7.09156 0
M  V30 9419 O 199.949 -2.7935 7.20758 0
M  V30 9420 C 200.889 -1.7299 7.50419 0
M  V30 9421 C 200.159 -0.406376 7.57911 0
M  V30 9422 O 199.949 0.0897726 6.21935 0
M  V30 9423 C 198.759 -0.447224 8.1878 0
M  V30 9424 O 198.369 0.825065 8.71101 0
M  V30 9425 C 197.879 -0.783801 6.99623 0
M  V30 9426 C 198.589 -0.0619192 5.85967 0
M  V30 9427 N 198.539 -0.7859 4.56281 0
M  V30 9428 H 201.378 -1.93423 8.4679 0
M  V30 9429 H 201.65 -1.68181 6.71046 0
M  V30 9430 H 200.782 0.289041 8.15388 0
M  V30 9431 P 196.819 1.17771 8.83182 0
M  V30 9432 O 196.599 2.07206 9.98732 0
M  V30 9433 O 196.029 -0.0743816 8.81969 0
M  V30 9434 O 196.569 1.97652 7.47304 0
M  V30 9435 C 197.509 3.01055 7.08599 0
M  V30 9436 C 196.779 4.12613 6.37049 0
M  V30 9437 O 196.569 3.72827 4.97879 0
M  V30 9438 C 195.379 4.45719 6.88164 0
M  V30 9439 O 194.989 5.7877 6.5624 0
M  V30 9440 C 194.499 3.47768 6.11991 0
M  V30 9441 C 195.209 3.39356 4.77615 0
M  V30 9442 N 195.159 2.04571 4.15244 0
M  V30 9443 C 195.009 1.98587 2.78314 0
M  V30 9444 O 194.919 2.98134 2.08835 0
M  V30 9445 N 194.969 0.714467 2.24925 0
M  V30 9446 C 195.059 -0.470001 2.94169 0
M  V30 9447 C 195.209 -0.312541 4.36783 0
M  V30 9448 C 195.259 0.914512 4.92583 0
M  V30 9449 H 198 3.41169 7.98575 0
M  V30 9450 H 198.269 2.58295 6.41556 0
M  V30 9451 H 197.402 5.02657 6.42673 0
M  V30 9452 H 194.747 4.11637 4.08885 0
M  V30 9453 H 194.468 2.49626 6.61679 0
M  V30 9454 H 193.476 3.86566 6.00778 0
M  V30 9455 H 195.31 4.29943 7.96918 0
M  V30 9456 H 195.381 1.00937 6.00374 0
M  V30 9457 P 193.439 6.144 6.45285 0
M  V30 9458 O 193.219 7.54673 6.86199 0
M  V30 9459 O 192.649 5.12391 7.179 0
M  V30 9460 O 193.189 5.99158 4.88404 0
M  V30 9461 C 194.129 6.60234 3.96415 0
M  V30 9462 C 193.399 7.08259 2.72856 0
M  V30 9463 O 193.189 5.9427 1.83651 0
M  V30 9464 C 191.999 7.64886 2.9555 0
M  V30 9465 O 191.609 8.53963 1.90717 0
M  V30 9466 C 191.119 6.4116 2.90739 0
M  V30 9467 C 191.829 5.55375 1.86963 0
M  V30 9468 N 191.779 4.09664 2.15742 0
M  V30 9469 H 194.618 7.45574 4.45629 0
M  V30 9470 H 194.89 5.86232 3.67314 0
M  V30 9471 H 194.022 7.84412 2.24479 0
M  V30 9472 P 190.059 8.7635 1.60911 0
M  V30 9473 O 189.839 10.1388 1.11561 0
M  V30 9474 O 189.269 8.36503 2.79617 0
M  V30 9475 O 189.809 7.71806 0.42951 0
M  V30 9476 C 190.749 7.67148 -0.673689 0
M  V30 9477 C 190.019 7.33374 -1.95559 0
M  V30 9478 O 189.809 5.88721 -2.00726 0
M  V30 9479 C 188.619 7.92526 -2.10483 0
M  V30 9480 O 188.229 8.02971 -3.47653 0
M  V30 9481 C 187.739 6.89602 -1.41652 0
M  V30 9482 C 188.449 5.59201 -1.75185 0
M  V30 9483 N 188.399 4.58301 -0.657969 0
M  V30 9484 H 191.238 8.65116 -0.777161 0
M  V30 9485 H 191.51 6.9022 -0.46725 0
M  V30 9486 H 190.642 7.66548 -2.79458 0
M  V30 9487 H 187.987 5.16165 -2.65183 0
M  V30 9488 H 187.707 7.06433 -0.329384 0
M  V30 9489 H 186.716 6.90926 -1.82021 0
M  V30 9490 H 188.55 8.90873 -1.62657 0
M  V30 9491 P 186.679 8.03563 -3.84925 0
M  V30 9492 O 186.459 8.85821 -5.0569 0
M  V30 9493 O 185.889 8.41101 -2.65469 0
M  V30 9494 O 186.429 6.4965 -4.18908 0
M  V30 9495 C 187.369 5.81037 -5.05421 0
M  V30 9496 C 186.639 4.78366 -5.89277 0
M  V30 9497 O 186.429 3.58302 -5.08433 0
M  V30 9498 C 185.239 5.17448 -6.36119 0
M  V30 9499 O 184.849 4.45271 -7.53232 0
M  V30 9500 C 184.359 4.74639 -5.19936 0
M  V30 9501 C 185.069 3.49432 -4.70418 0
M  V30 9502 N 185.019 3.31776 -3.22945 0
M  V30 9503 H 187.858 6.54213 -5.71376 0
M  V30 9504 H 188.13 5.30492 -4.44033 0
M  V30 9505 H 187.262 4.55889 -6.76652 0
M  V30 9506 P 183.299 4.23843 -7.83734 0
M  V30 9507 O 183.079 4.19407 -9.29784 0
M  V30 9508 O 182.509 5.24426 -7.09156 0
M  V30 9509 O 183.049 2.79386 -7.20852 0
M  V30 9510 C 183.989 1.7299 -7.50419 0
M  V30 9511 C 183.259 0.41401 -7.5797 0
M  V30 9512 O 183.049 -0.089787 -6.22035 0
M  V30 9513 C 181.859 0.447224 -8.1878 0
M  V30 9514 O 181.469 -0.825159 -8.71201 0
M  V30 9515 C 180.979 0.783801 -6.99623 0
M  V30 9516 C 181.689 0.0619192 -5.85967 0
M  V30 9517 N 181.639 0.7859 -4.56281 0
M  V30 9518 C 181.489 0.0359258 -3.39981 0
M  V30 9519 O 181.399 -1.19723 -3.49038 0
M  V30 9520 N 181.439 0.869151 -2.14025 0
M  V30 9521 C 181.539 2.01207 -2.14363 0
M  V30 9522 N 181.489 2.58978 -0.954287 0
M  V30 9523 C 181.689 2.80817 -3.32215 0
M  V30 9524 C 181.739 2.13785 -4.50884 0
M  V30 9525 H 184.479 1.93401 -8.46693 0
M  V30 9526 H 184.749 1.68181 -6.71046 0
M  V30 9527 H 183.882 -0.289076 -8.15488 0
M  V30 9528 H 181.227 -0.927166 -5.72947 0
M  V30 9529 H 180.947 1.87 -6.82132 0
M  V30 9530 H 179.956 0.404009 -7.13457 0
M  V30 9531 H 181.79 1.20599 -8.97534 0
M  V30 9532 H 181.862 2.70295 -5.43162 0
M  V30 9533 H 181.76 3.89465 -3.27406 0
M  V30 9534 H 181.372 2.01616 -0.107046 0
M  V30 9535 H 181.568 3.61403 -0.873101 0
M  V30 9536 P 179.919 -1.17771 -8.83182 0
M  V30 9537 O 179.699 -2.07206 -9.98732 0
M  V30 9538 O 179.129 0.0743816 -8.81969 0
M  V30 9539 O 179.669 -1.97652 -7.47304 0
M  V30 9540 C 180.609 -3.01055 -7.08599 0
M  V30 9541 C 179.879 -4.12613 -6.37049 0
M  V30 9542 O 179.669 -3.72827 -4.97879 0
M  V30 9543 C 178.479 -4.45719 -6.88164 0
M  V30 9544 O 178.089 -5.7877 -6.5624 0
M  V30 9545 C 177.599 -3.47768 -6.11991 0
M  V30 9546 C 178.309 -3.39356 -4.77615 0
M  V30 9547 N 178.259 -2.04571 -4.15244 0
M  V30 9548 C 178.109 -1.98587 -2.78314 0
M  V30 9549 O 178.019 -2.98134 -2.08835 0
M  V30 9550 N 178.069 -0.714467 -2.24925 0
M  V30 9551 C 178.159 0.470001 -2.94169 0
M  V30 9552 O 178.109 1.55587 -2.35195 0
M  V30 9553 C 178.309 0.312541 -4.36783 0
M  V30 9554 C 178.419 1.57711 -5.16352 0
M  V30 9555 C 178.359 -0.914512 -4.92583 0
M  V30 9556 H 181.1 -3.41169 -7.98575 0
M  V30 9557 H 181.369 -2.58295 -6.41556 0
M  V30 9558 H 180.502 -5.02657 -6.42673 0
M  V30 9559 H 177.847 -4.11637 -4.08885 0
M  V30 9560 H 177.568 -2.49626 -6.61679 0
M  V30 9561 H 176.576 -3.86566 -6.00778 0
M  V30 9562 H 178.41 -4.29943 -7.96918 0
M  V30 9563 H 178.481 -1.00937 -6.00374 0
M  V30 9564 H 177.451 1.80153 -5.63503 0
M  V30 9565 H 179.188 1.4566 -5.94104 0
M  V30 9566 H 178.7 2.40664 -4.49645 0
M  V30 9567 H 177.964 -0.647622 -1.25697 0
M  V30 9568 P 176.539 -6.144 -6.45285 0
M  V30 9569 O 176.319 -7.54673 -6.86199 0
M  V30 9570 O 175.749 -5.12391 -7.179 0
M  V30 9571 O 176.289 -5.99158 -4.88404 0
M  V30 9572 C 177.229 -6.60234 -3.96415 0
M  V30 9573 C 176.499 -7.08259 -2.72856 0
M  V30 9574 O 176.289 -5.9427 -1.83651 0
M  V30 9575 C 175.099 -7.64886 -2.9555 0
M  V30 9576 O 174.709 -8.53963 -1.90717 0
M  V30 9577 C 174.219 -6.4116 -2.90739 0
M  V30 9578 C 174.929 -5.55375 -1.86963 0
M  V30 9579 N 174.879 -4.09448 -2.16152 0
M  V30 9580 H 177.718 -7.45574 -4.45629 0
M  V30 9581 H 177.99 -5.85864 -3.679 0
M  V30 9582 H 177.122 -7.84412 -2.24479 0
M  V30 9583 H 174.467 -5.73457 -0.888562 0
M  V30 9584 H 174.187 -5.90877 -3.88583 0
M  V30 9585 H 173.196 -6.6596 -2.58858 0
M  V30 9586 H 175.03 -8.16339 -3.92049 0
M  V30 9587 P 173.159 -8.7635 -1.60911 0
M  V30 9588 O 172.939 -10.1388 -1.11561 0
M  V30 9589 O 172.369 -8.36503 -2.79617 0
M  V30 9590 O 172.909 -7.71806 -0.42951 0
M  V30 9591 C 173.849 -7.67148 0.673689 0
M  V30 9592 C 173.119 -7.33374 1.95559 0
M  V30 9593 O 172.909 -5.88721 2.00726 0
M  V30 9594 C 171.719 -7.92526 2.10483 0
M  V30 9595 O 171.329 -8.02971 3.47653 0
M  V30 9596 C 170.839 -6.89602 1.41652 0
M  V30 9597 C 171.549 -5.59201 1.75185 0
M  V30 9598 N 171.499 -4.58235 0.662552 0
M  V30 9599 H 174.338 -8.65116 0.777161 0
M  V30 9600 H 174.61 -6.90173 0.474152 0
M  V30 9601 H 173.742 -7.66548 2.79458 0
M  V30 9602 P 169.779 -8.03563 3.84925 0
M  V30 9603 O 169.559 -8.85821 5.0569 0
M  V30 9604 O 168.989 -8.41101 2.65469 0
M  V30 9605 O 169.529 -6.49734 4.18962 0
M  V30 9606 C 170.469 -5.81037 5.05421 0
M  V30 9607 C 169.739 -4.79018 5.88876 0
M  V30 9608 O 169.529 -3.58359 5.08515 0
M  V30 9609 C 168.339 -5.17448 6.36119 0
M  V30 9610 O 167.949 -4.45322 7.53318 0
M  V30 9611 C 167.459 -4.74639 5.19936 0
M  V30 9612 C 168.169 -3.49432 4.70418 0
M  V30 9613 N 168.119 -3.31776 3.22945 0
M  V30 9614 C 167.969 -2.02742 2.72939 0
M  V30 9615 O 167.879 -1.08301 3.52749 0
M  V30 9616 N 167.919 -1.96117 1.22063 0
M  V30 9617 C 168.019 -2.8878 0.551566 0
M  V30 9618 N 167.969 -2.65609 -0.750198 0
M  V30 9619 C 168.169 -4.22457 1.03707 0
M  V30 9620 C 168.219 -4.37979 2.39113 0
M  V30 9621 H 170.959 -6.54138 5.7131 0
M  V30 9622 H 171.229 -5.30492 4.44033 0
M  V30 9623 H 170.362 -4.55945 6.76735 0
M  V30 9624 H 167.707 -2.6176 5.18021 0
M  V30 9625 H 167.427 -5.52233 4.41941 0
M  V30 9626 H 166.436 -4.52045 5.53452 0
M  V30 9627 H 168.27 -6.25124 6.55234 0
M  V30 9628 H 168.342 -5.37936 2.80552 0
M  V30 9629 H 168.24 -5.07528 0.359553 0
M  V30 9630 H 167.852 -1.69403 -1.09847 0
M  V30 9631 H 168.048 -3.43701 -1.41792 0
M  V30 9632 P 166.399 -4.23843 7.83734 0
M  V30 9633 O 166.179 -4.19407 9.29784 0
M  V30 9634 O 165.609 -5.24426 7.09156 0
M  V30 9635 O 166.149 -2.79386 7.20852 0
M  V30 9636 C 167.089 -1.7299 7.50419 0
M  V30 9637 C 166.359 -0.41401 7.5797 0
M  V30 9638 O 166.149 0.089787 6.22035 0
M  V30 9639 C 164.959 -0.447224 8.1878 0
M  V30 9640 O 164.569 0.825159 8.71201 0
M  V30 9641 C 164.079 -0.783801 6.99623 0
M  V30 9642 C 164.789 -0.0619192 5.85967 0
M  V30 9643 N 164.739 -0.7859 4.56281 0
M  V30 9644 C 164.589 -0.0359258 3.39981 0
M  V30 9645 O 164.499 1.19723 3.49038 0
M  V30 9646 N 164.539 -0.869151 2.14025 0
M  V30 9647 C 164.639 -2.01207 2.14363 0
M  V30 9648 N 164.589 -2.58978 0.954287 0
M  V30 9649 C 164.789 -2.80817 3.32215 0
M  V30 9650 C 164.839 -2.13785 4.50884 0
M  V30 9651 H 167.579 -1.93401 8.46693 0
M  V30 9652 H 167.849 -1.68181 6.71046 0
M  V30 9653 H 166.982 0.289076 8.15488 0
M  V30 9654 H 164.327 0.927166 5.72947 0
M  V30 9655 H 164.047 -1.87 6.82132 0
M  V30 9656 H 163.056 -0.404009 7.13457 0
M  V30 9657 H 164.89 -1.20599 8.97534 0
M  V30 9658 H 164.962 -2.70295 5.43162 0
M  V30 9659 H 164.86 -3.89465 3.27406 0
M  V30 9660 H 164.472 -2.01616 0.107046 0
M  V30 9661 H 164.668 -3.61403 0.873101 0
M  V30 9662 P 163.019 1.17771 8.83182 0
M  V30 9663 O 162.799 2.07206 9.98732 0
M  V30 9664 O 162.229 -0.0743816 8.81969 0
M  V30 9665 O 162.769 1.97652 7.47304 0
M  V30 9666 C 163.709 3.01133 7.08783 0
M  V30 9667 C 162.979 4.12613 6.37049 0
M  V30 9668 O 162.769 3.72827 4.97879 0
M  V30 9669 C 161.579 4.45085 6.88694 0
M  V30 9670 O 161.189 5.7877 6.5624 0
M  V30 9671 C 160.699 3.47817 6.12078 0
M  V30 9672 C 161.409 3.39414 4.77697 0
M  V30 9673 N 161.359 2.04615 4.15333 0
M  V30 9674 H 164.198 3.41248 7.98759 0
M  V30 9675 H 164.47 2.5837 6.41742 0
M  V30 9676 H 163.602 5.02657 6.42673 0
M  V30 9677 P 159.639 6.144 6.45285 0
M  V30 9678 O 159.419 7.54673 6.86199 0
M  V30 9679 O 158.849 5.12391 7.179 0
M  V30 9680 O 159.389 5.99236 4.88467 0
M  V30 9681 C 160.329 6.60234 3.96415 0
M  V30 9682 C 159.599 7.08079 2.736 0
M  V30 9683 O 159.389 5.94365 1.8368 0
M  V30 9684 C 158.199 7.64886 2.9555 0
M  V30 9685 O 157.809 8.5406 1.90739 0
M  V30 9686 C 157.319 6.4116 2.90739 0
M  V30 9687 C 158.029 5.55375 1.86963 0
M  V30 9688 N 157.979 4.09664 2.15742 0
M  V30 9689 C 157.829 3.22231 1.08477 0
M  V30 9690 O 157.739 3.68951 -0.0600489 0
M  V30 9691 N 157.779 1.76692 1.48799 0
M  V30 9692 C 157.879 1.41695 2.57602 0
M  V30 9693 N 157.829 0.107296 2.75791 0
M  V30 9694 C 158.029 2.29178 3.69733 0
M  V30 9695 C 158.079 3.62753 3.42653 0
M  V30 9696 H 160.819 7.45488 4.45578 0
M  V30 9697 H 161.089 5.86232 3.67314 0
M  V30 9698 H 160.222 7.84508 2.24507 0
M  V30 9699 H 157.567 5.73556 0.888715 0
M  V30 9700 H 157.287 5.9096 3.88638 0
M  V30 9701 H 156.296 6.66053 2.58894 0
M  V30 9702 H 158.13 8.16339 3.92049 0
M  V30 9703 H 158.202 4.33052 4.24913 0
M  V30 9704 H 158.1 1.9103 4.71577 0
M  V30 9705 H 157.712 -0.521221 1.95056 0
M  V30 9706 H 157.908 -0.286429 3.70695 0
M  V30 9707 P 156.259 8.7635 1.60911 0
M  V30 9708 O 156.039 10.1388 1.11561 0
M  V30 9709 O 155.469 8.36503 2.79617 0
M  V30 9710 O 156.009 7.71806 0.42951 0
M  V30 9711 C 156.949 7.67148 -0.673689 0
M  V30 9712 C 156.219 7.33374 -1.95559 0
M  V30 9713 O 156.009 5.88721 -2.00726 0
M  V30 9714 C 154.819 7.92526 -2.10483 0
M  V30 9715 O 154.429 8.02971 -3.47653 0
M  V30 9716 C 153.939 6.89602 -1.41652 0
M  V30 9717 C 154.649 5.59201 -1.75185 0
M  V30 9718 N 154.599 4.58235 -0.662552 0
M  V30 9719 H 157.438 8.65116 -0.777161 0
M  V30 9720 H 157.71 6.90173 -0.474152 0
M  V30 9721 H 156.842 7.66548 -2.79458 0
M  V30 9722 P 152.879 8.03563 -3.84925 0
M  V30 9723 O 152.659 8.85821 -5.0569 0
M  V30 9724 O 152.089 8.41101 -2.65469 0
M  V30 9725 O 152.629 6.4965 -4.18908 0
M  V30 9726 C 153.569 5.80886 -5.05289 0
M  V30 9727 C 152.839 4.78366 -5.89277 0
M  V30 9728 O 152.629 3.58302 -5.08433 0
M  V30 9729 C 151.439 5.16748 -6.36559 0
M  V30 9730 O 151.049 4.45271 -7.53232 0
M  V30 9731 C 150.559 4.74572 -5.19863 0
M  V30 9732 C 151.269 3.49373 -4.70338 0
M  V30 9733 N 151.219 3.31704 -3.22876 0
M  V30 9734 C 151.069 2.03326 -2.74871 0
M  V30 9735 O 150.979 1.06486 -3.48076 0
M  V30 9736 N 151.029 1.91838 -1.37456 0
M  V30 9737 C 151.119 2.94295 -0.462035 0
M  V30 9738 O 151.069 2.71763 0.752928 0
M  V30 9739 C 151.269 4.25064 -1.05249 0
M  V30 9740 C 151.379 5.39815 -0.095697 0
M  V30 9741 C 151.319 4.40214 -2.39192 0
M  V30 9742 H 154.06 6.54063 -5.71245 0
M  V30 9743 H 154.329 5.30339 -4.43905 0
M  V30 9744 H 153.462 4.55889 -6.76652 0
M  V30 9745 H 150.807 2.6167 -5.17842 0
M  V30 9746 H 150.528 5.52155 -4.41878 0
M  V30 9747 H 149.536 4.51918 -5.53297 0
M  V30 9748 H 151.37 6.25055 -6.55162 0
M  V30 9749 H 151.441 5.39798 -2.81523 0
M  V30 9750 H 150.411 5.91593 -0.0279582 0
M  V30 9751 H 152.148 6.10038 -0.450573 0
M  V30 9752 H 151.66 5.02007 0.89937 0
M  V30 9753 H 150.924 0.995326 -1.00435 0
M  V30 9754 P 149.499 4.23843 -7.83734 0
M  V30 9755 O 149.279 4.19407 -9.29784 0
M  V30 9756 O 148.709 5.24426 -7.09156 0
M  V30 9757 O 149.249 2.7935 -7.20758 0
M  V30 9758 C 150.189 1.7299 -7.50419 0
M  V30 9759 C 149.459 0.406376 -7.57911 0
M  V30 9760 O 149.249 -0.0897726 -6.21935 0
M  V30 9761 C 148.059 0.447224 -8.1878 0
M  V30 9762 O 147.669 -0.825065 -8.71101 0
M  V30 9763 C 147.179 0.783801 -6.99623 0
M  V30 9764 C 147.889 0.0619192 -5.85967 0
M  V30 9765 N 147.839 0.7859 -4.56281 0
M  V30 9766 H 150.678 1.93423 -8.4679 0
M  V30 9767 H 150.95 1.68181 -6.71046 0
M  V30 9768 H 150.082 -0.289041 -8.15388 0
M  V30 9769 P 146.119 -1.17771 -8.83182 0
M  V30 9770 O 145.899 -2.07206 -9.98732 0
M  V30 9771 O 145.329 0.0743816 -8.81969 0
M  V30 9772 O 145.869 -1.97652 -7.47304 0
M  V30 9773 C 146.809 -3.01055 -7.08599 0
M  V30 9774 C 146.079 -4.12613 -6.37049 0
M  V30 9775 O 145.869 -3.72827 -4.97879 0
M  V30 9776 C 144.679 -4.45719 -6.88164 0
M  V30 9777 O 144.289 -5.7877 -6.5624 0
M  V30 9778 C 143.799 -3.47768 -6.11991 0
M  V30 9779 C 144.509 -3.39356 -4.77615 0
M  V30 9780 N 144.459 -2.04571 -4.15244 0
M  V30 9781 C 144.309 -1.98587 -2.78314 0
M  V30 9782 O 144.219 -2.98134 -2.08835 0
M  V30 9783 N 144.269 -0.714467 -2.24925 0
M  V30 9784 C 144.359 0.470001 -2.94169 0
M  V30 9785 C 144.509 0.312541 -4.36783 0
M  V30 9786 C 144.559 -0.914512 -4.92583 0
M  V30 9787 H 147.3 -3.41169 -7.98575 0
M  V30 9788 H 147.569 -2.58295 -6.41556 0
M  V30 9789 H 146.702 -5.02657 -6.42673 0
M  V30 9790 H 144.047 -4.11637 -4.08885 0
M  V30 9791 H 143.768 -2.49626 -6.61679 0
M  V30 9792 H 142.776 -3.86566 -6.00778 0
M  V30 9793 H 144.61 -4.29943 -7.96918 0
M  V30 9794 H 144.681 -1.00937 -6.00374 0
M  V30 9795 P 142.739 -6.144 -6.45285 0
M  V30 9796 O 142.519 -7.54673 -6.86199 0
M  V30 9797 O 141.949 -5.12391 -7.179 0
M  V30 9798 O 142.489 -5.99158 -4.88404 0
M  V30 9799 C 143.429 -6.60062 -3.96313 0
M  V30 9800 C 142.699 -7.08259 -2.72856 0
M  V30 9801 O 142.489 -5.9427 -1.83651 0
M  V30 9802 C 141.299 -7.65087 -2.94749 0
M  V30 9803 O 140.909 -8.53963 -1.90717 0
M  V30 9804 C 140.419 -6.41069 -2.90698 0
M  V30 9805 C 141.129 -5.5528 -1.86931 0
M  V30 9806 N 141.079 -4.09575 -2.15696 0
M  V30 9807 C 140.929 -3.24249 -1.08435 0
M  V30 9808 O 140.839 -3.63946 0.0628747 0
M  V30 9809 N 140.889 -1.90009 -1.39973 0
M  V30 9810 C 140.979 -1.34884 -2.65614 0
M  V30 9811 C 141.129 -2.3145 -3.71736 0
M  V30 9812 C 141.179 -3.63518 -3.44754 0
M  V30 9813 H 143.92 -7.45402 -4.45526 0
M  V30 9814 H 144.189 -5.86062 -3.67208 0
M  V30 9815 H 143.322 -7.84412 -2.24479 0
M  V30 9816 H 140.667 -5.73358 -0.888409 0
M  V30 9817 H 140.388 -5.90877 -3.88583 0
M  V30 9818 H 139.396 -6.65867 -2.58821 0
M  V30 9819 H 141.23 -8.16248 -3.92006 0
M  V30 9820 H 141.301 -4.34551 -4.26383 0
M  V30 9821 P 139.359 -8.7635 -1.60911 0
M  V30 9822 O 139.139 -10.1388 -1.11561 0
M  V30 9823 O 138.569 -8.36503 -2.79617 0
M  V30 9824 O 139.109 -7.71806 -0.42951 0
M  V30 9825 C 140.049 -7.67148 0.673689 0
M  V30 9826 C 139.319 -7.33374 1.95559 0
M  V30 9827 O 139.109 -5.88721 2.00726 0
M  V30 9828 C 137.919 -7.92526 2.10483 0
M  V30 9829 O 137.529 -8.02971 3.47653 0
M  V30 9830 C 137.039 -6.89602 1.41652 0
M  V30 9831 C 137.749 -5.59201 1.75185 0
M  V30 9832 N 137.699 -4.58235 0.662552 0
M  V30 9833 H 140.538 -8.65116 0.777161 0
M  V30 9834 H 140.81 -6.90173 0.474152 0
M  V30 9835 H 139.942 -7.66548 2.79458 0
M  V30 9836 P 135.979 -8.03563 3.84925 0
M  V30 9837 O 135.759 -8.85821 5.0569 0
M  V30 9838 O 135.189 -8.41101 2.65469 0
M  V30 9839 O 135.729 -6.4965 4.18908 0
M  V30 9840 C 136.669 -5.80886 5.05289 0
M  V30 9841 C 135.939 -4.78366 5.89277 0
M  V30 9842 O 135.729 -3.58302 5.08433 0
M  V30 9843 C 134.539 -5.16748 6.36559 0
M  V30 9844 O 134.149 -4.45271 7.53232 0
M  V30 9845 C 133.659 -4.74572 5.19863 0
M  V30 9846 C 134.369 -3.49373 4.70338 0
M  V30 9847 N 134.319 -3.31704 3.22876 0
M  V30 9848 C 134.169 -2.03326 2.74871 0
M  V30 9849 O 134.079 -1.06486 3.48076 0
M  V30 9850 N 134.129 -1.91838 1.37456 0
M  V30 9851 C 134.219 -2.94295 0.462035 0
M  V30 9852 C 134.369 -4.25064 1.05249 0
M  V30 9853 C 134.419 -4.40214 2.39192 0
M  V30 9854 H 137.16 -6.54063 5.71245 0
M  V30 9855 H 137.429 -5.30339 4.43905 0
M  V30 9856 H 136.562 -4.55889 6.76652 0
M  V30 9857 H 133.907 -2.6167 5.17842 0
M  V30 9858 H 133.628 -5.52155 4.41878 0
M  V30 9859 H 132.636 -4.51918 5.53297 0
M  V30 9860 H 134.47 -6.25055 6.55162 0
M  V30 9861 H 134.541 -5.39798 2.81523 0
M  V30 9862 P 132.599 -4.23843 7.83734 0
M  V30 9863 O 132.379 -4.19407 9.29784 0
M  V30 9864 O 131.809 -5.24426 7.09156 0
M  V30 9865 O 132.349 -2.7935 7.20758 0
M  V30 9866 C 133.289 -1.7299 7.50419 0
M  V30 9867 C 132.559 -0.406376 7.57911 0
M  V30 9868 O 132.349 0.0897726 6.21935 0
M  V30 9869 C 131.159 -0.447224 8.1878 0
M  V30 9870 O 130.769 0.825065 8.71101 0
M  V30 9871 C 130.279 -0.783801 6.99623 0
M  V30 9872 C 130.989 -0.0619192 5.85967 0
M  V30 9873 N 130.939 -0.790462 4.56202 0
M  V30 9874 H 133.778 -1.93423 8.4679 0
M  V30 9875 H 134.05 -1.68852 6.70877 0
M  V30 9876 H 133.182 0.289041 8.15388 0
M  V30 9877 H 130.527 0.927006 5.72848 0
M  V30 9878 H 130.247 -1.86973 6.82036 0
M  V30 9879 H 129.256 -0.403953 7.13357 0
M  V30 9880 H 131.09 -1.20599 8.97534 0
M  V30 9881 P 129.219 1.17771 8.83182 0
M  V30 9882 O 128.999 2.07206 9.98732 0
M  V30 9883 O 128.429 -0.0743816 8.81969 0
M  V30 9884 O 128.969 1.97652 7.47304 0
M  V30 9885 C 129.909 3.01055 7.08599 0
M  V30 9886 C 129.179 4.12613 6.37049 0
M  V30 9887 O 128.969 3.72827 4.97879 0
M  V30 9888 C 127.779 4.45719 6.88164 0
M  V30 9889 O 127.389 5.7877 6.5624 0
M  V30 9890 C 126.899 3.47768 6.11991 0
M  V30 9891 C 127.609 3.39356 4.77615 0
M  V30 9892 N 127.559 2.04571 4.15244 0
M  V30 9893 C 127.409 1.98587 2.78314 0
M  V30 9894 O 127.319 2.98134 2.08835 0
M  V30 9895 N 127.369 0.714467 2.24925 0
M  V30 9896 C 127.459 -0.470001 2.94169 0
M  V30 9897 C 127.609 -0.312541 4.36783 0
M  V30 9898 C 127.659 0.914512 4.92583 0
M  V30 9899 H 130.4 3.41169 7.98575 0
M  V30 9900 H 130.669 2.58295 6.41556 0
M  V30 9901 H 129.802 5.02657 6.42673 0
M  V30 9902 H 127.147 4.11637 4.08885 0
M  V30 9903 H 126.868 2.49626 6.61679 0
M  V30 9904 H 125.876 3.86566 6.00778 0
M  V30 9905 H 127.71 4.29943 7.96918 0
M  V30 9906 H 127.781 1.00937 6.00374 0
M  V30 9907 P 125.839 6.144 6.45285 0
M  V30 9908 O 125.619 7.54673 6.86199 0
M  V30 9909 O 125.049 5.12391 7.179 0
M  V30 9910 O 125.589 5.99158 4.88404 0
M  V30 9911 C 126.529 6.60234 3.96415 0
M  V30 9912 C 125.799 7.08259 2.72856 0
M  V30 9913 O 125.589 5.9427 1.83651 0
M  V30 9914 C 124.399 7.64886 2.9555 0
M  V30 9915 O 124.009 8.53963 1.90717 0
M  V30 9916 C 123.519 6.4116 2.90739 0
M  V30 9917 C 124.229 5.55375 1.86963 0
M  V30 9918 N 124.179 4.09448 2.16152 0
M  V30 9919 C 124.259 3.46824 3.37593 0
M  V30 9920 N 124.189 2.17422 3.29777 0
M  V30 9921 C 124.039 1.93065 1.94427 0
M  V30 9922 C 123.909 0.738053 1.20141 0
M  V30 9923 N 123.899 -0.474256 1.74676 0
M  V30 9924 N 123.789 0.850049 -0.13045 0
M  V30 9925 C 123.799 2.06169 -0.676992 0
M  V30 9926 N 123.919 3.23842 -0.101312 0
M  V30 9927 C 124.039 3.09402 1.23122 0
M  V30 9928 H 127.018 7.45574 4.45629 0
M  V30 9929 H 127.29 5.85864 3.679 0
M  V30 9930 H 126.422 7.84412 2.24479 0
M  V30 9931 H 123.767 5.73457 0.888562 0
M  V30 9932 H 123.487 5.90877 3.88583 0
M  V30 9933 H 122.496 6.6596 2.58858 0
M  V30 9934 H 124.33 8.16339 3.92049 0
M  V30 9935 H 124.371 4.00505 4.3174 0
M  V30 9936 H 123.99 -0.581337 2.76658 0
M  V30 9937 H 123.801 -1.30811 1.14888 0
M  V30 9938 H 123.693 2.08295 -1.75542 0
M  V30 9939 P 122.459 8.7635 1.60911 0
M  V30 9940 O 122.239 10.1388 1.11561 0
M  V30 9941 O 121.669 8.36503 2.79617 0
M  V30 9942 O 122.209 7.71806 0.42951 0
M  V30 9943 C 123.149 7.67148 -0.673689 0
M  V30 9944 C 122.419 7.33374 -1.95559 0
M  V30 9945 O 122.209 5.88721 -2.00726 0
M  V30 9946 C 121.019 7.92526 -2.10483 0
M  V30 9947 O 120.629 8.02971 -3.47653 0
M  V30 9948 C 120.139 6.89602 -1.41652 0
M  V30 9949 C 120.849 5.59201 -1.75185 0
M  V30 9950 N 120.799 4.58301 -0.657969 0
M  V30 9951 H 123.638 8.65116 -0.777161 0
M  V30 9952 H 123.91 6.9022 -0.46725 0
M  V30 9953 H 123.042 7.66548 -2.79458 0
M  V30 9954 H 120.387 5.16165 -2.65183 0
M  V30 9955 H 120.107 7.06433 -0.329384 0
M  V30 9956 H 119.116 6.90926 -1.82021 0
M  V30 9957 H 120.95 8.90873 -1.62657 0
M  V30 9958 P 119.079 8.03563 -3.84925 0
M  V30 9959 O 118.859 8.85821 -5.0569 0
M  V30 9960 O 118.289 8.41101 -2.65469 0
M  V30 9961 O 118.829 6.4965 -4.18908 0
M  V30 9962 C 119.769 5.81037 -5.05421 0
M  V30 9963 C 119.039 4.78366 -5.89277 0
M  V30 9964 O 118.829 3.58302 -5.08433 0
M  V30 9965 C 117.639 5.17448 -6.36119 0
M  V30 9966 O 117.249 4.45271 -7.53232 0
M  V30 9967 C 116.759 4.74639 -5.19936 0
M  V30 9968 C 117.469 3.49432 -4.70418 0
M  V30 9969 N 117.419 3.31776 -3.22945 0
M  V30 9970 H 120.258 6.54213 -5.71376 0
M  V30 9971 H 120.53 5.30492 -4.44033 0
M  V30 9972 H 119.662 4.55889 -6.76652 0
M  V30 9973 P 115.699 4.23843 -7.83734 0
M  V30 9974 O 115.479 4.19407 -9.29784 0
M  V30 9975 O 114.909 5.24426 -7.09156 0
M  V30 9976 O 115.449 2.7935 -7.20758 0
M  V30 9977 C 116.389 1.7299 -7.50419 0
M  V30 9978 C 115.659 0.406376 -7.57911 0
M  V30 9979 O 115.449 -0.0897726 -6.21935 0
M  V30 9980 C 114.259 0.447224 -8.1878 0
M  V30 9981 O 113.869 -0.825065 -8.71101 0
M  V30 9982 C 113.379 0.783801 -6.99623 0
M  V30 9983 C 114.089 0.0619192 -5.85967 0
M  V30 9984 N 114.039 0.790462 -4.56202 0
M  V30 9985 H 116.878 1.93423 -8.4679 0
M  V30 9986 H 117.15 1.68852 -6.70877 0
M  V30 9987 H 116.282 -0.289041 -8.15388 0
M  V30 9988 H 113.627 -0.927006 -5.72848 0
M  V30 9989 H 113.347 1.86973 -6.82036 0
M  V30 9990 H 112.356 0.403953 -7.13357 0
M  V30 9991 H 114.19 1.20599 -8.97534 0
M  V30 9992 P 112.319 -1.17771 -8.83182 0
M  V30 9993 O 112.099 -2.07206 -9.98732 0
M  V30 9994 O 111.529 0.0743816 -8.81969 0
M  V30 9995 O 112.069 -1.97652 -7.47304 0
M  V30 9996 C 113.009 -3.01133 -7.08783 0
M  V30 9997 C 112.279 -4.12613 -6.37049 0
M  V30 9998 O 112.069 -3.72827 -4.97879 0
M  V30 9999 C 110.879 -4.45085 -6.88694 0
M  V30 10000 O 110.489 -5.7877 -6.5624 0
M  V30 10001 C 109.999 -3.47817 -6.12078 0
M  V30 10002 C 110.709 -3.39414 -4.77697 0
M  V30 10003 N 110.659 -2.04199 -4.15538 0
M  V30 10004 H 113.498 -3.41248 -7.98759 0
M  V30 10005 H 113.77 -2.57728 -6.42 0
M  V30 10006 H 112.902 -5.02657 -6.42673 0
M  V30 10007 H 110.247 -4.11708 -4.08956 0
M  V30 10008 H 109.967 -2.49626 -6.61679 0
M  V30 10009 H 108.976 -3.8662 -6.00862 0
M  V30 10010 H 110.81 -4.29991 -7.97006 0
M  V30 10011 P 108.939 -6.144 -6.45285 0
M  V30 10012 O 108.719 -7.54673 -6.86199 0
M  V30 10013 O 108.149 -5.12391 -7.179 0
M  V30 10014 O 108.689 -5.99236 -4.88467 0
M  V30 10015 C 109.629 -6.60234 -3.96415 0
M  V30 10016 C 108.899 -7.08079 -2.736 0
M  V30 10017 O 108.689 -5.94365 -1.8368 0
M  V30 10018 C 107.499 -7.64886 -2.9555 0
M  V30 10019 O 107.109 -8.5406 -1.90739 0
M  V30 10020 C 106.619 -6.4116 -2.90739 0
M  V30 10021 C 107.329 -5.55375 -1.86963 0
M  V30 10022 N 107.279 -4.09664 -2.15742 0
M  V30 10023 C 107.129 -3.22231 -1.08477 0
M  V30 10024 O 107.039 -3.68951 0.0600489 0
M  V30 10025 N 107.079 -1.76692 -1.48799 0
M  V30 10026 C 107.179 -1.41695 -2.57602 0
M  V30 10027 N 107.129 -0.107296 -2.75791 0
M  V30 10028 C 107.329 -2.29178 -3.69733 0
M  V30 10029 C 107.379 -3.62753 -3.42653 0
M  V30 10030 H 110.119 -7.45488 -4.45578 0
M  V30 10031 H 110.389 -5.86232 -3.67314 0
M  V30 10032 H 109.522 -7.84508 -2.24507 0
M  V30 10033 H 106.867 -5.73556 -0.888715 0
M  V30 10034 H 106.587 -5.9096 -3.88638 0
M  V30 10035 H 105.596 -6.66053 -2.58894 0
M  V30 10036 H 107.43 -8.16339 -3.92049 0
M  V30 10037 H 107.502 -4.33052 -4.24913 0
M  V30 10038 H 107.4 -1.9103 -4.71577 0
M  V30 10039 H 107.012 0.521221 -1.95056 0
M  V30 10040 H 107.208 0.286429 -3.70695 0
M  V30 10041 P 105.559 -8.7635 -1.60911 0
M  V30 10042 O 105.339 -10.1388 -1.11561 0
M  V30 10043 O 104.769 -8.36503 -2.79617 0
M  V30 10044 O 105.309 -7.71906 -0.429565 0
M  V30 10045 C 106.249 -7.67148 0.673689 0
M  V30 10046 C 105.519 -7.33666 1.94851 0
M  V30 10047 O 105.309 -5.88816 2.00759 0
M  V30 10048 C 104.119 -7.92526 2.10483 0
M  V30 10049 O 103.729 -8.03063 3.47693 0
M  V30 10050 C 103.239 -6.89602 1.41652 0
M  V30 10051 C 103.949 -5.59201 1.75185 0
M  V30 10052 N 103.899 -4.58235 0.662552 0
M  V30 10053 C 103.749 -3.24451 1.01643 0
M  V30 10054 O 103.659 -2.94958 2.21722 0
M  V30 10055 N 103.699 -2.30408 -0.165238 0
M  V30 10056 C 103.799 -2.66048 -1.25118 0
M  V30 10057 N 103.749 -1.70787 -2.16813 0
M  V30 10058 C 103.949 -4.02732 -1.64413 0
M  V30 10059 C 103.999 -4.9488 -0.63991 0
M  V30 10060 H 106.739 -8.65017 0.777072 0
M  V30 10061 H 107.009 -6.90173 0.474152 0
M  V30 10062 H 106.142 -7.66642 2.79492 0
M  V30 10063 H 103.487 -5.16254 2.65229 0
M  V30 10064 H 103.207 -7.06532 0.329431 0
M  V30 10065 H 102.216 -6.91023 1.82047 0
M  V30 10066 H 104.05 -8.90873 1.62657 0
M  V30 10067 H 104.122 -6.00104 -0.892197 0
M  V30 10068 H 104.02 -4.31733 -2.69229 0
M  V30 10069 H 103.632 -0.724835 -1.8844 0
M  V30 10070 H 103.828 -1.94716 -3.16734 0
M  V30 10071 P 102.179 -8.03563 3.84925 0
M  V30 10072 O 101.959 -8.85821 5.0569 0
M  V30 10073 O 101.389 -8.41101 2.65469 0
M  V30 10074 O 101.929 -6.4965 4.18908 0
M  V30 10075 C 102.869 -5.81037 5.05421 0
M  V30 10076 C 102.139 -4.78366 5.89277 0
M  V30 10077 O 101.929 -3.58302 5.08433 0
M  V30 10078 C 100.739 -5.17448 6.36119 0
M  V30 10079 O 100.349 -4.45271 7.53232 0
M  V30 10080 C 99.8594 -4.74639 5.19936 0
M  V30 10081 C 100.569 -3.49432 4.70418 0
M  V30 10082 N 100.519 -3.31776 3.22945 0
M  V30 10083 H 103.358 -6.54213 5.71376 0
M  V30 10084 H 103.63 -5.30492 4.44033 0
M  V30 10085 H 102.762 -4.55889 6.76652 0
M  V30 10086 P 98.7994 -4.23843 7.83734 0
M  V30 10087 O 98.5794 -4.19407 9.29784 0
M  V30 10088 O 98.0094 -5.24426 7.09156 0
M  V30 10089 O 98.5494 -2.7935 7.20758 0
M  V30 10090 C 99.4894 -1.7299 7.50419 0
M  V30 10091 C 98.7594 -0.406376 7.57911 0
M  V30 10092 O 98.5494 0.0897726 6.21935 0
M  V30 10093 C 97.3594 -0.447224 8.1878 0
M  V30 10094 O 96.9694 0.825065 8.71101 0
M  V30 10095 C 96.4794 -0.783801 6.99623 0
M  V30 10096 C 97.1894 -0.0619192 5.85967 0
M  V30 10097 N 97.1394 -0.7859 4.56281 0
M  V30 10098 H 99.9784 -1.93423 8.4679 0
M  V30 10099 H 100.25 -1.68181 6.71046 0
M  V30 10100 H 99.3824 0.289041 8.15388 0
M  V30 10101 P 95.4195 1.17771 8.83182 0
M  V30 10102 O 95.1995 2.07206 9.98732 0
M  V30 10103 O 94.6295 -0.0743816 8.81969 0
M  V30 10104 O 95.1695 1.97652 7.47304 0
M  V30 10105 C 96.1095 3.01055 7.08599 0
M  V30 10106 C 95.3795 4.12613 6.37049 0
M  V30 10107 O 95.1695 3.72827 4.97879 0
M  V30 10108 C 93.9795 4.45719 6.88164 0
M  V30 10109 O 93.5895 5.7877 6.5624 0
M  V30 10110 C 93.0995 3.47768 6.11991 0
M  V30 10111 C 93.8095 3.39356 4.77615 0
M  V30 10112 N 93.7595 2.04571 4.15244 0
M  V30 10113 C 93.6095 1.98587 2.78314 0
M  V30 10114 O 93.5195 2.98134 2.08835 0
M  V30 10115 N 93.5695 0.714467 2.24925 0
M  V30 10116 C 93.6595 -0.470001 2.94169 0
M  V30 10117 O 93.6095 -1.55587 2.35195 0
M  V30 10118 C 93.8095 -0.312541 4.36783 0
M  V30 10119 C 93.9195 -1.57711 5.16352 0
M  V30 10120 C 93.8595 0.914512 4.92583 0
M  V30 10121 H 96.6005 3.41169 7.98575 0
M  V30 10122 H 96.8695 2.58295 6.41556 0
M  V30 10123 H 96.0025 5.02657 6.42673 0
M  V30 10124 H 93.3475 4.11637 4.08885 0
M  V30 10125 H 93.0685 2.49626 6.61679 0
M  V30 10126 H 92.0765 3.86566 6.00778 0
M  V30 10127 H 93.9105 4.29943 7.96918 0
M  V30 10128 H 93.9815 1.00937 6.00374 0
M  V30 10129 H 92.9515 -1.80153 5.63503 0
M  V30 10130 H 94.6885 -1.4566 5.94104 0
M  V30 10131 H 94.2005 -2.40664 4.49645 0
M  V30 10132 H 93.4645 0.647622 1.25697 0
M  V30 10133 P 92.0395 6.144 6.45285 0
M  V30 10134 O 91.8195 7.54673 6.86199 0
M  V30 10135 O 91.2495 5.12391 7.179 0
M  V30 10136 O 91.7895 5.99158 4.88404 0
M  V30 10137 C 92.7295 6.60234 3.96415 0
M  V30 10138 C 91.9995 7.08259 2.72856 0
M  V30 10139 O 91.7895 5.9427 1.83651 0
M  V30 10140 C 90.5995 7.64886 2.9555 0
M  V30 10141 O 90.2095 8.53963 1.90717 0
M  V30 10142 C 89.7195 6.4116 2.90739 0
M  V30 10143 C 90.4295 5.55375 1.86963 0
M  V30 10144 N 90.3795 4.09664 2.15742 0
M  V30 10145 H 93.2185 7.45574 4.45629 0
M  V30 10146 H 93.4905 5.86232 3.67314 0
M  V30 10147 H 92.6225 7.84412 2.24479 0
M  V30 10148 P 88.6595 8.7635 1.60911 0
M  V30 10149 O 88.4395 10.1388 1.11561 0
M  V30 10150 O 87.8695 8.36503 2.79617 0
M  V30 10151 O 88.4095 7.71806 0.42951 0
M  V30 10152 C 89.3495 7.67148 -0.673689 0
M  V30 10153 C 88.6195 7.33374 -1.95559 0
M  V30 10154 O 88.4095 5.88721 -2.00726 0
M  V30 10155 C 87.2195 7.92526 -2.10483 0
M  V30 10156 O 86.8295 8.02971 -3.47653 0
M  V30 10157 C 86.3395 6.89602 -1.41652 0
M  V30 10158 C 87.0495 5.59201 -1.75185 0
M  V30 10159 N 86.9995 4.58235 -0.662552 0
M  V30 10160 H 89.8385 8.65116 -0.777161 0
M  V30 10161 H 90.1105 6.90173 -0.474152 0
M  V30 10162 H 89.2425 7.66548 -2.79458 0
M  V30 10163 P 85.2795 8.03563 -3.84925 0
M  V30 10164 O 85.0595 8.85821 -5.0569 0
M  V30 10165 O 84.4895 8.41101 -2.65469 0
M  V30 10166 O 85.0295 6.4965 -4.18908 0
M  V30 10167 C 85.9695 5.81037 -5.05421 0
M  V30 10168 C 85.2395 4.78366 -5.89277 0
M  V30 10169 O 85.0295 3.58302 -5.08433 0
M  V30 10170 C 83.8395 5.17448 -6.36119 0
M  V30 10171 O 83.4495 4.45271 -7.53232 0
M  V30 10172 C 82.9595 4.74639 -5.19936 0
M  V30 10173 C 83.6695 3.49432 -4.70418 0
M  V30 10174 N 83.6195 3.31776 -3.22945 0
M  V30 10175 H 86.4585 6.54213 -5.71376 0
M  V30 10176 H 86.7305 5.30492 -4.44033 0
M  V30 10177 H 85.8625 4.55889 -6.76652 0
M  V30 10178 P 81.8995 4.23843 -7.83734 0
M  V30 10179 O 81.6795 4.19407 -9.29784 0
M  V30 10180 O 81.1095 5.24426 -7.09156 0
M  V30 10181 O 81.6495 2.79386 -7.20852 0
M  V30 10182 C 82.5895 1.7299 -7.50419 0
M  V30 10183 C 81.8595 0.41401 -7.5797 0
M  V30 10184 O 81.6495 -0.089787 -6.22035 0
M  V30 10185 C 80.4595 0.447224 -8.1878 0
M  V30 10186 O 80.0695 -0.825159 -8.71201 0
M  V30 10187 C 79.5795 0.783801 -6.99623 0
M  V30 10188 C 80.2895 0.0619192 -5.85967 0
M  V30 10189 N 80.2395 0.7859 -4.56281 0
M  V30 10190 C 80.0895 0.0359258 -3.39981 0
M  V30 10191 O 79.9995 -1.19723 -3.49038 0
M  V30 10192 N 80.0395 0.869151 -2.14025 0
M  V30 10193 C 80.1395 2.01207 -2.14363 0
M  V30 10194 N 80.0895 2.58978 -0.954287 0
M  V30 10195 C 80.2895 2.80817 -3.32215 0
M  V30 10196 C 80.3395 2.13785 -4.50884 0
M  V30 10197 H 83.0795 1.93401 -8.46693 0
M  V30 10198 H 83.3495 1.68181 -6.71046 0
M  V30 10199 H 82.4825 -0.289076 -8.15488 0
M  V30 10200 H 79.8275 -0.927166 -5.72947 0
M  V30 10201 H 79.5475 1.87 -6.82132 0
M  V30 10202 H 78.5565 0.404009 -7.13457 0
M  V30 10203 H 80.3905 1.20599 -8.97534 0
M  V30 10204 H 80.4625 2.70295 -5.43162 0
M  V30 10205 H 80.3605 3.89465 -3.27406 0
M  V30 10206 H 79.9725 2.01616 -0.107046 0
M  V30 10207 H 80.1685 3.61403 -0.873101 0
M  V30 10208 P 78.5196 -1.17771 -8.83182 0
M  V30 10209 O 78.2996 -2.07206 -9.98732 0
M  V30 10210 O 77.7296 0.0743816 -8.81969 0
M  V30 10211 O 78.2696 -1.97652 -7.47304 0
M  V30 10212 C 79.2096 -3.01133 -7.08783 0
M  V30 10213 C 78.4796 -4.12613 -6.37049 0
M  V30 10214 O 78.2696 -3.72827 -4.97879 0
M  V30 10215 C 77.0796 -4.45085 -6.88694 0
M  V30 10216 O 76.6896 -5.7877 -6.5624 0
M  V30 10217 C 76.1996 -3.47817 -6.12078 0
M  V30 10218 C 76.9096 -3.39414 -4.77697 0
M  V30 10219 N 76.8596 -2.04199 -4.15538 0
M  V30 10220 C 76.9396 -0.821545 -4.76977 0
M  V30 10221 N 76.8696 0.1794 -3.94592 0
M  V30 10222 C 76.7196 -0.419121 -2.70776 0
M  V30 10223 C 76.5896 0.109072 -1.40577 0
M  V30 10224 N 76.5796 1.4104 -1.1344 0
M  V30 10225 N 76.4696 -0.764381 -0.39411 0
M  V30 10226 C 76.4796 -2.06587 -0.664135 0
M  V30 10227 N 76.5996 -2.67948 -1.82153 0
M  V30 10228 C 76.7196 -1.77942 -2.8147 0
M  V30 10229 H 79.6986 -3.41248 -7.98759 0
M  V30 10230 H 79.9706 -2.57728 -6.42 0
M  V30 10231 H 79.1026 -5.02657 -6.42673 0
M  V30 10232 H 76.4476 -4.11708 -4.08956 0
M  V30 10233 H 76.1676 -2.49626 -6.61679 0
M  V30 10234 H 75.1766 -3.8662 -6.00862 0
M  V30 10235 H 77.0106 -4.29991 -7.97006 0
M  V30 10236 H 77.0516 -0.702451 -5.84696 0
M  V30 10237 H 76.6706 2.09647 -1.89651 0
M  V30 10238 H 76.4816 1.73358 -0.160575 0
M  V30 10239 H 76.3736 -2.71695 0.195838 0
M  V30 10240 P 75.1396 -6.144 -6.45285 0
M  V30 10241 O 74.9196 -7.54673 -6.86199 0
M  V30 10242 O 74.3496 -5.12391 -7.179 0
M  V30 10243 O 74.8896 -5.99158 -4.88404 0
M  V30 10244 C 75.8296 -6.60234 -3.96415 0
M  V30 10245 C 75.0996 -7.08259 -2.72856 0
M  V30 10246 O 74.8896 -5.9427 -1.83651 0
M  V30 10247 C 73.6996 -7.64886 -2.9555 0
M  V30 10248 O 73.3096 -8.53963 -1.90717 0
M  V30 10249 C 72.8196 -6.4116 -2.90739 0
M  V30 10250 C 73.5296 -5.55375 -1.86963 0
M  V30 10251 N 73.4796 -4.09664 -2.15742 0
M  V30 10252 H 76.3186 -7.45574 -4.45629 0
M  V30 10253 H 76.5906 -5.86232 -3.67314 0
M  V30 10254 H 75.7226 -7.84412 -2.24479 0
M  V30 10255 P 71.7596 -8.7635 -1.60911 0
M  V30 10256 O 71.5396 -10.1388 -1.11561 0
M  V30 10257 O 70.9696 -8.36503 -2.79617 0
M  V30 10258 O 71.5096 -7.71806 -0.42951 0
M  V30 10259 C 72.4496 -7.67148 0.673689 0
M  V30 10260 C 71.7196 -7.33374 1.95559 0
M  V30 10261 O 71.5096 -5.88721 2.00726 0
M  V30 10262 C 70.3196 -7.92526 2.10483 0
M  V30 10263 O 69.9296 -8.02971 3.47653 0
M  V30 10264 C 69.4396 -6.89602 1.41652 0
M  V30 10265 C 70.1496 -5.59201 1.75185 0
M  V30 10266 N 70.0996 -4.58235 0.662552 0
M  V30 10267 H 72.9386 -8.65116 0.777161 0
M  V30 10268 H 73.2106 -6.90173 0.474152 0
M  V30 10269 H 72.3426 -7.66548 2.79458 0
M  V30 10270 P 68.3796 -8.03563 3.84925 0
M  V30 10271 O 68.1596 -8.85821 5.0569 0
M  V30 10272 O 67.5896 -8.41101 2.65469 0
M  V30 10273 O 68.1296 -6.4965 4.18908 0
M  V30 10274 C 69.0696 -5.81037 5.05421 0
M  V30 10275 C 68.3396 -4.78366 5.89277 0
M  V30 10276 O 68.1296 -3.58302 5.08433 0
M  V30 10277 C 66.9396 -5.17448 6.36119 0
M  V30 10278 O 66.5496 -4.45271 7.53232 0
M  V30 10279 C 66.0596 -4.74639 5.19936 0
M  V30 10280 C 66.7696 -3.49432 4.70418 0
M  V30 10281 N 66.7196 -3.31776 3.22945 0
M  V30 10282 H 69.5586 -6.54213 5.71376 0
M  V30 10283 H 69.8306 -5.30492 4.44033 0
M  V30 10284 H 68.9626 -4.55889 6.76652 0
M  V30 10285 P 64.9996 -4.23843 7.83734 0
M  V30 10286 O 64.7796 -4.19407 9.29784 0
M  V30 10287 O 64.2096 -5.24426 7.09156 0
M  V30 10288 O 64.7496 -2.7935 7.20758 0
M  V30 10289 C 65.6896 -1.7299 7.50419 0
M  V30 10290 C 64.9596 -0.406376 7.57911 0
M  V30 10291 O 64.7496 0.0897726 6.21935 0
M  V30 10292 C 63.5596 -0.447224 8.1878 0
M  V30 10293 O 63.1696 0.825065 8.71101 0
M  V30 10294 C 62.6796 -0.783801 6.99623 0
M  V30 10295 C 63.3896 -0.0619192 5.85967 0
M  V30 10296 N 63.3396 -0.7859 4.56281 0
M  V30 10297 H 66.1786 -1.93423 8.4679 0
M  V30 10298 H 66.4506 -1.68181 6.71046 0
M  V30 10299 H 65.5826 0.289041 8.15388 0
M  V30 10300 P 61.6197 1.17771 8.83182 0
M  V30 10301 O 61.3997 2.07206 9.98732 0
M  V30 10302 O 60.8297 -0.0743816 8.81969 0
M  V30 10303 O 61.3697 1.97652 7.47304 0
M  V30 10304 C 62.3097 3.01133 7.08783 0
M  V30 10305 C 61.5797 4.12613 6.37049 0
M  V30 10306 O 61.3697 3.72827 4.97879 0
M  V30 10307 C 60.1797 4.45085 6.88694 0
M  V30 10308 O 59.7897 5.7877 6.5624 0
M  V30 10309 C 59.2997 3.47817 6.12078 0
M  V30 10310 C 60.0097 3.39414 4.77697 0
M  V30 10311 N 59.9597 2.04615 4.15333 0
M  V30 10312 H 62.7987 3.41248 7.98759 0
M  V30 10313 H 63.0707 2.5837 6.41742 0
M  V30 10314 H 62.2027 5.02657 6.42673 0
M  V30 10315 P 58.2397 6.144 6.45285 0
M  V30 10316 O 58.0197 7.54673 6.86199 0
M  V30 10317 O 57.4497 5.12391 7.179 0
M  V30 10318 O 57.9897 5.99158 4.88404 0
M  V30 10319 C 58.9297 6.60234 3.96415 0
M  V30 10320 C 58.1997 7.08259 2.72856 0
M  V30 10321 O 57.9897 5.9427 1.83651 0
M  V30 10322 C 56.7997 7.64886 2.9555 0
M  V30 10323 O 56.4097 8.53963 1.90717 0
M  V30 10324 C 55.9197 6.4116 2.90739 0
M  V30 10325 C 56.6297 5.55375 1.86963 0
M  V30 10326 N 56.5797 4.09664 2.15742 0
M  V30 10327 H 59.4187 7.45574 4.45629 0
M  V30 10328 H 59.6907 5.86232 3.67314 0
M  V30 10329 H 58.8227 7.84412 2.24479 0
M  V30 10330 P 54.8597 8.7635 1.60911 0
M  V30 10331 O 54.6397 10.1388 1.11561 0
M  V30 10332 O 54.0697 8.36503 2.79617 0
M  V30 10333 O 54.6097 7.71806 0.42951 0
M  V30 10334 C 55.5497 7.67148 -0.673689 0
M  V30 10335 C 54.8197 7.33374 -1.95559 0
M  V30 10336 O 54.6097 5.88721 -2.00726 0
M  V30 10337 C 53.4197 7.92526 -2.10483 0
M  V30 10338 O 53.0297 8.02971 -3.47653 0
M  V30 10339 C 52.5397 6.89602 -1.41652 0
M  V30 10340 C 53.2497 5.59201 -1.75185 0
M  V30 10341 N 53.1997 4.58301 -0.657969 0
M  V30 10342 H 56.0387 8.65116 -0.777161 0
M  V30 10343 H 56.3107 6.9022 -0.46725 0
M  V30 10344 H 55.4427 7.66548 -2.79458 0
M  V30 10345 H 52.7877 5.16165 -2.65183 0
M  V30 10346 H 52.5077 7.06433 -0.329384 0
M  V30 10347 H 51.5167 6.90926 -1.82021 0
M  V30 10348 H 53.3507 8.90873 -1.62657 0
M  V30 10349 P 51.4797 8.03563 -3.84925 0
M  V30 10350 O 51.2597 8.85821 -5.0569 0
M  V30 10351 O 50.6897 8.41101 -2.65469 0
M  V30 10352 O 51.2297 6.4965 -4.18908 0
M  V30 10353 C 52.1697 5.80886 -5.05289 0
M  V30 10354 C 51.4397 4.78366 -5.89277 0
M  V30 10355 O 51.2297 3.58302 -5.08433 0
M  V30 10356 C 50.0397 5.16748 -6.36559 0
M  V30 10357 O 49.6497 4.45271 -7.53232 0
M  V30 10358 C 49.1597 4.74572 -5.19863 0
M  V30 10359 C 49.8697 3.49373 -4.70338 0
M  V30 10360 N 49.8197 3.31704 -3.22876 0
M  V30 10361 C 49.6697 2.03326 -2.74871 0
M  V30 10362 O 49.5797 1.06486 -3.48076 0
M  V30 10363 N 49.6297 1.91838 -1.37456 0
M  V30 10364 C 49.7197 2.94295 -0.462035 0
M  V30 10365 C 49.8697 4.25064 -1.05249 0
M  V30 10366 C 49.9197 4.40214 -2.39192 0
M  V30 10367 H 52.6607 6.54063 -5.71245 0
M  V30 10368 H 52.9297 5.30339 -4.43905 0
M  V30 10369 H 52.0627 4.55889 -6.76652 0
M  V30 10370 H 49.4077 2.6167 -5.17842 0
M  V30 10371 H 49.1287 5.52155 -4.41878 0
M  V30 10372 H 48.1367 4.51918 -5.53297 0
M  V30 10373 H 49.9707 6.25055 -6.55162 0
M  V30 10374 H 50.0417 5.39798 -2.81523 0
M  V30 10375 P 48.0997 4.23843 -7.83734 0
M  V30 10376 O 47.8797 4.19407 -9.29784 0
M  V30 10377 O 47.3097 5.24426 -7.09156 0
M  V30 10378 O 47.8497 2.7935 -7.20758 0
M  V30 10379 C 48.7897 1.7299 -7.50419 0
M  V30 10380 C 48.0597 0.406376 -7.57911 0
M  V30 10381 O 47.8497 -0.0897726 -6.21935 0
M  V30 10382 C 46.6597 0.447224 -8.1878 0
M  V30 10383 O 46.2697 -0.825065 -8.71101 0
M  V30 10384 C 45.7797 0.783801 -6.99623 0
M  V30 10385 C 46.4897 0.0619192 -5.85967 0
M  V30 10386 N 46.4397 0.7859 -4.56281 0
M  V30 10387 H 49.2787 1.93423 -8.4679 0
M  V30 10388 H 49.5507 1.68181 -6.71046 0
M  V30 10389 H 48.6827 -0.289041 -8.15388 0
M  V30 10390 P 44.7198 -1.17771 -8.83182 0
M  V30 10391 O 44.4998 -2.07206 -9.98732 0
M  V30 10392 O 43.9298 0.0743816 -8.81969 0
M  V30 10393 O 44.4698 -1.97652 -7.47304 0
M  V30 10394 C 45.4098 -3.01133 -7.08783 0
M  V30 10395 C 44.6798 -4.12613 -6.37049 0
M  V30 10396 O 44.4698 -3.72827 -4.97879 0
M  V30 10397 C 43.2798 -4.45085 -6.88694 0
M  V30 10398 O 42.8898 -5.7877 -6.5624 0
M  V30 10399 C 42.3998 -3.47817 -6.12078 0
M  V30 10400 C 43.1098 -3.39414 -4.77697 0
M  V30 10401 N 43.0598 -2.04615 -4.15333 0
M  V30 10402 H 45.8988 -3.41248 -7.98759 0
M  V30 10403 H 46.1708 -2.5837 -6.41742 0
M  V30 10404 H 45.3028 -5.02657 -6.42673 0
M  V30 10405 P 41.3398 -6.144 -6.45285 0
M  V30 10406 O 41.1198 -7.54673 -6.86199 0
M  V30 10407 O 40.5498 -5.12391 -7.179 0
M  V30 10408 O 41.0898 -5.99236 -4.88467 0
M  V30 10409 C 42.0298 -6.60234 -3.96415 0
M  V30 10410 C 41.2998 -7.08079 -2.736 0
M  V30 10411 O 41.0898 -5.94365 -1.8368 0
M  V30 10412 C 39.8998 -7.64886 -2.9555 0
M  V30 10413 O 39.5098 -8.5406 -1.90739 0
M  V30 10414 C 39.0198 -6.4116 -2.90739 0
M  V30 10415 C 39.7298 -5.55375 -1.86963 0
M  V30 10416 N 39.6798 -4.09664 -2.15742 0
M  V30 10417 C 39.5298 -3.22231 -1.08477 0
M  V30 10418 O 39.4398 -3.68951 0.0600489 0
M  V30 10419 N 39.4798 -1.76692 -1.48799 0
M  V30 10420 C 39.5798 -1.41695 -2.57602 0
M  V30 10421 N 39.5298 -0.107296 -2.75791 0
M  V30 10422 C 39.7298 -2.29178 -3.69733 0
M  V30 10423 C 39.7798 -3.62753 -3.42653 0
M  V30 10424 H 42.5198 -7.45488 -4.45578 0
M  V30 10425 H 42.7898 -5.86232 -3.67314 0
M  V30 10426 H 41.9228 -7.84508 -2.24507 0
M  V30 10427 H 39.2678 -5.73556 -0.888715 0
M  V30 10428 H 38.9878 -5.9096 -3.88638 0
M  V30 10429 H 37.9968 -6.66053 -2.58894 0
M  V30 10430 H 39.8308 -8.16339 -3.92049 0
M  V30 10431 H 39.9028 -4.33052 -4.24913 0
M  V30 10432 H 39.8008 -1.9103 -4.71577 0
M  V30 10433 H 39.4128 0.521221 -1.95056 0
M  V30 10434 H 39.6088 0.286429 -3.70695 0
M  V30 10435 P 37.9598 -8.7635 -1.60911 0
M  V30 10436 O 37.7398 -10.1388 -1.11561 0
M  V30 10437 O 37.1698 -8.36503 -2.79617 0
M  V30 10438 O 37.7098 -7.71906 -0.429565 0
M  V30 10439 C 38.6498 -7.67148 0.673689 0
M  V30 10440 C 37.9198 -7.33666 1.94851 0
M  V30 10441 O 37.7098 -5.88816 2.00759 0
M  V30 10442 C 36.5198 -7.92526 2.10483 0
M  V30 10443 O 36.1298 -8.03063 3.47693 0
M  V30 10444 C 35.6398 -6.89602 1.41652 0
M  V30 10445 C 36.3498 -5.59201 1.75185 0
M  V30 10446 N 36.2998 -4.58235 0.662552 0
M  V30 10447 C 36.1498 -3.24451 1.01643 0
M  V30 10448 O 36.0598 -2.94958 2.21722 0
M  V30 10449 N 36.0998 -2.30408 -0.165238 0
M  V30 10450 C 36.1998 -2.66048 -1.25118 0
M  V30 10451 N 36.1498 -1.70787 -2.16813 0
M  V30 10452 C 36.3498 -4.02732 -1.64413 0
M  V30 10453 C 36.3998 -4.9488 -0.63991 0
M  V30 10454 H 39.1398 -8.65017 0.777072 0
M  V30 10455 H 39.4098 -6.90173 0.474152 0
M  V30 10456 H 38.5428 -7.66642 2.79492 0
M  V30 10457 H 35.8878 -5.16254 2.65229 0
M  V30 10458 H 35.6078 -7.06532 0.329431 0
M  V30 10459 H 34.6168 -6.91023 1.82047 0
M  V30 10460 H 36.4508 -8.90873 1.62657 0
M  V30 10461 H 36.5228 -6.00104 -0.892197 0
M  V30 10462 H 36.4208 -4.31733 -2.69229 0
M  V30 10463 H 36.0328 -0.724835 -1.8844 0
M  V30 10464 H 36.2288 -1.94716 -3.16734 0
M  V30 10465 P 34.5798 -8.03563 3.84925 0
M  V30 10466 O 34.3598 -8.85821 5.0569 0
M  V30 10467 O 33.7898 -8.41101 2.65469 0
M  V30 10468 O 34.3298 -6.4965 4.18908 0
M  V30 10469 C 35.2698 -5.81037 5.05421 0
M  V30 10470 C 34.5398 -4.78366 5.89277 0
M  V30 10471 O 34.3298 -3.58302 5.08433 0
M  V30 10472 C 33.1398 -5.17448 6.36119 0
M  V30 10473 O 32.7498 -4.45271 7.53232 0
M  V30 10474 C 32.2598 -4.74639 5.19936 0
M  V30 10475 C 32.9698 -3.49432 4.70418 0
M  V30 10476 N 32.9198 -3.31776 3.22945 0
M  V30 10477 H 35.7588 -6.54213 5.71376 0
M  V30 10478 H 36.0308 -5.30492 4.44033 0
M  V30 10479 H 35.1628 -4.55889 6.76652 0
M  V30 10480 P 31.1998 -4.23843 7.83734 0
M  V30 10481 O 30.9798 -4.19407 9.29784 0
M  V30 10482 O 30.4098 -5.24426 7.09156 0
M  V30 10483 O 30.9498 -2.7935 7.20758 0
M  V30 10484 C 31.8898 -1.72945 7.50224 0
M  V30 10485 C 31.1598 -0.406376 7.57911 0
M  V30 10486 O 30.9498 0.0897726 6.21935 0
M  V30 10487 C 29.7598 -0.438983 8.18724 0
M  V30 10488 O 29.3698 0.825065 8.71101 0
M  V30 10489 C 28.8798 -0.783689 6.99524 0
M  V30 10490 C 29.5898 -0.0619086 5.85867 0
M  V30 10491 N 29.5398 -0.78573 4.56183 0
M  V30 10492 C 29.3898 -0.0292889 3.41887 0
M  V30 10493 O 29.2998 1.18445 3.4419 0
M  V30 10494 N 29.3498 -0.744061 2.23964 0
M  V30 10495 C 29.4398 -2.10932 2.10362 0
M  V30 10496 O 29.3898 -2.64117 0.98825 0
M  V30 10497 C 29.5898 -2.8202 3.34994 0
M  V30 10498 C 29.6998 -4.31095 3.25037 0
M  V30 10499 C 29.6398 -2.15547 4.52261 0
M  V30 10500 H 32.3808 -1.93379 8.46595 0
M  V30 10501 H 32.6498 -1.68132 6.70852 0
M  V30 10502 H 31.7828 0.289041 8.15388 0
M  V30 10503 H 29.1278 0.926847 5.72749 0
M  V30 10504 H 28.8488 -1.86973 6.82036 0
M  V30 10505 H 27.8568 -0.403896 7.13257 0
M  V30 10506 H 29.6908 -1.20585 8.97435 0
M  V30 10507 H 29.7618 -2.71231 5.45042 0
M  V30 10508 H 28.7318 -4.76966 3.49992 0
M  V30 10509 H 30.4688 -4.67047 3.95024 0
M  V30 10510 H 29.9808 -4.58996 2.22312 0
M  V30 10511 H 29.2448 -0.214893 1.39758 0
M  V30 10512 P 27.8199 1.17771 8.83182 0
M  V30 10513 O 27.5999 2.07206 9.98732 0
M  V30 10514 O 27.0299 -0.0743816 8.81969 0
M  V30 10515 O 27.5699 1.97678 7.474 0
M  V30 10516 C 28.5099 3.01133 7.08783 0
M  V30 10517 C 27.7799 4.1203 6.37546 0
M  V30 10518 O 27.5699 3.72887 4.9796 0
M  V30 10519 C 26.3799 4.45085 6.88694 0
M  V30 10520 O 25.9899 5.78836 6.56315 0
M  V30 10521 C 25.4999 3.47817 6.12078 0
M  V30 10522 C 26.2099 3.39414 4.77697 0
M  V30 10523 N 26.1599 2.04615 4.15333 0
M  V30 10524 C 26.0099 1.96929 2.77162 0
M  V30 10525 O 25.9199 3.02017 2.12006 0
M  V30 10526 N 25.9599 0.55485 2.24237 0
M  V30 10527 C 26.0599 -0.367808 2.9169 0
M  V30 10528 N 26.0099 -1.53426 2.29427 0
M  V30 10529 C 26.2099 -0.319148 4.33828 0
M  V30 10530 C 26.2599 0.920672 4.90433 0
M  V30 10531 H 28.9999 3.41209 7.98667 0
M  V30 10532 H 29.2699 2.5837 6.41742 0
M  V30 10533 H 28.4029 5.02718 6.42752 0
M  V30 10534 H 25.7479 4.11779 4.09026 0
M  V30 10535 H 25.4679 2.49661 6.61772 0
M  V30 10536 H 24.4769 3.86674 6.00946 0
M  V30 10537 H 26.3109 4.29991 7.97006 0
M  V30 10538 H 26.3829 1.00589 5.98303 0
M  V30 10539 H 26.2809 -1.22639 4.93799 0
M  V30 10540 H 25.8929 -1.56819 1.27167 0
M  V30 10541 H 26.0889 -2.41062 2.83063 0
M  V30 10542 P 24.4399 6.144 6.45285 0
M  V30 10543 O 24.2199 7.54673 6.86199 0
M  V30 10544 O 23.6499 5.12391 7.179 0
M  V30 10545 O 24.1899 5.99158 4.88404 0
M  V30 10546 C 25.1299 6.60234 3.96415 0
M  V30 10547 C 24.3999 7.08259 2.72856 0
M  V30 10548 O 24.1899 5.9427 1.83651 0
M  V30 10549 C 22.9999 7.64886 2.9555 0
M  V30 10550 O 22.6099 8.53963 1.90717 0
M  V30 10551 C 22.1199 6.4116 2.90739 0
M  V30 10552 C 22.8299 5.55375 1.86963 0
M  V30 10553 N 22.7799 4.09448 2.16152 0
M  V30 10554 H 25.6189 7.45574 4.45629 0
M  V30 10555 H 25.8909 5.85864 3.679 0
M  V30 10556 H 25.0229 7.84412 2.24479 0
M  V30 10557 H 22.3679 5.73457 0.888562 0
M  V30 10558 H 22.0879 5.90877 3.88583 0
M  V30 10559 H 21.0969 6.6596 2.58858 0
M  V30 10560 H 22.9309 8.16339 3.92049 0
M  V30 10561 P 21.0599 8.7635 1.60911 0
M  V30 10562 O 20.8399 10.1388 1.11561 0
M  V30 10563 O 20.2699 8.36503 2.79617 0
M  V30 10564 O 20.8099 7.71806 0.42951 0
M  V30 10565 C 21.7499 7.67148 -0.673689 0
M  V30 10566 C 21.0199 7.33374 -1.95559 0
M  V30 10567 O 20.8099 5.88721 -2.00726 0
M  V30 10568 C 19.6199 7.92526 -2.10483 0
M  V30 10569 O 19.2299 8.02971 -3.47653 0
M  V30 10570 C 18.7399 6.89602 -1.41652 0
M  V30 10571 C 19.4499 5.59201 -1.75185 0
M  V30 10572 N 19.3999 4.58235 -0.662552 0
M  V30 10573 H 22.2389 8.65116 -0.777161 0
M  V30 10574 H 22.5109 6.90173 -0.474152 0
M  V30 10575 H 21.6429 7.66548 -2.79458 0
M  V30 10576 P 17.6799 8.03563 -3.84925 0
M  V30 10577 O 17.4599 8.85821 -5.0569 0
M  V30 10578 O 16.8899 8.41101 -2.65469 0
M  V30 10579 O 17.4299 6.4965 -4.18908 0
M  V30 10580 C 18.3699 5.81037 -5.05421 0
M  V30 10581 C 17.6399 4.78366 -5.89277 0
M  V30 10582 O 17.4299 3.58302 -5.08433 0
M  V30 10583 C 16.2399 5.17448 -6.36119 0
M  V30 10584 O 15.8499 4.45271 -7.53232 0
M  V30 10585 C 15.3599 4.74639 -5.19936 0
M  V30 10586 C 16.0699 3.49432 -4.70418 0
M  V30 10587 N 16.0199 3.31776 -3.22945 0
M  V30 10588 H 18.8589 6.54213 -5.71376 0
M  V30 10589 H 19.1309 5.30492 -4.44033 0
M  V30 10590 H 18.2629 4.55889 -6.76652 0
M  V30 10591 P 14.2999 4.23843 -7.83734 0
M  V30 10592 O 14.0799 4.19407 -9.29784 0
M  V30 10593 O 13.5099 5.24426 -7.09156 0
M  V30 10594 O 14.0499 2.7935 -7.20758 0
M  V30 10595 C 14.9899 1.7299 -7.50419 0
M  V30 10596 C 14.2599 0.406376 -7.57911 0
M  V30 10597 O 14.0499 -0.0897726 -6.21935 0
M  V30 10598 C 12.8599 0.447224 -8.1878 0
M  V30 10599 O 12.4699 -0.825065 -8.71101 0
M  V30 10600 C 11.9799 0.783801 -6.99623 0
M  V30 10601 C 12.6899 0.0619192 -5.85967 0
M  V30 10602 N 12.6399 0.7859 -4.56281 0
M  V30 10603 H 15.4789 1.93423 -8.4679 0
M  V30 10604 H 15.7509 1.68181 -6.71046 0
M  V30 10605 H 14.8829 -0.289041 -8.15388 0
M  V30 10606 P 10.92 -1.17771 -8.83182 0
M  V30 10607 O 10.7 -2.07206 -9.98732 0
M  V30 10608 O 10.13 0.0743816 -8.81969 0
M  V30 10609 O 10.67 -1.97652 -7.47304 0
M  V30 10610 C 11.61 -3.01055 -7.08599 0
M  V30 10611 C 10.88 -4.12613 -6.37049 0
M  V30 10612 O 10.67 -3.72827 -4.97879 0
M  V30 10613 C 9.47996 -4.45719 -6.88164 0
M  V30 10614 O 9.08996 -5.7877 -6.5624 0
M  V30 10615 C 8.59996 -3.47768 -6.11991 0
M  V30 10616 C 9.30996 -3.39356 -4.77615 0
M  V30 10617 N 9.25996 -2.04571 -4.15244 0
M  V30 10618 C 9.10996 -1.98587 -2.78314 0
M  V30 10619 O 9.01996 -2.98134 -2.08835 0
M  V30 10620 N 9.06996 -0.714467 -2.24925 0
M  V30 10621 C 9.15996 0.470001 -2.94169 0
M  V30 10622 C 9.30996 0.312541 -4.36783 0
M  V30 10623 C 9.35996 -0.914512 -4.92583 0
M  V30 10624 H 12.101 -3.41169 -7.98575 0
M  V30 10625 H 12.37 -2.58295 -6.41556 0
M  V30 10626 H 11.503 -5.02657 -6.42673 0
M  V30 10627 H 8.84796 -4.11637 -4.08885 0
M  V30 10628 H 8.56896 -2.49626 -6.61679 0
M  V30 10629 H 7.57696 -3.86566 -6.00778 0
M  V30 10630 H 9.41096 -4.29943 -7.96918 0
M  V30 10631 H 9.48196 -1.00937 -6.00374 0
M  V30 10632 P 7.53998 -6.144 -6.45285 0
M  V30 10633 O 7.31998 -7.54673 -6.86199 0
M  V30 10634 O 6.74998 -5.12391 -7.179 0
M  V30 10635 O 7.28998 -5.99158 -4.88404 0
M  V30 10636 C 8.22998 -6.60234 -3.96415 0
M  V30 10637 C 7.49998 -7.08259 -2.72856 0
M  V30 10638 O 7.28998 -5.9427 -1.83651 0
M  V30 10639 C 6.09998 -7.64886 -2.9555 0
M  V30 10640 O 5.70998 -8.53963 -1.90717 0
M  V30 10641 C 5.21998 -6.4116 -2.90739 0
M  V30 10642 C 5.92998 -5.55375 -1.86963 0
M  V30 10643 N 5.87998 -4.09448 -2.16152 0
M  V30 10644 H 8.71898 -7.45574 -4.45629 0
M  V30 10645 H 8.99098 -5.85864 -3.679 0
M  V30 10646 H 8.12298 -7.84412 -2.24479 0
M  V30 10647 H 5.46798 -5.73457 -0.888562 0
M  V30 10648 H 5.18798 -5.90877 -3.88583 0
M  V30 10649 H 4.19698 -6.6596 -2.58858 0
M  V30 10650 H 6.03098 -8.16339 -3.92049 0
M  V30 10651 P 4.16 -8.7635 -1.60911 0
M  V30 10652 O 3.94 -10.1388 -1.11561 0
M  V30 10653 O 3.37 -8.36503 -2.79617 0
M  V30 10654 O 3.91 -7.71806 -0.42951 0
M  V30 10655 C 4.85 -7.67148 0.673689 0
M  V30 10656 C 4.12 -7.33374 1.95559 0
M  V30 10657 O 3.91 -5.88721 2.00726 0
M  V30 10658 C 2.72 -7.92526 2.10483 0
M  V30 10659 O 2.33 -8.02971 3.47653 0
M  V30 10660 C 1.84 -6.89602 1.41652 0
M  V30 10661 C 2.55 -5.59201 1.75185 0
M  V30 10662 N 2.5 -4.58235 0.662552 0
M  V30 10663 H 5.339 -8.65116 0.777161 0
M  V30 10664 H 5.611 -6.90173 0.474152 0
M  V30 10665 H 4.743 -7.66548 2.79458 0
M  V30 10666 H 1.613 -8.66322 3.55694 0
M  V30 END ATOM
M  V30 BEGIN BOND
M  V30 END BOND
M  V30 END CTAB
M  END
$$$$
