drugbank_target|Q6NUM9 All-trans-retinol 13,14-reductase (DB00162)
 OpenBabel12092120093D

  0  0  0     0  0            999 V3000
M  V30 BEGIN CTAB
M  V30 COUNTS 9476 9587 0 0 0
M  V30 BEGIN ATOM
M  V30 1 H -0.908 1.98254 -0.117106 0
M  V30 2 N 0 1.576 0 0
M  V30 3 C 0.933 2.03868 1.02534 0
M  V30 4 C 1.911 0.928543 1.3348 0
M  V30 5 O 3.095 1.19667 1.45644 0
M  V30 6 C 0.222 2.43627 2.35294 0
M  V30 7 C -0.732 3.65373 2.2001 0
M  V30 8 S 0.101 5.13292 1.52614 0
M  V30 9 C 1.257 5.56322 2.86805 0
M  V30 10 H 1.49 2.90518 0.631377 0
M  V30 11 H -0.977 1.52953 0.210867 0
M  V30 12 H 0.981 2.67203 3.11629 0
M  V30 13 H -0.358 1.57376 2.7183 0
M  V30 14 H -1.165 3.90944 3.18086 0
M  V30 15 H -1.563 3.418 1.51819 0
M  V30 16 H 0.729 5.58782 3.83104 0
M  V30 17 H 1.672 6.56266 2.65933 0
M  V30 18 H 2.08 4.83886 2.90714 0
M  V30 19 N 1.4781 -0.272755 1.55222 0
M  V30 20 C 2.7241 -1.00172 1.77023 0
M  V30 21 C 3.0791 -1.83928 0.564633 0
M  V30 22 O 2.3721 -1.86416 -0.442674 0
M  V30 23 C 2.5661 -1.91642 3.01675 0
M  V30 24 C 2.3951 -1.16888 4.34243 0
M  V30 25 C 1.1651 -0.884464 4.97499 0
M  V30 26 C 3.3631 -0.55919 5.11251 0
M  V30 27 N 1.3451 -0.11015 6.13801 0
M  V30 28 C 2.7161 0.0809469 6.19947 0
M  V30 29 C 4.7711 -0.467058 4.95705 0
M  V30 30 C 3.4741 0.804335 7.14789 0
M  V30 31 C 5.5001 0.242739 5.90902 0
M  V30 32 C 4.8621 0.871613 6.98987 0
M  V30 33 H 0.9611 -0.348529 0.700037 0
M  V30 34 H 3.5451 -0.277365 1.92714 0
M  V30 35 H 1.7161 -2.61303 2.87359 0
M  V30 36 H 3.4481 -2.57901 3.1188 0
M  V30 37 H 0.2031 -1.18979 4.58411 0
M  V30 38 H 0.6271 0.264344 6.76484 0
M  V30 39 H 5.2691 -0.93894 4.12242 0
M  V30 40 H 2.9871 1.2879 7.97771 0
M  V30 41 H 6.5731 0.314347 5.8095 0
M  V30 42 H 5.4531 1.4121 7.71381 0
M  V30 43 N 2.9562 -1.48159 -0.537278 0
M  V30 44 C 3.8862 -1.65029 -1.6519 0
M  V30 45 C 4.8672 -0.499281 -1.62607 0
M  V30 46 O 6.0522 -0.730972 -1.79918 0
M  V30 47 C 3.1822 -1.68303 -3.03795 0
M  V30 48 C 2.1362 -2.8283 -3.21234 0
M  V30 49 C 1.4622 -2.71189 -4.60826 0
M  V30 50 C 2.7622 -4.24211 -3.04701 0
M  V30 51 H 4.4562 -2.58341 -1.51328 0
M  V30 52 H 2.0022 -1.24325 -0.726585 0
M  V30 53 H 3.9552 -1.78693 -3.81637 0
M  V30 54 H 2.6792 -0.715635 -3.18663 0
M  V30 55 H 1.3382 -2.71983 -2.45807 0
M  V30 56 H 0.9862 -1.72435 -4.7252 0
M  V30 57 H 0.6862 -3.48035 -4.7344 0
M  V30 58 H 2.2102 -2.83537 -5.40777 0
M  V30 59 H 3.6242 -4.3593 -3.72341 0
M  V30 60 H 2.0212 -5.01998 -3.28813 0
M  V30 61 H 3.0912 -4.41184 -2.01209 0
M  V30 62 N 4.4343 0.785586 -1.36625 0
M  V30 63 C 5.8453 1.36101 -1.27803 0
M  V30 64 C 6.1963 1.96035 0.0804875 0
M  V30 65 O 5.3213 1.92834 0.982042 0
M  V30 66 C 5.9163 2.47442 -2.31426 0
M  V30 67 C 4.4753 3.00789 -2.26281 0
M  V30 68 C 3.6223 1.73896 -2.15999 0
M  V30 69 H 6.5733 0.586928 -1.47448 0
M  V30 70 H 6.5943 3.2656 -1.95291 0
M  V30 71 H 6.1063 2.03791 -3.30289 0
M  V30 72 H 4.2073 3.48851 -1.30896 0
M  V30 73 H 4.3203 3.57343 -3.19128 0
M  V30 74 H 2.6843 1.9628 -1.62316 0
M  V30 75 H 3.4673 1.32368 -3.16755 0
M  V30 76 N 5.9124 1.20967 1.01018 0
M  V30 77 C 6.8424 0.988272 2.11555 0
M  V30 78 C 7.8234 -0.0849778 1.69888 0
M  V30 79 O 9.0084 0.0738202 1.9406 0
M  V30 80 C 6.1384 0.546528 3.42973 0
M  V30 81 C 5.0924 1.56375 3.9841 0
M  V30 82 C 4.4184 0.97842 5.25672 0
M  V30 83 C 5.7184 2.94922 4.31066 0
M  V30 84 H 7.4124 1.91276 2.30334 0
M  V30 85 H 4.9584 0.921073 1.1069 0
M  V30 86 H 6.9114 0.378839 4.19694 0
M  V30 87 H 5.6354 -0.413598 3.23971 0
M  V30 88 H 4.2944 1.71891 3.23804 0
M  V30 89 H 3.9424 0.0101688 5.02999 0
M  V30 90 H 3.6424 1.65784 5.63728 0
M  V30 91 H 5.1664 0.821939 6.05043 0
M  V30 92 H 6.5804 2.8288 4.9865 0
M  V30 93 H 4.9774 3.5983 4.80253 0
M  V30 94 H 6.0474 3.4616 3.39561 0
M  V30 95 N 7.3905 -1.2043 1.01659 0
M  V30 96 C 8.6365 -1.90079 0.706963 0
M  V30 97 C 8.9695 -1.78648 -0.761474 0
M  V30 98 O 8.2445 -1.17069 -1.55323 0
M  V30 99 C 8.5275 -3.41469 1.14327 0
M  V30 100 C 8.3805 -3.61833 2.67201 0
M  V30 101 C 9.6995 -4.34261 0.714529 0
M  V30 102 H 6.8185 -0.690254 0.2583 0
M  V30 103 H 9.4605 -1.41826 1.26433 0
M  V30 104 H 7.6105 -3.82696 0.669056 0
M  V30 105 H 9.2825 -3.2986 3.22475 0
M  V30 106 H 7.5255 -3.05304 3.08175 0
M  V30 107 H 8.1965 -4.67955 2.92783 0
M  V30 108 H 10.6725 -4.00682 1.12221 0
M  V30 109 H 9.5485 -5.38806 1.04784 0
M  V30 110 H 9.8095 -4.40431 -0.383799 0
M  V30 111 N 8.8686 -0.792821 -1.36206 0
M  V30 112 C 9.7986 -0.207853 -2.32573 0
M  V30 113 C 10.7796 0.659055 -1.56813 0
M  V30 114 O 11.9646 0.592176 -1.84951 0
M  V30 115 C 9.0946 0.655449 -3.41059 0
M  V30 116 C 8.0486 -0.111842 -4.27854 0
M  V30 117 C 7.3746 0.872274 -5.27537 0
M  V30 118 C 8.6746 -1.30299 -5.05786 0
M  V30 119 H 10.3686 -1.01294 -2.81744 0
M  V30 120 H 7.9146 -0.48854 -1.3546 0
M  V30 121 H 9.8676 1.07464 -4.07467 0
M  V30 122 H 8.5916 1.49328 -2.90463 0
M  V30 123 H 7.2506 -0.512053 -3.63006 0
M  V30 124 H 6.8986 1.70523 -4.73214 0
M  V30 125 H 6.5986 0.363291 -5.86476 0
M  V30 126 H 8.1226 1.28996 -5.96818 0
M  V30 127 H 9.5366 -0.959379 -5.65216 0
M  V30 128 H 7.9336 -1.7455 -5.74154 0
M  V30 129 H 9.0036 -2.09663 -4.37229 0
M  V30 130 N 10.3467 1.47872 -0.545128 0
M  V30 131 C 11.2767 2.32661 0.197793 0
M  V30 132 C 12.2577 1.43041 0.920504 0
M  V30 133 O 13.4427 1.71912 0.90333 0
M  V30 134 C 10.5727 3.24569 1.23582 0
M  V30 135 C 9.5267 4.23333 0.630323 0
M  V30 136 C 8.8527 5.0448 1.77211 0
M  V30 137 C 10.1527 5.20704 -0.407974 0
M  V30 138 H 11.8467 2.95024 -0.510045 0
M  V30 139 H 9.3927 1.4187 -0.246731 0
M  V30 140 H 11.3457 3.8272 1.76362 0
M  V30 141 H 10.0697 2.60236 1.97344 0
M  V30 142 H 8.7287 3.6639 0.123922 0
M  V30 143 H 8.3767 4.36561 2.49847 0
M  V30 144 H 8.0767 5.71339 1.37281 0
M  V30 145 H 9.6007 5.65487 2.3034 0
M  V30 146 H 11.0147 5.7329 0.033305 0
M  V30 147 H 9.4117 5.95699 -0.725486 0
M  V30 148 H 10.4817 4.66917 -1.30828 0
M  V30 149 N 11.8248 0.280983 1.55075 0
M  V30 150 C 12.7548 -0.597469 2.25727 0
M  V30 151 C 13.7358 -1.15417 1.24952 0
M  V30 152 O 14.9208 -1.18722 1.53684 0
M  V30 153 C 12.0508 -1.7789 2.98283 0
M  V30 154 C 11.0048 -1.35347 4.06036 0
M  V30 155 C 10.3308 -2.61846 4.66198 0
M  V30 156 C 11.6308 -0.499354 5.19907 0
M  V30 157 H 13.3248 -0.00824265 2.99399 0
M  V30 158 H 10.8708 -0.0025244 1.44 0
M  V30 159 H 12.8238 -2.39937 3.46422 0
M  V30 160 H 11.5478 -2.39405 2.22155 0
M  V30 161 H 10.2068 -0.756156 3.58717 0
M  V30 162 H 9.8548 -3.21632 3.86732 0
M  V30 163 H 9.5548 -2.3409 5.38958 0
M  V30 164 H 11.0788 -3.24732 5.1709 0
M  V30 165 H 12.4928 -1.02498 5.64063 0
M  V30 166 H 10.8898 -0.316424 5.99265 0
M  V30 167 H 11.9598 0.480459 4.82514 0
M  V30 168 N 13.3029 -1.57598 0.00835791 0
M  V30 169 C 14.2659 -2.07884 -0.965242 0
M  V30 170 C 15.2659 -0.989825 -1.26725 0
M  V30 171 O 16.4559 -1.25218 -1.21104 0
M  V30 172 C 13.5879 -2.52731 -2.28779 0
M  V30 173 H 14.7809 -2.95178 -0.530112 0
M  V30 174 H 12.3339 -1.54458 -0.239283 0
M  V30 175 H 13.0689 -1.68705 -2.76964 0
M  V30 176 H 12.8539 -3.32272 -2.08177 0
M  V30 177 H 14.3439 -2.91933 -2.98605 0
M  V30 178 N 14.781 0.264519 -1.55364 0
M  V30 179 C 16.027 0.99646 -1.76631 0
M  V30 180 C 16.36 1.85632 -0.570478 0
M  V30 181 O 15.635 1.89647 0.43175 0
M  V30 182 C 15.918 1.87187 -3.07625 0
M  V30 183 C 15.771 1.04138 -4.37579 0
M  V30 184 C 17.09 2.85749 -3.34717 0
M  V30 185 H 14.209 0.360841 -0.642622 0
M  V30 186 H 16.851 0.268218 -1.88097 0
M  V30 187 H 15.001 2.49279 -2.9798 0
M  V30 188 H 16.673 0.440517 -4.59192 0
M  V30 189 H 14.916 0.345115 -4.32425 0
M  V30 190 H 15.587 1.68729 -5.2558 0
M  V30 191 H 18.063 2.33793 -3.4421 0
M  V30 192 H 16.939 3.44136 -4.27623 0
M  V30 193 H 17.2 3.61311 -2.54768 0
M  V30 194 N 16.2591 1.48442 0.529413 0
M  V30 195 C 17.1891 1.65902 1.64313 0
M  V30 196 C 18.1701 0.507897 1.6234 0
M  V30 197 O 19.3551 0.740503 1.79528 0
M  V30 198 C 16.4851 1.69911 3.02898 0
M  V30 199 C 15.4391 2.8453 3.19729 0
M  V30 200 C 14.7651 2.73629 4.59381 0
M  V30 201 C 16.0651 4.25821 3.02447 0
M  V30 202 H 17.7591 2.5914 1.49955 0
M  V30 203 H 15.3051 1.24709 0.719982 0
M  V30 204 H 17.2581 1.80715 3.80684 0
M  V30 205 H 15.9821 0.732524 3.18279 0
M  V30 206 H 14.6411 2.73283 2.44361 0
M  V30 207 H 14.2891 1.74938 4.71599 0
M  V30 208 H 13.9891 3.50541 4.71588 0
M  V30 209 H 15.5131 2.86401 5.39265 0
M  V30 210 H 16.9271 4.37898 3.70024 0
M  V30 211 H 15.3241 5.03735 3.26146 0
M  V30 212 H 16.3941 4.42244 1.98867 0
M  V30 213 N 17.7372 -0.778329 1.37039 0
M  V30 214 C 18.6672 -1.90546 1.34962 0
M  V30 215 C 19.6482 -1.68681 0.219274 0
M  V30 216 O 20.8332 -1.89634 0.418624 0
M  V30 217 C 17.9632 -3.27734 1.14925 0
M  V30 218 C 16.9172 -3.64147 2.24902 0
M  V30 219 C 16.2432 -4.99806 1.89996 0
M  V30 220 C 17.5432 -3.71579 3.67051 0
M  V30 221 H 19.2372 -1.92541 2.29277 0
M  V30 222 H 16.7832 -0.924948 1.10366 0
M  V30 223 H 18.7362 -4.06215 1.12104 0
M  V30 224 H 17.4602 -3.26154 0.170631 0
M  V30 225 H 16.1192 -2.8797 2.26868 0
M  V30 226 H 15.7672 -4.94759 0.906796 0
M  V30 227 H 15.4672 -5.25139 2.63634 0
M  V30 228 H 16.9912 -5.80694 1.88749 0
M  V30 229 H 18.4052 -4.40227 3.67251 0
M  V30 230 H 16.8022 -4.08405 4.39688 0
M  V30 231 H 17.8722 -2.72404 4.01154 0
M  V30 232 N 19.2153 -1.21501 -1.00376 0
M  V30 233 C 20.1453 -0.999478 -2.11028 0
M  V30 234 C 21.1263 0.0759671 -1.6993 0
M  V30 235 O 22.3113 -0.0841106 -1.94018 0
M  V30 236 C 19.4413 -0.564709 -3.42678 0
M  V30 237 C 18.3953 -1.58486 -3.97576 0
M  V30 238 C 17.7213 -1.00628 -5.25146 0
M  V30 239 C 19.0213 -2.97204 -4.29496 0
M  V30 240 H 20.7153 -1.92495 -2.29317 0
M  V30 241 H 18.2613 -0.92693 -1.102 0
M  V30 242 H 20.2143 -0.401091 -4.19487 0
M  V30 243 H 18.9383 0.396411 -3.24185 0
M  V30 244 H 17.5973 -1.73606 -3.22888 0
M  V30 245 H 17.2453 -0.0368439 -5.02987 0
M  V30 246 H 16.9453 -1.68771 -5.62841 0
M  V30 247 H 18.4693 -0.854015 -6.04598 0
M  V30 248 H 19.8833 -2.8552 -4.97143 0
M  V30 249 H 18.2803 -3.62372 -4.78338 0
M  V30 250 H 19.3503 -3.47956 -3.3772 0
M  V30 251 N 20.6934 1.19889 -1.02296 0
M  V30 252 C 21.6564 2.21116 -0.603351 0
M  V30 253 C 22.6564 1.5738 0.329884 0
M  V30 254 O 23.8464 1.73802 0.117702 0
M  V30 255 C 20.9784 3.40696 0.117992 0
M  V30 256 H 22.1714 2.59754 -1.49893 0
M  V30 257 H 19.7244 1.33463 -0.813468 0
M  V30 258 H 20.4594 3.07569 1.0282 0
M  V30 259 H 20.2444 3.88188 -0.552511 0
M  V30 260 H 21.7344 4.15692 0.398696 0
M  V30 261 N 22.1715 0.800033 1.35784 0
M  V30 262 C 23.4175 0.377901 1.99248 0
M  V30 263 C 23.7505 -1.05052 1.63333 0
M  V30 264 O 23.0255 -1.72768 0.893385 0
M  V30 265 C 23.3085 0.553922 3.55814 0
M  V30 266 C 23.1615 2.0268 4.01548 0
M  V30 267 C 24.4805 -0.0244802 4.40093 0
M  V30 268 H 21.5995 0.138782 0.723815 0
M  V30 269 H 24.2415 1.00835 1.61035 0
M  V30 270 H 22.3915 0.0172398 3.88496 0
M  V30 271 H 24.0635 2.62536 3.79305 0
M  V30 272 H 22.3065 2.5256 3.52698 0
M  V30 273 H 22.9775 2.10087 5.10458 0
M  V30 274 H 25.4535 0.433775 4.13833 0
M  V30 275 H 24.3295 0.128637 5.48749 0
M  V30 276 H 24.5905 -1.11758 4.27741 0
M  V30 277 N 23.6496 -1.47581 0.552962 0
M  V30 278 C 24.5796 -2.32762 -0.185451 0
M  V30 279 C 25.5606 -1.43527 -0.912905 0
M  V30 280 O 26.7456 -1.72388 -0.894201 0
M  V30 281 C 23.8756 -3.25219 -1.21859 0
M  V30 282 C 22.8296 -4.23661 -0.607864 0
M  V30 283 C 22.1556 -5.05413 -1.74533 0
M  V30 284 C 23.4556 -5.20481 0.435582 0
M  V30 285 H 25.1496 -2.94749 0.525684 0
M  V30 286 H 22.6956 -1.41738 0.254251 0
M  V30 287 H 24.6486 -3.8365 -1.7433 0
M  V30 288 H 23.3726 -2.61279 -1.95961 0
M  V30 289 H 22.0316 -3.66451 -0.104489 0
M  V30 290 H 21.6796 -4.3788 -2.47529 0
M  V30 291 H 21.3796 -5.72059 -1.34249 0
M  V30 292 H 22.9036 -5.66701 -2.27338 0
M  V30 293 H 24.3176 -5.733 -0.00290157 0
M  V30 294 H 22.7146 -5.95305 0.757067 0
M  V30 295 H 23.7846 -4.66217 1.33303 0
M  V30 296 N 25.1277 -0.289203 -1.54924 0
M  V30 297 C 26.3677 0.324536 -2.01807 0
M  V30 298 C 26.7317 1.5199 -1.17316 0
M  V30 299 O 27.9327 2.20422 -1.53843 0
M  V30 300 C 26.2037 0.683578 -3.50802 0
M  V30 301 S 27.7627 1.28185 -4.19659 0
M  V30 302 H 24.5807 0.100236 -0.703899 0
M  V30 303 H 27.1827 -0.414325 -1.91059 0
M  V30 304 H 25.8867 -0.195073 -4.09936 0
M  V30 305 H 25.4177 1.45354 -3.65562 0
M  V30 306 H 27.4327 2.57006 -4.24456 0
M  V30 307 N 26.6058 1.57591 -0.0167156 0
M  V30 308 C 27.5528 2.09462 0.969251 0
M  V30 309 C 28.5228 0.99381 1.33089 0
M  V30 310 O 29.7078 1.26726 1.42636 0
M  V30 311 C 26.8478 2.61622 2.25051 0
M  V30 312 C 25.9608 3.85666 1.94642 0
M  V30 313 C 25.0958 4.26266 3.16972 0
M  V30 314 C 24.1348 5.43101 2.82326 0
M  V30 315 N 23.2718 5.78915 3.97243 0
M  V30 316 H 28.1118 2.93428 0.519997 0
M  V30 317 H 25.6488 1.45044 0.245087 0
M  V30 318 H 27.6068 2.89949 2.99976 0
M  V30 319 H 26.2368 1.80505 2.67615 0
M  V30 320 H 25.2888 3.64145 1.10013 0
M  V30 321 H 26.6008 4.70678 1.65117 0
M  V30 322 H 25.7548 4.55963 4.00228 0
M  V30 323 H 24.4938 3.39996 3.49648 0
M  V30 324 H 23.4988 5.1311 1.97479 0
M  V30 325 H 24.7238 6.3106 2.50879 0
M  V30 326 H 22.6698 4.95602 4.29785 0
M  V30 327 H 22.5868 6.58539 3.71299 0
M  V30 328 H 23.8548 6.13212 4.81239 0
M  V30 329 N 28.0839 -0.256276 1.55502 0
M  V30 330 C 29.3299 -0.987079 1.77157 0
M  V30 331 C 29.6629 -1.85327 0.580315 0
M  V30 332 O 28.9379 -1.89874 -0.421686 0
M  V30 333 C 29.2209 -1.85553 3.08613 0
M  V30 334 C 29.0739 -1.01816 4.38125 0
M  V30 335 C 30.3929 -2.8397 3.36228 0
M  V30 336 H 27.5119 -0.357428 0.644526 0
M  V30 337 H 30.1539 -0.258239 1.88237 0
M  V30 338 H 28.3039 -2.47695 2.99298 0
M  V30 339 H 29.9759 -0.416159 4.59419 0
M  V30 340 H 28.2189 -0.322178 4.32602 0
M  V30 341 H 28.8899 -1.65939 5.26468 0
M  V30 342 H 31.3659 -2.31964 3.45445 0
M  V30 343 H 30.2419 -3.41864 4.29442 0
M  V30 344 H 30.5029 -3.59955 2.56681 0
M  V30 345 N 29.562 -1.4872 -0.521534 0
M  V30 346 C 30.792 -1.6061 -1.29954 0
M  V30 347 C 31.2 -0.268728 -1.87282 0
M  V30 348 O 30.543 0.753221 -1.67548 0
M  V30 349 C 30.605 -2.60013 -2.48261 0
M  V30 350 C 30.269 -4.04874 -2.11957 0
M  V30 351 C 31.266 -4.92304 -1.67132 0
M  V30 352 C 28.951 -4.5047 -2.22221 0
M  V30 353 C 30.945 -6.2336 -1.33047 0
M  V30 354 C 28.632 -5.81544 -1.87748 0
M  V30 355 C 29.63 -6.67812 -1.43234 0
M  V30 356 O 29.318 -7.96446 -1.09217 0
M  V30 357 H 29.05 -0.544116 -0.401141 0
M  V30 358 H 31.604 -1.95339 -0.634958 0
M  V30 359 H 29.834 -2.20422 -3.17728 0
M  V30 360 H 31.523 -2.61648 -3.10315 0
M  V30 361 H 32.289 -4.58312 -1.58665 0
M  V30 362 H 28.168 -3.83504 -2.55823 0
M  V30 363 H 31.712 -6.90649 -0.982299 0
M  V30 364 H 27.609 -6.15069 -1.95858 0
M  V30 365 H 28.377 -8.09275 -1.22542 0
M  V30 366 N 31.0401 0.771051 -1.3745 0
M  V30 367 C 31.9701 1.89827 -1.3597 0
M  V30 368 C 32.9511 1.68562 -0.228216 0
M  V30 369 O 34.1361 1.8941 -0.428675 0
M  V30 370 C 31.2661 3.2712 -1.16662 0
M  V30 371 C 30.2201 3.6295 -2.2683 0
M  V30 372 C 29.5461 4.98791 -1.92644 0
M  V30 373 C 30.8461 3.69627 -3.69017 0
M  V30 374 H 32.5401 1.91323 -2.30295 0
M  V30 375 H 30.0861 0.919082 -1.10855 0
M  V30 376 H 32.0391 4.05615 -1.14256 0
M  V30 377 H 30.7631 3.26059 -0.187926 0
M  V30 378 H 29.4221 2.86763 -2.28392 0
M  V30 379 H 29.0701 4.94271 -0.933021 0
M  V30 380 H 28.7701 5.23733 -2.66416 0
M  V30 381 H 30.2941 5.79685 -1.91826 0
M  V30 382 H 31.7081 4.38273 -3.69581 0
M  V30 383 H 30.1051 4.06067 -4.41848 0
M  V30 384 H 31.1751 2.70273 -4.02592 0
M  V30 385 N 32.5182 1.22032 0.997298 0
M  V30 386 C 33.7662 1.04016 1.73278 0
M  V30 387 C 34.0872 -0.426255 1.90284 0
M  V30 388 O 33.3572 -1.30694 1.45931 0
M  V30 389 H 31.9372 0.381897 0.642 0
M  V30 390 H 34.5992 1.5347 1.20137 0
M  V30 391 H 33.6952 1.51441 2.72896 0
M  V30 392 N 33.9963 -1.19345 1.0293 0
M  V30 393 C 34.9263 -2.2481 0.631105 0
M  V30 394 C 35.9073 -1.66245 -0.360104 0
M  V30 395 O 37.0923 -1.92677 -0.242726 0
M  V30 396 C 34.2223 -3.47295 -0.0184607 0
M  V30 397 C 33.1763 -4.18536 0.895073 0
M  V30 398 C 32.5023 -5.34586 0.110592 0
M  V30 399 C 33.8023 -4.73287 2.209 0
M  V30 400 H 35.4963 -2.58372 1.51275 0
M  V30 401 H 33.0423 -1.24194 0.728818 0
M  V30 402 H 34.9953 -4.20268 -0.308675 0
M  V30 403 H 33.7193 -3.12933 -0.934907 0
M  V30 404 H 32.3783 -3.47446 1.16949 0
M  V30 405 H 32.0263 -4.96469 -0.807902 0
M  V30 406 H 31.7263 -5.83183 0.719087 0
M  V30 407 H 33.2503 -6.10355 -0.172871 0
M  V30 408 H 34.6643 -5.38013 1.98028 0
M  V30 409 H 33.0613 -5.32373 2.76946 0
M  V30 410 H 34.1313 -3.91331 2.86336 0
M  V30 411 N 35.4744 -0.807222 -1.35358 0
M  V30 412 C 36.7214 -0.387888 -1.9875 0
M  V30 413 C 37.0494 1.04509 -1.64037 0
M  V30 414 O 36.3044 1.73986 -0.895946 0
M  V30 415 C 36.6034 -0.519036 -3.53611 0
M  V30 416 C 36.2694 -1.91542 -4.08194 0
M  V30 417 C 34.9314 -2.29745 -4.22813 0
M  V30 418 C 37.2834 -2.82896 -4.37744 0
M  V30 419 C 34.6114 -3.58668 -4.643 0
M  V30 420 C 36.9634 -4.11265 -4.8067 0
M  V30 421 C 35.6274 -4.49466 -4.93494 0
M  V30 422 H 34.8974 -0.141938 -0.727279 0
M  V30 423 H 37.5444 -1.02814 -1.6156 0
M  V30 424 H 35.8494 0.204658 -3.91265 0
M  V30 425 H 37.5464 -0.175345 -4.00616 0
M  V30 426 H 34.1364 -1.60862 -3.97268 0
M  V30 427 H 38.3204 -2.54629 -4.26002 0
M  V30 428 H 33.5764 -3.88113 -4.72418 0
M  V30 429 H 37.7504 -4.82153 -5.02496 0
M  V30 430 H 35.3774 -5.49418 -5.25399 0
M  V30 431 N 36.9525 1.47285 -0.560781 0
M  V30 432 C 38.1775 2.07359 -0.0410566 0
M  V30 433 C 38.6025 1.41017 1.24483 0
M  V30 434 O 37.9605 0.486368 1.74654 0
M  V30 435 C 38.0085 3.6035 0.134123 0
M  V30 436 O 37.1125 3.94681 1.19587 0
M  V30 437 H 36.4535 0.661887 -0.0529291 0
M  V30 438 H 38.9835 1.89252 -0.777482 0
M  V30 439 H 38.9935 4.0652 0.347207 0
M  V30 440 H 37.6685 4.08034 -0.805047 0
M  V30 441 H 36.2455 3.60251 0.962987 0
M  V30 442 N 38.4306 0.297415 1.54768 0
M  V30 443 C 39.6786 -0.312295 1.99673 0
M  V30 444 C 39.9996 -1.54686 1.18732 0
M  V30 445 O 39.2696 -1.93854 0.282382 0
M  V30 446 H 37.8496 -0.118381 0.73756 0
M  V30 447 H 40.5116 0.407915 1.90583 0
M  V30 448 H 39.6076 -0.586813 3.06534 0
M  V30 449 N 39.9087 -1.5758 0.0250728 0
M  V30 450 C 41.1337 -1.96337 -0.668317 0
M  V30 451 C 41.5587 -0.901314 -1.651 0
M  V30 452 O 40.9167 0.138187 -1.80773 0
M  V30 453 C 40.9647 -3.34191 -1.35457 0
M  V30 454 O 40.0687 -3.30269 -2.46974 0
M  V30 455 H 39.4097 -0.640281 -0.175887 0
M  V30 456 H 41.9397 -2.0442 0.0857224 0
M  V30 457 H 41.9497 -3.70331 -1.71228 0
M  V30 458 H 40.6247 -4.11036 -0.634218 0
M  V30 459 H 39.2017 -3.05841 -2.13344 0
M  V30 460 N 41.3868 0.248026 -1.55636 0
M  V30 461 C 42.6118 0.998028 -1.81808 0
M  V30 462 C 43.0368 1.78207 -0.601979 0
M  V30 463 O 42.3948 1.75653 0.448961 0
M  V30 464 C 42.4428 1.9125 -3.05705 0
M  V30 465 O 41.5468 3.00406 -2.82542 0
M  V30 466 H 40.8878 0.284045 -0.600179 0
M  V30 467 H 43.4178 0.269357 -2.02819 0
M  V30 468 H 43.4278 2.32737 -3.35108 0
M  V30 469 H 42.1028 1.33602 -3.93857 0
M  V30 470 H 40.6798 2.63056 -2.64303 0
M  V30 471 N 42.8649 1.48995 0.513639 0
M  V30 472 C 44.2759 1.5119 1.09537 0
M  V30 473 C 44.6269 0.290906 1.94031 0
M  V30 474 O 43.7519 -0.60049 2.07902 0
M  V30 475 C 44.3469 2.73964 1.99322 0
M  V30 476 C 42.9059 2.78978 2.52682 0
M  V30 477 C 42.0529 2.44934 1.30009 0
M  V30 478 H 45.0039 1.55875 0.298125 0
M  V30 479 H 45.0249 2.53409 2.83838 0
M  V30 480 H 44.5369 3.62813 1.37799 0
M  V30 481 H 42.6379 1.94378 3.1788 0
M  V30 482 H 42.7509 3.8083 2.90698 0
M  V30 483 H 41.1149 1.9644 1.62122 0
M  V30 484 H 41.8979 3.36043 0.702131 0
M  V30 485 N 44.343 -0.763751 1.37857 0
M  V30 486 C 45.291 -1.89864 1.34367 0
M  V30 487 C 46.285 -1.67816 0.231143 0
M  V30 488 O 47.491 -1.75508 0.399617 0
M  V30 489 H 43.866 -0.624501 0.41893 0
M  V30 490 H 45.837 -1.89925 2.30155 0
M  V30 491 C 44.586 -3.27227 1.1755 0
M  V30 492 H 43.909 -3.44773 2.02414 0
M  V30 493 H 45.349 -4.06911 1.1916 0
M  V30 494 C 43.808 -3.36692 -0.118311 0
M  V30 495 O 44.338 -3.86374 -1.09902 0
M  V30 496 N 42.544 -2.90092 -0.171717 0
M  V30 497 H 42.091 -2.49853 0.627012 0
M  V30 498 H 42.049 -2.96806 -1.03699 0
M  V30 499 N 45.8211 -1.22559 -0.990812 0
M  V30 500 C 47.2321 -1.04791 -1.54518 0
M  V30 501 C 47.5831 0.387998 -1.92325 0
M  V30 502 O 46.7081 1.27328 -1.74976 0
M  V30 503 C 47.3031 -1.896 -2.80779 0
M  V30 504 C 45.8621 -1.76124 -3.32652 0
M  V30 505 C 45.0091 -1.8594 -2.05722 0
M  V30 506 H 47.9601 -1.36374 -0.811662 0
M  V30 507 H 47.9811 -1.41464 -3.53225 0
M  V30 508 H 47.4931 -2.94101 -2.53231 0
M  V30 509 H 45.5941 -0.743643 -3.65104 0
M  V30 510 H 45.7071 -2.58913 -4.03114 0
M  V30 511 H 44.0711 -1.29403 -2.19379 0
M  V30 512 H 44.8541 -2.91976 -1.80568 0
M  V30 513 N 47.2992 1.18797 -1.03562 0
M  V30 514 C 48.5462 1.8865 -0.736023 0
M  V30 515 C 48.8742 1.80041 0.735889 0
M  V30 516 O 48.1292 1.19179 1.55225 0
M  V30 517 C 48.4282 3.38692 -1.14117 0
M  V30 518 C 48.0942 3.67504 -2.6125 0
M  V30 519 C 46.7562 3.75078 -3.01447 0
M  V30 520 C 49.1082 3.80293 -3.56408 0
M  V30 521 C 46.4362 3.92915 -4.35701 0
M  V30 522 C 48.7882 3.99645 -4.90374 0
M  V30 523 C 47.4522 4.05453 -5.30249 0
M  V30 524 H 46.7222 0.690321 -0.26933 0
M  V30 525 H 49.3692 1.40641 -1.29971 0
M  V30 526 H 47.6742 3.88645 -0.496202 0
M  V30 527 H 49.3712 3.91072 -0.886789 0
M  V30 528 H 45.9612 3.62223 -2.29113 0
M  V30 529 H 50.1452 3.73779 -3.26501 0
M  V30 530 H 45.4012 3.95653 -4.66121 0
M  V30 531 H 49.5752 4.08482 -5.64017 0
M  V30 532 H 47.2022 4.19027 -6.34288 0
M  V30 533 N 48.7773 0.814389 1.34928 0
M  V30 534 C 50.0023 0.410097 2.03305 0
M  V30 535 C 50.4273 -0.973464 1.60951 0
M  V30 536 O 49.7853 -1.63185 0.789964 0
M  V30 537 C 49.8333 0.51049 3.56968 0
M  V30 538 O 48.9373 -0.473035 4.09678 0
M  V30 539 H 48.2783 0.170088 0.641846 0
M  V30 540 H 50.8083 1.10244 1.72358 0
M  V30 541 H 50.8183 0.383135 4.06197 0
M  V30 542 H 49.4933 1.51963 3.87144 0
M  V30 543 H 48.0703 -0.305272 3.71648 0
M  V30 544 N 50.2554 -1.46986 0.568584 0
M  V30 545 C 51.1654 -2.33942 -0.17555 0
M  V30 546 C 52.1814 -1.48891 -0.90041 0
M  V30 547 O 53.3574 -1.81794 -0.86676 0
M  V30 548 C 50.4224 -3.25811 -1.18524 0
M  V30 549 C 49.4834 -4.26757 -0.466582 0
M  V30 550 C 48.7164 -5.14236 -1.42817 0
M  V30 551 O 48.9394 -5.04379 -2.66379 0
M  V30 552 O 47.8734 -5.94412 -0.946453 0
M  V30 553 H 51.6994 -2.98896 0.538036 0
M  V30 554 H 49.2844 -1.4573 0.329097 0
M  V30 555 H 51.1664 -3.82527 -1.76779 0
M  V30 556 H 49.8414 -2.63471 -1.88055 0
M  V30 557 H 48.7484 -3.73769 0.157451 0
M  V30 558 H 50.0814 -4.91843 0.187485 0
M  V30 559 N 51.7335 -0.305618 -1.54608 0
M  V30 560 C 53.0105 0.355652 -1.92339 0
M  V30 561 C 53.3905 1.71324 -1.23335 0
M  V30 562 O 52.7385 2.25473 -0.370702 0
M  V30 563 C 52.9485 0.46572 -3.45879 0
M  V30 564 C 54.2965 0.734426 -4.182 0
M  V30 565 O 55.3205 0.54935 -3.51938 0
M  V30 566 O 54.1795 1.09024 -5.35515 0
M  V30 567 H 51.2735 0.199666 -0.802535 0
M  V30 568 H 53.8195 -0.354017 -1.65966 0
M  V30 569 H 52.5915 -0.488461 -3.88239 0
M  V30 570 H 52.2145 1.22367 -3.78301 0
M  V30 571 N 53.2116 1.57565 -0.0334293 0
M  V30 572 C 54.4576 1.92262 0.645226 0
M  V30 573 C 54.7906 0.910543 1.71531 0
M  V30 574 O 54.0656 -0.066099 1.94388 0
M  V30 575 C 54.3486 3.37422 1.2577 0
M  V30 576 C 54.2016 4.49369 0.196891 0
M  V30 577 C 55.5206 3.82628 2.17449 0
M  V30 578 H 52.6396 0.699171 0.233085 0
M  V30 579 H 55.2816 1.89779 -0.0915694 0
M  V30 580 H 53.4316 3.39669 1.88566 0
M  V30 581 H 55.1036 4.59254 -0.433962 0
M  V30 582 H 53.3466 4.31168 -0.477137 0
M  V30 583 H 54.0176 5.47978 0.665124 0
M  V30 584 H 56.4936 3.82145 1.64634 0
M  V30 585 H 55.3696 4.84883 2.57254 0
M  V30 586 H 55.6306 3.18376 3.0674 0
M  V30 587 N 54.6897 -0.239769 1.55765 0
M  V30 588 C 55.6367 -1.29696 1.90913 0
M  V30 589 C 56.6067 -1.47478 0.764164 0
M  V30 590 O 57.7917 -1.61345 1.01845 0
M  V30 591 C 54.9317 -2.64598 2.21544 0
M  V30 592 C 54.0447 -2.54765 3.48882 0
M  V30 593 C 53.1797 -3.82069 3.69049 0
M  V30 594 C 52.2187 -3.66883 4.89963 0
M  V30 595 N 51.3557 -4.86094 5.06614 0
M  V30 596 H 56.1957 -0.990224 2.81067 0
M  V30 597 H 53.7327 -0.477684 1.39128 0
M  V30 598 H 55.6907 -3.43132 2.3731 0
M  V30 599 H 54.3207 -2.93405 1.34585 0
M  V30 600 H 53.3727 -1.67763 3.41409 0
M  V30 601 H 54.6847 -2.39457 4.37563 0
M  V30 602 H 53.8387 -4.69046 3.84812 0
M  V30 603 H 52.5777 -4.00282 2.78614 0
M  V30 604 H 51.5827 -2.78289 4.74168 0
M  V30 605 H 52.8077 -3.50157 5.81865 0
M  V30 606 H 50.7537 -5.04655 4.19117 0
M  V30 607 H 50.6707 -4.73443 5.89396 0
M  V30 608 H 51.9387 -5.74549 5.26795 0
M  V30 609 N 56.1678 -1.49265 -0.50573 0
M  V30 610 C 57.5838 -1.35923 -0.836486 0
M  V30 611 C 57.7838 -0.388704 -1.97715 0
M  V30 612 O 56.8398 0.181336 -2.51848 0
M  V30 613 C 58.1528 -2.76531 -1.18115 0
M  V30 614 C 59.7008 -2.85197 -1.28964 0
M  V30 615 C 60.1758 -4.26561 -1.66761 0
M  V30 616 N 61.6668 -4.2935 -1.73819 0
M  V30 617 C 62.4018 -5.35693 -2.045 0
M  V30 618 N 61.8978 -6.52287 -2.33438 0
M  V30 619 N 63.6908 -5.23105 -2.05711 0
M  V30 620 H 55.8418 -2.10965 0.246519 0
M  V30 621 H 58.1048 -0.9468 0.0476887 0
M  V30 622 H 57.8108 -3.49226 -0.416398 0
M  V30 623 H 57.6848 -3.11599 -2.1257 0
M  V30 624 H 60.0718 -2.12742 -2.04511 0
M  V30 625 H 60.1528 -2.53718 -0.325704 0
M  V30 626 H 59.7968 -4.99541 -0.917656 0
M  V30 627 H 59.7268 -4.55502 -2.64246 0
M  V30 628 H 62.2178 -3.4526 -1.53635 0
M  V30 629 H 62.5308 -7.29158 -2.56024 0
M  V30 630 H 60.8758 -6.55521 -2.30905 0
M  V30 631 H 64.0668 -4.31026 -1.82577 0
M  V30 632 H 64.2398 -6.06078 -2.29289 0
M  V30 633 N 57.6459 0.756429 -1.3826 0
M  V30 634 C 59.0569 1.33359 -1.30661 0
M  V30 635 C 59.4079 1.96161 0.0388875 0
M  V30 636 O 58.5329 1.94874 0.940918 0
M  V30 637 C 59.1279 2.42477 -2.36622 0
M  V30 638 C 57.6869 2.95922 -2.3261 0
M  V30 639 C 56.8339 1.69275 -2.19639 0
M  V30 640 H 59.7849 0.55552 -1.4866 0
M  V30 641 H 59.8059 3.22345 -2.02174 0
M  V30 642 H 59.3179 1.96739 -3.34538 0
M  V30 643 H 57.4189 3.45996 -1.38267 0
M  V30 644 H 57.5319 3.50494 -3.26636 0
M  V30 645 H 55.8959 1.92793 -1.66442 0
M  V30 646 H 56.6789 1.25619 -3.19491 0
M  V30 647 N 59.124 1.23083 0.984299 0
M  V30 648 C 60.535 1.05609 1.5396 0
M  V30 649 C 60.886 -0.377793 1.92528 0
M  V30 650 O 60.011 -1.26398 1.75649 0
M  V30 651 C 60.606 1.91087 2.7977 0
M  V30 652 C 59.165 1.77885 3.31713 0
M  V30 653 C 58.312 1.87028 2.04733 0
M  V30 654 H 61.263 1.36802 0.804419 0
M  V30 655 H 61.284 1.43336 3.5247 0
M  V30 656 H 60.796 2.9544 2.51668 0
M  V30 657 H 58.897 0.762995 3.64704 0
M  V30 658 H 59.01 2.61047 4.01735 0
M  V30 659 H 57.374 1.30565 2.18689 0
M  V30 660 H 58.157 2.92929 1.79017 0
M  V30 661 N 60.6021 -1.18246 1.0419 0
M  V30 662 C 61.5651 -2.20128 0.638452 0
M  V30 663 C 62.5651 -1.57885 -0.304805 0
M  V30 664 O 63.7551 -1.73967 -0.0900369 0
M  V30 665 C 60.8871 -3.4084 -0.0637751 0
M  V30 666 H 62.0801 -2.57336 1.54007 0
M  V30 667 H 59.6331 -1.32152 0.834598 0
M  V30 668 H 60.3681 -3.09166 -0.979136 0
M  V30 669 H 60.1531 -3.8726 0.614198 0
M  V30 670 H 61.6431 -4.16274 -0.332512 0
M  V30 671 N 62.0802 -0.821533 -1.34494 0
M  V30 672 C 63.4912 -0.467956 -1.8074 0
M  V30 673 C 63.8422 1.01151 -1.68116 0
M  V30 674 O 62.9672 1.78707 -1.22036 0
M  V30 675 C 63.5622 -0.842627 -3.28154 0
M  V30 676 C 62.1212 -0.541439 -3.72485 0
M  V30 677 C 61.2682 -1.06028 -2.56229 0
M  V30 678 H 64.2192 -1.01183 -1.22261 0
M  V30 679 H 64.2402 -0.145876 -3.8022 0
M  V30 680 H 63.7522 -1.91945 -3.37311 0
M  V30 681 H 61.8532 0.526034 -3.68868 0
M  V30 682 H 61.9662 -1.08453 -4.66663 0
M  V30 683 H 60.3302 -0.481892 -2.501 0
M  V30 684 H 61.1132 -2.14352 -2.68157 0
M  V30 685 N 63.5583 1.46682 -0.576371 0
M  V30 686 C 64.4883 2.33028 0.148397 0
M  V30 687 C 65.4693 1.44961 0.889956 0
M  V30 688 O 66.6543 1.73789 0.866662 0
M  V30 689 C 63.7843 3.27117 1.1667 0
M  V30 690 C 62.7383 4.24575 0.540386 0
M  V30 691 C 62.0643 5.08126 1.6647 0
M  V30 692 C 63.3643 5.19722 -0.518331 0
M  V30 693 H 65.0583 2.93875 -0.572509 0
M  V30 694 H 62.6043 1.41315 -0.276768 0
M  V30 695 H 64.5573 3.86374 1.68204 0
M  V30 696 H 63.2813 2.64364 1.9178 0
M  V30 697 H 61.9403 3.66571 0.0461769 0
M  V30 698 H 61.5883 4.41762 2.40531 0
M  V30 699 H 61.2883 5.74122 1.25131 0
M  V30 700 H 62.8123 5.70246 2.18293 0
M  V30 701 H 64.2263 5.73232 -0.0883058 0
M  V30 702 H 62.6233 5.94026 -0.851679 0
M  V30 703 H 63.6933 4.64037 -1.40703 0
M  V30 704 N 65.0364 0.313813 1.54444 0
M  V30 705 C 66.2824 -0.292108 2.00685 0
M  V30 706 C 66.6154 -1.52548 1.20177 0
M  V30 707 O 65.8904 -1.92452 0.281531 0
M  V30 708 C 66.1734 -0.635968 3.5444 0
M  V30 709 C 66.0264 0.607437 4.4568 0
M  V30 710 C 67.3454 -1.45747 4.15266 0
M  V30 711 H 64.4644 -0.104697 0.729526 0
M  V30 712 H 67.1064 0.428457 1.85106 0
M  V30 713 H 65.2564 -1.24986 3.67846 0
M  V30 714 H 66.9284 1.24581 4.44159 0
M  V30 715 H 65.1714 1.23822 4.15753 0
M  V30 716 H 65.8424 0.322515 5.51057 0
M  V30 717 H 68.3184 -0.938645 4.05375 0
M  V30 718 H 67.1944 -1.66683 5.2298 0
M  V30 719 H 67.4554 -2.45063 3.67963 0
M  V30 720 N 66.5145 -1.57545 0.0417849 0
M  V30 721 C 67.7425 -1.96624 -0.643928 0
M  V30 722 C 68.1575 -0.918897 -1.64929 0
M  V30 723 O 67.5145 0.0979323 -1.82237 0
M  V30 724 C 67.5655 -3.35781 -1.33914 0
M  V30 725 O 67.2865 -4.365 -0.374048 0
M  V30 726 C 68.7875 -3.89566 -2.1155 0
M  V30 727 H 66.0075 -0.647316 -0.176702 0
M  V30 728 H 68.5515 -2.04229 0.105304 0
M  V30 729 H 66.7065 -3.29357 -2.03968 0
M  V30 730 H 67.1205 -5.17248 -0.869179 0
M  V30 731 H 68.5945 -4.89242 -2.55628 0
M  V30 732 H 69.0715 -3.24488 -2.9598 0
M  V30 733 H 69.6775 -3.99298 -1.46427 0
M  V30 734 N 67.9926 0.231505 -1.5589 0
M  V30 735 C 69.2696 0.981096 -1.69215 0
M  V30 736 C 69.6496 2.02799 -0.586164 0
M  V30 737 O 68.9976 2.24823 0.408253 0
M  V30 738 C 69.2076 1.60054 -3.10135 0
M  V30 739 C 70.5556 2.09658 -3.69227 0
M  V30 740 O 71.5796 1.69967 -3.13033 0
M  V30 741 O 70.4386 2.8258 -4.67772 0
M  V30 742 H 67.5326 0.457653 -0.688827 0
M  V30 743 H 70.0786 0.224073 -1.68214 0
M  V30 744 H 68.8506 0.844105 -3.82087 0
M  V30 745 H 68.4736 2.42336 -3.15212 0
M  V30 746 N 69.4707 1.49531 0.497807 0
M  V30 747 C 70.4177 1.66436 1.59899 0
M  V30 748 C 71.3877 0.505793 1.58212 0
M  V30 749 O 72.5727 0.733202 1.7615 0
M  V30 750 C 69.7127 1.7399 2.98029 0
M  V30 751 C 68.8257 3.01172 3.09708 0
M  V30 752 C 67.9607 2.99686 4.38591 0
M  V30 753 C 66.9997 4.21434 4.43914 0
M  V30 754 N 66.1367 4.1784 5.64229 0
M  V30 755 H 70.9767 2.60459 1.44793 0
M  V30 756 H 68.5137 1.29137 0.704423 0
M  V30 757 H 70.4717 1.76352 3.78095 0
M  V30 758 H 69.1017 0.834301 3.11832 0
M  V30 759 H 68.1537 3.08408 2.22685 0
M  V30 760 H 69.4657 3.91165 3.09502 0
M  V30 761 H 68.6197 3.00628 5.2698 0
M  V30 762 H 67.3587 2.07477 4.41367 0
M  V30 763 H 66.3637 4.20733 3.53926 0
M  V30 764 H 67.5887 5.14839 4.42851 0
M  V30 765 H 65.5347 3.28469 5.67841 0
M  V30 766 H 65.4517 5.01571 5.65652 0
M  V30 767 H 66.7197 4.22889 6.54817 0
M  V30 768 N 70.9488 -0.749086 1.3866 0
M  V30 769 C 71.8588 -1.89358 1.38494 0
M  V30 770 C 72.8748 -1.71708 0.281476 0
M  V30 771 O 74.0508 -1.94554 0.520643 0
M  V30 772 C 71.1158 -3.24782 1.21316 0
M  V30 773 C 70.1768 -3.54926 2.41508 0
M  V30 774 C 69.4098 -4.83888 2.2514 0
M  V30 775 O 69.6328 -5.56592 1.24746 0
M  V30 776 O 68.5668 -5.13612 3.13826 0
M  V30 777 H 72.3928 -1.92452 2.34938 0
M  V30 778 H 69.9778 -0.894981 1.19626 0
M  V30 779 H 71.8598 -4.05739 1.13814 0
M  V30 780 H 70.5348 -3.2249 0.279592 0
M  V30 781 H 69.4418 -2.74112 2.54585 0
M  V30 782 H 70.7748 -3.61983 3.3351 0
M  V30 783 N 72.4269 -1.23603 -0.977757 0
M  V30 784 C 73.3899 -1.02069 -2.05218 0
M  V30 785 C 74.3899 0.0184305 -1.60789 0
M  V30 786 O 75.5799 -0.221569 -1.72785 0
M  V30 787 C 72.7119 -0.544926 -3.36517 0
M  V30 788 H 73.9049 -1.9742 -2.25755 0
M  V30 789 H 71.4579 -1.05684 -1.15155 0
M  V30 790 H 72.1929 0.412241 -3.21669 0
M  V30 791 H 71.9779 -1.2948 -3.70105 0
M  V30 792 H 73.4679 -0.414985 -4.15533 0
M  V30 793 N 73.905 1.17692 -1.04816 0
M  V30 794 C 75.321 1.39863 -0.768794 0
M  V30 795 C 75.521 1.91118 0.638451 0
M  V30 796 O 74.577 2.10036 1.40146 0
M  V30 797 C 75.89 2.39274 -1.82122 0
M  V30 798 C 77.438 2.52987 -1.843 0
M  V30 799 C 77.913 3.55669 -2.88555 0
M  V30 800 N 79.404 3.63183 -2.87493 0
M  V30 801 C 80.139 4.42381 -3.64811 0
M  V30 802 N 79.635 5.25125 -4.51903 0
M  V30 803 N 81.428 4.37217 -3.53267 0
M  V30 804 H 73.579 0.82752 -1.95617 0
M  V30 805 H 75.842 0.426123 -0.846831 0
M  V30 806 H 75.548 2.08678 -2.83102 0
M  V30 807 H 75.422 3.38725 -1.65967 0
M  V30 808 H 77.809 2.82896 -0.839869 0
M  V30 809 H 77.89 1.53623 -2.04532 0
M  V30 810 H 77.534 3.26499 -3.89051 0
M  V30 811 H 77.464 4.54728 -2.65575 0
M  V30 812 H 79.955 3.04103 -2.24343 0
M  V30 813 H 80.268 5.82728 -5.07591 0
M  V30 814 H 78.613 5.24519 -4.55966 0
M  V30 815 H 81.804 3.71626 -2.84625 0
M  V30 816 H 81.977 4.98696 -4.13771 0
M  V30 817 N 75.3831 0.828654 1.34056 0
M  V30 818 C 76.3301 0.252567 2.29414 0
M  V30 819 C 77.3001 -0.62588 1.53857 0
M  V30 820 O 78.4851 -0.566312 1.82202 0
M  V30 821 C 75.6251 -0.574831 3.40279 0
M  V30 822 C 74.7381 0.326499 4.30764 0
M  V30 823 C 73.8731 -0.511016 5.28736 0
M  V30 824 C 72.9121 0.389342 6.1086 0
M  V30 825 N 72.0491 -0.409439 7.00905 0
M  V30 826 H 76.8891 1.07108 2.78086 0
M  V30 827 H 74.4261 0.539677 1.36843 0
M  V30 828 H 76.3841 -1.06992 4.03248 0
M  V30 829 H 75.0141 -1.35841 2.92826 0
M  V30 830 H 74.0661 0.939837 3.68607 0
M  V30 831 H 75.3781 1.01857 4.88289 0
M  V30 832 H 74.5321 -1.07035 5.97184 0
M  V30 833 H 73.2711 -1.23657 4.71763 0
M  V30 834 H 72.2761 0.960769 5.4134 0
M  V30 835 H 73.5011 1.1131 6.69916 0
M  V30 836 H 71.4471 -1.11856 6.46393 0
M  V30 837 H 71.3641 0.224126 7.55668 0
M  V30 838 H 72.6321 -0.951336 7.73673 0
M  V30 839 N 76.8612 -1.46375 0.584142 0
M  V30 840 C 77.8082 -2.30323 -0.148286 0
M  V30 841 C 78.7782 -1.40703 -0.882713 0
M  V30 842 O 79.9632 -1.69651 -0.873099 0
M  V30 843 C 77.1032 -3.25196 -1.15507 0
M  V30 844 C 76.2162 -4.29915 -0.423943 0
M  V30 845 C 75.3512 -5.11914 -1.41838 0
M  V30 846 C 74.3902 -6.08381 -0.673736 0
M  V30 847 N 73.5272 -6.83242 -1.6163 0
M  V30 848 H 78.3672 -2.92427 0.573644 0
M  V30 849 H 75.9042 -1.44118 0.294703 0
M  V30 850 H 77.8622 -3.78646 -1.75166 0
M  V30 851 H 76.4922 -2.64898 -1.8447 0
M  V30 852 H 75.5442 -3.7931 0.287714 0
M  V30 853 H 76.8562 -4.98549 0.158128 0
M  V30 854 H 76.0102 -5.69648 -2.08773 0
M  V30 855 H 74.7492 -4.43243 -2.03438 0
M  V30 856 H 73.7542 -5.49799 0.00938483 0
M  V30 857 H 74.9792 -6.79071 -0.0631082 0
M  V30 858 H 72.9252 -6.1728 -2.22038 0
M  V30 859 H 72.8422 -7.48144 -1.08707 0
M  V30 860 H 74.1102 -7.45534 -2.27596 0
M  V30 861 N 78.3393 -0.321999 -1.54275 0
M  V30 862 C 79.5853 0.281461 -2.00837 0
M  V30 863 C 79.9183 1.51909 -1.20985 0
M  V30 864 O 79.1933 1.923 -0.291733 0
M  V30 865 C 79.4763 0.617162 -3.54772 0
M  V30 866 C 79.3293 -0.631064 -4.45351 0
M  V30 867 C 80.6483 1.43542 -4.16033 0
M  V30 868 H 77.7673 0.100826 -0.730071 0
M  V30 869 H 80.4093 -0.438268 -1.84876 0
M  V30 870 H 78.5593 1.23034 -3.68504 0
M  V30 871 H 80.2313 -1.26934 -4.43492 0
M  V30 872 H 78.4743 -1.26025 -4.15091 0
M  V30 873 H 79.1453 -0.351735 -5.50878 0
M  V30 874 H 81.6213 0.917134 -4.05867 0
M  V30 875 H 80.4973 1.63907 -5.23856 0
M  V30 876 H 80.7583 2.43108 -3.69257 0
M  V30 877 N 79.8174 1.5752 -0.0501392 0
M  V30 878 C 80.7474 2.14502 0.922566 0
M  V30 879 C 81.7284 1.06642 1.3252 0
M  V30 880 O 82.9134 1.34577 1.4001 0
M  V30 881 C 80.0434 2.68916 2.19776 0
M  V30 882 C 78.9974 3.8175 1.93523 0
M  V30 883 C 78.3234 4.22677 3.27487 0
M  V30 884 C 79.6234 5.06932 1.25765 0
M  V30 885 H 81.3174 2.9603 0.447952 0
M  V30 886 H 78.8634 1.42401 0.214024 0
M  V30 887 H 80.8164 3.07419 2.88222 0
M  V30 888 H 79.5404 1.84578 2.69441 0
M  V30 889 H 78.1994 3.43718 1.27489 0
M  V30 890 H 77.8474 3.35291 3.74952 0
M  V30 891 H 77.5474 4.98725 3.1072 0
M  V30 892 H 79.0714 4.63779 3.97166 0
M  V30 893 H 80.4854 5.42888 1.84244 0
M  V30 894 H 78.8824 5.88116 1.19328 0
M  V30 895 H 79.9524 4.84337 0.233536 0
M  V30 896 N 81.2955 -0.223234 1.56011 0
M  V30 897 C 82.2425 -1.27664 1.92277 0
M  V30 898 C 83.2125 -1.46659 0.779763 0
M  V30 899 O 84.3975 -1.60256 1.03551 0
M  V30 900 C 81.5375 -2.62234 2.24338 0
M  V30 901 C 80.6505 -2.51051 3.51564 0
M  V30 902 C 79.7855 -3.78133 3.7308 0
M  V30 903 C 78.8245 -3.61665 4.93827 0
M  V30 904 N 77.9615 -4.80693 5.11741 0
M  V30 905 H 82.8015 -0.960358 2.82101 0
M  V30 906 H 80.3385 -0.462901 1.39627 0
M  V30 907 H 82.2965 -3.40596 2.40936 0
M  V30 908 H 80.9265 -2.91961 1.3769 0
M  V30 909 H 79.9785 -1.64132 3.43169 0
M  V30 910 H 81.2905 -2.34803 4.40079 0
M  V30 911 H 80.4445 -4.64938 3.89766 0
M  V30 912 H 79.1835 -3.97304 2.82844 0
M  V30 913 H 78.1885 -2.73244 4.77093 0
M  V30 914 H 79.4135 -3.43966 5.85546 0
M  V30 915 H 77.3595 -5.00181 4.24446 0
M  V30 916 H 77.2765 -4.67165 5.94384 0
M  V30 917 H 78.5445 -5.6893 5.3286 0
M  V30 918 N 82.7736 -1.49793 -0.48987 0
M  V30 919 C 83.7056 -1.63413 -1.60713 0
M  V30 920 C 84.7186 -0.516329 -1.54395 0
M  V30 921 O 85.9076 -0.788812 -1.60125 0
M  V30 922 C 83.0076 -1.58516 -2.99543 0
M  V30 923 C 82.1806 -2.86016 -3.30928 0
M  V30 924 C 81.2396 -2.74018 -4.49222 0
M  V30 925 O 80.2656 -3.47964 -4.50455 0
M  V30 926 N 81.4676 -1.86309 -5.4979 0
M  V30 927 H 84.2326 -2.59777 -1.49452 0
M  V30 928 H 81.7936 -1.47022 -0.677955 0
M  V30 929 H 83.7856 -1.48128 -3.76617 0
M  V30 930 H 82.3556 -0.69965 -3.0467 0
M  V30 931 H 81.5756 -3.10672 -2.42645 0
M  V30 932 H 82.8636 -3.70521 -3.487 0
M  V30 933 H 82.2616 -1.2551 -5.51601 0
M  V30 934 H 80.8186 -1.81837 -6.25922 0
M  V30 935 N 84.2517 0.741722 -1.39055 0
M  V30 936 C 85.2147 1.83733 -1.37021 0
M  V30 937 C 86.2147 1.58542 -0.268534 0
M  V30 938 O 87.4047 1.66067 -0.526076 0
M  V30 939 C 84.5367 3.2141 -1.13617 0
M  V30 940 H 85.7297 1.86941 -2.34506 0
M  V30 941 H 83.2827 0.944676 -1.24521 0
M  V30 942 H 84.0177 3.23865 -0.167863 0
M  V30 943 H 83.8027 3.4109 -1.93391 0
M  V30 944 H 85.2927 4.01477 -1.14918 0
M  V30 945 N 85.7298 1.2412 0.971189 0
M  V30 946 C 86.9768 1.07881 1.71371 0
M  V30 947 C 87.3048 -0.382901 1.90694 0
M  V30 948 O 86.5598 -1.29945 1.46331 0
M  V30 949 C 86.8588 1.75983 3.11071 0
M  V30 950 C 86.5248 3.25909 3.11599 0
M  V30 951 C 85.1868 3.66813 3.11451 0
M  V30 952 C 87.5388 4.21771 3.062 0
M  V30 953 C 84.8668 5.02021 3.03631 0
M  V30 954 C 87.2188 5.56982 2.99923 0
M  V30 955 C 85.8828 5.97237 2.98102 0
M  V30 956 H 85.1528 0.394764 0.62709 0
M  V30 957 H 87.7998 1.54176 1.13587 0
M  V30 958 H 86.1048 1.22072 3.72298 0
M  V30 959 H 87.8018 1.60887 3.6731 0
M  V30 960 H 84.3918 2.93353 3.12477 0
M  V30 961 H 88.5758 3.91172 3.05447 0
M  V30 962 H 83.8318 5.32411 3.0058 0
M  V30 963 H 88.0058 6.30969 2.94704 0
M  V30 964 H 85.6328 7.01967 2.91798 0
M  V30 965 N 87.2079 -1.17134 1.05439 0
M  V30 966 C 88.4329 -1.91913 0.786396 0
M  V30 967 C 88.8579 -1.7643 -0.652234 0
M  V30 968 O 88.2159 -1.08372 -1.45345 0
M  V30 969 C 88.2639 -3.40921 1.17497 0
M  V30 970 O 87.3679 -4.11244 0.308589 0
M  V30 971 H 86.7089 -0.598215 0.288158 0
M  V30 972 H 89.2389 -1.48457 1.4079 0
M  V30 973 H 89.2489 -3.91668 1.14281 0
M  V30 974 H 87.9239 -3.5151 2.22292 0
M  V30 975 H 86.5009 -3.70731 0.40157 0
M  V30 976 N 88.686 -0.835752 -1.33615 0
M  V30 977 C 89.649 -0.272 -2.2758 0
M  V30 978 C 90.649 0.557487 -1.50827 0
M  V30 979 O 91.839 0.37173 -1.70188 0
M  V30 980 C 88.971 0.617173 -3.35267 0
M  V30 981 H 90.164 -1.10111 -2.78954 0
M  V30 982 H 87.717 -0.608594 -1.43965 0
M  V30 983 H 88.452 1.46884 -2.89129 0
M  V30 984 H 88.237 0.0237066 -3.92093 0
M  V30 985 H 89.727 1.005 -4.05326 0
M  V30 986 N 90.1641 1.46063 -0.591896 0
M  V30 987 C 91.1121 2.32124 0.148739 0
M  V30 988 C 92.1061 1.45035 0.875286 0
M  V30 989 O 93.3121 1.61609 0.792632 0
M  V30 990 H 89.6871 0.749024 0.066832 0
M  V30 991 H 91.6581 2.92392 -0.595783 0
M  V30 992 C 90.4071 3.28373 1.1431 0
M  V30 993 H 89.7301 3.95371 0.59346 0
M  V30 994 H 91.1701 3.91352 1.63155 0
M  V30 995 C 89.6291 2.54393 2.20875 0
M  V30 996 O 90.1591 2.31373 3.28374 0
M  V30 997 N 88.3651 2.14797 1.95731 0
M  V30 998 H 87.9121 2.33719 1.08319 0
M  V30 999 H 87.8701 1.65619 2.67241 0
M  V30 1000 N 91.6422 0.330177 1.54103 0
M  V30 1001 C 92.5742 -0.566902 2.22079 0
M  V30 1002 C 93.5872 -1.07462 1.22294 0
M  V30 1003 O 94.7762 -0.987065 1.48726 0
M  V30 1004 C 91.8762 -1.79138 2.87685 0
M  V30 1005 C 91.0492 -1.42123 4.13666 0
M  V30 1006 C 90.1082 -2.50394 4.62806 0
M  V30 1007 O 89.1342 -2.14261 5.27334 0
M  V30 1008 N 90.3362 -3.81433 4.37595 0
M  V30 1009 H 93.1012 0.0151844 2.99696 0
M  V30 1010 H 90.6622 0.153681 1.61169 0
M  V30 1011 H 92.6542 -2.50975 3.1748 0
M  V30 1012 H 91.2242 -2.28115 2.13734 0
M  V30 1013 H 90.4442 -0.534201 3.90564 0
M  V30 1014 H 91.7322 -1.14971 4.9564 0
M  V30 1015 H 91.1302 -4.13584 3.8596 0
M  V30 1016 H 89.6872 -4.4948 4.72029 0
M  V30 1017 N 93.1203 -1.57491 0.0584922 0
M  V30 1018 C 94.3663 -1.93264 -0.614558 0
M  V30 1019 C 94.6993 -0.937717 -1.7006 0
M  V30 1020 O 93.9743 0.0351652 -1.94468 0
M  V30 1021 C 94.2573 -3.3938 -1.20386 0
M  V30 1022 C 94.1103 -4.49625 -0.125375 0
M  V30 1023 C 95.4293 -3.86039 -2.11334 0
M  V30 1024 H 92.5483 -0.702791 -0.221933 0
M  V30 1025 H 95.1903 -1.8961 0.12175 0
M  V30 1026 H 93.3403 -3.42626 -1.83139 0
M  V30 1027 H 95.0123 -4.58506 0.506971 0
M  V30 1028 H 93.2553 -4.30354 0.545672 0
M  V30 1029 H 93.9263 -5.48967 -0.577861 0
M  V30 1030 H 96.4023 -3.84716 -1.58534 0
M  V30 1031 H 95.2783 -4.88914 -2.49507 0
M  V30 1032 H 95.5393 -3.23215 -3.01636 0
M  V30 1033 N 94.5984 0.214957 -1.56127 0
M  V30 1034 C 96.0094 0.781386 -1.69562 0
M  V30 1035 C 96.3604 1.84707 -0.66165 0
M  V30 1036 O 95.4854 2.156 0.185927 0
M  V30 1037 C 96.0804 1.42411 -3.07416 0
M  V30 1038 C 94.6394 1.93786 -3.22683 0
M  V30 1039 C 93.7864 0.800438 -2.65496 0
M  V30 1040 H 96.7374 -0.00980633 -1.58697 0
M  V30 1041 H 96.7584 2.29309 -3.0364 0
M  V30 1042 H 96.2704 0.64826 -3.82648 0
M  V30 1043 H 94.3714 2.74152 -2.52332 0
M  V30 1044 H 94.4844 2.1133 -4.29973 0
M  V30 1045 H 92.8484 1.2095 -2.2415 0
M  V30 1046 H 93.6314 0.0371471 -3.4328 0
M  V30 1047 N 96.0765 1.50051 0.48192 0
M  V30 1048 C 96.9865 1.7089 1.60728 0
M  V30 1049 C 98.0025 0.591788 1.63627 0
M  V30 1050 O 99.1785 0.868817 1.81696 0
M  V30 1051 C 96.2435 1.78855 2.97005 0
M  V30 1052 C 95.3045 3.02537 3.04581 0
M  V30 1053 C 94.5375 3.10112 4.34357 0
M  V30 1054 O 94.7605 2.24765 5.24249 0
M  V30 1055 O 93.6945 4.02747 4.47301 0
M  V30 1056 H 97.5205 2.66264 1.46072 0
M  V30 1057 H 95.1055 1.34018 0.660264 0
M  V30 1058 H 96.9875 1.86336 3.77964 0
M  V30 1059 H 95.6625 0.866628 3.11883 0
M  V30 1060 H 94.5695 3.00563 2.22739 0
M  V30 1061 H 95.9025 3.94272 2.94636 0
M  V30 1062 N 97.5546 -0.734337 1.39446 0
M  V30 1063 C 98.5016 -1.84835 1.38219 0
M  V30 1064 C 99.4716 -1.64331 0.24179 0
M  V30 1065 O 100.657 -1.85728 0.437002 0
M  V30 1066 C 97.7966 -3.22355 1.23212 0
M  V30 1067 C 96.9096 -3.5456 2.46801 0
M  V30 1068 C 96.0446 -4.81485 2.24377 0
M  V30 1069 C 95.0836 -5.06536 3.43639 0
M  V30 1070 N 94.2206 -6.24665 3.20528 0
M  V30 1071 H 99.0606 -1.85219 2.33448 0
M  V30 1072 H 96.5976 -0.905039 1.15963 0
M  V30 1073 H 98.5556 -4.0174 1.12522 0
M  V30 1074 H 97.1856 -3.21248 0.316121 0
M  V30 1075 H 96.2376 -2.69872 2.68092 0
M  V30 1076 H 97.5496 -3.6899 3.3563 0
M  V30 1077 H 96.7036 -5.68852 2.10933 0
M  V30 1078 H 95.4426 -4.6923 1.32944 0
M  V30 1079 H 94.4476 -4.17632 3.5758 0
M  V30 1080 H 95.6726 -5.20676 4.35974 0
M  V30 1081 H 93.6186 -6.13696 2.3176 0
M  V30 1082 H 93.5356 -6.39685 4.02913 0
M  V30 1083 H 94.8036 -7.14868 3.10779 0
M  V30 1084 N 99.0327 -1.24633 -0.964593 0
M  V30 1085 C 99.9627 -1.06611 -2.07741 0
M  V30 1086 C 100.944 0.0218666 -1.70086 0
M  V30 1087 O 102.129 -0.145793 -1.93652 0
M  V30 1088 C 99.2587 -0.673444 -3.40708 0
M  V30 1089 C 98.2127 -1.71054 -3.92332 0
M  V30 1090 C 97.5387 -1.17285 -5.21678 0
M  V30 1091 C 98.8387 -3.10718 -4.19824 0
M  V30 1092 H 100.533 -1.99693 -2.23076 0
M  V30 1093 H 98.0787 -0.96152 -1.07195 0
M  V30 1094 H 100.032 -0.534345 -4.17998 0
M  V30 1095 H 98.7557 0.293073 -3.25282 0
M  V30 1096 H 97.4147 -1.83791 -3.17201 0
M  V30 1097 H 97.0627 -0.196847 -5.02615 0
M  V30 1098 H 96.7627 -1.86592 -5.57187 0
M  V30 1099 H 98.2867 -1.04593 -6.01575 0
M  V30 1100 H 99.7007 -3.01192 -4.87808 0
M  V30 1101 H 98.0977 -3.77406 -4.66567 0
M  V30 1102 H 99.1677 -3.58524 -3.26479 0
M  V30 1103 N 100.511 1.16574 -1.06058 0
M  V30 1104 C 101.788 1.83048 -0.689416 0
M  V30 1105 C 102.168 1.94122 0.829443 0
M  V30 1106 O 101.516 1.48249 1.7388 0
M  V30 1107 C 101.726 3.20186 -1.38859 0
M  V30 1108 C 103.074 3.95989 -1.53226 0
M  V30 1109 O 104.098 3.29696 -1.3483 0
M  V30 1110 O 102.957 5.14813 -1.83384 0
M  V30 1111 H 100.051 0.790258 -0.243764 0
M  V30 1112 H 102.597 1.23797 -1.16071 0
M  V30 1113 H 101.369 3.07146 -2.4244 0
M  V30 1114 H 100.992 3.87112 -0.907216 0
M  V30 1115 N 101.989 0.842826 1.3317 0
M  V30 1116 C 103.235 0.441099 1.97945 0
M  V30 1117 C 103.568 -0.998024 1.66593 0
M  V30 1118 O 102.843 -1.69839 0.947898 0
M  V30 1119 C 103.126 0.666841 3.53872 0
M  V30 1120 C 102.979 2.15352 3.94897 0
M  V30 1121 C 104.298 0.115544 4.39948 0
M  V30 1122 H 101.417 0.161739 0.719034 0
M  V30 1123 H 104.059 1.05907 1.57746 0
M  V30 1124 H 102.209 0.140828 3.88245 0
M  V30 1125 H 103.881 2.7447 3.70761 0
M  V30 1126 H 102.124 2.63653 3.44484 0
M  V30 1127 H 102.795 2.26221 5.03516 0
M  V30 1128 H 105.271 0.565213 4.12243 0
M  V30 1129 H 104.147 0.303152 5.48062 0
M  V30 1130 H 104.408 -0.980935 4.3108 0
M  V30 1131 N 103.467 -1.45747 0.599634 0
M  V30 1132 C 104.713 -2.02592 0.0918643 0
M  V30 1133 C 105.046 -1.46806 -1.27128 0
M  V30 1134 O 104.321 -0.639658 -1.83681 0
M  V30 1135 C 104.604 -3.60073 0.0443398 0
M  V30 1136 C 104.457 -4.26208 1.43759 0
M  V30 1137 C 105.776 -4.35309 -0.647608 0
M  V30 1138 H 102.895 -0.736175 0.034857 0
M  V30 1139 H 105.537 -1.73694 0.770081 0
M  V30 1140 H 103.687 -3.84823 -0.533224 0
M  V30 1141 H 105.359 -4.12668 2.06162 0
M  V30 1142 H 103.602 -3.84916 2.00056 0
M  V30 1143 H 104.273 -5.35069 1.35665 0
M  V30 1144 H 106.749 -4.15805 -0.156776 0
M  V30 1145 H 105.625 -5.45038 -0.649942 0
M  V30 1146 H 105.886 -4.07598 -1.71219 0
M  V30 1147 N 104.945 -0.338344 -1.53925 0
M  V30 1148 C 106.191 0.260143 -2.01125 0
M  V30 1149 C 106.524 1.50617 -1.22589 0
M  V30 1150 O 105.799 1.91979 -0.312113 0
M  V30 1151 C 106.082 0.579499 -3.55407 0
M  V30 1152 C 105.935 -0.678264 -4.44657 0
M  V30 1153 C 107.254 1.39122 -4.17532 0
M  V30 1154 H 104.373 0.0930772 -0.731099 0
M  V30 1155 H 107.015 -0.457852 -1.84401 0
M  V30 1156 H 105.165 1.19118 -3.69788 0
M  V30 1157 H 106.837 -1.31631 -4.42121 0
M  V30 1158 H 105.08 -1.3042 -4.13731 0
M  V30 1159 H 105.751 -0.410143 -5.50474 0
M  V30 1160 H 108.227 0.874035 -4.06817 0
M  V30 1161 H 107.103 1.58342 -5.25565 0
M  V30 1162 H 107.364 2.39178 -3.71815 0
M  V30 1163 N 106.423 1.57458 -0.0668435 0
M  V30 1164 C 107.672 1.92477 0.602947 0
M  V30 1165 C 107.985 0.948419 1.71068 0
M  V30 1166 O 109.191 1.19124 2.43971 0
M  V30 1167 C 107.647 3.41903 1.12383 0
M  V30 1168 C 107.255 4.47975 0.04737 0
M  V30 1169 C 108.999 3.85931 1.76797 0
M  V30 1170 C 106.906 5.88529 0.582022 0
M  V30 1171 H 105.836 0.718387 0.22899 0
M  V30 1172 H 108.487 1.82978 -0.138276 0
M  V30 1173 H 106.869 3.46459 1.91787 0
M  V30 1174 H 108.043 4.55029 -0.726978 0
M  V30 1175 H 106.358 4.13384 -0.500243 0
M  V30 1176 H 108.955 4.88322 2.17821 0
M  V30 1177 H 109.298 3.23029 2.62599 0
M  V30 1178 H 109.831 3.83958 1.04024 0
M  V30 1179 H 106.57 6.55065 -0.238721 0
M  V30 1180 H 106.09 5.85004 1.324 0
M  V30 1181 H 107.769 6.38258 1.05999 0
M  V30 1182 N 107.901 -0.206675 1.56239 0
M  V30 1183 C 109.149 -0.927007 1.79586 0
M  V30 1184 C 109.47 -1.8427 0.637929 0
M  V30 1185 O 108.74 -1.92849 -0.344398 0
M  V30 1186 H 107.32 -0.345292 0.662407 0
M  V30 1187 H 109.982 -0.21496 1.93711 0
M  V30 1188 H 109.078 -1.52501 2.72305 0
M  V30 1189 N 109.379 -1.50304 -0.473955 0
M  V30 1190 C 110.604 -1.65175 -1.25427 0
M  V30 1191 C 111.029 -0.333673 -1.85117 0
M  V30 1192 O 110.387 0.702114 -1.67153 0
M  V30 1193 C 110.435 -2.74295 -2.34082 0
M  V30 1194 O 109.539 -2.35349 -3.38651 0
M  V30 1195 H 108.88 -0.551944 -0.369126 0
M  V30 1196 H 111.41 -1.96662 -0.564364 0
M  V30 1197 H 111.42 -2.97285 -2.79438 0
M  V30 1198 H 110.095 -3.69959 -1.90008 0
M  V30 1199 H 108.672 -2.22794 -2.99027 0
M  V30 1200 N 110.857 0.726932 -1.39834 0
M  V30 1201 C 112.105 1.4837 -1.37225 0
M  V30 1202 C 112.426 1.94979 0.0284857 0
M  V30 1203 O 111.696 1.69555 0.981213 0
M  V30 1204 H 110.276 0.55043 -0.505011 0
M  V30 1205 H 112.938 0.862468 -1.74778 0
M  V30 1206 H 112.034 2.36198 -2.04003 0
M  V30 1207 N 112.336 1.25143 0.95797 0
M  V30 1208 C 113.583 1.09692 1.70217 0
M  V30 1209 C 113.911 -0.362654 1.91089 0
M  V30 1210 O 113.166 -1.28386 1.47701 0
M  V30 1211 C 113.465 1.79272 3.09187 0
M  V30 1212 C 113.131 3.29196 3.08125 0
M  V30 1213 C 111.793 3.70096 3.07543 0
M  V30 1214 C 114.145 4.24995 3.0171 0
M  V30 1215 C 111.473 5.05213 2.9829 0
M  V30 1216 C 113.825 5.60132 2.93999 0
M  V30 1217 C 112.489 6.00365 2.9175 0
M  V30 1218 H 111.759 0.401393 0.622868 0
M  V30 1219 H 114.406 1.55372 1.11945 0
M  V30 1220 H 112.711 1.26014 3.70982 0
M  V30 1221 H 114.408 1.64773 3.65583 0
M  V30 1222 H 110.998 2.96651 3.09348 0
M  V30 1223 H 115.182 3.9439 3.01281 0
M  V30 1224 H 110.438 5.35569 2.94916 0
M  V30 1225 H 114.612 6.3406 2.87996 0
M  V30 1226 H 112.239 7.05023 2.84336 0
M  V30 1227 N 113.814 -1.1601 1.06675 0
M  V30 1228 C 115.062 -1.86264 0.784229 0
M  V30 1229 C 115.383 -1.82328 -0.691488 0
M  V30 1230 O 114.653 -1.25947 -1.50047 0
M  V30 1231 H 113.233 -0.689621 0.28711 0
M  V30 1232 H 115.895 -1.40664 1.34906 0
M  V30 1233 H 114.991 -2.91595 1.11259 0
M  V30 1234 N 115.292 -0.849877 -1.32721 0
M  V30 1235 C 116.54 -0.450032 -1.97026 0
M  V30 1236 C 116.861 0.996604 -1.67609 0
M  V30 1237 O 116.131 1.6958 -0.980786 0
M  V30 1238 H 114.711 -0.163426 -0.728904 0
M  V30 1239 H 117.373 -1.08526 -1.6189 0
M  V30 1240 H 116.469 -0.591146 -3.0645 0
M  V30 1241 N 116.77 1.45427 -0.607355 0
M  V30 1242 C 117.7 2.3329 0.0989352 0
M  V30 1243 C 118.681 1.46816 0.859007 0
M  V30 1244 O 119.866 1.75588 0.829604 0
M  V30 1245 C 116.996 3.29518 1.09705 0
M  V30 1246 C 115.95 4.25626 0.450206 0
M  V30 1247 C 115.276 5.11542 1.55655 0
M  V30 1248 C 116.576 5.18505 -0.628455 0
M  V30 1249 H 118.27 2.92595 -0.634716 0
M  V30 1250 H 115.816 1.40696 -0.306681 0
M  V30 1251 H 117.769 3.89855 1.59971 0
M  V30 1252 H 116.493 2.68372 1.86129 0
M  V30 1253 H 115.152 3.66586 -0.0315886 0
M  V30 1254 H 114.8 4.46765 2.31107 0
M  V30 1255 H 114.5 5.76647 1.12925 0
M  V30 1256 H 116.024 5.74748 2.06148 0
M  V30 1257 H 117.438 5.72916 -0.209877 0
M  V30 1258 H 115.835 5.92085 -0.977489 0
M  V30 1259 H 116.905 4.60948 -1.50514 0
M  V30 1260 N 118.248 0.346503 1.53744 0
M  V30 1261 C 119.211 -0.496439 2.23759 0
M  V30 1262 C 120.211 -1.0252 1.2388 0
M  V30 1263 O 121.401 -0.913974 1.48297 0
M  V30 1264 C 118.533 -1.69187 2.95954 0
M  V30 1265 H 119.726 0.115952 2.99676 0
M  V30 1266 H 117.279 0.0978939 1.55993 0
M  V30 1267 H 118.014 -2.34288 2.24231 0
M  V30 1268 H 117.799 -1.31989 3.69217 0
M  V30 1269 H 119.289 -2.28969 3.49232 0
M  V30 1270 N 119.726 -1.57421 0.075193 0
M  V30 1271 C 120.689 -2.11791 -0.876203 0
M  V30 1272 C 121.689 -1.04268 -1.22412 0
M  V30 1273 O 122.879 -1.30242 -1.15684 0
M  V30 1274 C 120.011 -2.62207 -2.17854 0
M  V30 1275 H 121.204 -2.9716 -0.40444 0
M  V30 1276 H 118.757 -1.55333 -0.173557 0
M  V30 1277 H 119.492 -1.803 -2.6956 0
M  V30 1278 H 119.277 -3.40802 -1.93897 0
M  V30 1279 H 120.767 -3.04335 -2.85955 0
M  V30 1280 N 121.204 0.198386 -1.56346 0
M  V30 1281 C 122.167 1.22952 -1.93431 0
M  V30 1282 C 123.167 1.38611 -0.815092 0
M  V30 1283 O 124.357 1.36479 -1.08255 0
M  V30 1284 C 121.489 2.59946 -2.20546 0
M  V30 1285 H 122.682 0.912626 -2.85677 0
M  V30 1286 H 120.235 0.43977 -1.49986 0
M  V30 1287 H 120.97 2.96696 -1.30927 0
M  V30 1288 H 120.755 2.49953 -3.02102 0
M  V30 1289 H 122.245 3.3431 -2.50253 0
M  V30 1290 N 122.682 1.50554 0.465978 0
M  V30 1291 C 123.645 1.69233 1.54574 0
M  V30 1292 C 124.645 0.562901 1.50626 0
M  V30 1293 O 125.835 0.830016 1.53155 0
M  V30 1294 C 122.967 1.7223 2.94193 0
M  V30 1295 H 124.16 2.65571 1.39327 0
M  V30 1296 H 121.713 1.40111 0.692711 0
M  V30 1297 H 122.448 0.77603 3.14878 0
M  V30 1298 H 122.233 2.54285 2.98466 0
M  V30 1299 H 123.723 1.88618 3.72576 0
M  V30 1300 N 124.16 -0.719506 1.40217 0
M  V30 1301 C 125.409 -1.47486 1.37589 0
M  V30 1302 C 125.722 -1.9559 -0.0201568 0
M  V30 1303 O 126.928 -2.70973 -0.169049 0
M  V30 1304 C 125.384 -2.66575 2.41796 0
M  V30 1305 C 124.992 -2.25358 3.87192 0
M  V30 1306 C 126.736 -3.4433 2.48269 0
M  V30 1307 C 124.643 -3.41262 4.83005 0
M  V30 1308 H 123.573 -0.553901 0.511576 0
M  V30 1309 H 126.224 -0.783427 1.65936 0
M  V30 1310 H 124.606 -3.3787 2.06543 0
M  V30 1311 H 125.78 -1.61509 4.31569 0
M  V30 1312 H 124.095 -1.60657 3.84159 0
M  V30 1313 H 126.692 -4.30569 3.17041 0
M  V30 1314 H 127.035 -3.87872 1.51198 0
M  V30 1315 H 127.568 -2.80076 2.82493 0
M  V30 1316 H 124.307 -3.02755 5.81394 0
M  V30 1317 H 123.827 -4.0404 4.43297 0
M  V30 1318 H 125.506 -4.07383 5.02641 0
M  V30 1319 N 125.638 -1.25649 -0.95132 0
M  V30 1320 C 126.568 -1.08808 -2.06599 0
M  V30 1321 C 127.549 0.00382547 -1.701 0
M  V30 1322 O 128.734 -0.166325 -1.93486 0
M  V30 1323 C 125.864 -0.709542 -3.39975 0
M  V30 1324 C 124.818 -1.75206 -3.90496 0
M  V30 1325 C 124.144 -1.22811 -5.20405 0
M  V30 1326 C 125.444 -3.15153 -4.16504 0
M  V30 1327 H 127.138 -2.02048 -2.20946 0
M  V30 1328 H 124.684 -0.972835 -1.06169 0
M  V30 1329 H 126.637 -0.578649 -4.17408 0
M  V30 1330 H 125.361 0.258556 -3.25575 0
M  V30 1331 H 124.02 -1.87145 -3.15234 0
M  V30 1332 H 123.668 -0.250145 -5.02378 0
M  V30 1333 H 123.368 -1.92492 -5.55176 0
M  V30 1334 H 124.892 -1.10968 -6.00432 0
M  V30 1335 H 126.306 -3.06349 -4.84586 0
M  V30 1336 H 124.703 -3.82333 -4.62538 0
M  V30 1337 H 125.773 -3.61966 -3.22658 0
M  V30 1338 N 127.117 1.15442 -1.07289 0
M  V30 1339 C 128.08 2.18358 -0.696591 0
M  V30 1340 C 129.08 1.58637 0.262837 0
M  V30 1341 O 130.27 1.74145 0.0438809 0
M  V30 1342 C 127.402 3.4089 -0.0266151 0
M  V30 1343 H 128.595 2.53162 -1.60776 0
M  V30 1344 H 126.148 1.29893 -0.869342 0
M  V30 1345 H 126.883 3.11653 0.896822 0
M  V30 1346 H 126.668 3.85495 -0.716657 0
M  V30 1347 H 128.158 4.17009 0.222028 0
M  V30 1348 N 128.595 0.856903 1.32268 0
M  V30 1349 C 129.542 0.301172 2.28827 0
M  V30 1350 C 130.512 -0.593104 1.5515 0
M  V30 1351 O 131.697 -0.527537 1.83362 0
M  V30 1352 C 128.837 -0.502523 3.41422 0
M  V30 1353 C 127.95 0.417797 4.29975 0
M  V30 1354 C 127.085 -0.398749 5.29701 0
M  V30 1355 C 126.124 0.518827 6.09897 0
M  V30 1356 N 125.261 -0.260674 7.01616 0
M  V30 1357 H 130.101 1.12983 2.75751 0
M  V30 1358 H 127.638 0.568582 1.35667 0
M  V30 1359 H 129.596 -0.984141 4.05426 0
M  V30 1360 H 128.226 -1.29599 2.95642 0
M  V30 1361 H 127.278 1.01781 3.66531 0
M  V30 1362 H 128.59 1.12191 4.86019 0
M  V30 1363 H 127.744 -0.943435 5.9932 0
M  V30 1364 H 126.483 -1.13622 4.7428 0
M  V30 1365 H 125.488 1.07538 5.39181 0
M  V30 1366 H 126.713 1.25495 6.67404 0
M  V30 1367 H 124.659 -0.981198 6.4862 0
M  V30 1368 H 124.576 0.384364 7.55022 0
M  V30 1369 H 125.844 -0.787014 7.75517 0
M  V30 1370 N 130.073 -1.45103 0.615059 0
M  V30 1371 C 131.036 -2.29025 -0.0895485 0
M  V30 1372 C 132.036 -1.40174 -0.787906 0
M  V30 1373 O 133.226 -1.62217 -0.634933 0
M  V30 1374 C 130.358 -3.21376 -1.13711 0
M  V30 1375 H 131.551 -2.92807 0.648382 0
M  V30 1376 H 129.104 -1.51749 0.374444 0
M  V30 1377 H 129.839 -2.6241 -1.90556 0
M  V30 1378 H 129.624 -3.86834 -0.640475 0
M  V30 1379 H 131.114 -3.84459 -1.63036 0
M  V30 1380 N 131.551 -0.354651 -1.53558 0
M  V30 1381 C 132.799 0.237972 -2.00694 0
M  V30 1382 C 133.12 1.50173 -1.24391 0
M  V30 1383 O 132.39 1.92673 -0.354135 0
M  V30 1384 H 130.97 0.0909256 -0.741446 0
M  V30 1385 H 133.632 -0.478368 -1.88938 0
M  V30 1386 H 132.728 0.47264 -3.085 0
M  V30 1387 N 133.029 1.57378 -0.0835403 0
M  V30 1388 C 133.976 2.13384 0.879539 0
M  V30 1389 C 134.946 1.04936 1.28754 0
M  V30 1390 O 136.131 1.32662 1.37133 0
M  V30 1391 C 133.271 2.70932 2.13752 0
M  V30 1392 C 132.384 3.93575 1.7811 0
M  V30 1393 C 131.519 4.39326 2.98607 0
M  V30 1394 C 130.558 5.54587 2.59037 0
M  V30 1395 N 129.695 5.95243 3.72331 0
M  V30 1396 H 134.535 2.9537 0.395076 0
M  V30 1397 H 132.072 1.45953 0.183349 0
M  V30 1398 H 134.03 3.02411 2.87408 0
M  V30 1399 H 132.66 1.91693 2.59718 0
M  V30 1400 H 131.712 3.68483 0.94469 0
M  V30 1401 H 133.024 4.77258 1.45005 0
M  V30 1402 H 132.178 4.72528 3.80529 0
M  V30 1403 H 130.917 3.5452 3.34913 0
M  V30 1404 H 129.922 5.21024 1.75539 0
M  V30 1405 H 131.147 6.41133 2.23887 0
M  V30 1406 H 129.093 5.13385 4.08378 0
M  V30 1407 H 129.01 6.73694 3.43034 0
M  V30 1408 H 130.278 6.33072 4.54797 0
M  V30 1409 N 134.507 -0.190092 1.56449 0
M  V30 1410 C 135.923 -0.54113 1.50146 0
M  V30 1411 C 136.123 -1.85603 0.784465 0
M  V30 1412 O 135.179 -2.5024 0.337051 0
M  V30 1413 C 136.492 -0.591241 2.9483 0
M  V30 1414 C 138.04 -0.679732 3.0553 0
M  V30 1415 C 138.515 -0.760908 4.51635 0
M  V30 1416 N 140.006 -0.824302 4.55806 0
M  V30 1417 C 140.741 -0.907365 5.66175 0
M  V30 1418 N 140.237 -0.952422 6.86222 0
M  V30 1419 N 142.03 -0.94494 5.541 0
M  V30 1420 H 134.181 0.67235 2.01478 0
M  V30 1421 H 136.444 0.240127 0.917084 0
M  V30 1422 H 136.15 0.305905 3.50367 0
M  V30 1423 H 136.024 -1.44422 3.48457 0
M  V30 1424 H 138.411 -1.56731 2.50039 0
M  V30 1425 H 138.492 0.199549 2.5502 0
M  V30 1426 H 138.136 0.122336 5.07753 0
M  V30 1427 H 138.066 -1.65606 4.99882 0
M  V30 1428 H 140.557 -0.798526 3.69367 0
M  V30 1429 H 140.87 -1.01645 7.66086 0
M  V30 1430 H 139.215 -0.921014 6.8887 0
M  V30 1431 H 142.406 -0.906612 4.59236 0
M  V30 1432 H 142.579 -1.00622 6.4014 0
M  V30 1433 N 135.985 -1.50799 -0.457987 0
M  V30 1434 C 137.231 -1.62683 -1.21088 0
M  V30 1435 C 137.564 -0.332268 -1.91336 0
M  V30 1436 O 136.839 0.667043 -1.82704 0
M  V30 1437 C 137.122 -2.81615 -2.24422 0
M  V30 1438 C 136.975 -4.20989 -1.58392 0
M  V30 1439 C 138.294 -2.96085 -3.2561 0
M  V30 1440 H 135.413 -0.592087 -0.438864 0
M  V30 1441 H 138.055 -1.83225 -0.50286 0
M  V30 1442 H 136.205 -2.64231 -2.84806 0
M  V30 1443 H 137.877 -4.49994 -1.01504 0
M  V30 1444 H 136.12 -4.24641 -0.886704 0
M  V30 1445 H 136.791 -5.0016 -2.33547 0
M  V30 1446 H 139.267 -3.12042 -2.75262 0
M  V30 1447 H 138.143 -3.80902 -3.95228 0
M  V30 1448 H 138.404 -2.0726 -3.90507 0
M  V30 1449 N 137.463 0.71206 -1.40597 0
M  V30 1450 C 138.393 1.83889 -1.43899 0
M  V30 1451 C 139.374 1.67442 -0.299504 0
M  V30 1452 O 140.559 1.87421 -0.508624 0
M  V30 1453 C 137.689 3.21877 -1.30431 0
M  V30 1454 C 136.643 3.53002 -2.42019 0
M  V30 1455 C 135.969 4.90172 -2.13626 0
M  V30 1456 C 137.269 3.53643 -3.84362 0
M  V30 1457 H 138.963 1.81383 -2.38203 0
M  V30 1458 H 136.509 0.871237 -1.14654 0
M  V30 1459 H 138.462 4.00404 -1.31357 0
M  V30 1460 H 137.186 3.24968 -0.326049 0
M  V30 1461 H 135.845 2.76818 -2.40349 0
M  V30 1462 H 135.493 4.89869 -1.14182 0
M  V30 1463 H 135.193 5.11962 -2.88389 0
M  V30 1464 H 136.717 5.71028 -2.1624 0
M  V30 1465 H 138.131 4.22203 -3.87837 0
M  V30 1466 H 136.528 3.86961 -4.58673 0
M  V30 1467 H 137.598 2.52954 -4.13693 0
M  V30 1468 N 138.941 1.26152 0.944643 0
M  V30 1469 C 140.187 1.11657 1.69294 0
M  V30 1470 C 140.52 -0.339926 1.91202 0
M  V30 1471 O 139.795 -1.24994 1.49019 0
M  V30 1472 C 140.078 1.88236 3.06984 0
M  V30 1473 C 139.931 3.41772 2.92424 0
M  V30 1474 C 141.25 1.67343 4.07043 0
M  V30 1475 H 138.369 0.407004 0.614424 0
M  V30 1476 H 141.011 1.55106 1.09737 0
M  V30 1477 H 139.161 1.51308 3.57824 0
M  V30 1478 H 140.833 3.88433 2.48832 0
M  V30 1479 H 139.076 3.68974 2.28124 0
M  V30 1480 H 139.747 3.90579 3.90067 0
M  V30 1481 H 142.223 1.99509 3.65151 0
M  V30 1482 H 141.099 2.23346 5.01406 0
M  V30 1483 H 141.36 0.617158 4.37771 0
M  V30 1484 N 140.419 -1.14872 1.07899 0
M  V30 1485 C 141.349 -2.2193 0.725887 0
M  V30 1486 C 142.33 -1.67622 -0.28927 0
M  V30 1487 O 143.515 -1.93533 -0.160787 0
M  V30 1488 C 140.645 -3.47061 0.128856 0
M  V30 1489 C 139.599 -4.14363 1.07178 0
M  V30 1490 C 138.925 -5.33636 0.337229 0
M  V30 1491 C 140.225 -4.63492 2.40775 0
M  V30 1492 H 141.919 -2.51724 1.62097 0
M  V30 1493 H 139.465 -1.20991 0.780838 0
M  V30 1494 H 141.418 -4.21199 -0.130147 0
M  V30 1495 H 140.142 -3.16617 -0.80134 0
M  V30 1496 H 138.801 -3.42173 1.3158 0
M  V30 1497 H 138.449 -4.99449 -0.596606 0
M  V30 1498 H 138.149 -5.79609 0.965788 0
M  V30 1499 H 139.673 -6.10539 0.0861567 0
M  V30 1500 H 141.087 -5.2913 2.20669 0
M  V30 1501 H 139.484 -5.20148 2.99276 0
M  V30 1502 H 140.554 -3.78834 3.02676 0
M  V30 1503 N 141.898 -0.863906 -1.31812 0
M  V30 1504 C 142.808 -0.318461 -2.32428 0
M  V30 1505 C 143.824 0.568496 -1.64451 0
M  V30 1506 O 145 0.46666 -1.95919 0
M  V30 1507 C 142.065 0.476355 -3.43412 0
M  V30 1508 C 141.126 -0.43784 -4.27061 0
M  V30 1509 C 140.359 0.319138 -5.32745 0
M  V30 1510 O 140.582 1.54799 -5.48993 0
M  V30 1511 O 139.516 -0.319861 -6.01049 0
M  V30 1512 H 143.342 -1.15229 -2.80991 0
M  V30 1513 H 140.927 -0.627103 -1.35602 0
M  V30 1514 H 142.809 0.927156 -4.11074 0
M  V30 1515 H 141.484 1.28683 -2.97022 0
M  V30 1516 H 140.391 -0.937013 -3.62175 0
M  V30 1517 H 141.724 -1.21375 -4.77 0
M  V30 1518 N 143.376 1.44774 -0.622745 0
M  V30 1519 C 144.308 2.28856 0.125485 0
M  V30 1520 C 145.321 1.40811 0.817069 0
M  V30 1521 O 146.51 1.65044 0.679918 0
M  V30 1522 C 143.61 3.16963 1.19949 0
M  V30 1523 C 142.783 4.33374 0.592064 0
M  V30 1524 C 141.842 5.02577 1.55893 0
M  V30 1525 O 140.868 5.58873 1.07933 0
M  V30 1526 N 142.07 5.03256 2.89334 0
M  V30 1527 H 144.835 2.93713 -0.596068 0
M  V30 1528 H 142.396 1.55129 -0.463303 0
M  V30 1529 H 144.388 3.60123 1.84644 0
M  V30 1530 H 142.958 2.53913 1.82337 0
M  V30 1531 H 142.178 3.93509 -0.233322 0
M  V30 1532 H 143.466 5.08527 0.166738 0
M  V30 1533 H 142.864 4.58836 3.30887 0
M  V30 1534 H 141.421 5.50232 3.49412 0
M  V30 1535 N 144.854 0.36279 1.53368 0
M  V30 1536 C 145.804 -0.501391 2.22419 0
M  V30 1537 C 146.788 -1.0509 1.2184 0
M  V30 1538 O 147.98 -0.981404 1.47301 0
M  V30 1539 C 145.109 -1.64201 3.01484 0
M  V30 1540 C 144.195 -1.10552 4.09438 0
M  V30 1541 N 144.586 -0.291788 5.04958 0
M  V30 1542 C 142.884 -1.3806 4.24094 0
M  V30 1543 C 143.585 0.00162655 5.817 0
M  V30 1544 N 142.561 -0.595244 5.40331 0
M  V30 1545 H 146.363 0.127159 2.93625 0
M  V30 1546 H 143.877 0.170658 1.61501 0
M  V30 1547 H 145.874 -2.27326 3.49469 0
M  V30 1548 H 144.534 -2.27365 2.31809 0
M  V30 1549 H 145.545 0.0687731 5.17854 0
M  V30 1550 H 142.222 -2.01522 3.65644 0
M  V30 1551 H 143.612 0.659278 6.68658 0
M  V30 1552 N 146.332 -1.57332 0.0918853 0
M  V30 1553 C 147.56 -1.98574 -0.581048 0
M  V30 1554 C 147.975 -0.970903 -1.61923 0
M  V30 1555 O 147.332 0.0399054 -1.82456 0
M  V30 1556 C 147.383 -3.39872 -1.23164 0
M  V30 1557 O 147.104 -4.37469 -0.234989 0
M  V30 1558 C 148.605 -3.96099 -1.99049 0
M  V30 1559 H 145.825 -0.65261 -0.156018 0
M  V30 1560 H 148.369 -2.0379 0.170225 0
M  V30 1561 H 146.524 -3.35679 -1.93386 0
M  V30 1562 H 146.938 -5.19751 -0.70418 0
M  V30 1563 H 148.412 -4.97127 -2.39934 0
M  V30 1564 H 148.889 -3.3374 -2.85507 0
M  V30 1565 H 149.495 -4.03755 -1.3365 0
M  V30 1566 N 147.81 0.181792 -1.56548 0
M  V30 1567 C 148.757 1.22521 -1.95595 0
M  V30 1568 C 149.727 1.4454 -0.818373 0
M  V30 1569 O 150.912 1.57454 -1.07763 0
M  V30 1570 C 148.052 2.56193 -2.31212 0
M  V30 1571 C 147.165 2.41641 -3.58097 0
M  V30 1572 C 146.3 3.68108 -3.82975 0
M  V30 1573 C 145.339 3.48445 -5.03242 0
M  V30 1574 N 144.476 4.66956 -5.24306 0
M  V30 1575 H 149.316 0.885226 -2.84548 0
M  V30 1576 H 146.853 0.425718 -1.40805 0
M  V30 1577 H 148.811 3.34088 -2.49882 0
M  V30 1578 H 147.441 2.88208 -1.45382 0
M  V30 1579 H 146.493 1.54976 -3.474 0
M  V30 1580 H 147.805 2.23052 -4.46149 0
M  V30 1581 H 146.959 4.54441 -4.01956 0
M  V30 1582 H 145.698 3.89666 -2.93278 0
M  V30 1583 H 144.703 2.60499 -4.8417 0
M  V30 1584 H 145.928 3.2832 -5.9446 0
M  V30 1585 H 143.874 4.88752 -4.37559 0
M  V30 1586 H 143.791 4.51242 -6.06561 0
M  V30 1587 H 145.059 5.54602 -5.47756 0
M  V30 1588 N 149.288 1.51039 0.449983 0
M  V30 1589 C 150.251 1.70863 1.5277 0
M  V30 1590 C 151.251 0.578846 1.5002 0
M  V30 1591 O 152.441 0.846213 1.52266 0
M  V30 1592 C 149.573 1.75341 2.9235 0
M  V30 1593 H 150.766 2.67034 1.36502 0
M  V30 1594 H 148.319 1.40838 0.677812 0
M  V30 1595 H 149.054 0.809383 3.14037 0
M  V30 1596 H 148.839 2.57436 2.95752 0
M  V30 1597 H 150.329 1.92559 3.70555 0
M  V30 1598 N 150.766 -0.704594 1.40972 0
M  V30 1599 C 152.014 -1.46169 1.39568 0
M  V30 1600 C 152.335 -1.95 0.00253745 0
M  V30 1601 O 151.605 -1.71095 -0.954114 0
M  V30 1602 H 150.185 -0.542326 0.513704 0
M  V30 1603 H 152.847 -0.834553 1.76128 0
M  V30 1604 H 151.943 -2.32922 2.07735 0
M  V30 1605 N 152.244 -1.26651 -0.937939 0
M  V30 1606 C 153.492 -1.12165 -1.68118 0
M  V30 1607 C 153.813 0.334983 -1.92101 0
M  V30 1608 O 153.083 1.23583 -1.52 0
M  V30 1609 H 151.663 -0.412093 -0.623048 0
M  V30 1610 H 154.325 -1.59027 -1.12678 0
M  V30 1611 H 153.421 -1.64289 -2.6536 0
M  V30 1612 N 153.722 1.14298 -1.08507 0
M  V30 1613 C 154.962 1.87016 -0.824894 0
M  V30 1614 C 155.326 1.81099 0.637735 0
M  V30 1615 O 156.527 2.48963 1.01345 0
M  V30 1616 C 154.798 3.31584 -1.33368 0
M  V30 1617 S 156.357 4.21903 -1.20596 0
M  V30 1618 H 153.175 0.645259 -0.2986 0
M  V30 1619 H 155.777 1.37822 -1.38656 0
M  V30 1620 H 154.481 3.33439 -2.39262 0
M  V30 1621 H 154.012 3.85836 -0.767734 0
M  V30 1622 H 156.027 4.95971 -0.150891 0
M  V30 1623 N 155.201 0.870884 1.31352 0
M  V30 1624 C 156.441 0.488783 1.9847 0
M  V30 1625 C 156.805 -0.941536 1.67329 0
M  V30 1626 O 158.006 -1.42903 2.27667 0
M  V30 1627 C 156.277 0.739688 3.49662 0
M  V30 1628 S 157.836 0.457582 4.36408 0
M  V30 1629 H 154.654 0.18242 0.6872 0
M  V30 1630 H 157.256 1.12711 1.59739 0
M  V30 1631 H 155.96 1.77944 3.69816 0
M  V30 1632 H 155.491 0.0883905 3.93301 0
M  V30 1633 H 157.506 -0.709752 4.91098 0
M  V30 1634 N 156.679 -1.44442 0.630414 0
M  V30 1635 C 157.629 -2.27794 -0.0968103 0
M  V30 1636 C 158.613 -1.38624 -0.816834 0
M  V30 1637 O 159.805 -1.62438 -0.70306 0
M  V30 1638 C 156.934 -3.25929 -1.07819 0
M  V30 1639 C 156.02 -4.22588 -0.357826 0
M  V30 1640 N 156.411 -5.0207 0.613169 0
M  V30 1641 C 154.709 -4.41914 -0.602365 0
M  V30 1642 C 155.41 -5.72351 1.03871 0
M  V30 1643 N 154.386 -5.42287 0.377642 0
M  V30 1644 H 158.188 -2.86653 0.648621 0
M  V30 1645 H 155.702 -1.55871 0.455862 0
M  V30 1646 H 157.699 -3.84399 -1.61378 0
M  V30 1647 H 156.359 -2.68631 -1.82393 0
M  V30 1648 H 157.37 -5.08331 0.990947 0
M  V30 1649 H 154.047 -3.95714 -1.33103 0
M  V30 1650 H 155.437 -6.4619 1.84086 0
M  V30 1651 N 158.157 -0.370918 -1.53173 0
M  V30 1652 C 159.385 0.217704 -2.05751 0
M  V30 1653 C 159.8 1.42018 -1.24404 0
M  V30 1654 O 159.157 1.80245 -0.286033 0
M  V30 1655 C 159.208 0.605954 -3.56385 0
M  V30 1656 O 158.929 -0.548734 -4.3465 0
M  V30 1657 C 160.43 1.2524 -4.25241 0
M  V30 1658 H 157.65 0.0371659 -0.66997 0
M  V30 1659 H 160.194 -0.530832 -1.9749 0
M  V30 1660 H 158.349 1.3044 -3.6478 0
M  V30 1661 H 158.763 -0.23376 -5.23979 0
M  V30 1662 H 160.237 1.47458 -5.3194 0
M  V30 1663 H 160.714 2.2143 -3.79296 0
M  V30 1664 H 161.32 0.595233 -4.21114 0
M  V30 1665 N 159.635 1.57281 -0.100228 0
M  V30 1666 C 160.882 1.94537 0.562268 0
M  V30 1667 C 161.21 0.982315 1.67871 0
M  V30 1668 O 160.465 0.00280936 1.957 0
M  V30 1669 C 160.764 3.38305 1.15259 0
M  V30 1670 C 160.43 4.50618 0.159409 0
M  V30 1671 C 159.092 4.81066 -0.113741 0
M  V30 1672 C 161.444 5.18615 -0.518461 0
M  V30 1673 C 158.772 5.76835 -1.07137 0
M  V30 1674 C 161.124 6.15412 -1.46459 0
M  V30 1675 C 159.788 6.44262 -1.74592 0
M  V30 1676 H 159.058 0.711863 0.205748 0
M  V30 1677 H 161.705 1.90679 -0.17715 0
M  V30 1678 H 160.01 3.38766 1.96836 0
M  V30 1679 H 161.707 3.64435 1.67297 0
M  V30 1680 H 158.297 4.2689 0.382491 0
M  V30 1681 H 162.481 4.95264 -0.320581 0
M  V30 1682 H 157.737 5.975 -1.29628 0
M  V30 1683 H 161.911 6.67194 -1.99564 0
M  V30 1684 H 159.538 7.1828 -2.48953 0
M  V30 1685 N 161.113 -0.173488 1.56642 0
M  V30 1686 C 162.361 -0.888706 1.81512 0
M  V30 1687 C 162.682 -1.82875 0.676872 0
M  V30 1688 O 161.952 -1.93536 -0.303414 0
M  V30 1689 H 160.532 -0.331164 0.669582 0
M  V30 1690 H 163.194 -0.173823 1.94123 0
M  V30 1691 H 162.29 -1.46691 2.75478 0
M  V30 1692 N 162.591 -1.51276 -0.441967 0
M  V30 1693 C 163.538 -1.72256 -1.53612 0
M  V30 1694 C 164.508 -0.564164 -1.56225 0
M  V30 1695 O 165.693 -0.798074 -1.73307 0
M  V30 1696 C 162.833 -1.84932 -2.91366 0
M  V30 1697 C 161.946 -3.12459 -2.98317 0
M  V30 1698 C 161.081 -3.15758 -4.27166 0
M  V30 1699 C 160.12 -4.37619 -4.27967 0
M  V30 1700 N 159.257 -4.38493 -5.48333 0
M  V30 1701 H 164.097 -2.65654 -1.35026 0
M  V30 1702 H 161.634 -1.31662 -0.656009 0
M  V30 1703 H 163.592 -1.90263 -3.7129 0
M  V30 1704 H 162.222 -0.949461 -3.08521 0
M  V30 1705 H 161.274 -3.1646 -2.11086 0
M  V30 1706 H 162.586 -4.02382 -2.94771 0
M  V30 1707 H 161.74 -3.19979 -5.15459 0
M  V30 1708 H 160.479 -2.23715 -4.33362 0
M  V30 1709 H 159.484 -4.33579 -3.38067 0
M  V30 1710 H 160.709 -5.30921 -4.23438 0
M  V30 1711 H 158.655 -3.49318 -5.55259 0
M  V30 1712 H 158.572 -5.22219 -5.46647 0
M  V30 1713 H 159.84 -4.469 -6.38671 0
M  V30 1714 N 164.069 0.697108 -1.41344 0
M  V30 1715 C 165.017 1.83237 -1.43272 0
M  V30 1716 C 166.011 1.66522 -0.310947 0
M  V30 1717 O 167.217 1.73402 -0.482899 0
M  V30 1718 H 163.592 0.603802 -0.448249 0
M  V30 1719 H 165.563 1.78727 -2.38954 0
M  V30 1720 C 164.312 3.21245 -1.33029 0
M  V30 1721 H 163.635 3.34723 -2.18633 0
M  V30 1722 H 165.075 4.00763 -1.38439 0
M  V30 1723 C 163.534 3.36873 -0.0424635 0
M  V30 1724 O 164.064 3.91177 0.913421 0
M  V30 1725 N 162.27 2.90581 0.0331145 0
M  V30 1726 H 161.817 2.46577 -0.745506 0
M  V30 1727 H 161.775 3.01416 0.894199 0
M  V30 1728 N 165.547 1.27147 0.931209 0
M  V30 1729 C 166.795 1.13055 1.6752 0
M  V30 1730 C 167.116 -0.324791 1.92276 0
M  V30 1731 O 166.386 -1.22775 1.52654 0
M  V30 1732 H 164.966 0.415391 0.620854 0
M  V30 1733 H 167.628 1.59623 1.11833 0
M  V30 1734 H 166.724 1.65694 2.64485 0
M  V30 1735 N 167.025 -1.13721 1.09112 0
M  V30 1736 C 167.955 -2.21148 0.749385 0
M  V30 1737 C 168.936 -1.6792 -0.271475 0
M  V30 1738 O 170.121 -1.93693 -0.140251 0
M  V30 1739 C 167.251 -3.46905 0.165659 0
M  V30 1740 C 166.205 -4.13203 1.11567 0
M  V30 1741 C 165.531 -5.33248 0.393809 0
M  V30 1742 C 166.831 -4.60912 2.45678 0
M  V30 1743 H 168.525 -2.4999 1.64758 0
M  V30 1744 H 166.071 -1.20156 0.793626 0
M  V30 1745 H 168.024 -4.21313 -0.085466 0
M  V30 1746 H 166.748 -3.17449 -0.767714 0
M  V30 1747 H 165.407 -3.40758 1.35202 0
M  V30 1748 H 165.055 -5.00054 -0.543599 0
M  V30 1749 H 164.755 -5.78552 1.02721 0
M  V30 1750 H 166.279 -6.10413 0.150908 0
M  V30 1751 H 167.693 -5.26759 2.26269 0
M  V30 1752 H 166.09 -5.16944 3.04776 0
M  V30 1753 H 167.16 -3.75603 3.06677 0
M  V30 1754 N 168.503 -0.877838 -1.30888 0
M  V30 1755 C 169.413 -0.343096 -2.32078 0
M  V30 1756 C 170.429 0.551022 -1.65045 0
M  V30 1757 O 171.605 0.445854 -1.96403 0
M  V30 1758 C 168.67 0.439905 -3.43898 0
M  V30 1759 C 167.731 -0.483111 -4.26573 0
M  V30 1760 C 166.964 0.262616 -5.33053 0
M  V30 1761 O 167.187 1.48967 -5.50604 0
M  V30 1762 O 166.121 -0.383593 -6.00676 0
M  V30 1763 H 169.947 -1.18203 -2.79753 0
M  V30 1764 H 167.532 -0.64145 -1.34929 0
M  V30 1765 H 169.414 0.883504 -4.12034 0
M  V30 1766 H 168.089 1.25526 -2.98371 0
M  V30 1767 H 166.996 -0.975374 -3.61161 0
M  V30 1768 H 168.329 -1.26427 -4.75686 0
M  V30 1769 N 169.982 1.44106 -0.638065 0
M  V30 1770 C 171.229 2.01978 -0.14533 0
M  V30 1771 C 171.557 1.50234 1.23532 0
M  V30 1772 O 170.812 0.679548 1.83523 0
M  V30 1773 C 171.111 3.5729 -0.0887327 0
M  V30 1774 C 170.777 4.28317 -1.40909 0
M  V30 1775 C 169.439 4.47437 -1.77069 0
M  V30 1776 C 171.791 4.6867 -2.28031 0
M  V30 1777 C 169.119 5.04171 -3.00047 0
M  V30 1778 C 171.471 5.26766 -3.50286 0
M  V30 1779 C 170.135 5.44104 -3.86661 0
M  V30 1780 H 169.405 0.739089 -0.0531801 0
M  V30 1781 H 172.052 1.72781 -0.825761 0
M  V30 1782 H 170.357 3.8594 0.675095 0
M  V30 1783 H 172.054 3.99807 0.309145 0
M  V30 1784 H 168.644 4.1377 -1.1177 0
M  V30 1785 H 172.828 4.53604 -2.01388 0
M  V30 1786 H 168.084 5.15782 -3.28298 0
M  V30 1787 H 172.258 5.56983 -4.18023 0
M  V30 1788 H 169.885 5.87832 -4.82034 0
M  V30 1789 N 171.46 0.379036 1.52974 0
M  V30 1790 C 172.737 -0.263479 1.93817 0
M  V30 1791 C 173.117 -1.65244 1.31368 0
M  V30 1792 O 172.465 -2.23448 0.477856 0
M  V30 1793 C 172.675 -0.300166 3.47707 0
M  V30 1794 C 174.023 -0.534061 4.21228 0
M  V30 1795 O 175.047 -0.38081 3.54159 0
M  V30 1796 O 173.906 -0.833501 5.40106 0
M  V30 1797 H 171 -0.161149 0.811147 0
M  V30 1798 H 173.546 0.432798 1.64088 0
M  V30 1799 H 172.318 0.673138 3.85467 0
M  V30 1800 H 171.941 -1.04179 3.83709 0
M  V30 1801 N 172.938 -1.57226 0.108567 0
M  V30 1802 C 174.166 -1.99179 -0.559954 0
M  V30 1803 C 174.581 -0.988022 -1.60884 0
M  V30 1804 O 173.938 0.0205512 -1.82488 0
M  V30 1805 C 173.989 -3.41159 -1.19552 0
M  V30 1806 O 173.71 -4.37694 -0.188577 0
M  V30 1807 C 175.211 -3.98188 -1.94837 0
M  V30 1808 H 172.431 -0.654228 -0.149088 0
M  V30 1809 H 174.975 -2.03598 0.19183 0
M  V30 1810 H 173.13 -3.37711 -1.89815 0
M  V30 1811 H 173.544 -5.20469 -0.649014 0
M  V30 1812 H 175.018 -4.99644 -2.34648 0
M  V30 1813 H 175.495 -3.3675 -2.81951 0
M  V30 1814 H 176.101 -4.0515 -1.2936 0
M  V30 1815 N 174.416 0.165178 -1.56732 0
M  V30 1816 C 175.664 0.879068 -1.8198 0
M  V30 1817 C 175.985 1.82514 -0.686561 0
M  V30 1818 O 175.255 1.93694 0.293146 0
M  V30 1819 H 173.835 0.327608 -0.671329 0
M  V30 1820 H 176.497 0.163526 -1.94213 0
M  V30 1821 H 175.593 1.45228 -2.76252 0
M  V30 1822 N 175.894 1.51508 0.433938 0
M  V30 1823 C 177.143 1.63578 1.18005 0
M  V30 1824 C 177.456 0.359514 1.92268 0
M  V30 1825 O 178.662 0.359632 2.69108 0
M  V30 1826 C 177.118 2.88901 2.14626 0
M  V30 1827 C 176.726 4.23544 1.45995 0
M  V30 1828 C 178.47 3.10328 2.89649 0
M  V30 1829 C 176.377 5.40014 2.4112 0
M  V30 1830 H 175.307 0.609277 0.444182 0
M  V30 1831 H 177.958 1.77978 0.446773 0
M  V30 1832 H 176.34 2.68142 2.91403 0
M  V30 1833 H 177.514 4.54696 0.747532 0
M  V30 1834 H 175.829 4.08021 0.831115 0
M  V30 1835 H 178.426 3.94518 3.60915 0
M  V30 1836 H 178.769 2.23544 3.51189 0
M  V30 1837 H 179.302 3.31443 2.19978 0
M  V30 1838 H 176.041 6.29068 1.84264 0
M  V30 1839 H 175.561 5.13233 3.10406 0
M  V30 1840 H 177.24 5.72099 3.02177 0
M  V30 1841 N 177.372 -0.689602 1.41712 0
M  V30 1842 C 178.322 -1.79571 1.40493 0
M  V30 1843 C 179.306 -1.58473 0.278409 0
M  V30 1844 O 180.498 -1.69204 0.519532 0
M  V30 1845 C 177.627 -3.17923 1.29536 0
M  V30 1846 C 176.713 -3.44695 2.47075 0
M  V30 1847 N 177.104 -3.42132 3.72531 0
M  V30 1848 C 175.402 -3.75269 2.41017 0
M  V30 1849 C 176.103 -3.67976 4.50521 0
M  V30 1850 N 175.079 -3.88014 3.80718 0
M  V30 1851 H 178.881 -1.75961 2.35404 0
M  V30 1852 H 176.395 -0.889839 1.35851 0
M  V30 1853 H 178.392 -3.97167 1.26745 0
M  V30 1854 H 177.052 -3.22741 0.356153 0
M  V30 1855 H 178.063 -3.22375 4.05333 0
M  V30 1856 H 174.74 -3.87421 1.55599 0
M  V30 1857 H 176.13 -3.7208 5.59469 0
M  V30 1858 N 178.85 -1.27639 -0.924453 0
M  V30 1859 C 180.08 -1.16819 -1.70402 0
M  V30 1860 C 180.488 0.277191 -1.87158 0
M  V30 1861 O 179.831 1.20025 -1.39067 0
M  V30 1862 C 179.893 -1.78305 -3.12166 0
M  V30 1863 C 179.557 -3.27502 -3.18734 0
M  V30 1864 C 180.554 -4.2409 -3.00738 0
M  V30 1865 C 178.239 -3.68269 -3.4159 0
M  V30 1866 C 180.233 -5.59422 -3.05492 0
M  V30 1867 C 177.92 -5.0373 -3.45977 0
M  V30 1868 C 178.918 -5.99116 -3.27946 0
M  V30 1869 O 178.606 -7.32108 -3.32074 0
M  V30 1870 H 178.338 -0.406931 -0.539799 0
M  V30 1871 H 180.892 -1.69078 -1.16626 0
M  V30 1872 H 179.122 -1.20528 -3.67437 0
M  V30 1873 H 180.811 -1.62154 -3.72103 0
M  V30 1874 H 181.577 -3.93931 -2.82919 0
M  V30 1875 H 177.456 -2.94496 -3.54673 0
M  V30 1876 H 181 -6.33852 -2.91337 0
M  V30 1877 H 176.897 -5.33543 -3.63321 0
M  V30 1878 H 177.665 -7.40598 -3.48507 0
M  V30 1879 N 180.328 1.1314 -1.09713 0
M  V30 1880 C 181.577 1.83838 -0.829851 0
M  V30 1881 C 181.89 1.84599 0.646728 0
M  V30 1882 O 183.096 2.51218 1.02965 0
M  V30 1883 C 181.552 3.30069 -1.43466 0
M  V30 1884 C 181.16 3.37688 -2.94399 0
M  V30 1885 C 182.904 4.05788 -1.24645 0
M  V30 1886 C 180.811 4.78209 -3.47952 0
M  V30 1887 H 179.741 0.68877 -0.306777 0
M  V30 1888 H 182.392 1.27448 -1.3202 0
M  V30 1889 H 180.774 3.8628 -0.871996 0
M  V30 1890 H 181.948 2.91456 -3.56918 0
M  V30 1891 H 180.263 2.75436 -3.12289 0
M  V30 1892 H 182.86 5.09535 -1.62107 0
M  V30 1893 H 183.203 4.15878 -0.187357 0
M  V30 1894 H 183.736 3.55915 -1.77678 0
M  V30 1895 H 180.475 4.73311 -4.53495 0
M  V30 1896 H 179.995 5.24924 -2.90198 0
M  V30 1897 H 181.674 5.47133 -3.45332 0
M  V30 1898 N 181.806 0.884767 1.30421 0
M  V30 1899 C 183.054 0.502112 1.95763 0
M  V30 1900 C 183.375 -0.951815 1.70192 0
M  V30 1901 O 182.645 -1.6692 1.0254 0
M  V30 1902 H 181.225 0.182694 0.724315 0
M  V30 1903 H 183.887 1.1278 1.58955 0
M  V30 1904 H 182.983 0.672188 3.04775 0
M  V30 1905 N 183.284 -1.43765 0.645699 0
M  V30 1906 C 184.7 -1.56509 0.312591 0
M  V30 1907 C 184.9 -1.6307 -1.18365 0
M  V30 1908 O 183.956 -1.58167 -1.96824 0
M  V30 1909 C 185.269 -2.82968 1.01733 0
M  V30 1910 C 186.817 -2.96701 0.996865 0
M  V30 1911 C 187.292 -4.25982 1.68236 0
M  V30 1912 N 188.783 -4.32829 1.64964 0
M  V30 1913 C 189.518 -5.31613 2.14885 0
M  V30 1914 N 189.014 -6.36718 2.73061 0
M  V30 1915 N 190.807 -5.23217 2.05428 0
M  V30 1916 H 182.958 -1.3775 1.61675 0
M  V30 1917 H 185.221 -0.661067 0.679481 0
M  V30 1918 H 184.927 -2.84156 2.0724 0
M  V30 1919 H 184.801 -3.72957 0.564177 0
M  V30 1920 H 187.188 -2.95058 -0.0497719 0
M  V30 1921 H 187.269 -2.08022 1.48865 0
M  V30 1922 H 186.913 -4.28386 2.72852 0
M  V30 1923 H 186.843 -5.13545 1.16529 0
M  V30 1924 H 189.334 -3.57493 1.22503 0
M  V30 1925 H 189.647 -7.08401 3.08848 0
M  V30 1926 H 187.992 -6.37362 2.77118 0
M  V30 1927 H 191.183 -4.40019 1.59689 0
M  V30 1928 H 191.356 -6.00045 2.44643 0
M  V30 1929 N 184.763 -0.387143 -1.52771 0
M  V30 1930 C 185.696 0.493123 -2.22808 0
M  V30 1931 C 186.674 1.0658 -1.22798 0
M  V30 1932 O 187.858 1.11785 -1.51777 0
M  V30 1933 C 184.985 1.68238 -2.93962 0
M  V30 1934 C 184.031 1.23515 -4.08223 0
M  V30 1935 S 184.864 0.21848 -5.35054 0
M  V30 1936 C 186.02 1.41357 -6.09729 0
M  V30 1937 H 186.253 -0.101625 -2.97126 0
M  V30 1938 H 183.786 -0.171323 -1.53447 0
M  V30 1939 H 185.744 2.36443 -3.35567 0
M  V30 1940 H 184.405 2.24842 -2.19328 0
M  V30 1941 H 183.598 2.12304 -4.57103 0
M  V30 1942 H 183.2 0.632044 -3.68621 0
M  V30 1943 H 185.492 2.34101 -6.3577 0
M  V30 1944 H 186.435 0.965736 -7.01484 0
M  V30 1945 H 186.843 1.6294 -5.40473 0
M  V30 1946 N 186.241 1.57166 -0.116904 0
M  V30 1947 C 187.151 2.18745 0.847812 0
M  V30 1948 C 188.167 1.163 1.29423 0
M  V30 1949 O 189.343 1.48761 1.35765 0
M  V30 1950 C 186.408 2.77307 2.0809 0
M  V30 1951 C 185.469 3.94781 1.68661 0
M  V30 1952 C 184.702 4.50541 2.86091 0
M  V30 1953 O 184.925 4.05202 4.01456 0
M  V30 1954 O 183.859 5.41256 2.63298 0
M  V30 1955 H 187.685 3.01632 0.353778 0
M  V30 1956 H 185.27 1.49005 0.108599 0
M  V30 1957 H 187.152 3.14647 2.80313 0
M  V30 1958 H 185.827 1.97452 2.56504 0
M  V30 1959 H 184.734 3.62214 0.935518 0
M  V30 1960 H 186.067 4.76065 1.24991 0
M  V30 1961 N 187.719 -0.156864 1.56817 0
M  V30 1962 C 188.629 -1.2136 2.00771 0
M  V30 1963 C 189.645 -1.47598 0.921459 0
M  V30 1964 O 190.821 -1.59462 1.2302 0
M  V30 1965 C 187.886 -2.52943 2.37109 0
M  V30 1966 C 186.947 -2.34439 3.59634 0
M  V30 1967 C 186.18 -3.59748 3.94229 0
M  V30 1968 O 186.403 -4.65526 3.29609 0
M  V30 1969 O 185.337 -3.52998 4.8752 0
M  V30 1970 H 189.163 -0.870468 2.90958 0
M  V30 1971 H 186.748 -0.36484 1.44877 0
M  V30 1972 H 188.63 -3.30538 2.61386 0
M  V30 1973 H 187.305 -2.86806 1.5008 0
M  V30 1974 H 186.212 -1.54828 3.40557 0
M  V30 1975 H 187.545 -2.05496 4.4725 0
M  V30 1976 N 189.197 -1.51736 -0.425897 0
M  V30 1977 C 190.445 -1.64644 -1.17204 0
M  V30 1978 C 190.766 -0.370486 -1.91448 0
M  V30 1979 O 190.036 0.614088 -1.86026 0
M  V30 1980 H 188.616 -0.606819 -0.435638 0
M  V30 1981 H 191.278 -1.88713 -0.487177 0
M  V30 1982 H 190.374 -2.47958 -1.89534 0
M  V30 1983 N 190.675 0.682077 -1.42076 0
M  V30 1984 C 191.9 1.47558 -1.45744 0
M  V30 1985 C 192.325 1.87977 -0.0680981 0
M  V30 1986 O 191.683 1.55522 0.9318 0
M  V30 1987 C 191.731 2.70575 -2.38373 0
M  V30 1988 O 190.835 3.68573 -1.85007 0
M  V30 1989 H 190.176 0.443585 -0.494093 0
M  V30 1990 H 192.706 0.837238 -1.86686 0
M  V30 1991 H 192.716 3.18729 -2.54707 0
M  V30 1992 H 191.391 2.40495 -3.39315 0
M  V30 1993 H 189.968 3.2757 -1.78192 0
M  V30 1994 N 192.153 1.28127 0.917671 0
M  V30 1995 C 193.402 1.14432 1.66097 0
M  V30 1996 C 193.715 -0.307247 1.93172 0
M  V30 1997 O 194.921 -0.565259 2.65551 0
M  V30 1998 C 193.377 2.00015 2.99202 0
M  V30 1999 C 192.985 3.49889 2.79789 0
M  V30 2000 C 194.729 1.94996 3.77064 0
M  V30 2001 C 192.636 4.27636 4.08511 0
M  V30 2002 H 191.566 0.424662 0.62304 0
M  V30 2003 H 194.217 1.52628 1.01868 0
M  V30 2004 H 192.599 1.54672 3.64544 0
M  V30 2005 H 193.773 4.03162 2.23152 0
M  V30 2006 H 192.088 3.56392 2.15345 0
M  V30 2007 H 194.685 2.50354 4.72469 0
M  V30 2008 H 195.028 0.925819 4.05875 0
M  V30 2009 H 195.561 2.38287 3.18534 0
M  V30 2010 H 192.3 5.30615 3.84874 0
M  V30 2011 H 191.82 3.79137 4.64774 0
M  V30 2012 H 193.499 4.37346 4.76799 0
M  V30 2013 N 193.631 -1.12557 1.10312 0
M  V30 2014 C 194.879 -1.83675 0.843091 0
M  V30 2015 C 195.2 -1.84435 -0.633131 0
M  V30 2016 O 194.47 -1.30657 -1.45964 0
M  V30 2017 H 193.05 -0.680138 0.308904 0
M  V30 2018 H 195.712 -1.36301 1.39313 0
M  V30 2019 H 194.808 -2.87908 1.2048 0
M  V30 2020 N 195.109 -0.891671 -1.2995 0
M  V30 2021 C 196.525 -0.58662 -1.48428 0
M  V30 2022 C 196.725 0.873951 -1.81561 0
M  V30 2023 O 195.781 1.65471 -1.90724 0
M  V30 2024 C 197.094 -1.50553 -2.60296 0
M  V30 2025 C 198.642 -1.50988 -2.74175 0
M  V30 2026 C 199.117 -2.41488 -3.89163 0
M  V30 2027 N 200.608 -2.39489 -3.96483 0
M  V30 2028 C 201.343 -3.06223 -4.84784 0
M  V30 2029 N 200.839 -3.82206 -5.77833 0
M  V30 2030 N 202.632 -2.95421 -4.78208 0
M  V30 2031 H 194.783 -1.83644 -1.06718 0
M  V30 2032 H 197.046 -0.786455 -0.529332 0
M  V30 2033 H 196.752 -2.54581 -2.42654 0
M  V30 2034 H 196.626 -1.22008 -3.56923 0
M  V30 2035 H 199.013 -0.47708 -2.91218 0
M  V30 2036 H 199.094 -1.83567 -1.78148 0
M  V30 2037 H 198.738 -3.44857 -3.72876 0
M  V30 2038 H 198.668 -2.06222 -4.84541 0
M  V30 2039 H 201.159 -1.84278 -3.29924 0
M  V30 2040 H 201.472 -4.302 -6.41988 0
M  V30 2041 H 199.817 -3.86313 -5.77743 0
M  V30 2042 H 203.008 -2.35581 -4.04499 0
M  V30 2043 H 203.181 -3.47704 -5.46814 0
M  V30 2044 N 196.587 1.43421 -0.653314 0
M  V30 2045 C 197.834 2.01812 -0.166745 0
M  V30 2046 C 198.162 1.51535 1.21931 0
M  V30 2047 O 197.417 0.698975 1.82792 0
M  V30 2048 C 197.716 3.57176 -0.126623 0
M  V30 2049 C 197.382 4.26798 -1.45444 0
M  V30 2050 C 196.044 4.45534 -1.81805 0
M  V30 2051 C 198.396 4.66225 -2.32989 0
M  V30 2052 C 195.724 5.00961 -3.05377 0
M  V30 2053 C 198.076 5.23021 -3.55853 0
M  V30 2054 C 196.74 5.39973 -3.9241 0
M  V30 2055 H 196.01 0.738484 -0.0610162 0
M  V30 2056 H 198.657 1.71896 -0.84404 0
M  V30 2057 H 196.962 3.86634 0.634123 0
M  V30 2058 H 198.659 4.00112 0.266723 0
M  V30 2059 H 195.249 4.12561 -1.16153 0
M  V30 2060 H 199.433 4.51443 -2.06187 0
M  V30 2061 H 194.689 5.12271 -3.3375 0
M  V30 2062 H 198.863 5.52518 -4.23907 0
M  V30 2063 H 196.49 5.82687 -4.88242 0
M  V30 2064 N 198.065 0.39524 1.52563 0
M  V30 2065 C 199.314 -0.186321 2.00838 0
M  V30 2066 C 199.627 -1.47402 1.28577 0
M  V30 2067 O 200.833 -2.13599 1.67593 0
M  V30 2068 C 199.289 -0.382595 3.57861 0
M  V30 2069 C 198.897 0.892202 4.39026 0
M  V30 2070 C 200.641 -0.9202 4.14406 0
M  V30 2071 C 198.548 0.66388 5.87662 0
M  V30 2072 H 197.478 -0.0734041 0.750418 0
M  V30 2073 H 200.129 0.518552 1.76021 0
M  V30 2074 H 198.511 -1.14946 3.7895 0
M  V30 2075 H 199.685 1.66414 4.29701 0
M  V30 2076 H 198 1.35519 3.9373 0
M  V30 2077 H 200.597 -1.10683 5.23119 0
M  V30 2078 H 200.94 -1.89096 3.70875 0
M  V30 2079 H 201.473 -0.212751 3.97231 0
M  V30 2080 H 198.212 1.6058 6.35527 0
M  V30 2081 H 197.732 -0.0690193 5.9976 0
M  V30 2082 H 199.411 0.300699 6.46301 0
M  V30 2083 N 199.544 -1.57102 0.125237 0
M  V30 2084 C 200.474 -2.18659 -0.819174 0
M  V30 2085 C 201.455 -1.12843 -1.27281 0
M  V30 2086 O 202.64 -1.41104 -1.33429 0
M  V30 2087 C 199.77 -2.79096 -2.06695 0
M  V30 2088 C 198.724 -3.90548 -1.75088 0
M  V30 2089 C 198.05 -4.37821 -3.06948 0
M  V30 2090 C 199.35 -5.12356 -1.01435 0
M  V30 2091 H 201.044 -2.9783 -0.306202 0
M  V30 2092 H 198.59 -1.4326 -0.145839 0
M  V30 2093 H 200.543 -3.2082 -2.73226 0
M  V30 2094 H 199.267 -1.97223 -2.60328 0
M  V30 2095 H 197.926 -3.49409 -1.10944 0
M  V30 2096 H 197.574 -3.52799 -3.58527 0
M  V30 2097 H 197.274 -5.12982 -2.86571 0
M  V30 2098 H 198.798 -4.822 -3.74587 0
M  V30 2099 H 200.212 -5.5106 -1.58132 0
M  V30 2100 H 198.609 -5.9314 -0.911319 0
M  V30 2101 H 199.679 -4.849 -0.00218681 0
M  V30 2102 N 201.022 0.148545 -1.56898 0
M  V30 2103 C 202.299 0.890019 -1.74178 0
M  V30 2104 C 202.679 1.99407 -0.692839 0
M  V30 2105 O 202.027 2.26671 0.288505 0
M  V30 2106 C 202.237 1.43389 -3.18183 0
M  V30 2107 C 203.585 1.89791 -3.79822 0
M  V30 2108 O 204.609 1.53134 -3.21603 0
M  V30 2109 O 203.468 2.57387 -4.82093 0
M  V30 2110 H 200.562 0.420496 -0.712118 0
M  V30 2111 H 203.108 0.134591 -1.69165 0
M  V30 2112 H 201.88 0.640383 -3.86024 0
M  V30 2113 H 201.503 2.25287 -3.27615 0
M  V30 2114 N 202.5 1.5196 0.417844 0
M  V30 2115 C 203.432 1.70895 1.52733 0
M  V30 2116 C 204.445 0.589405 1.51756 0
M  V30 2117 O 205.634 0.864312 1.56179 0
M  V30 2118 C 202.734 1.72627 2.91639 0
M  V30 2119 C 201.907 3.01479 3.16905 0
M  V30 2120 C 200.966 2.95139 4.35637 0
M  V30 2121 O 199.992 3.69059 4.3334 0
M  V30 2122 N 201.194 2.12328 5.40275 0
M  V30 2123 H 203.959 2.66612 1.36888 0
M  V30 2124 H 201.52 1.50089 0.607037 0
M  V30 2125 H 203.512 1.65928 3.6912 0
M  V30 2126 H 202.082 0.844216 3.00985 0
M  V30 2127 H 201.302 3.21895 2.27546 0
M  V30 2128 H 202.59 3.86736 3.30625 0
M  V30 2129 H 201.988 1.51685 5.44985 0
M  V30 2130 H 200.545 2.11494 6.16534 0
M  V30 2131 N 203.978 -0.674533 1.42435 0
M  V30 2132 C 205.227 -1.43034 1.42212 0
M  V30 2133 C 205.54 -1.95555 0.0420788 0
M  V30 2134 O 206.746 -2.71374 -0.0827558 0
M  V30 2135 C 205.202 -2.58748 2.50155 0
M  V30 2136 C 204.81 -2.12925 3.94166 0
M  V30 2137 C 206.554 -3.36257 2.59098 0
M  V30 2138 C 204.461 -3.25723 4.93618 0
M  V30 2139 H 203.391 -0.537345 0.528939 0
M  V30 2140 H 206.042 -0.73024 1.68344 0
M  V30 2141 H 204.424 -3.31128 2.17188 0
M  V30 2142 H 205.598 -1.47697 4.36488 0
M  V30 2143 H 203.913 -1.48354 3.89076 0
M  V30 2144 H 206.51 -4.20264 3.30578 0
M  V30 2145 H 206.853 -3.82866 1.63461 0
M  V30 2146 H 207.386 -2.70947 2.9126 0
M  V30 2147 H 204.125 -2.84105 5.90732 0
M  V30 2148 H 203.645 -3.89732 4.55926 0
M  V30 2149 H 205.324 -3.91186 5.15347 0
M  V30 2150 N 205.456 -1.28612 -0.910864 0
M  V30 2151 C 206.684 -1.18792 -1.69399 0
M  V30 2152 C 207.099 0.253039 -1.87097 0
M  V30 2153 O 206.456 1.17071 -1.40003 0
M  V30 2154 C 206.507 -1.88511 -3.08457 0
M  V30 2155 O 206.228 -3.26979 -2.91576 0
M  V30 2156 C 207.729 -1.85029 -4.02839 0
M  V30 2157 H 204.949 -0.412233 -0.529438 0
M  V30 2158 H 207.493 -1.69788 -1.13984 0
M  V30 2159 H 205.648 -1.41379 -3.60681 0
M  V30 2160 H 206.062 -3.61936 -3.79608 0
M  V30 2161 H 207.536 -2.38395 -4.97867 0
M  V30 2162 H 208.013 -0.823303 -4.31414 0
M  V30 2163 H 208.619 -2.31853 -3.56545 0
M  V30 2164 N 206.934 1.1197 -1.10907 0
M  V30 2165 C 207.844 2.21433 -0.774896 0
M  V30 2166 C 208.86 1.72478 0.229657 0
M  V30 2167 O 210.036 2.01288 0.0672008 0
M  V30 2168 C 207.101 3.4602 -0.216986 0
M  V30 2169 C 206.162 4.09791 -1.27944 0
M  V30 2170 C 205.395 5.28431 -0.748055 0
M  V30 2171 O 205.618 5.68823 0.423833 0
M  V30 2172 O 204.552 5.82644 -1.51027 0
M  V30 2173 H 208.378 2.5242 -1.68873 0
M  V30 2174 H 205.963 1.20399 -0.884555 0
M  V30 2175 H 207.845 4.21304 0.090059 0
M  V30 2176 H 206.52 3.16698 0.669633 0
M  V30 2177 H 205.427 3.36265 -1.63941 0
M  V30 2178 H 206.76 4.4328 -2.13925 0
M  V30 2179 N 208.412 0.89855 1.29475 0
M  V30 2180 C 209.66 0.522847 1.9522 0
M  V30 2181 C 209.981 -0.93371 1.71192 0
M  V30 2182 O 209.251 -1.65823 1.04305 0
M  V30 2183 H 207.831 0.190366 0.722336 0
M  V30 2184 H 210.493 1.14459 1.5775 0
M  V30 2185 H 209.589 0.704476 3.04045 0
M  V30 2186 N 209.89 -1.43072 0.660911 0
M  V30 2187 C 210.822 -2.29108 -0.0647641 0
M  V30 2188 C 211.835 -1.42928 -0.779448 0
M  V30 2189 O 213.024 -1.66788 -0.635921 0
M  V30 2190 C 210.124 -3.20032 -1.11503 0
M  V30 2191 C 209.297 -4.34792 -0.476955 0
M  V30 2192 C 208.356 -5.06534 -1.42513 0
M  V30 2193 O 207.382 -5.61538 -0.930771 0
M  V30 2194 N 208.584 -5.1075 -2.75889 0
M  V30 2195 H 211.349 -2.92029 0.673731 0
M  V30 2196 H 208.91 -1.53846 0.50427 0
M  V30 2197 H 210.902 -3.64892 -1.75032 0
M  V30 2198 H 209.472 -2.58658 -1.75541 0
M  V30 2199 H 208.692 -3.92752 0.337572 0
M  V30 2200 H 209.98 -5.0879 -0.0318525 0
M  V30 2201 H 209.378 -4.67447 -3.18606 0
M  V30 2202 H 207.935 -5.59302 -3.347 0
M  V30 2203 N 211.368 -0.403325 -1.52352 0
M  V30 2204 C 212.298 0.416205 -2.29761 0
M  V30 2205 C 213.279 1.05123 -1.33728 0
M  V30 2206 O 214.464 1.06134 -1.62632 0
M  V30 2207 C 211.594 1.53624 -3.11475 0
M  V30 2208 C 210.548 1.02653 -4.15507 0
M  V30 2209 C 209.874 2.23971 -4.85532 0
M  V30 2210 C 211.174 0.08463 -5.22231 0
M  V30 2211 H 212.868 -0.229701 -2.98518 0
M  V30 2212 H 210.414 -0.111913 -1.43564 0
M  V30 2213 H 212.367 2.1165 -3.64393 0
M  V30 2214 H 211.091 2.20994 -2.40477 0
M  V30 2215 H 209.75 0.46871 -3.63591 0
M  V30 2216 H 209.398 2.89883 -4.11068 0
M  V30 2217 H 209.098 1.90521 -5.55856 0
M  V30 2218 H 210.622 2.82614 -5.41259 0
M  V30 2219 H 212.036 0.573509 -5.70424 0
M  V30 2220 H 210.433 -0.160783 -5.99885 0
M  V30 2221 H 211.503 -0.86237 -4.7717 0
M  V30 2222 N 212.846 1.57033 -0.133567 0
M  V30 2223 C 214.123 1.87256 0.56522 0
M  V30 2224 C 214.503 1.03726 1.83859 0
M  V30 2225 O 213.851 0.120247 2.28183 0
M  V30 2226 C 214.061 3.3865 0.843636 0
M  V30 2227 C 215.409 4.07574 1.19032 0
M  V30 2228 O 216.433 3.43752 0.933429 0
M  V30 2229 O 215.292 5.20259 1.67312 0
M  V30 2230 H 212.386 0.775678 0.286796 0
M  V30 2231 H 214.932 1.68855 -0.169168 0
M  V30 2232 H 213.704 3.91257 -0.0581149 0
M  V30 2233 H 213.327 3.62532 1.63268 0
M  V30 2234 N 214.325 -0.140222 1.56975 0
M  V30 2235 C 215.571 -0.848084 1.84876 0
M  V30 2236 C 215.926 -1.78481 0.718481 0
M  V30 2237 O 215.219 -1.89497 -0.283093 0
M  V30 2238 C 215.413 -1.65386 3.16832 0
M  V30 2239 C 215.242 -0.79665 4.42587 0
M  V30 2240 C 214.012 -0.459648 5.03205 0
M  V30 2241 C 216.21 -0.12389 5.14151 0
M  V30 2242 N 214.192 0.410446 6.12526 0
M  V30 2243 C 215.563 0.606064 6.17031 0
M  V30 2244 C 217.618 -0.0452654 4.97879 0
M  V30 2245 C 216.321 1.40723 7.054 0
M  V30 2246 C 218.347 0.742658 5.86718 0
M  V30 2247 C 217.709 1.46087 6.89085 0
M  V30 2248 H 213.808 -0.287946 0.727056 0
M  V30 2249 H 216.392 -0.11304 1.94372 0
M  V30 2250 H 214.563 -2.36009 3.08471 0
M  V30 2251 H 216.295 -2.30541 3.32615 0
M  V30 2252 H 213.05 -0.797006 4.66846 0
M  V30 2253 H 213.474 0.836716 6.7181 0
M  V30 2254 H 218.116 -0.586184 4.18717 0
M  V30 2255 H 215.834 1.95938 7.83986 0
M  V30 2256 H 219.42 0.805574 5.76196 0
M  V30 2257 H 218.3 2.06077 7.56639 0
M  V30 2258 N 215.803 -1.52179 -0.40978 0
M  V30 2259 C 216.766 -1.74853 -1.48186 0
M  V30 2260 C 217.766 -0.618417 -1.48433 0
M  V30 2261 O 218.956 -0.886286 -1.49969 0
M  V30 2262 C 216.088 -1.8303 -2.87598 0
M  V30 2263 H 217.281 -2.70559 -1.29374 0
M  V30 2264 H 214.834 -1.42586 -0.640233 0
M  V30 2265 H 215.569 -0.89236 -3.11781 0
M  V30 2266 H 215.354 -2.65187 -2.88822 0
M  V30 2267 H 216.844 -2.02316 -3.65319 0
M  V30 2268 N 217.281 0.66697 -1.42791 0
M  V30 2269 C 218.692 1.2478 -1.38877 0
M  V30 2270 C 219.043 1.96012 -0.0859426 0
M  V30 2271 O 218.168 2.00463 0.815081 0
M  V30 2272 C 218.763 2.26938 -2.51564 0
M  V30 2273 C 217.322 2.80529 -2.50959 0
M  V30 2274 C 216.469 1.54965 -2.29959 0
M  V30 2275 H 219.42 0.459853 -1.51892 0
M  V30 2276 H 219.441 3.08834 -2.22265 0
M  V30 2277 H 218.953 1.75065 -3.46372 0
M  V30 2278 H 217.054 3.36502 -1.59991 0
M  V30 2279 H 217.167 3.29012 -3.48265 0
M  V30 2280 H 215.531 1.81817 -1.78366 0
M  V30 2281 H 216.314 1.05047 -3.26833 0
M  V30 2282 N 218.759 1.29093 0.90403 0
M  V30 2283 C 219.689 1.16401 2.02418 0
M  V30 2284 C 220.67 0.0593085 1.69997 0
M  V30 2285 O 221.855 0.238021 1.92736 0
M  V30 2286 C 218.985 0.835233 3.37107 0
M  V30 2287 C 217.939 1.89578 3.83724 0
M  V30 2288 C 217.265 1.42041 5.15489 0
M  V30 2289 C 218.565 3.30394 4.04521 0
M  V30 2290 H 220.259 2.10109 2.13295 0
M  V30 2291 H 217.805 1.01157 1.02486 0
M  V30 2292 H 219.758 0.733169 4.14973 0
M  V30 2293 H 218.482 -0.137543 3.2631 0
M  V30 2294 H 217.141 1.98715 3.08071 0
M  V30 2295 H 216.789 0.436426 5.01103 0
M  V30 2296 H 216.489 2.12964 5.4765 0
M  V30 2297 H 218.013 1.33176 5.959 0
M  V30 2298 H 219.427 3.24123 4.72882 0
M  V30 2299 H 217.824 3.99237 4.48029 0
M  V30 2300 H 218.894 3.73692 3.09002 0
M  V30 2301 N 220.237 -1.11381 1.11499 0
M  V30 2302 C 221.462 -1.87475 0.887019 0
M  V30 2303 C 221.887 -1.79639 -0.557796 0
M  V30 2304 O 221.245 -1.15924 -1.39396 0
M  V30 2305 C 221.293 -3.34213 1.35403 0
M  V30 2306 O 220.397 -4.0903 0.526146 0
M  V30 2307 H 219.738 -0.582099 0.319463 0
M  V30 2308 H 222.268 -1.40785 1.48461 0
M  V30 2309 H 222.278 -3.8506 1.34881 0
M  V30 2310 H 220.953 -3.39232 2.40612 0
M  V30 2311 H 219.53 -3.68082 0.597522 0
M  V30 2312 N 221.715 -0.905404 -1.28997 0
M  V30 2313 C 222.94 -0.549175 -1.99997 0
M  V30 2314 C 223.365 0.860276 -1.67275 0
M  V30 2315 O 222.723 1.57355 -0.900502 0
M  V30 2316 C 222.771 -0.755185 -3.52604 0
M  V30 2317 O 221.875 0.189692 -4.11964 0
M  V30 2318 H 221.216 -0.213899 -0.628604 0
M  V30 2319 H 223.746 -1.21856 -1.64354 0
M  V30 2320 H 223.756 -0.662045 -4.02593 0
M  V30 2321 H 222.431 -1.78271 -3.75755 0
M  V30 2322 H 221.008 0.0485257 -3.72868 0
M  V30 2323 N 223.193 1.4272 -0.668489 0
M  V30 2324 C 224.604 1.84793 -0.266151 0
M  V30 2325 C 224.955 1.55959 1.19043 0
M  V30 2326 O 224.08 1.01622 1.91055 0
M  V30 2327 C 224.675 3.35436 -0.476271 0
M  V30 2328 C 223.234 3.76182 -0.128113 0
M  V30 2329 C 222.381 2.66344 -0.771777 0
M  V30 2330 H 225.332 1.32656 -0.871098 0
M  V30 2331 H 225.353 3.79515 0.273561 0
M  V30 2332 H 224.865 3.5639 -1.53647 0
M  V30 2333 H 222.966 3.60836 0.928891 0
M  V30 2334 H 223.079 4.75766 -0.564231 0
M  V30 2335 H 221.443 2.53885 -0.203652 0
M  V30 2336 H 222.226 2.90123 -1.83531 0
M  V30 2337 N 224.671 0.411399 1.52136 0
M  V30 2338 C 225.918 -0.163645 2.01838 0
M  V30 2339 C 226.246 -1.4495 1.29691 0
M  V30 2340 O 225.501 -1.91725 0.392431 0
M  V30 2341 C 225.8 -0.455872 3.54481 0
M  V30 2342 C 225.466 0.741055 4.44769 0
M  V30 2343 C 224.128 1.06936 4.69167 0
M  V30 2344 C 226.48 1.54075 4.97906 0
M  V30 2345 C 223.808 2.19851 5.43951 0
M  V30 2346 C 226.16 2.66067 5.73926 0
M  V30 2347 C 224.824 2.99381 5.96596 0
M  V30 2348 H 224.094 -0.0598821 0.738576 0
M  V30 2349 H 226.741 0.553283 1.83333 0
M  V30 2350 H 225.046 -1.2544 3.71177 0
M  V30 2351 H 226.743 -0.913802 3.90449 0
M  V30 2352 H 223.333 0.475192 4.25958 0
M  V30 2353 H 227.517 1.30033 4.78963 0
M  V30 2354 H 222.773 2.46006 5.59724 0
M  V30 2355 H 226.947 3.28419 6.14096 0
M  V30 2356 H 224.574 3.86992 6.54325 0
M  V30 2357 N 226.149 -1.5696 0.141893 0
M  V30 2358 C 227.426 -1.87553 -0.555281 0
M  V30 2359 C 227.806 -1.04699 -1.83306 0
M  V30 2360 O 227.154 -0.132346 -2.28116 0
M  V30 2361 C 227.364 -3.39093 -0.825664 0
M  V30 2362 C 228.712 -4.08199 -1.16869 0
M  V30 2363 O 229.736 -3.44242 -0.915185 0
M  V30 2364 O 228.595 -5.21139 -1.6455 0
M  V30 2365 H 225.689 -0.777188 -0.282679 0
M  V30 2366 H 228.235 -1.68763 0.17812 0
M  V30 2367 H 227.007 -3.91221 0.0788633 0
M  V30 2368 H 226.63 -3.63393 -1.61343 0
M  V30 2369 N 227.627 0.131896 -1.57047 0
M  V30 2370 C 228.876 0.84044 -1.83356 0
M  V30 2371 C 229.189 1.81646 -0.725535 0
M  V30 2372 O 230.395 2.57025 -0.874659 0
M  V30 2373 C 228.851 1.54528 -3.25037 0
M  V30 2374 C 228.459 0.610902 -4.43815 0
M  V30 2375 C 230.203 2.23972 -3.60606 0
M  V30 2376 C 228.11 1.31823 -5.76521 0
M  V30 2377 H 227.04 0.317599 -0.683847 0
M  V30 2378 H 229.691 0.0931561 -1.83263 0
M  V30 2379 H 228.073 2.33873 -3.19561 0
M  V30 2380 H 229.247 -0.148407 -4.60561 0
M  V30 2381 H 227.562 0.0241016 -4.16393 0
M  V30 2382 H 230.159 2.77558 -4.57018 0
M  V30 2383 H 230.502 3.01173 -2.87403 0
M  V30 2384 H 231.035 1.51529 -3.6781 0
M  V30 2385 H 227.774 0.587771 -6.52859 0
M  V30 2386 H 227.294 2.04987 -5.63685 0
M  V30 2387 H 228.973 1.855 -6.19838 0
M  V30 2388 N 229.106 1.52395 0.401703 0
M  V30 2389 C 230.039 1.70999 1.51111 0
M  V30 2390 C 231.017 0.55765 1.52738 0
M  V30 2391 O 232.201 0.785912 1.71335 0
M  V30 2392 C 229.328 1.75607 2.8962 0
M  V30 2393 C 228.374 2.97227 3.05873 0
M  V30 2394 S 229.207 4.57439 2.78405 0
M  V30 2395 C 230.363 4.64844 4.19131 0
M  V30 2396 H 230.596 2.6483 1.35102 0
M  V30 2397 H 228.129 1.42527 0.593762 0
M  V30 2398 H 230.087 1.78947 3.69443 0
M  V30 2399 H 228.748 0.828914 3.02965 0
M  V30 2400 H 227.941 2.96955 4.07227 0
M  V30 2401 H 227.543 2.91813 2.33925 0
M  V30 2402 H 229.835 4.42677 5.12877 0
M  V30 2403 H 230.778 5.66807 4.24424 0
M  V30 2404 H 231.186 3.93804 4.04448 0
M  V30 2405 N 230.584 -0.659388 1.43143 0
M  V30 2406 C 231.83 -1.42145 1.44647 0
M  V30 2407 C 232.163 -1.9408 0.0681907 0
M  V30 2408 O 231.438 -1.71899 -0.910007 0
M  V30 2409 C 231.721 -2.60735 2.48373 0
M  V30 2410 C 231.574 -2.14332 3.95451 0
M  V30 2411 C 232.893 -3.62951 2.48906 0
M  V30 2412 H 230.012 -0.51552 0.526696 0
M  V30 2413 H 232.654 -0.748069 1.74654 0
M  V30 2414 H 230.804 -3.18184 2.22916 0
M  V30 2415 H 232.476 -1.61932 4.31944 0
M  V30 2416 H 230.719 -1.4576 4.08578 0
M  V30 2417 H 231.39 -2.99583 4.63631 0
M  V30 2418 H 233.866 -3.1525 2.71582 0
M  V30 2419 H 232.742 -4.43487 3.23435 0
M  V30 2420 H 233.003 -4.15126 1.52061 0
M  V30 2421 N 232.062 -1.29571 -0.897171 0
M  V30 2422 C 232.992 -1.17473 -2.01798 0
M  V30 2423 C 233.973 -0.068323 -1.69963 0
M  V30 2424 O 235.158 -0.248239 -1.92607 0
M  V30 2425 C 232.288 -0.853099 -3.36659 0
M  V30 2426 C 231.242 -1.9161 -3.82713 0
M  V30 2427 C 230.568 -1.44773 -5.14728 0
M  V30 2428 C 231.868 -3.32535 -4.02763 0
M  V30 2429 H 233.562 -2.11237 -2.12177 0
M  V30 2430 H 231.108 -1.01699 -1.01948 0
M  V30 2431 H 233.061 -0.755165 -4.14578 0
M  V30 2432 H 231.785 0.120236 -3.26379 0
M  V30 2433 H 230.444 -2.00346 -3.07013 0
M  V30 2434 H 230.092 -0.462995 -5.00865 0
M  V30 2435 H 229.792 -2.15865 -5.46513 0
M  V30 2436 H 231.316 -1.36334 -5.95185 0
M  V30 2437 H 232.73 -3.26626 -4.71156 0
M  V30 2438 H 231.127 -4.01607 -4.45905 0
M  V30 2439 H 232.197 -3.75326 -3.07016 0
M  V30 2440 N 233.54 1.10788 -1.12088 0
M  V30 2441 C 234.45 2.20599 -0.798338 0
M  V30 2442 C 235.466 1.72712 0.21135 0
M  V30 2443 O 236.642 2.01348 0.0458477 0
M  V30 2444 C 233.707 3.45771 -0.253674 0
M  V30 2445 C 232.768 4.08411 -1.32283 0
M  V30 2446 C 232.001 5.27608 -0.80406 0
M  V30 2447 O 232.224 5.69241 0.363478 0
M  V30 2448 O 231.158 5.8101 -1.57198 0
M  V30 2449 H 234.984 2.50614 -1.7154 0
M  V30 2450 H 232.569 1.19454 -0.897275 0
M  V30 2451 H 234.451 4.21376 0.0453691 0
M  V30 2452 H 233.126 3.1739 0.636005 0
M  V30 2453 H 232.033 3.34507 -1.67499 0
M  V30 2454 H 233.366 4.40986 -2.18614 0
M  V30 2455 N 235.018 0.912232 1.28515 0
M  V30 2456 C 236.266 0.543523 1.94654 0
M  V30 2457 C 236.587 -0.9155 1.72173 0
M  V30 2458 O 235.857 -1.64708 1.06058 0
M  V30 2459 H 234.437 0.198017 0.720277 0
M  V30 2460 H 237.099 1.16126 1.56527 0
M  V30 2461 H 236.195 0.736684 3.03281 0
M  V30 2462 N 236.496 -1.42363 0.676048 0
M  V30 2463 C 237.907 -1.84649 0.275948 0
M  V30 2464 C 238.258 -1.56588 -1.18214 0
M  V30 2465 O 237.383 -1.02634 -1.90513 0
M  V30 2466 C 237.978 -3.35178 0.494053 0
M  V30 2467 C 236.537 -3.76109 0.148061 0
M  V30 2468 C 235.684 -2.65931 0.785891 0
M  V30 2469 H 238.635 -1.32192 0.878121 0
M  V30 2470 H 238.656 -3.79655 -0.25343 0
M  V30 2471 H 238.168 -3.55571 1.55535 0
M  V30 2472 H 236.269 -3.61323 -0.909742 0
M  V30 2473 H 236.382 -4.7546 0.589454 0
M  V30 2474 H 234.746 -2.53773 0.217113 0
M  V30 2475 H 235.529 -2.89146 1.85067 0
M  V30 2476 N 237.974 -0.419461 -1.51915 0
M  V30 2477 C 238.922 0.415502 -2.28859 0
M  V30 2478 C 239.916 1.03674 -1.3397 0
M  V30 2479 O 241.122 0.973757 -1.51387 0
M  V30 2480 H 237.497 0.152786 -0.736315 0
M  V30 2481 H 239.468 -0.254531 -2.97312 0
M  V30 2482 C 238.217 1.51425 -3.12995 0
M  V30 2483 H 237.54 1.04556 -3.85886 0
M  V30 2484 H 238.98 2.07208 -3.6992 0
M  V30 2485 C 237.439 2.48745 -2.27217 0
M  V30 2486 O 237.969 3.52871 -1.9195 0
M  V30 2487 N 236.175 2.19202 -1.90785 0
M  V30 2488 H 235.722 1.34556 -2.19664 0
M  V30 2489 H 235.68 2.84561 -1.33687 0
M  V30 2490 N 239.452 1.56882 -0.150215 0
M  V30 2491 C 240.7 1.9584 0.499105 0
M  V30 2492 C 241.021 1.03623 1.65188 0
M  V30 2493 O 240.291 0.0984084 1.95653 0
M  V30 2494 H 238.871 0.723119 0.187373 0
M  V30 2495 H 241.533 1.9358 -0.226466 0
M  V30 2496 H 240.629 2.99638 0.873122 0
M  V30 2497 N 240.93 -0.123565 1.57115 0
M  V30 2498 C 242.346 -0.476961 1.52306 0
M  V30 2499 C 242.546 -1.82109 0.86248 0
M  V30 2500 O 241.602 -2.48586 0.442884 0
M  V30 2501 C 242.915 -0.465661 2.97073 0
M  V30 2502 C 244.463 -0.549534 3.08138 0
M  V30 2503 C 244.938 -0.568669 4.54456 0
M  V30 2504 N 246.429 -0.630237 4.58892 0
M  V30 2505 C 247.164 -0.666415 5.69514 0
M  V30 2506 N 246.66 -0.660514 6.89644 0
M  V30 2507 N 248.453 -0.709077 5.5761 0
M  V30 2508 H 240.604 0.757198 1.98445 0
M  V30 2509 H 242.867 0.278808 0.906074 0
M  V30 2510 H 242.573 0.454232 3.48754 0
M  V30 2511 H 242.447 -1.29513 3.54269 0
M  V30 2512 H 244.834 -1.45985 2.56461 0
M  V30 2513 H 244.915 0.307532 2.53945 0
M  V30 2514 H 244.559 0.337581 5.06777 0
M  V30 2515 H 244.489 -1.44256 5.06456 0
M  V30 2516 H 246.98 -0.641146 3.72421 0
M  V30 2517 H 247.293 -0.690616 7.69708 0
M  V30 2518 H 245.638 -0.628012 6.92157 0
M  V30 2519 H 248.829 -0.711019 4.62668 0
M  V30 2520 H 249.002 -0.733804 6.43832 0
M  V30 2521 N 242.408 -1.52605 -0.393616 0
M  V30 2522 C 243.355 -1.77055 -1.48054 0
M  V30 2523 C 244.325 -0.61358 -1.54352 0
M  V30 2524 O 245.51 -0.852806 -1.70681 0
M  V30 2525 C 242.65 -1.94108 -2.85335 0
M  V30 2526 C 241.763 -3.21792 -2.88226 0
M  V30 2527 C 240.898 -3.29188 -4.16904 0
M  V30 2528 C 239.937 -4.51013 -4.13828 0
M  V30 2529 N 239.074 -4.55716 -5.34105 0
M  V30 2530 H 243.914 -2.69815 -1.26506 0
M  V30 2531 H 241.451 -1.33683 -0.61379 0
M  V30 2532 H 243.409 -2.01979 -3.65049 0
M  V30 2533 H 242.039 -1.04713 -3.05344 0
M  V30 2534 H 241.091 -3.23015 -2.00911 0
M  V30 2535 H 242.403 -4.11557 -2.8182 0
M  V30 2536 H 241.557 -3.36216 -5.05018 0
M  V30 2537 H 240.296 -2.37389 -4.26026 0
M  V30 2538 H 239.301 -4.44115 -3.24102 0
M  V30 2539 H 240.526 -5.44123 -4.06333 0
M  V30 2540 H 238.472 -3.66807 -5.43865 0
M  V30 2541 H 238.389 -5.39346 -5.29756 0
M  V30 2542 H 239.657 -4.66993 -6.2413 0
M  V30 2543 N 243.887 0.651787 -1.4349 0
M  V30 2544 C 244.797 1.79368 -1.5121 0
M  V30 2545 C 245.813 1.69361 -0.399093 0
M  V30 2546 O 246.989 1.90505 -0.653431 0
M  V30 2547 C 244.054 3.15653 -1.43401 0
M  V30 2548 C 243.115 3.37446 -2.65384 0
M  V30 2549 C 242.348 4.67229 -2.57939 0
M  V30 2550 O 242.571 5.46676 -1.62792 0
M  V30 2551 O 241.505 4.90773 -3.48462 0
M  V30 2552 H 245.331 1.7581 -2.47638 0
M  V30 2553 H 242.916 0.810447 -1.25507 0
M  V30 2554 H 244.798 3.96935 -1.41494 0
M  V30 2555 H 243.473 3.19798 -0.501085 0
M  V30 2556 H 242.38 2.55923 -2.72863 0
M  V30 2557 H 243.713 3.38148 -3.57654 0
M  V30 2558 N 245.365 1.30045 0.890287 0
M  V30 2559 C 246.595 1.21296 1.67245 0
M  V30 2560 C 247.003 -0.227471 1.87828 0
M  V30 2561 O 246.346 -1.16296 1.422 0
M  V30 2562 C 246.408 1.86519 3.07329 0
M  V30 2563 C 246.072 3.35837 3.09939 0
M  V30 2564 C 247.069 4.31915 2.89389 0
M  V30 2565 C 244.754 3.77196 3.31706 0
M  V30 2566 C 246.748 5.67325 2.90552 0
M  V30 2567 C 244.435 5.12725 3.32499 0
M  V30 2568 C 245.433 6.076 3.11947 0
M  V30 2569 O 245.121 7.40655 3.12547 0
M  V30 2570 H 244.853 0.4211 0.528821 0
M  V30 2571 H 247.407 1.72111 1.12103 0
M  V30 2572 H 245.637 1.30228 3.64112 0
M  V30 2573 H 247.326 1.71963 3.67673 0
M  V30 2574 H 248.092 4.01294 2.72375 0
M  V30 2575 H 243.971 3.03796 3.4674 0
M  V30 2576 H 247.515 6.41354 2.74429 0
M  V30 2577 H 243.412 5.42988 3.49047 0
M  V30 2578 H 244.18 7.49577 3.28749 0
M  V30 2579 N 246.843 -1.10192 1.12674 0
M  V30 2580 C 248.254 -1.63707 0.897604 0
M  V30 2581 C 248.605 -1.87812 -0.567546 0
M  V30 2582 O 247.73 -1.62196 -1.43253 0
M  V30 2583 C 248.325 -2.974 1.62292 0
M  V30 2584 C 246.884 -3.47772 1.43986 0
M  V30 2585 C 246.031 -2.22332 1.65722 0
M  V30 2586 H 248.982 -0.936587 1.28116 0
M  V30 2587 H 249.003 -3.64986 1.07541 0
M  V30 2588 H 248.515 -2.79824 2.68924 0
M  V30 2589 H 246.616 -3.70487 0.396206 0
M  V30 2590 H 246.729 -4.25723 2.19765 0
M  V30 2591 H 245.093 -2.30599 1.08149 0
M  V30 2592 H 245.876 -2.07285 2.73657 0
M  V30 2593 N 248.321 -0.919034 -1.28029 0
M  V30 2594 C 249.254 -0.355887 -2.25408 0
M  V30 2595 C 250.232 0.542874 -1.5327 0
M  V30 2596 O 251.416 0.485338 -1.82145 0
M  V30 2597 C 248.543 0.490759 -3.35126 0
M  V30 2598 C 247.589 -0.343358 -4.25116 0
M  V30 2599 S 248.422 -1.75344 -5.05979 0
M  V30 2600 C 249.578 -0.914244 -6.19187 0
M  V30 2601 H 249.811 -1.18123 -2.72826 0
M  V30 2602 H 247.344 -0.720636 -1.36551 0
M  V30 2603 H 249.302 0.973404 -3.98792 0
M  V30 2604 H 247.963 1.29054 -2.86363 0
M  V30 2605 H 247.156 0.304266 -5.03081 0
M  V30 2606 H 246.758 -0.759851 -3.662 0
M  V30 2607 H 249.05 -0.146282 -6.77342 0
M  V30 2608 H 249.993 -1.66661 -6.88208 0
M  V30 2609 H 250.401 -0.460082 -5.62622 0
M  V30 2610 N 249.799 1.42003 -0.683588 0
M  V30 2611 C 251.029 2.05448 -0.217866 0
M  V30 2612 C 251.437 1.51491 1.13346 0
M  V30 2613 O 250.78 0.653048 1.717 0
M  V30 2614 C 250.842 3.59399 -0.0850118 0
M  V30 2615 C 250.506 4.36093 -1.36645 0
M  V30 2616 C 251.503 4.66169 -2.30179 0
M  V30 2617 C 249.188 4.75578 -1.61649 0
M  V30 2618 C 251.182 5.34676 -3.46988 0
M  V30 2619 C 248.869 5.43824 -2.78745 0
M  V30 2620 C 249.867 5.73299 -3.71238 0
M  V30 2621 O 249.555 6.40142 -4.86285 0
M  V30 2622 H 249.287 0.668344 -0.101454 0
M  V30 2623 H 251.841 1.82974 -0.933248 0
M  V30 2624 H 250.071 3.80566 0.686031 0
M  V30 2625 H 251.76 4.04457 0.341973 0
M  V30 2626 H 252.526 4.36156 -2.12115 0
M  V30 2627 H 248.405 4.52025 -0.905243 0
M  V30 2628 H 251.949 5.57599 -4.19201 0
M  V30 2629 H 247.846 5.73254 -2.96732 0
M  V30 2630 H 248.614 6.58636 -4.85944 0
M  V30 2631 N 251.277 0.427512 1.51691 0
M  V30 2632 C 252.502 -0.143601 2.06902 0
M  V30 2633 C 252.927 -1.36536 1.29382 0
M  V30 2634 O 252.285 -1.78289 0.329043 0
M  V30 2635 C 252.333 -0.454207 3.57728 0
M  V30 2636 O 251.437 -1.54228 3.82475 0
M  V30 2637 H 250.778 -0.00617128 0.663971 0
M  V30 2638 H 253.308 0.606014 1.95419 0
M  V30 2639 H 253.318 -0.707525 4.01818 0
M  V30 2640 H 251.993 0.438812 4.13579 0
M  V30 2641 H 250.57 -1.2797 3.50254 0
M  V30 2642 N 252.755 -1.56801 0.158532 0
M  V30 2643 C 254.003 -1.96102 -0.488712 0
M  V30 2644 C 254.324 -1.04498 -1.64636 0
M  V30 2645 O 253.594 -0.108783 -1.95598 0
M  V30 2646 H 252.174 -0.724102 -0.183535 0
M  V30 2647 H 254.836 -1.93457 0.236728 0
M  V30 2648 H 253.932 -3.00097 -0.857219 0
M  V30 2649 N 254.233 0.115231 -1.57178 0
M  V30 2650 C 255.143 1.15994 -2.03918 0
M  V30 2651 C 256.159 1.45103 -0.960268 0
M  V30 2652 O 257.335 1.56144 -1.27204 0
M  V30 2653 C 254.4 2.46568 -2.43732 0
M  V30 2654 C 253.461 2.24822 -3.65723 0
M  V30 2655 C 252.694 3.4917 -4.03629 0
M  V30 2656 O 252.917 4.56623 -3.41835 0
M  V30 2657 O 251.851 3.39949 -4.96708 0
M  V30 2658 H 255.677 0.793019 -2.93164 0
M  V30 2659 H 253.262 0.3263 -1.45793 0
M  V30 2660 H 255.144 3.23492 -2.70057 0
M  V30 2661 H 253.819 2.82726 -1.57631 0
M  V30 2662 H 252.726 1.45744 -3.44542 0
M  V30 2663 H 254.059 1.93566 -4.52541 0
M  V30 2664 N 255.711 1.52812 0.385517 0
M  V30 2665 C 256.658 1.77838 1.47113 0
M  V30 2666 C 257.628 0.621757 1.54024 0
M  V30 2667 O 258.813 0.861846 1.70226 0
M  V30 2668 C 255.953 1.95618 2.84302 0
M  V30 2669 C 255.066 3.23316 2.86515 0
M  V30 2670 C 254.201 3.31394 4.15152 0
M  V30 2671 C 253.24 4.53201 4.1143 0
M  V30 2672 N 252.377 4.58542 5.3168 0
M  V30 2673 H 257.217 2.70482 1.25073 0
M  V30 2674 H 254.754 1.34006 0.606692 0
M  V30 2675 H 256.712 2.03912 3.63972 0
M  V30 2676 H 255.342 1.06331 3.04784 0
M  V30 2677 H 254.394 3.24076 1.99195 0
M  V30 2678 H 255.706 4.13045 2.79634 0
M  V30 2679 H 254.86 3.3889 5.03228 0
M  V30 2680 H 253.599 2.39645 4.24761 0
M  V30 2681 H 252.604 4.45827 3.21742 0
M  V30 2682 H 253.829 5.46271 4.03442 0
M  V30 2683 H 251.775 3.69686 5.41912 0
M  V30 2684 H 251.692 5.42148 5.26889 0
M  V30 2685 H 252.96 4.70296 6.21644 0
M  V30 2686 N 257.189 -0.644168 1.43834 0
M  V30 2687 C 258.152 -1.73857 1.49353 0
M  V30 2688 C 259.152 -1.56315 0.377112 0
M  V30 2689 O 260.342 -1.62048 0.639226 0
M  V30 2690 C 257.474 -3.12819 1.35488 0
M  V30 2691 H 258.667 -1.70342 2.46827 0
M  V30 2692 H 256.22 -0.856652 1.30733 0
M  V30 2693 H 256.955 -3.2194 0.390569 0
M  V30 2694 H 256.74 -3.26958 2.16428 0
M  V30 2695 H 258.23 -3.92606 1.42302 0
M  V30 2696 N 258.668 -1.30515 -0.883378 0
M  V30 2697 C 259.898 -1.22182 -1.66599 0
M  V30 2698 C 260.306 0.217507 -1.87946 0
M  V30 2699 O 259.649 1.1554 -1.42815 0
M  V30 2700 C 259.711 -1.88146 -3.06335 0
M  V30 2701 C 259.375 -3.37476 -3.08154 0
M  V30 2702 C 260.372 -4.33443 -2.87094 0
M  V30 2703 C 258.057 -3.7895 -3.29701 0
M  V30 2704 C 260.051 -5.68858 -2.8754 0
M  V30 2705 C 257.738 -5.14482 -3.29776 0
M  V30 2706 C 258.736 -6.09246 -3.0872 0
M  V30 2707 O 258.424 -7.42302 -3.08615 0
M  V30 2708 H 258.156 -0.423898 -0.52658 0
M  V30 2709 H 260.71 -1.72703 -1.11188 0
M  V30 2710 H 258.94 -1.32157 -3.63416 0
M  V30 2711 H 260.629 -1.7391 -3.66756 0
M  V30 2712 H 261.395 -4.02733 -2.70243 0
M  V30 2713 H 257.274 -3.05631 -3.45124 0
M  V30 2714 H 260.818 -6.428 -2.71024 0
M  V30 2715 H 256.715 -5.44832 -3.46163 0
M  V30 2716 H 257.483 -7.5131 -3.24769 0
M  V30 2717 N 260.146 1.09593 -1.13257 0
M  V30 2718 C 261.395 1.81105 -0.887917 0
M  V30 2719 C 261.708 1.86563 0.587672 0
M  V30 2720 O 262.914 2.54367 0.949204 0
M  V30 2721 C 261.37 3.25338 -1.53895 0
M  V30 2722 C 260.978 3.28151 -3.04994 0
M  V30 2723 C 262.722 4.01617 -1.37492 0
M  V30 2724 C 260.629 4.66897 -3.6299 0
M  V30 2725 H 259.559 0.678661 -0.328534 0
M  V30 2726 H 262.21 1.23183 -1.36008 0
M  V30 2727 H 260.592 3.8331 -0.994446 0
M  V30 2728 H 261.766 2.79953 -3.66009 0
M  V30 2729 H 260.081 2.65361 -3.20893 0
M  V30 2730 H 262.678 5.04119 -1.78235 0
M  V30 2731 H 263.021 4.15072 -0.31957 0
M  V30 2732 H 263.554 3.50082 -1.88912 0
M  V30 2733 H 260.293 4.58643 -4.68323 0
M  V30 2734 H 259.813 5.15426 -3.06752 0
M  V30 2735 H 261.492 5.3587 -3.62563 0
M  V30 2736 N 261.624 0.925811 1.2754 0
M  V30 2737 C 262.556 0.380753 2.26015 0
M  V30 2738 C 263.569 -0.487485 1.5533 0
M  V30 2739 O 264.758 -0.300413 1.75954 0
M  V30 2740 C 261.858 -0.473259 3.35579 0
M  V30 2741 C 261.031 0.375249 4.35787 0
M  V30 2742 C 260.09 -0.415809 5.24555 0
M  V30 2743 O 259.116 0.175834 5.68928 0
M  V30 2744 N 260.318 -1.71607 5.54555 0
M  V30 2745 H 263.083 1.22725 2.73421 0
M  V30 2746 H 260.644 0.793037 1.41147 0
M  V30 2747 H 262.636 -1.00949 3.91907 0
M  V30 2748 H 261.206 -1.2205 2.87789 0
M  V30 2749 H 260.426 1.09279 3.7875 0
M  V30 2750 H 261.714 0.955399 4.99749 0
M  V30 2751 H 261.112 -2.2191 5.20358 0
M  V30 2752 H 259.669 -2.19887 6.1359 0
M  V30 2753 N 263.102 -1.41638 0.69111 0
M  V30 2754 C 264.35 -2.00902 0.219758 0
M  V30 2755 C 264.671 -1.54994 -1.18329 0
M  V30 2756 O 263.941 -0.778628 -1.79762 0
M  V30 2757 H 262.521 -0.74289 0.0782558 0
M  V30 2758 H 265.183 -1.73327 0.891271 0
M  V30 2759 H 264.279 -3.11224 0.233708 0
M  V30 2760 N 264.58 -0.43555 -1.51462 0
M  V30 2761 C 265.51 0.367376 -2.30592 0
M  V30 2762 C 266.491 1.02263 -1.35928 0
M  V30 2763 O 267.676 1.02661 -1.64847 0
M  V30 2764 C 264.806 1.46983 -3.14664 0
M  V30 2765 C 263.76 0.938161 -4.17591 0
M  V30 2766 C 263.086 2.13622 -4.90173 0
M  V30 2767 C 264.386 -0.0261621 -5.22293 0
M  V30 2768 H 266.08 -0.292969 -2.97963 0
M  V30 2769 H 263.626 -0.14234 -1.43295 0
M  V30 2770 H 265.579 2.03873 -3.688 0
M  V30 2771 H 264.303 2.15843 -2.4511 0
M  V30 2772 H 262.962 0.391481 -3.64504 0
M  V30 2773 H 262.61 2.81098 -4.17124 0
M  V30 2774 H 262.31 1.78688 -5.59772 0
M  V30 2775 H 263.834 2.7107 -5.47132 0
M  V30 2776 H 265.248 0.452384 -5.71512 0
M  V30 2777 H 263.645 -0.287992 -5.99409 0
M  V30 2778 H 264.715 -0.963391 -4.75233 0
M  V30 2779 N 266.058 1.56714 -0.166846 0
M  V30 2780 C 267.005 2.17746 0.765193 0
M  V30 2781 C 267.975 1.11614 1.23011 0
M  V30 2782 O 269.16 1.39745 1.29908 0
M  V30 2783 C 266.3 2.81882 1.9909 0
M  V30 2784 C 265.413 4.02462 1.56997 0
M  V30 2785 C 264.548 4.54537 2.749 0
M  V30 2786 C 263.587 5.67538 2.29275 0
M  V30 2787 N 262.724 6.14142 3.40255 0
M  V30 2788 H 267.564 2.97048 0.237952 0
M  V30 2789 H 265.101 1.4672 0.105725 0
M  V30 2790 H 267.059 3.17221 2.70974 0
M  V30 2791 H 265.689 2.05191 2.49192 0
M  V30 2792 H 264.741 3.72973 0.748037 0
M  V30 2793 H 266.053 4.84273 1.19503 0
M  V30 2794 H 265.207 4.92035 3.54946 0
M  V30 2795 H 263.946 3.71774 3.1565 0
M  V30 2796 H 262.951 5.29597 1.47674 0
M  V30 2797 H 264.176 6.52099 1.89588 0
M  V30 2798 H 262.122 5.3431 3.8059 0
M  V30 2799 H 262.039 6.9093 3.06841 0
M  V30 2800 H 263.307 6.56289 4.206 0
M  V30 2801 N 267.536 -0.106894 1.57237 0
M  V30 2802 C 268.446 -1.14911 2.0453 0
M  V30 2803 C 269.462 -1.44592 0.96795 0
M  V30 2804 O 270.638 -1.55468 1.2803 0
M  V30 2805 C 267.703 -2.45272 2.45036 0
M  V30 2806 C 266.764 -2.22879 3.66911 0
M  V30 2807 C 265.997 -3.47024 4.05475 0
M  V30 2808 O 266.22 -4.54804 3.44252 0
M  V30 2809 O 265.154 -3.3731 4.98504 0
M  V30 2810 H 268.98 -0.777461 2.9358 0
M  V30 2811 H 266.565 -0.318563 1.45964 0
M  V30 2812 H 268.447 -3.22055 2.71769 0
M  V30 2813 H 267.122 -2.81886 1.59129 0
M  V30 2814 H 266.029 -1.43915 3.45311 0
M  V30 2815 H 267.362 -1.91163 4.53561 0
M  V30 2816 N 269.014 -1.53014 -0.377408 0
M  V30 2817 C 269.961 -1.78616 -1.46168 0
M  V30 2818 C 270.931 -0.629917 -1.53692 0
M  V30 2819 O 272.116 -0.870861 -1.69766 0
M  V30 2820 C 269.256 -1.97123 -2.8326 0
M  V30 2821 C 268.369 -3.24831 -2.84796 0
M  V30 2822 C 267.504 -3.33591 -4.13389 0
M  V30 2823 C 266.543 -4.55377 -4.09021 0
M  V30 2824 N 265.68 -4.61355 -5.29241 0
M  V30 2825 H 270.52 -2.71142 -1.23637 0
M  V30 2826 H 268.057 -1.34326 -0.599577 0
M  V30 2827 H 270.015 -2.05839 -3.62886 0
M  V30 2828 H 268.645 -1.07946 -3.04216 0
M  V30 2829 H 267.697 -3.25128 -1.97474 0
M  V30 2830 H 269.009 -4.14523 -2.77439 0
M  V30 2831 H 268.163 -3.41554 -5.01424 0
M  V30 2832 H 266.902 -2.41894 -4.23484 0
M  V30 2833 H 265.907 -4.47527 -3.19373 0
M  V30 2834 H 267.132 -5.48402 -4.00539 0
M  V30 2835 H 265.078 -3.72554 -5.39944 0
M  V30 2836 H 264.995 -5.44935 -5.24006 0
M  V30 2837 H 266.263 -4.73586 -6.19141 0
M  V30 2838 N 270.492 0.636531 -1.44174 0
M  V30 2839 C 271.739 1.39619 -1.46672 0
M  V30 2840 C 272.067 1.94257 -0.0972691 0
M  V30 2841 O 271.322 1.73768 0.900175 0
M  V30 2842 C 271.621 2.58309 -2.47005 0
M  V30 2843 C 271.287 2.21992 -3.92467 0
M  V30 2844 C 269.949 2.118 -4.32081 0
M  V30 2845 C 272.301 1.9321 -4.84065 0
M  V30 2846 C 269.629 1.71007 -5.61225 0
M  V30 2847 C 271.981 1.53911 -6.13591 0
M  V30 2848 C 270.645 1.42257 -6.52165 0
M  V30 2849 H 269.915 0.510902 -0.536712 0
M  V30 2850 H 272.562 0.722328 -1.77355 0
M  V30 2851 H 270.867 3.30903 -2.09786 0
M  V30 2852 H 272.564 3.16533 -2.46186 0
M  V30 2853 H 269.154 2.30841 -3.61124 0
M  V30 2854 H 273.338 1.99997 -4.54219 0
M  V30 2855 H 268.594 1.60583 -5.89935 0
M  V30 2856 H 272.768 1.30677 -6.8403 0
M  V30 2857 H 270.395 1.10419 -7.52138 0
M  V30 2858 N 271.97 1.30982 0.876444 0
M  V30 2859 C 273.381 1.18277 1.44456 0
M  V30 2860 C 273.732 -0.213265 1.95037 0
M  V30 2861 O 272.857 -1.11057 1.85729 0
M  V30 2862 C 273.452 2.1411 2.62569 0
M  V30 2863 C 272.011 2.05358 3.15444 0
M  V30 2864 C 271.158 2.03706 1.88146 0
M  V30 2865 H 274.109 1.43127 0.685584 0
M  V30 2866 H 274.13 1.72692 3.39054 0
M  V30 2867 H 273.642 3.15706 2.25724 0
M  V30 2868 H 271.743 1.06934 3.56926 0
M  V30 2869 H 271.856 2.94156 3.78166 0
M  V30 2870 H 270.22 1.48629 2.06837 0
M  V30 2871 H 271.003 3.07047 1.53547 0
M  V30 2872 N 273.449 -1.08991 1.13837 0
M  V30 2873 C 274.381 -2.15606 0.777612 0
M  V30 2874 C 275.394 -1.61533 -0.202739 0
M  V30 2875 O 276.583 -1.78491 0.0181055 0
M  V30 2876 C 273.683 -3.3864 0.132623 0
M  V30 2877 C 272.856 -4.22115 1.1462 0
M  V30 2878 C 271.915 -5.23564 0.526074 0
M  V30 2879 O 270.941 -5.56678 1.18735 0
M  V30 2880 N 272.143 -5.76266 -0.699866 0
M  V30 2881 H 274.908 -2.47159 1.69506 0
M  V30 2882 H 272.469 -1.24747 1.03198 0
M  V30 2883 H 274.461 -4.03626 -0.29459 0
M  V30 2884 H 273.031 -3.04938 -0.687849 0
M  V30 2885 H 272.251 -3.53199 1.75055 0
M  V30 2886 H 273.539 -4.74709 1.83109 0
M  V30 2887 H 272.937 -5.51585 -1.25581 0
M  V30 2888 H 271.494 -6.42963 -1.06968 0
M  V30 2889 N 274.927 -0.932562 -1.27047 0
M  V30 2890 C 275.837 -0.441219 -2.30414 0
M  V30 2891 C 276.853 0.480525 -1.67233 0
M  V30 2892 O 278.029 0.362151 -1.98117 0
M  V30 2893 C 275.094 0.293651 -3.45454 0
M  V30 2894 C 274.155 -0.663601 -4.2414 0
M  V30 2895 C 273.388 0.0362932 -5.33688 0
M  V30 2896 O 273.611 1.2548 -5.56427 0
M  V30 2897 O 272.545 -0.638015 -5.98509 0
M  V30 2898 H 276.371 -1.29962 -2.74488 0
M  V30 2899 H 273.956 -0.6981 -1.32087 0
M  V30 2900 H 275.838 0.707951 -4.15411 0
M  V30 2901 H 274.513 1.12758 -3.03426 0
M  V30 2902 H 273.42 -1.12768 -3.56699 0
M  V30 2903 H 274.753 -1.46489 -4.69896 0
M  V30 2904 N 276.405 1.4127 -0.698611 0
M  V30 2905 C 277.315 2.34573 -0.0357891 0
M  V30 2906 C 278.331 1.56393 0.762701 0
M  V30 2907 O 279.507 1.8886 0.699564 0
M  V30 2908 C 276.572 3.35159 0.887089 0
M  V30 2909 C 275.633 4.29225 0.0804634 0
M  V30 2910 C 274.866 5.25006 0.959387 0
M  V30 2911 O 275.089 5.26314 2.19886 0
M  V30 2912 O 274.023 6.00519 0.407439 0
M  V30 2913 H 277.849 2.92838 -0.804957 0
M  V30 2914 H 275.434 1.42175 -0.458966 0
M  V30 2915 H 277.316 3.9689 1.41621 0
M  V30 2916 H 275.991 2.79333 1.6357 0
M  V30 2917 H 274.898 3.70833 -0.493328 0
M  V30 2918 H 276.231 4.88157 -0.629547 0
M  V30 2919 N 277.883 0.443576 1.51229 0
M  V30 2920 C 278.846 -0.353132 2.26463 0
M  V30 2921 C 279.846 -0.944338 1.3015 0
M  V30 2922 O 281.036 -0.817813 1.5381 0
M  V30 2923 C 278.168 -1.50023 3.06114 0
M  V30 2924 H 279.361 0.3063 2.98332 0
M  V30 2925 H 276.914 0.196902 1.55055 0
M  V30 2926 H 277.649 -2.19553 2.38677 0
M  V30 2927 H 277.434 -1.08241 3.76864 0
M  V30 2928 H 278.924 -2.06296 3.63087 0
M  V30 2929 N 279.361 -1.56624 0.175154 0
M  V30 2930 C 280.61 -1.96173 -0.468921 0
M  V30 2931 C 280.923 -1.06401 -1.64128 0
M  V30 2932 O 282.129 -1.35648 -2.35185 0
M  V30 2933 C 280.585 -3.48833 -0.885633 0
M  V30 2934 C 280.193 -4.47237 0.261343 0
M  V30 2935 C 281.937 -3.97194 -1.49791 0
M  V30 2936 C 279.844 -5.9114 -0.175214 0
M  V30 2937 H 278.774 -0.732455 -0.178958 0
M  V30 2938 H 281.425 -1.81591 0.263997 0
M  V30 2939 H 279.807 -3.58848 -1.67464 0
M  V30 2940 H 280.981 -4.4894 1.03871 0
M  V30 2941 H 279.296 -4.08956 0.783827 0
M  V30 2942 H 281.893 -5.02167 -1.83665 0
M  V30 2943 H 282.236 -3.40351 -2.39722 0
M  V30 2944 H 282.769 -3.90212 -0.773267 0
M  V30 2945 H 279.508 -6.51865 0.689414 0
M  V30 2946 H 279.028 -5.92735 -0.91786 0
M  V30 2947 H 280.707 -6.44044 -0.617792 0
M  V30 2948 N 280.839 0.0985539 -1.57292 0
M  V30 2949 C 282.088 0.801358 -1.85098 0
M  V30 2950 C 282.401 1.80066 -0.763902 0
M  V30 2951 O 283.607 2.55112 -0.928981 0
M  V30 2952 C 282.063 1.47599 -3.28242 0
M  V30 2953 C 281.671 0.516624 -4.45011 0
M  V30 2954 C 283.415 2.16272 -3.65276 0
M  V30 2955 C 281.322 1.19564 -5.79188 0
M  V30 2956 H 280.252 0.303022 -0.69043 0
M  V30 2957 H 282.903 0.0542623 -1.8342 0
M  V30 2958 H 281.285 2.27042 -3.2445 0
M  V30 2959 H 282.459 -0.246065 -4.60143 0
M  V30 2960 H 280.774 -0.064227 -4.1635 0
M  V30 2961 H 283.371 2.67802 -4.62803 0
M  V30 2962 H 283.714 2.95009 -2.93727 0
M  V30 2963 H 284.247 1.43693 -3.70941 0
M  V30 2964 H 280.986 0.449157 -6.53959 0
M  V30 2965 H 280.506 1.92984 -5.67906 0
M  V30 2966 H 282.185 1.7231 -6.23633 0
M  V30 2967 N 282.317 1.53212 0.369288 0
M  V30 2968 C 283.594 1.59815 1.12776 0
M  V30 2969 C 283.974 0.403402 2.0721 0
M  V30 2970 O 283.322 -0.606667 2.20299 0
M  V30 2971 C 283.532 2.94664 1.87013 0
M  V30 2972 C 284.88 3.49109 2.41677 0
M  V30 2973 O 285.904 2.96669 1.97144 0
M  V30 2974 O 284.763 4.40775 3.23079 0
M  V30 2975 H 281.857 0.645376 0.517125 0
M  V30 2976 H 284.403 1.65553 0.37285 0
M  V30 2977 H 283.175 3.73061 1.18071 0
M  V30 2978 H 282.798 2.92401 2.69421 0
M  V30 2979 N 283.795 -0.628877 1.44509 0
M  V30 2980 C 284.742 -1.74074 1.51549 0
M  V30 2981 C 285.712 -1.62084 0.363021 0
M  V30 2982 O 286.897 -1.81975 0.573567 0
M  V30 2983 C 284.037 -3.12328 1.46784 0
M  V30 2984 C 283.15 -3.35277 2.72422 0
M  V30 2985 C 282.285 -4.63515 2.59475 0
M  V30 2986 C 281.324 -4.7965 3.80266 0
M  V30 2987 N 280.461 -5.99168 3.65981 0
M  V30 2988 H 285.301 -1.67392 2.46544 0
M  V30 2989 H 282.838 -0.816527 1.22357 0
M  V30 2990 H 284.796 -3.92286 1.42012 0
M  V30 2991 H 283.426 -3.18018 0.553544 0
M  V30 2992 H 282.478 -2.49242 2.87372 0
M  V30 2993 H 283.79 -3.43078 3.62076 0
M  V30 2994 H 282.944 -5.51638 2.52548 0
M  V30 2995 H 281.683 -4.58076 1.67384 0
M  V30 2996 H 280.688 -3.89957 3.87574 0
M  V30 2997 H 281.913 -4.86902 4.73395 0
M  V30 2998 H 279.859 -5.94814 2.76644 0
M  V30 2999 H 279.776 -6.08035 4.49254 0
M  V30 3000 H 281.044 -6.89846 3.6295 0
M  V30 3001 N 285.273 -1.31445 -0.869486 0
M  V30 3002 C 286.503 -1.23942 -1.65294 0
M  V30 3003 C 286.911 0.197561 -1.88166 0
M  V30 3004 O 286.254 1.14019 -1.44033 0
M  V30 3005 C 286.316 -1.91385 -3.04322 0
M  V30 3006 C 285.98 -3.40726 -3.04557 0
M  V30 3007 C 286.977 -4.36464 -2.82481 0
M  V30 3008 C 284.662 -3.82425 -3.25663 0
M  V30 3009 C 286.656 -5.71876 -2.8149 0
M  V30 3010 C 284.343 -5.1795 -3.243 0
M  V30 3011 C 285.341 -6.12486 -3.02241 0
M  V30 3012 O 285.029 -7.45534 -3.00724 0
M  V30 3013 H 284.761 -0.429459 -0.522054 0
M  V30 3014 H 287.315 -1.73873 -1.0935 0
M  V30 3015 H 285.545 -1.36004 -3.61994 0
M  V30 3016 H 287.234 -1.77791 -3.64891 0
M  V30 3017 H 288 -4.05576 -2.65956 0
M  V30 3018 H 283.879 -3.09274 -3.41863 0
M  V30 3019 H 287.423 -6.45638 -2.64191 0
M  V30 3020 H 283.32 -5.48473 -3.40365 0
M  V30 3021 H 284.088 -7.54713 -3.16782 0
M  V30 3022 N 286.751 1.08385 -1.14413 0
M  V30 3023 C 288 1.80153 -0.907076 0
M  V30 3024 C 288.313 1.87176 0.567851 0
M  V30 3025 O 289.519 2.55359 0.922172 0
M  V30 3026 C 287.975 3.23687 -1.57336 0
M  V30 3027 C 287.583 3.24897 -3.08457 0
M  V30 3028 C 289.327 4.00136 -1.41744 0
M  V30 3029 C 287.234 4.6302 -3.67921 0
M  V30 3030 H 286.164 0.675139 -0.335714 0
M  V30 3031 H 288.815 1.21733 -1.37307 0
M  V30 3032 H 287.197 3.82234 -1.03505 0
M  V30 3033 H 288.371 2.76055 -3.68958 0
M  V30 3034 H 286.686 2.61943 -3.2369 0
M  V30 3035 H 289.283 5.02201 -1.83572 0
M  V30 3036 H 289.626 4.14709 -0.363576 0
M  V30 3037 H 290.159 3.48058 -1.92614 0
M  V30 3038 H 286.898 4.5365 -4.73161 0
M  V30 3039 H 286.418 5.12143 -3.12201 0
M  V30 3040 H 288.097 5.31994 -3.68227 0
M  V30 3041 N 288.23 0.939286 1.26551 0
M  V30 3042 C 289.177 0.446088 2.26448 0
M  V30 3043 C 290.147 -0.493234 1.58608 0
M  V30 3044 O 291.332 -0.409857 1.86346 0
M  V30 3045 C 288.472 -0.284375 3.43926 0
M  V30 3046 C 287.585 0.690399 4.26448 0
M  V30 3047 C 286.72 -0.0610712 5.31165 0
M  V30 3048 C 285.759 0.905649 6.05363 0
M  V30 3049 N 284.896 0.186055 7.01853 0
M  V30 3050 H 289.736 1.30291 2.68008 0
M  V30 3051 H 287.273 0.65371 1.31776 0
M  V30 3052 H 289.231 -0.724313 4.10864 0
M  V30 3053 H 287.861 -1.10535 3.03285 0
M  V30 3054 H 286.913 1.24885 3.59316 0
M  V30 3055 H 288.225 1.42873 4.779 0
M  V30 3056 H 287.379 -0.56038 6.04106 0
M  V30 3057 H 286.118 -0.832297 4.80546 0
M  V30 3058 H 285.123 1.4161 5.3125 0
M  V30 3059 H 286.348 1.67685 6.58072 0
M  V30 3060 H 284.294 -0.566714 6.53548 0
M  V30 3061 H 284.211 0.863752 7.51049 0
M  V30 3062 H 285.479 -0.292221 7.78952 0
M  V30 3063 N 289.708 -1.40897 0.706093 0
M  V30 3064 C 290.638 -2.33418 0.0620085 0
M  V30 3065 C 291.619 -1.52385 -0.755827 0
M  V30 3066 O 292.804 -1.80886 -0.706674 0
M  V30 3067 C 289.934 -3.36293 -0.867445 0
M  V30 3068 C 288.888 -4.27716 -0.155932 0
M  V30 3069 C 288.214 -5.2105 -1.20046 0
M  V30 3070 C 289.514 -5.12944 0.984149 0
M  V30 3071 H 291.208 -2.87527 0.83477 0
M  V30 3072 H 288.754 -1.38249 0.402875 0
M  V30 3073 H 290.707 -3.99949 -1.32735 0
M  V30 3074 H 289.431 -2.80556 -1.67199 0
M  V30 3075 H 288.09 -3.65498 0.284047 0
M  V30 3076 H 287.738 -4.61624 -1.99781 0
M  V30 3077 H 287.438 -5.83056 -0.729328 0
M  V30 3078 H 288.962 -5.87584 -1.66066 0
M  V30 3079 H 290.376 -5.70109 0.604048 0
M  V30 3080 H 288.773 -5.83945 1.38304 0
M  V30 3081 H 289.843 -4.49485 1.81911 0
M  V30 3082 N 291.186 -0.45159 -1.50991 0
M  V30 3083 C 292.432 0.110237 -2.025 0
M  V30 3084 C 292.765 1.41109 -1.33424 0
M  V30 3085 O 292.04 1.89135 -0.453659 0
M  V30 3086 C 292.323 0.314271 -3.58726 0
M  V30 3087 C 292.176 -1.00623 -4.38401 0
M  V30 3088 C 293.495 1.07767 -4.26702 0
M  V30 3089 H 290.614 0.0385897 -0.735989 0
M  V30 3090 H 293.256 -0.593374 -1.80497 0
M  V30 3091 H 291.406 0.913601 -3.77605 0
M  V30 3092 H 293.078 -1.64064 -4.31139 0
M  V30 3093 H 291.321 -1.6075 -4.02917 0
M  V30 3094 H 291.992 -0.817341 -5.45915 0
M  V30 3095 H 294.468 0.56986 -4.12179 0
M  V30 3096 H 293.344 1.18921 -5.35863 0
M  V30 3097 H 293.605 2.10939 -3.88532 0
M  V30 3098 N 292.664 1.56529 -0.183458 0
M  V30 3099 C 293.611 2.18546 0.742055 0
M  V30 3100 C 294.581 1.12912 1.2182 0
M  V30 3101 O 295.766 1.41115 1.28418 0
M  V30 3102 C 292.906 2.83977 1.96089 0
M  V30 3103 C 292.019 4.04105 1.52719 0
M  V30 3104 C 291.154 4.57427 2.70063 0
M  V30 3105 C 290.193 5.69938 2.23243 0
M  V30 3106 N 289.33 6.17717 3.33722 0
M  V30 3107 H 294.17 2.97284 0.206432 0
M  V30 3108 H 291.707 1.46823 0.0901571 0
M  V30 3109 H 293.665 3.20077 2.67594 0
M  V30 3110 H 292.295 2.07822 2.47002 0
M  V30 3111 H 291.347 3.73745 0.708436 0
M  V30 3112 H 292.659 4.85513 1.1436 0
M  V30 3113 H 291.813 4.95772 3.49708 0
M  V30 3114 H 290.552 3.75101 3.11689 0
M  V30 3115 H 289.557 5.31133 1.42048 0
M  V30 3116 H 290.782 6.54073 1.82661 0
M  V30 3117 H 288.728 5.38317 3.74902 0
M  V30 3118 H 288.645 6.94146 2.99495 0
M  V30 3119 H 289.913 6.60713 4.13616 0
M  V30 3120 N 294.142 -0.090211 1.57342 0
M  V30 3121 C 295.388 -0.793982 1.86611 0
M  V30 3122 C 295.721 -1.78142 0.773252 0
M  V30 3123 O 294.996 -1.93271 -0.218304 0
M  V30 3124 C 295.279 -1.51839 3.26523 0
M  V30 3125 C 295.132 -0.548609 4.46442 0
M  V30 3126 C 296.451 -2.46779 3.64401 0
M  V30 3127 H 293.57 -0.287186 0.678744 0
M  V30 3128 H 296.212 -0.0575076 1.89913 0
M  V30 3129 H 294.362 -2.14617 3.23839 0
M  V30 3130 H 296.034 0.0725513 4.61243 0
M  V30 3131 H 294.277 0.137614 4.33582 0
M  V30 3132 H 294.948 -1.09271 5.41076 0
M  V30 3133 H 297.424 -1.94089 3.68061 0
M  V30 3134 H 296.3 -2.94479 4.63221 0
M  V30 3135 H 296.561 -3.30758 2.93346 0
M  V30 3136 N 295.62 -1.53406 -0.361157 0
M  V30 3137 C 296.866 -1.70054 -1.10496 0
M  V30 3138 C 297.199 -0.453278 -1.88836 0
M  V30 3139 O 296.474 0.5495 -1.86576 0
M  V30 3140 C 296.757 -2.95317 -2.06058 0
M  V30 3141 C 296.61 -4.3021 -1.31298 0
M  V30 3142 C 297.929 -3.16193 -3.06121 0
M  V30 3143 H 295.048 -0.618799 -0.400321 0
M  V30 3144 H 297.69 -1.86052 -0.385318 0
M  V30 3145 H 295.84 -2.81809 -2.67425 0
M  V30 3146 H 297.512 -4.55538 -0.726807 0
M  V30 3147 H 295.755 -4.29421 -0.614853 0
M  V30 3148 H 296.426 -5.14 -2.01265 0
M  V30 3149 H 298.902 -3.28916 -2.5486 0
M  V30 3150 H 297.778 -4.05266 -3.70204 0
M  V30 3151 H 298.039 -2.31676 -3.76535 0
M  V30 3152 N 297.098 0.621204 -1.44841 0
M  V30 3153 C 298.323 1.41244 -1.51871 0
M  V30 3154 C 298.748 1.87519 -0.147764 0
M  V30 3155 O 298.106 1.59334 0.865 0
M  V30 3156 C 298.154 2.60221 -2.49634 0
M  V30 3157 O 297.258 3.60395 -2.00473 0
M  V30 3158 H 296.599 0.42223 -0.512463 0
M  V30 3159 H 299.129 0.757305 -1.90069 0
M  V30 3160 H 299.139 3.0764 -2.67996 0
M  V30 3161 H 297.814 2.25887 -3.4921 0
M  V30 3162 H 296.391 3.19717 -1.91925 0
M  V30 3163 N 298.576 1.31904 0.862503 0
M  V30 3164 C 299.801 1.25135 1.65397 0
M  V30 3165 C 300.226 -0.179 1.87246 0
M  V30 3166 O 299.584 -1.1277 1.4196 0
M  V30 3167 C 299.632 2.00832 2.99498 0
M  V30 3168 O 298.736 1.35075 3.89652 0
M  V30 3169 H 298.077 0.431655 0.504549 0
M  V30 3170 H 300.607 1.74094 1.07483 0
M  V30 3171 H 300.617 2.10709 3.49379 0
M  V30 3172 H 299.292 3.04847 2.82916 0
M  V30 3173 H 297.869 1.33696 3.48109 0
M  V30 3174 N 300.054 -1.07777 1.14986 0
M  V30 3175 C 301.302 -1.79934 0.920235 0
M  V30 3176 C 301.623 -1.86955 -0.554336 0
M  V30 3177 O 300.893 -1.36731 -1.40291 0
M  V30 3178 H 299.473 -0.666424 0.337473 0
M  V30 3179 H 302.135 -1.3027 1.44968 0
M  V30 3180 H 301.231 -2.82539 1.32583 0
M  V30 3181 N 301.532 -0.945985 -1.26051 0
M  V30 3182 C 302.495 -0.463897 -2.24456 0
M  V30 3183 C 303.495 0.427655 -1.55009 0
M  V30 3184 O 304.685 0.226157 -1.72726 0
M  V30 3185 C 301.817 0.330812 -3.39291 0
M  V30 3186 H 303.01 -1.33357 -2.68619 0
M  V30 3187 H 300.563 -0.728416 -1.38289 0
M  V30 3188 H 301.298 1.21852 -3.00537 0
M  V30 3189 H 301.083 -0.308679 -3.90883 0
M  V30 3190 H 302.573 0.657865 -4.12386 0
M  V30 3191 N 303.011 1.40521 -0.713556 0
M  V30 3192 C 304.422 1.83853 -0.324807 0
M  V30 3193 C 304.773 1.59667 1.14021 0
M  V30 3194 O 303.898 1.07649 1.87725 0
M  V30 3195 C 304.493 3.33751 -0.582746 0
M  V30 3196 C 303.052 3.75584 -0.247727 0
M  V30 3197 C 302.199 2.63753 -0.856121 0
M  V30 3198 H 305.15 1.29817 -0.91286 0
M  V30 3199 H 305.171 3.80194 0.152682 0
M  V30 3200 H 304.683 3.51322 -1.64908 0
M  V30 3201 H 302.784 3.63608 0.813624 0
M  V30 3202 H 302.897 4.7373 -0.715307 0
M  V30 3203 H 301.261 2.53108 -0.28432 0
M  V30 3204 H 302.044 2.84137 -1.92668 0
M  V30 3205 N 304.489 0.459591 1.5075 0
M  V30 3206 C 305.439 -0.358926 2.25157 0
M  V30 3207 C 306.423 -0.971285 1.28276 0
M  V30 3208 O 307.615 -0.885739 1.53244 0
M  V30 3209 C 304.744 -1.44695 3.11317 0
M  V30 3210 C 303.83 -0.842894 4.15639 0
M  V30 3211 N 304.221 0.0299373 5.05791 0
M  V30 3212 C 302.519 -1.10809 4.32015 0
M  V30 3213 C 303.22 0.371563 5.80512 0
M  V30 3214 N 302.196 -0.250409 5.43023 0
M  V30 3215 H 305.998 0.313636 2.92222 0
M  V30 3216 H 303.512 0.273021 1.60089 0
M  V30 3217 H 305.509 -2.04641 3.63218 0
M  V30 3218 H 304.169 -2.12162 2.45799 0
M  V30 3219 H 305.18 0.39797 5.16369 0
M  V30 3220 H 301.857 -1.7786 3.77719 0
M  V30 3221 H 303.247 1.08319 6.63111 0
M  V30 3222 N 305.967 -1.56429 0.191757 0
M  V30 3223 C 306.93 -2.17707 -0.716688 0
M  V30 3224 C 307.93 -1.13061 -1.14341 0
M  V30 3225 O 309.12 -1.38464 -1.05704 0
M  V30 3226 C 306.252 -2.77644 -1.97804 0
M  V30 3227 H 307.445 -2.99342 -0.1829 0
M  V30 3228 H 304.998 -1.56193 -0.0578566 0
M  V30 3229 H 305.733 -1.99799 -2.55443 0
M  V30 3230 H 305.518 -3.54246 -1.68083 0
M  V30 3231 H 307.008 -3.24708 -2.62592 0
M  V30 3232 N 307.445 0.0818655 -1.57387 0
M  V30 3233 C 308.694 0.781681 -1.85937 0
M  V30 3234 C 309.007 1.79246 -0.782957 0
M  V30 3235 O 310.213 2.54112 -0.955987 0
M  V30 3236 C 308.669 1.44109 -3.29789 0
M  V30 3237 C 308.277 0.469396 -4.45534 0
M  V30 3238 C 310.021 2.12386 -3.67549 0
M  V30 3239 C 307.928 1.13415 -5.80423 0
M  V30 3240 H 306.858 0.295682 -0.693605 0
M  V30 3241 H 309.509 0.0348051 -1.83467 0
M  V30 3242 H 307.891 2.23588 -3.2684 0
M  V30 3243 H 309.065 -0.294856 -4.59856 0
M  V30 3244 H 307.38 -0.108383 -4.16259 0
M  V30 3245 H 309.977 2.62878 -4.65617 0
M  V30 3246 H 310.32 2.91877 -2.96839 0
M  V30 3247 H 310.853 1.39751 -3.72444 0
M  V30 3248 H 307.592 0.379771 -6.54399 0
M  V30 3249 H 307.112 1.8695 -5.69921 0
M  V30 3250 H 308.791 1.65686 -6.25426 0
M  V30 3251 N 308.923 1.53595 0.353017 0
M  V30 3252 C 309.853 1.83902 1.43883 0
M  V30 3253 C 310.834 0.693421 1.55324 0
M  V30 3254 O 312.019 0.944452 1.69687 0
M  V30 3255 C 309.149 2.04016 2.8106 0
M  V30 3256 C 308.103 3.19814 2.84434 0
M  V30 3257 C 307.429 3.25244 4.24406 0
M  V30 3258 C 308.729 4.58133 2.50822 0
M  V30 3259 H 310.423 2.74835 1.1877 0
M  V30 3260 H 307.969 1.32242 0.569917 0
M  V30 3261 H 309.922 2.238 3.57059 0
M  V30 3262 H 308.646 1.09804 3.07588 0
M  V30 3263 H 307.305 2.9987 2.10887 0
M  V30 3264 H 306.953 2.28646 4.48029 0
M  V30 3265 H 306.653 4.03054 4.27576 0
M  V30 3266 H 308.177 3.47228 5.0226 0
M  V30 3267 H 309.591 4.77995 3.16534 0
M  V30 3268 H 307.988 5.38276 2.6529 0
M  V30 3269 H 309.058 4.62387 1.46034 0
M  V30 3270 N 310.401 -0.613514 1.45168 0
M  V30 3271 C 311.331 -1.7354 1.56225 0
M  V30 3272 C 312.312 -1.64981 0.41414 0
M  V30 3273 O 313.497 -1.83472 0.636526 0
M  V30 3274 C 310.627 -3.12128 1.52295 0
M  V30 3275 C 309.581 -3.35491 2.65762 0
M  V30 3276 C 308.907 -4.74291 2.46885 0
M  V30 3277 C 310.207 -3.26325 4.0781 0
M  V30 3278 H 311.901 -1.64543 2.50132 0
M  V30 3279 H 309.447 -0.790185 1.20383 0
M  V30 3280 H 311.4 -3.90404 1.58628 0
M  V30 3281 H 310.124 -3.2195 0.549139 0
M  V30 3282 H 308.783 -2.59603 2.58847 0
M  V30 3283 H 308.431 -4.80839 1.47657 0
M  V30 3284 H 308.131 -4.9088 3.22972 0
M  V30 3285 H 309.655 -5.54775 2.55063 0
M  V30 3286 H 311.069 -3.94483 4.16 0
M  V30 3287 H 309.466 -3.54445 4.8424 0
M  V30 3288 H 310.536 -2.23855 4.30136 0
M  V30 3289 N 311.879 -1.3236 -0.855495 0
M  V30 3290 C 312.826 -1.21225 -1.964 0
M  V30 3291 C 313.796 -0.0946204 -1.6583 0
M  V30 3292 O 314.981 -0.27002 -1.8888 0
M  V30 3293 C 312.121 -0.940419 -3.32039 0
M  V30 3294 C 311.234 -2.14276 -3.75113 0
M  V30 3295 C 310.369 -1.80648 -4.9954 0
M  V30 3296 C 309.408 -2.97208 -5.35102 0
M  V30 3297 N 308.545 -2.63678 -6.50706 0
M  V30 3298 H 313.385 -2.16042 -2.05255 0
M  V30 3299 H 310.922 -1.07451 -1.00463 0
M  V30 3300 H 312.88 -0.763311 -4.10158 0
M  V30 3301 H 311.51 -0.0290413 -3.22787 0
M  V30 3302 H 310.562 -2.43017 -2.92655 0
M  V30 3303 H 311.874 -3.01468 -3.97389 0
M  V30 3304 H 311.028 -1.59484 -5.85363 0
M  V30 3305 H 309.767 -0.906678 -4.79198 0
M  V30 3306 H 308.772 -3.19004 -4.47791 0
M  V30 3307 H 309.997 -3.87918 -5.57401 0
M  V30 3308 H 307.943 -1.76238 -6.31883 0
M  V30 3309 H 307.86 -3.444 -6.72997 0
M  V30 3310 H 309.128 -2.45942 -7.39684 0
M  V30 3311 N 313.357 1.07166 -1.15556 0
M  V30 3312 C 314.604 1.79798 -0.931604 0
M  V30 3313 C 314.932 1.8682 0.54115 0
M  V30 3314 O 314.187 1.34942 1.41736 0
M  V30 3315 C 314.486 3.24707 -1.49332 0
M  V30 3316 C 314.152 3.37781 -2.98688 0
M  V30 3317 C 312.814 3.41057 -3.39461 0
M  V30 3318 C 315.166 3.40424 -3.94665 0
M  V30 3319 C 312.494 3.4458 -4.74849 0
M  V30 3320 C 314.846 3.45485 -5.29927 0
M  V30 3321 C 313.51 3.47039 -5.70193 0
M  V30 3322 H 312.78 0.657928 -0.340898 0
M  V30 3323 H 315.427 1.26091 -1.44129 0
M  V30 3324 H 313.732 3.81208 -0.904859 0
M  V30 3325 H 315.429 3.79486 -1.29582 0
M  V30 3326 H 312.019 3.35932 -2.66172 0
M  V30 3327 H 316.203 3.37113 -3.64237 0
M  V30 3328 H 311.459 3.44083 -5.05388 0
M  V30 3329 H 315.633 3.46476 -6.04092 0
M  V30 3330 H 313.26 3.49522 -6.75084 0
M  V30 3331 N 314.835 0.952656 1.25548 0
M  V30 3332 C 315.765 0.489287 2.28316 0
M  V30 3333 C 316.746 -0.463359 1.63667 0
M  V30 3334 O 317.931 -0.36274 1.90782 0
M  V30 3335 C 315.061 -0.235603 3.465 0
M  V30 3336 C 314.015 0.631593 4.23314 0
M  V30 3337 C 313.341 -0.223923 5.34231 0
M  V30 3338 C 314.641 1.90871 4.86174 0
M  V30 3339 H 316.335 1.34822 2.67326 0
M  V30 3340 H 313.881 0.649728 1.28509 0
M  V30 3341 H 315.834 -0.570882 4.17515 0
M  V30 3342 H 314.558 -1.12877 3.06474 0
M  V30 3343 H 313.217 0.949929 3.54079 0
M  V30 3344 H 312.865 -1.11678 4.90446 0
M  V30 3345 H 312.565 0.35299 5.86539 0
M  V30 3346 H 314.089 -0.554214 6.0808 0
M  V30 3347 H 315.503 1.63997 5.49343 0
M  V30 3348 H 313.9 2.43112 5.4865 0
M  V30 3349 H 314.97 2.61304 4.08471 0
M  V30 3350 N 316.313 -1.40141 0.720998 0
M  V30 3351 C 317.724 -1.83678 0.334553 0
M  V30 3352 C 318.075 -1.6027 -1.13173 0
M  V30 3353 O 317.2 -1.08643 -1.87152 0
M  V30 3354 C 317.795 -3.33437 0.600437 0
M  V30 3355 C 316.354 -3.75447 0.267642 0
M  V30 3356 C 315.501 -2.63296 0.870097 0
M  V30 3357 H 318.452 -1.29331 0.919732 0
M  V30 3358 H 318.473 -3.80269 -0.132517 0
M  V30 3359 H 317.985 -3.50442 1.66768 0
M  V30 3360 H 316.086 -3.64035 -0.794329 0
M  V30 3361 H 316.199 -4.73344 0.74042 0
M  V30 3362 H 314.563 -2.52954 0.297739 0
M  V30 3363 H 315.346 -2.83112 1.94172 0
M  V30 3364 N 317.792 -0.46758 -1.50504 0
M  V30 3365 C 318.722 0.318381 -2.31319 0
M  V30 3366 C 319.703 0.993564 -1.38066 0
M  V30 3367 O 320.888 0.991411 -1.66987 0
M  V30 3368 C 318.018 1.40275 -3.17711 0
M  V30 3369 C 316.972 0.849373 -4.19487 0
M  V30 3370 C 316.298 2.03177 -4.94594 0
M  V30 3371 C 317.598 -0.136942 -5.2212 0
M  V30 3372 H 319.292 -0.356106 -2.97275 0
M  V30 3373 H 316.838 -0.172703 -1.42961 0
M  V30 3374 H 318.791 1.96004 -3.73042 0
M  V30 3375 H 317.515 2.10596 -2.49634 0
M  V30 3376 H 316.174 0.314076 -3.65252 0
M  V30 3377 H 315.822 2.72187 -4.22993 0
M  V30 3378 H 315.522 1.66774 -5.63436 0
M  V30 3379 H 317.046 2.59403 -5.52759 0
M  V30 3380 H 318.46 0.331056 -5.72343 0
M  V30 3381 H 316.857 -0.41507 -5.98663 0
M  V30 3382 H 317.927 -1.06398 -4.73083 0
M  V30 3383 N 319.27 1.56325 -0.20005 0
M  V30 3384 C 320.681 1.8408 0.31167 0
M  V30 3385 C 321.032 1.12087 1.61031 0
M  V30 3386 O 320.157 0.38332 2.12978 0
M  V30 3387 C 320.752 3.33932 0.57226 0
M  V30 3388 C 319.311 3.6208 1.02834 0
M  V30 3389 C 318.458 2.77186 0.079634 0
M  V30 3390 H 321.409 1.52939 -0.423729 0
M  V30 3391 H 321.43 3.52971 1.42096 0
M  V30 3392 H 320.942 3.86303 -0.37308 0
M  V30 3393 H 319.043 3.15147 1.98778 0
M  V30 3394 H 319.156 4.7023 0.917624 0
M  V30 3395 H 317.52 2.47951 0.582448 0
M  V30 3396 H 318.303 3.32347 -0.860238 0
M  V30 3397 N 320.748 -0.0735177 1.57428 0
M  V30 3398 C 321.994 -0.774145 1.87443 0
M  V30 3399 C 322.327 -1.77311 0.792103 0
M  V30 3400 O 321.602 -1.93492 -0.197793 0
M  V30 3401 C 321.885 -1.48367 3.28115 0
M  V30 3402 C 321.738 -0.501227 4.46999 0
M  V30 3403 C 323.057 -2.429 3.66998 0
M  V30 3404 H 320.176 -0.279971 0.681752 0
M  V30 3405 H 322.818 -0.0373616 1.89963 0
M  V30 3406 H 320.968 -2.11171 3.26097 0
M  V30 3407 H 322.64 0.121468 4.6114 0
M  V30 3408 H 320.883 0.183593 4.33411 0
M  V30 3409 H 321.554 -1.03526 5.42205 0
M  V30 3410 H 324.03 -1.90175 3.70098 0
M  V30 3411 H 322.906 -2.89549 4.66318 0
M  V30 3412 H 323.167 -3.27628 2.96837 0
M  V30 3413 N 322.226 -1.5378 -0.344866 0
M  V30 3414 C 323.472 -1.71216 -1.08687 0
M  V30 3415 C 323.805 -0.473281 -1.88345 0
M  V30 3416 O 323.08 0.52968 -1.87149 0
M  V30 3417 C 323.363 -2.97486 -2.02914 0
M  V30 3418 C 323.216 -4.31579 -1.26727 0
M  V30 3419 C 324.535 -3.19422 -3.0275 0
M  V30 3420 H 321.654 -0.62301 -0.393735 0
M  V30 3421 H 324.296 -1.8645 -0.365563 0
M  V30 3422 H 322.446 -2.84629 -2.64421 0
M  V30 3423 H 324.118 -4.56284 -0.67845 0
M  V30 3424 H 322.361 -4.30049 -0.569273 0
M  V30 3425 H 323.032 -5.16106 -1.95803 0
M  V30 3426 H 325.508 -3.316 -2.51357 0
M  V30 3427 H 324.384 -4.09169 -3.65885 0
M  V30 3428 H 324.645 -2.35656 -3.74057 0
M  V30 3429 N 323.704 0.605807 -1.45491 0
M  V30 3430 C 324.636 1.73031 -1.5031 0
M  V30 3431 C 325.649 1.57968 -0.393687 0
M  V30 3432 O 326.838 1.65817 -0.660839 0
M  V30 3433 C 323.938 3.11049 -1.34543 0
M  V30 3434 C 323.111 3.52334 -2.59189 0
M  V30 3435 C 322.17 4.69323 -2.37954 0
M  V30 3436 O 321.196 4.7635 -3.11575 0
M  V30 3437 N 322.398 5.62705 -1.4263 0
M  V30 3438 H 325.163 1.6936 -2.4726 0
M  V30 3439 H 322.724 0.79114 -1.41254 0
M  V30 3440 H 324.716 3.87071 -1.18144 0
M  V30 3441 H 323.286 3.09217 -0.458623 0
M  V30 3442 H 322.506 2.66256 -2.90691 0
M  V30 3443 H 323.794 3.76677 -3.42041 0
M  V30 3444 H 323.192 5.59744 -0.818758 0
M  V30 3445 H 321.749 6.38252 -1.32202 0
M  V30 3446 N 325.182 1.32811 0.848464 0
M  V30 3447 C 326.112 1.24882 1.97299 0
M  V30 3448 C 327.093 0.131357 1.69592 0
M  V30 3449 O 328.278 0.319553 1.91553 0
M  V30 3450 C 325.408 0.97746 3.33261 0
M  V30 3451 C 324.362 2.05682 3.75338 0
M  V30 3452 C 323.688 1.63777 5.09 0
M  V30 3453 C 324.988 3.47254 3.90144 0
M  V30 3454 H 326.682 2.18966 2.04191 0
M  V30 3455 H 324.228 1.05413 0.981029 0
M  V30 3456 H 326.181 0.908513 4.1149 0
M  V30 3457 H 324.905 0.000980011 3.266 0
M  V30 3458 H 323.564 2.11603 2.99366 0
M  V30 3459 H 323.212 0.648569 4.98801 0
M  V30 3460 H 322.912 2.36 5.38124 0
M  V30 3461 H 324.436 1.5833 5.89715 0
M  V30 3462 H 325.85 3.43888 4.58709 0
M  V30 3463 H 324.247 4.1788 4.30693 0
M  V30 3464 H 325.317 3.86462 2.92874 0
M  V30 3465 N 326.66 -1.06551 1.16123 0
M  V30 3466 C 327.59 -2.15935 0.88851 0
M  V30 3467 C 328.571 -1.69306 -0.164135 0
M  V30 3468 O 329.756 -1.94193 -0.0167857 0
M  V30 3469 C 326.886 -3.45149 0.385942 0
M  V30 3470 C 325.84 -4.05271 1.3762 0
M  V30 3471 C 325.166 -5.29664 0.732137 0
M  V30 3472 C 326.466 -4.44355 2.74493 0
M  V30 3473 H 328.16 -2.39006 1.80323 0
M  V30 3474 H 325.706 -1.14866 0.868435 0
M  V30 3475 H 327.659 -4.21004 0.182647 0
M  V30 3476 H 326.383 -3.21689 -0.564274 0
M  V30 3477 H 325.042 -3.3147 1.56599 0
M  V30 3478 H 324.69 -5.02499 -0.224483 0
M  V30 3479 H 324.39 -5.70848 1.39307 0
M  V30 3480 H 325.914 -6.08218 0.538802 0
M  V30 3481 H 327.328 -5.11303 2.59311 0
M  V30 3482 H 325.725 -4.96515 3.37035 0
M  V30 3483 H 326.795 -3.55339 3.29943 0
M  V30 3484 N 328.138 -0.959301 -1.25041 0
M  V30 3485 C 329.415 -0.533805 -1.88175 0
M  V30 3486 C 329.795 0.988994 -1.865 0
M  V30 3487 O 329.143 1.85677 -1.33177 0
M  V30 3488 C 329.353 -1.11575 -3.30684 0
M  V30 3489 C 330.701 -1.19548 -4.07423 0
M  V30 3490 O 331.725 -1.06765 -3.39823 0
M  V30 3491 O 330.584 -1.39656 -5.28354 0
M  V30 3492 H 327.678 -0.176772 -0.807887 0
M  V30 3493 H 330.224 -1.05303 -1.33076 0
M  V30 3494 H 328.996 -2.15884 -3.26358 0
M  V30 3495 H 328.619 -0.580059 -3.93346 0
M  V30 3496 N 329.616 1.39756 -0.72842 0
M  V30 3497 C 331.032 1.5442 -0.403308 0
M  V30 3498 C 331.232 1.69694 1.08656 0
M  V30 3499 O 330.288 1.69373 1.87267 0
M  V30 3500 C 331.601 2.76555 -1.18058 0
M  V30 3501 C 333.149 2.90384 -1.16815 0
M  V30 3502 C 333.624 4.15449 -1.92785 0
M  V30 3503 N 335.115 4.22475 -1.89918 0
M  V30 3504 C 335.85 5.1818 -2.45514 0
M  V30 3505 N 335.346 6.19714 -3.09719 0
M  V30 3506 N 337.139 5.1035 -2.35584 0
M  V30 3507 H 329.29 1.28089 -1.69431 0
M  V30 3508 H 331.553 0.620327 -0.716867 0
M  V30 3509 H 331.259 2.7159 -2.23455 0
M  V30 3510 H 331.133 3.69033 -0.780662 0
M  V30 3511 H 333.52 2.94846 -0.12234 0
M  V30 3512 H 333.601 1.98988 -1.6074 0
M  V30 3513 H 333.245 4.11749 -2.97364 0
M  V30 3514 H 333.175 5.05877 -1.46272 0
M  V30 3515 H 335.666 3.49743 -1.43138 0
M  V30 3516 H 335.979 6.8919 -3.49625 0
M  V30 3517 H 334.324 6.20121 -3.13807 0
M  V30 3518 H 337.515 4.2996 -1.85072 0
M  V30 3519 H 337.688 5.84761 -2.79211 0
M  V30 3520 N 331.094 0.475555 1.50254 0
M  V30 3521 C 332.334 -0.0765802 2.04256 0
M  V30 3522 C 332.698 -1.36587 1.34937 0
M  V30 3523 O 333.899 -2.00066 1.79519 0
M  V30 3524 C 332.17 -0.251668 3.56513 0
M  V30 3525 S 333.729 -0.761716 4.32138 0
M  V30 3526 H 330.547 -0.0138456 0.710865 0
M  V30 3527 H 333.149 0.643714 1.84598 0
M  V30 3528 H 331.853 0.692404 4.04517 0
M  V30 3529 H 331.384 -0.997946 3.80532 0
M  V30 3530 H 333.399 -2.03451 4.52573 0
M  V30 3531 N 332.573 -1.56217 0.208337 0
M  V30 3532 C 333.821 -1.97558 -0.426076 0
M  V30 3533 C 334.142 -1.09683 -1.61229 0
M  V30 3534 O 333.412 -0.170956 -1.95153 0
M  V30 3535 H 331.992 -0.729575 -0.160405 0
M  V30 3536 H 334.654 -1.92606 0.298155 0
M  V30 3537 H 333.75 -3.02672 -0.761312 0
M  V30 3538 N 334.051 0.0651679 -1.57465 0
M  V30 3539 C 334.981 1.07693 -2.07182 0
M  V30 3540 C 335.962 1.39962 -0.966673 0
M  V30 3541 O 337.147 1.49475 -1.2398 0
M  V30 3542 C 334.277 2.3885 -2.52127 0
M  V30 3543 C 333.231 2.20917 -3.66579 0
M  V30 3544 C 332.557 3.57515 -3.97601 0
M  V30 3545 C 333.857 1.62493 -4.9638 0
M  V30 3546 H 335.551 0.663199 -2.91962 0
M  V30 3547 H 333.097 0.317569 -1.40455 0
M  V30 3548 H 335.05 3.09928 -2.85522 0
M  V30 3549 H 333.774 2.82215 -1.64384 0
M  V30 3550 H 332.433 1.52279 -3.33477 0
M  V30 3551 H 332.081 3.98463 -3.06979 0
M  V30 3552 H 331.781 3.46353 -4.74672 0
M  V30 3553 H 333.305 4.30013 -4.33499 0
M  V30 3554 H 334.719 2.23445 -5.27963 0
M  V30 3555 H 333.116 1.62009 -5.77818 0
M  V30 3556 H 334.186 0.587041 -4.81333 0
M  V30 3557 N 335.529 1.53961 0.336706 0
M  V30 3558 C 336.459 1.85417 1.41925 0
M  V30 3559 C 337.44 0.709856 1.5458 0
M  V30 3560 O 338.625 0.962396 1.68676 0
M  V30 3561 C 335.755 2.06985 2.78881 0
M  V30 3562 C 334.709 3.22813 2.81026 0
M  V30 3563 C 334.035 3.29727 4.20932 0
M  V30 3564 C 335.335 4.60767 2.45949 0
M  V30 3565 H 337.029 2.76079 1.15848 0
M  V30 3566 H 334.575 1.32839 0.555859 0
M  V30 3567 H 336.528 2.27575 3.54665 0
M  V30 3568 H 335.252 1.13061 3.06406 0
M  V30 3569 H 333.911 3.0209 2.07695 0
M  V30 3570 H 333.559 2.33385 4.45579 0
M  V30 3571 H 333.259 4.07566 4.23277 0
M  V30 3572 H 334.783 3.52536 4.98549 0
M  V30 3573 H 336.197 4.81325 3.11446 0
M  V30 3574 H 334.594 5.4106 2.59566 0
M  V30 3575 H 335.664 4.6391 1.41122 0
M  V30 3576 N 337.007 -0.598083 1.45811 0
M  V30 3577 C 338.235 -1.38322 1.53866 0
M  V30 3578 C 338.65 -1.87992 0.174479 0
M  V30 3579 O 338.007 -1.62756 -0.825627 0
M  V30 3580 C 338.058 -2.58125 2.53089 0
M  V30 3581 O 337.779 -2.10516 3.84206 0
M  V30 3582 C 339.28 -3.50869 2.70935 0
M  V30 3583 H 336.5 -0.423093 0.520801 0
M  V30 3584 H 339.044 -0.728527 1.91083 0
M  V30 3585 H 337.199 -3.19615 2.18917 0
M  V30 3586 H 337.613 -2.88425 4.38077 0
M  V30 3587 H 339.087 -4.31451 3.44317 0
M  V30 3588 H 339.564 -4.01822 1.77301 0
M  V30 3589 H 340.17 -2.95225 3.06141 0
M  V30 3590 N 338.485 -1.33259 -0.841409 0
M  V30 3591 C 339.901 -1.12538 -1.13169 0
M  V30 3592 C 340.101 0.0854037 -2.01319 0
M  V30 3593 O 339.157 0.766417 -2.40587 0
M  V30 3594 C 340.47 -2.41156 -1.79623 0
M  V30 3595 C 342.018 -2.47038 -1.922 0
M  V30 3596 C 342.493 -3.7561 -2.6207 0
M  V30 3597 N 343.984 -3.76667 -2.69585 0
M  V30 3598 C 344.719 -4.72861 -3.2433 0
M  V30 3599 N 344.215 -5.79428 -3.79783 0
M  V30 3600 N 346.008 -4.6034 -3.22558 0
M  V30 3601 H 338.159 -2.10868 -0.254676 0
M  V30 3602 H 340.422 -0.931615 -0.175493 0
M  V30 3603 H 340.128 -3.29747 -1.22311 0
M  V30 3604 H 340.002 -2.53114 -2.79666 0
M  V30 3605 H 342.389 -1.58898 -2.48667 0
M  V30 3606 H 342.47 -2.39022 -0.911148 0
M  V30 3607 H 342.114 -4.64131 -2.06263 0
M  V30 3608 H 342.044 -3.80902 -3.63622 0
M  V30 3609 H 344.535 -2.99648 -2.30259 0
M  V30 3610 H 344.848 -6.48867 -4.19752 0
M  V30 3611 H 343.193 -5.83166 -3.78078 0
M  V30 3612 H 346.384 -3.76244 -2.78492 0
M  V30 3613 H 346.557 -5.35478 -3.64921 0
M  V30 3614 N 339.963 1.05934 -1.16686 0
M  V30 3615 C 341.21 1.788 -0.950622 0
M  V30 3616 C 341.538 1.87384 0.521305 0
M  V30 3617 O 340.793 1.36438 1.40297 0
M  V30 3618 C 341.092 3.23105 -1.52767 0
M  V30 3619 C 340.758 3.34594 -3.02254 0
M  V30 3620 C 339.42 3.37437 -3.43059 0
M  V30 3621 C 341.772 3.36219 -3.98254 0
M  V30 3622 C 339.1 3.39525 -4.78477 0
M  V30 3623 C 341.452 3.39845 -5.33562 0
M  V30 3624 C 340.116 3.40971 -5.73842 0
M  V30 3625 H 339.386 0.654275 -0.347857 0
M  V30 3626 H 342.033 1.24555 -1.45459 0
M  V30 3627 H 340.338 3.80227 -0.94524 0
M  V30 3628 H 342.035 3.7809 -1.336 0
M  V30 3629 H 338.625 3.3309 -2.6972 0
M  V30 3630 H 342.809 3.33231 -3.67792 0
M  V30 3631 H 338.065 3.38703 -5.09009 0
M  V30 3632 H 342.239 3.4005 -6.07733 0
M  V30 3633 H 339.866 3.42342 -6.78753 0
M  V30 3634 N 341.441 0.965919 1.2453 0
M  V30 3635 C 342.666 0.643971 1.97149 0
M  V30 3636 C 343.091 -0.779487 1.71189 0
M  V30 3637 O 342.449 -1.5288 0.974553 0
M  V30 3638 C 342.497 0.922557 3.48599 0
M  V30 3639 O 341.601 0.00707672 4.12399 0
M  V30 3640 H 340.942 0.243647 0.617683 0
M  V30 3641 H 343.472 1.29558 1.58353 0
M  V30 3642 H 343.482 0.853373 3.98976 0
M  V30 3643 H 342.157 1.95996 3.66822 0
M  V30 3644 H 340.734 0.12943 3.72675 0
M  V30 3645 N 342.919 -1.39368 0.735821 0
M  V30 3646 C 344.33 -1.83313 0.354015 0
M  V30 3647 C 344.681 -1.61461 -1.11466 0
M  V30 3648 O 343.806 -1.10621 -1.85989 0
M  V30 3649 C 344.401 -3.32781 0.635769 0
M  V30 3650 C 342.96 -3.75142 0.307448 0
M  V30 3651 C 342.107 -2.62358 0.897974 0
M  V30 3652 H 345.058 -1.28349 0.933398 0
M  V30 3653 H 345.079 -3.80388 -0.0921773 0
M  V30 3654 H 344.591 -3.48654 1.70476 0
M  V30 3655 H 342.692 -3.64857 -0.755674 0
M  V30 3656 H 342.805 -4.72532 0.790583 0
M  V30 3657 H 341.169 -2.52624 0.324551 0
M  V30 3658 H 341.952 -2.81036 1.97164 0
M  V30 3659 N 344.397 -0.483516 -1.5 0
M  V30 3660 C 345.644 0.0671597 -2.02389 0
M  V30 3661 C 345.972 1.38597 -1.36459 0
M  V30 3662 O 345.227 1.89634 -0.483458 0
M  V30 3663 C 345.526 0.286226 -3.56252 0
M  V30 3664 C 345.192 -0.952416 -4.40726 0
M  V30 3665 C 343.854 -1.29199 -4.63531 0
M  V30 3666 C 346.206 -1.77655 -4.89988 0
M  V30 3667 C 343.534 -2.45553 -5.32842 0
M  V30 3668 C 345.886 -2.93147 -5.60578 0
M  V30 3669 C 344.55 -3.27505 -5.81633 0
M  V30 3670 H 343.82 0.0245755 -0.740592 0
M  V30 3671 H 346.467 -0.640124 -1.80485 0
M  V30 3672 H 344.772 1.07587 -3.76739 0
M  V30 3673 H 346.469 0.726473 -3.94365 0
M  V30 3674 H 343.059 -0.677881 -4.23205 0
M  V30 3675 H 347.243 -1.52737 -4.72213 0
M  V30 3676 H 342.499 -2.72431 -5.47349 0
M  V30 3677 H 346.673 -3.57344 -5.97727 0
M  V30 3678 H 344.3 -4.1777 -6.35116 0
M  V30 3679 N 345.875 1.56104 -0.216619 0
M  V30 3680 C 346.805 2.23063 0.690296 0
M  V30 3681 C 347.786 1.20072 1.20485 0
M  V30 3682 O 348.971 1.48643 1.24976 0
M  V30 3683 C 346.101 2.90672 1.90072 0
M  V30 3684 C 345.055 4.00092 1.5202 0
M  V30 3685 C 344.381 4.54972 2.80899 0
M  V30 3686 C 345.681 5.17398 0.71391 0
M  V30 3687 H 347.375 2.99109 0.132038 0
M  V30 3688 H 344.921 1.43866 0.0620664 0
M  V30 3689 H 346.874 3.36204 2.54057 0
M  V30 3690 H 345.598 2.12066 2.48386 0
M  V30 3691 H 344.257 3.55283 0.903839 0
M  V30 3692 H 343.905 3.73102 3.37348 0
M  V30 3693 H 343.605 5.28817 2.56176 0
M  V30 3694 H 345.129 5.0322 3.45836 0
M  V30 3695 H 346.543 5.59342 1.25735 0
M  V30 3696 H 344.94 5.97444 0.563951 0
M  V30 3697 H 346.01 4.84088 -0.280527 0
M  V30 3698 N 347.353 -0.0568162 1.57498 0
M  V30 3699 C 348.285 -1.09292 2.01464 0
M  V30 3700 C 349.298 -1.34112 0.922913 0
M  V30 3701 O 350.487 -1.32089 1.20062 0
M  V30 3702 C 347.587 -2.44068 2.35125 0
M  V30 3703 C 346.76 -2.38995 3.66333 0
M  V30 3704 C 345.819 -3.55997 3.87495 0
M  V30 3705 O 344.845 -3.36746 4.58901 0
M  V30 3706 N 346.047 -4.76888 3.30996 0
M  V30 3707 H 348.812 -0.718386 2.90963 0
M  V30 3708 H 346.373 -0.245235 1.60032 0
M  V30 3709 H 348.365 -3.21011 2.46443 0
M  V30 3710 H 346.935 -2.73468 1.5144 0
M  V30 3711 H 346.155 -1.47336 3.65631 0
M  V30 3712 H 347.443 -2.3272 4.52458 0
M  V30 3713 H 346.841 -4.95431 2.73065 0
M  V30 3714 H 345.398 -5.51291 3.47738 0
M  V30 3715 N 348.832 -1.54138 -0.328536 0
M  V30 3716 C 349.795 -1.82462 -1.38709 0
M  V30 3717 C 350.795 -0.696229 -1.44946 0
M  V30 3718 O 351.985 -0.964535 -1.4506 0
M  V30 3719 C 349.117 -1.98018 -2.77492 0
M  V30 3720 H 350.31 -2.77037 -1.14851 0
M  V30 3721 H 347.863 -1.45779 -0.563751 0
M  V30 3722 H 348.598 -1.05637 -3.06613 0
M  V30 3723 H 348.383 -2.80124 -2.74359 0
M  V30 3724 H 349.873 -2.21396 -3.54081 0
M  V30 3725 N 350.31 0.590341 -1.46126 0
M  V30 3726 C 351.535 1.37991 -1.54833 0
M  V30 3727 C 351.96 1.87163 -0.187506 0
M  V30 3728 O 351.318 1.61133 0.831008 0
M  V30 3729 C 351.366 2.54867 -2.55098 0
M  V30 3730 O 350.47 3.56061 -2.08073 0
M  V30 3731 H 349.811 0.411265 -0.521303 0
M  V30 3732 H 352.341 0.716819 -1.91632 0
M  V30 3733 H 352.351 3.01886 -2.74461 0
M  V30 3734 H 351.026 2.18429 -3.53923 0
M  V30 3735 H 349.603 3.15574 -1.98664 0
M  V30 3736 N 351.788 1.33704 0.83433 0
M  V30 3737 C 353.016 1.28467 1.62185 0
M  V30 3738 C 353.431 -0.143526 1.88254 0
M  V30 3739 O 352.788 -1.08709 1.4659 0
M  V30 3740 C 352.839 2.06174 2.96942 0
M  V30 3741 O 352.56 3.43422 2.72016 0
M  V30 3742 C 354.061 2.08201 3.91366 0
M  V30 3743 H 351.281 0.4424 0.504503 0
M  V30 3744 H 353.825 1.76145 1.03891 0
M  V30 3745 H 351.98 1.62167 3.51825 0
M  V30 3746 H 352.394 3.83453 3.57861 0
M  V30 3747 H 353.868 2.67017 4.83121 0
M  V30 3748 H 354.345 1.07343 4.2588 0
M  V30 3749 H 354.951 2.52246 3.42421 0
M  V30 3750 N 353.266 -1.05314 1.17247 0
M  V30 3751 C 354.198 -2.13023 0.845812 0
M  V30 3752 C 355.211 -1.62096 -0.151246 0
M  V30 3753 O 356.4 -1.78343 0.0748818 0
M  V30 3754 C 353.5 -3.38047 0.240292 0
M  V30 3755 C 352.673 -4.18255 1.27991 0
M  V30 3756 C 351.732 -5.21625 0.692375 0
M  V30 3757 O 350.758 -5.52619 1.36385 0
M  V30 3758 N 351.96 -5.78201 -0.516178 0
M  V30 3759 H 354.725 -2.41642 1.77283 0
M  V30 3760 H 352.286 -1.21401 1.07115 0
M  V30 3761 H 354.278 -4.04359 -0.16603 0
M  V30 3762 H 352.848 -3.06972 -0.590487 0
M  V30 3763 H 352.068 -3.47451 1.86203 0
M  V30 3764 H 353.356 -4.68643 1.98119 0
M  V30 3765 H 352.754 -5.55301 -1.07969 0
M  V30 3766 H 351.311 -6.4604 -0.86458 0
M  V30 3767 N 354.744 -0.972509 -1.24016 0
M  V30 3768 C 355.969 -0.654417 -1.96805 0
M  V30 3769 C 356.394 0.770398 -1.716 0
M  V30 3770 O 355.752 1.52361 -0.982647 0
M  V30 3771 C 355.8 -0.941031 -3.48105 0
M  V30 3772 O 354.904 -0.0289472 -4.1239 0
M  V30 3773 H 354.245 -0.24692 -0.616382 0
M  V30 3774 H 356.775 -1.30396 -1.57664 0
M  V30 3775 H 356.785 -0.87452 -3.98517 0
M  V30 3776 H 355.46 -1.97939 -3.65777 0
M  V30 3777 H 354.037 -0.149192 -3.72601 0
M  V30 3778 N 356.222 1.38976 -0.743202 0
M  V30 3779 C 357.152 2.33171 -0.123873 0
M  V30 3780 C 358.133 1.54336 0.71516 0
M  V30 3781 O 359.318 1.82696 0.658467 0
M  V30 3782 C 356.448 3.38474 0.777978 0
M  V30 3783 C 355.402 4.27979 0.0424758 0
M  V30 3784 C 354.728 5.2405 1.06189 0
M  V30 3785 C 356.028 5.10155 -1.1198 0
M  V30 3786 H 357.722 2.85213 -0.910709 0
M  V30 3787 H 355.268 1.37133 -0.439388 0
M  V30 3788 H 357.221 4.03328 1.22084 0
M  V30 3789 H 355.945 2.84891 1.59702 0
M  V30 3790 H 354.604 3.64616 -0.380853 0
M  V30 3791 H 354.252 4.66758 1.87472 0
M  V30 3792 H 353.952 5.84785 0.574485 0
M  V30 3793 H 355.476 5.9178 1.50428 0
M  V30 3794 H 356.89 5.68307 -0.75499 0
M  V30 3795 H 355.287 5.80073 -1.53738 0
M  V30 3796 H 356.357 4.44504 -1.93764 0
M  V30 3797 N 357.7 0.491464 1.49741 0
M  V30 3798 C 358.663 -0.280906 2.27472 0
M  V30 3799 C 359.663 -0.902454 1.33088 0
M  V30 3800 O 360.853 -0.768465 1.56334 0
M  V30 3801 C 357.985 -1.40209 3.10732 0
M  V30 3802 H 359.178 0.401056 2.97206 0
M  V30 3803 H 356.731 0.246131 1.5435 0
M  V30 3804 H 357.466 -2.11849 2.45541 0
M  V30 3805 H 357.251 -0.961969 3.80117 0
M  V30 3806 H 358.741 -1.9464 3.69466 0
M  V30 3807 N 359.178 -1.55987 0.224894 0
M  V30 3808 C 360.088 -2.24066 -0.69511 0
M  V30 3809 C 361.104 -1.24939 -1.21104 0
M  V30 3810 O 362.28 -1.5776 -1.25195 0
M  V30 3811 C 359.345 -2.90983 -1.88493 0
M  V30 3812 C 358.406 -4.05462 -1.41064 0
M  V30 3813 C 357.639 -4.69179 -2.54375 0
M  V30 3814 O 357.862 -4.31895 -3.72589 0
M  V30 3815 O 356.796 -5.58108 -2.25386 0
M  V30 3816 H 360.622 -3.03353 -0.145149 0
M  V30 3817 H 358.207 -1.49399 -0.00569476 0
M  V30 3818 H 360.089 -3.33209 -2.57972 0
M  V30 3819 H 358.764 -2.14653 -2.42293 0
M  V30 3820 H 357.671 -3.67798 -0.683774 0
M  V30 3821 H 359.004 -4.83545 -0.918985 0
M  V30 3822 N 360.656 0.0484629 -1.57525 0
M  V30 3823 C 361.902 0.744226 -1.88651 0
M  V30 3824 C 362.235 1.76029 -0.820212 0
M  V30 3825 O 361.51 1.93782 0.166985 0
M  V30 3826 C 361.793 1.43128 -3.30434 0
M  V30 3827 C 361.646 0.43005 -4.47739 0
M  V30 3828 C 362.965 2.37031 -3.70816 0
M  V30 3829 H 360.084 0.269089 -0.68612 0
M  V30 3830 H 362.726 0.00713532 -1.89999 0
M  V30 3831 H 360.876 2.05956 -3.29415 0
M  V30 3832 H 362.548 -0.194816 -4.60888 0
M  V30 3833 H 360.791 -0.252522 -4.33064 0
M  V30 3834 H 361.462 0.948874 -5.43783 0
M  V30 3835 H 363.938 1.84263 -3.73077 0
M  V30 3836 H 362.814 2.82094 -4.70865 0
M  V30 3837 H 363.075 3.22864 -3.02012 0
M  V30 3838 N 362.134 1.5431 0.320358 0
M  V30 3839 C 363.064 1.86912 1.3995 0
M  V30 3840 C 364.045 0.726211 1.53819 0
M  V30 3841 O 365.23 0.980233 1.67646 0
M  V30 3842 C 362.36 2.09932 2.7667 0
M  V30 3843 C 361.314 3.25776 2.77586 0
M  V30 3844 C 360.64 3.34173 4.17412 0
M  V30 3845 C 361.94 4.6335 2.41048 0
M  V30 3846 H 363.634 2.77292 1.12914 0
M  V30 3847 H 361.18 1.33421 0.541738 0
M  V30 3848 H 363.133 2.31324 3.52232 0
M  V30 3849 H 361.857 1.16304 3.0519 0
M  V30 3850 H 360.516 3.04276 2.04479 0
M  V30 3851 H 360.164 2.38098 4.43078 0
M  V30 3852 H 359.864 4.12033 4.18931 0
M  V30 3853 H 361.388 3.57803 4.94782 0
M  V30 3854 H 362.802 4.84602 3.06324 0
M  V30 3855 H 361.199 5.43782 2.53813 0
M  V30 3856 H 362.269 4.65381 1.36193 0
M  V30 3857 N 363.613 -0.582584 1.46437 0
M  V30 3858 C 364.545 -1.70618 1.53043 0
M  V30 3859 C 365.558 -1.57322 0.418769 0
M  V30 3860 O 366.747 -1.64744 0.687136 0
M  V30 3861 C 363.847 -3.08869 1.39474 0
M  V30 3862 C 363.02 -3.48166 2.64762 0
M  V30 3863 C 362.079 -4.65478 2.4539 0
M  V30 3864 O 361.105 -4.71333 3.19114 0
M  V30 3865 N 362.307 -5.60365 1.51564 0
M  V30 3866 H 365.072 -1.65405 2.49923 0
M  V30 3867 H 362.633 -0.768567 1.42494 0
M  V30 3868 H 364.625 -3.85143 1.24287 0
M  V30 3869 H 363.195 -3.08449 0.507758 0
M  V30 3870 H 362.415 -2.61598 2.9489 0
M  V30 3871 H 363.703 -3.71188 3.4799 0
M  V30 3872 H 363.101 -5.5837 0.907705 0
M  V30 3873 H 361.658 -6.36068 1.4234 0
M  V30 3874 N 365.091 -1.34144 -0.827227 0
M  V30 3875 C 366.023 -1.21206 -1.9453 0
M  V30 3876 C 367.036 -0.140176 -1.62195 0
M  V30 3877 O 368.225 -0.391647 -1.7415 0
M  V30 3878 C 365.325 -0.839141 -3.28347 0
M  V30 3879 C 364.498 -2.0051 -3.88734 0
M  V30 3880 C 363.557 -1.61128 -5.00923 0
M  V30 3881 O 362.583 -2.32726 -5.19449 0
M  V30 3882 N 363.785 -0.522958 -5.7814 0
M  V30 3883 H 366.55 -2.17525 -2.06162 0
M  V30 3884 H 364.111 -1.27043 -1.00358 0
M  V30 3885 H 366.103 -0.557556 -4.00841 0
M  V30 3886 H 364.673 0.0337293 -3.12582 0
M  V30 3887 H 363.893 -2.45166 -3.08686 0
M  V30 3888 H 365.181 -2.78498 -4.25812 0
M  V30 3889 H 364.579 0.0723518 -5.65654 0
M  V30 3890 H 363.136 -0.301089 -6.51104 0
M  V30 3891 N 366.569 1.04691 -1.17803 0
M  V30 3892 C 367.499 2.14494 -0.92275 0
M  V30 3893 C 368.48 1.69546 0.137179 0
M  V30 3894 O 369.665 1.94195 -0.0141108 0
M  V30 3895 C 366.795 3.44491 -0.440803 0
M  V30 3896 C 365.749 4.03031 -1.4405 0
M  V30 3897 C 365.075 5.28432 -0.81631 0
M  V30 3898 C 366.375 4.39932 -2.81527 0
M  V30 3899 H 368.069 2.36107 -1.84103 0
M  V30 3900 H 365.615 1.1347 -0.886599 0
M  V30 3901 H 367.568 4.2066 -0.249602 0
M  V30 3902 H 366.292 3.22546 0.513025 0
M  V30 3903 H 364.951 3.28937 -1.61853 0
M  V30 3904 H 364.599 5.02792 0.144511 0
M  V30 3905 H 364.299 5.68559 -1.48371 0
M  V30 3906 H 365.823 6.07284 -0.635496 0
M  V30 3907 H 367.237 5.07113 -2.67412 0
M  V30 3908 H 365.634 4.9109 -3.44892 0
M  V30 3909 H 366.704 3.50045 -3.35554 0
M  V30 3910 N 368.047 0.979072 1.23499 0
M  V30 3911 C 369.295 0.645941 1.91499 0
M  V30 3912 C 369.616 -0.822948 1.76784 0
M  V30 3913 O 368.886 -1.58854 1.14639 0
M  V30 3914 H 367.466 0.235919 0.708767 0
M  V30 3915 H 370.128 1.2426 1.50152 0
M  V30 3916 H 369.224 0.896411 2.9895 0
M  V30 3917 N 369.525 -1.3858 0.750561 0
M  V30 3918 C 370.488 -2.28836 0.129152 0
M  V30 3919 C 371.488 -1.47045 -0.650714 0
M  V30 3920 O 372.678 -1.6753 -0.477428 0
M  V30 3921 C 369.81 -3.30751 -0.825622 0
M  V30 3922 H 371.003 -2.85294 0.924516 0
M  V30 3923 H 368.556 -1.47489 0.517376 0
M  V30 3924 H 369.291 -2.79378 -1.64677 0
M  V30 3925 H 369.076 -3.91177 -0.268852 0
M  V30 3926 H 370.566 -3.98249 -1.2565 0
M  V30 3927 N 371.003 -0.499398 -1.49478 0
M  V30 3928 C 372.228 0.044722 -2.07352 0
M  V30 3929 C 372.653 1.30207 -1.35749 0
M  V30 3930 O 372.011 1.76516 -0.413732 0
M  V30 3931 C 372.059 0.283013 -3.59488 0
M  V30 3932 O 371.163 1.35804 -3.89398 0
M  V30 3933 H 370.504 -0.0255147 -0.66351 0
M  V30 3934 H 373.034 -0.698561 -1.92305 0
M  V30 3935 H 373.044 0.515007 -4.04737 0
M  V30 3936 H 371.719 -0.635636 -4.11014 0
M  V30 3937 H 370.296 1.11113 -3.55961 0
M  V30 3938 N 372.481 1.55866 -0.233164 0
M  V30 3939 C 373.706 2.03449 0.402906 0
M  V30 3940 C 374.131 1.11166 1.51736 0
M  V30 3941 O 373.489 0.101996 1.81013 0
M  V30 3942 C 373.537 3.49165 0.9009 0
M  V30 3943 O 372.641 3.60019 2.01147 0
M  V30 3944 H 371.982 0.657913 0.0897025 0
M  V30 3945 H 374.512 2.01493 -0.355201 0
M  V30 3946 H 374.522 3.89716 1.2077 0
M  V30 3947 H 373.197 4.15813 0.0852889 0
M  V30 3948 H 371.774 3.3136 1.71042 0
M  V30 3949 N 373.959 -0.0401083 1.57549 0
M  V30 3950 C 374.869 -1.06133 2.0922 0
M  V30 3951 C 375.885 -1.40356 1.0284 0
M  V30 3952 O 377.061 -1.49897 1.34509 0
M  V30 3953 C 374.126 -2.34658 2.55218 0
M  V30 3954 C 373.187 -2.07117 3.76033 0
M  V30 3955 C 372.42 -3.29514 4.19829 0
M  V30 3956 O 372.643 -4.39794 3.63232 0
M  V30 3957 O 371.577 -3.15863 5.12362 0
M  V30 3958 H 375.403 -0.652244 2.96613 0
M  V30 3959 H 372.988 -0.256368 1.47184 0
M  V30 3960 H 374.87 -3.10239 2.85184 0
M  V30 3961 H 373.545 -2.74883 1.70941 0
M  V30 3962 H 372.452 -1.29139 3.51104 0
M  V30 3963 H 373.785 -1.71754 4.61261 0
M  V30 3964 N 375.437 -1.54477 -0.31217 0
M  V30 3965 C 376.367 -1.87652 -1.38957 0
M  V30 3966 C 377.348 -0.734358 -1.53431 0
M  V30 3967 O 378.533 -0.98911 -1.67123 0
M  V30 3968 C 375.663 -2.11396 -2.75552 0
M  V30 3969 C 374.617 -3.27243 -2.75855 0
M  V30 3970 C 373.943 -3.36382 -4.15633 0
M  V30 3971 C 375.243 -4.64622 -2.38587 0
M  V30 3972 H 376.937 -2.77887 -1.11442 0
M  V30 3973 H 374.483 -1.33707 -0.534655 0
M  V30 3974 H 376.436 -2.33189 -3.51 0
M  V30 3975 H 375.16 -1.17921 -3.04569 0
M  V30 3976 H 373.819 -3.05356 -2.02863 0
M  V30 3977 H 373.467 -2.40445 -4.41809 0
M  V30 3978 H 373.167 -4.14249 -4.1674 0
M  V30 3979 H 374.691 -3.60422 -4.92877 0
M  V30 3980 H 376.105 -4.86219 -3.03749 0
M  V30 3981 H 374.502 -5.45121 -2.50925 0
M  V30 3982 H 375.572 -4.66097 -1.33723 0
M  V30 3983 N 376.915 0.57481 -1.46744 0
M  V30 3984 C 377.847 1.69804 -1.53946 0
M  V30 3985 C 378.86 1.57098 -0.427106 0
M  V30 3986 O 380.049 1.64378 -0.695863 0
M  V30 3987 C 377.149 3.08125 -1.4111 0
M  V30 3988 C 376.322 3.46757 -2.66605 0
M  V30 3989 C 375.381 4.6417 -2.47855 0
M  V30 3990 O 374.407 4.69634 -3.21609 0
M  V30 3991 N 375.609 5.59553 -1.54534 0
M  V30 3992 H 378.374 1.64077 -2.50796 0
M  V30 3993 H 375.935 0.761 -1.429 0
M  V30 3994 H 377.927 3.84478 -1.26328 0
M  V30 3995 H 376.497 3.08175 -0.524109 0
M  V30 3996 H 375.717 2.6003 -2.96274 0
M  V30 3997 H 377.005 3.69337 -3.49954 0
M  V30 3998 H 376.403 5.57881 -0.937304 0
M  V30 3999 H 374.96 6.35304 -1.45711 0
M  V30 4000 N 378.394 1.34581 0.820102 0
M  V30 4001 C 379.357 1.2628 1.91275 0
M  V30 4002 C 380.357 0.177344 1.59819 0
M  V30 4003 O 381.547 0.430156 1.68806 0
M  V30 4004 C 378.679 0.950327 3.27386 0
M  V30 4005 H 379.872 2.23421 2.00057 0
M  V30 4006 H 377.425 1.1891 1.0144 0
M  V30 4007 H 378.16 -0.0177938 3.24295 0
M  V30 4008 H 377.945 1.73549 3.51601 0
M  V30 4009 H 379.435 0.917492 4.07396 0
M  V30 4010 N 379.872 -1.04064 1.18357 0
M  V30 4011 C 381.118 -1.77528 0.980397 0
M  V30 4012 C 381.451 -1.87948 -0.48879 0
M  V30 4013 O 380.726 -1.3876 -1.36293 0
M  V30 4014 C 381.009 -3.20797 1.63588 0
M  V30 4015 C 380.862 -3.1832 3.17793 0
M  V30 4016 C 382.181 -4.18911 1.34914 0
M  V30 4017 H 379.3 -0.644443 0.357578 0
M  V30 4018 H 381.942 -1.2156 1.46024 0
M  V30 4019 H 380.092 -3.68586 1.22788 0
M  V30 4020 H 381.764 -2.78521 3.67728 0
M  V30 4021 H 380.007 -2.56351 3.49952 0
M  V30 4022 H 380.678 -4.19489 3.58794 0
M  V30 4023 H 383.154 -3.7967 1.70265 0
M  V30 4024 H 382.03 -5.17374 1.83346 0
M  V30 4025 H 382.291 -4.41262 0.272027 0
M  V30 4026 N 381.35 -0.985608 -1.22978 0
M  V30 4027 C 382.28 -0.549649 -2.26939 0
M  V30 4028 C 383.261 0.419803 -1.64838 0
M  V30 4029 O 384.446 0.31203 -1.91677 0
M  V30 4030 C 381.576 0.143652 -3.47003 0
M  V30 4031 C 380.53 -0.743606 -4.21491 0
M  V30 4032 C 379.856 0.0822027 -5.34637 0
M  V30 4033 C 381.156 -2.03694 -4.80943 0
M  V30 4034 H 382.85 -1.41862 -2.63658 0
M  V30 4035 H 380.396 -0.683571 -1.26741 0
M  V30 4036 H 382.349 0.459985 -4.18882 0
M  V30 4037 H 381.073 1.04711 -3.09359 0
M  V30 4038 H 379.732 -1.04347 -3.51436 0
M  V30 4039 H 379.38 0.986359 -4.93234 0
M  V30 4040 H 379.08 -0.508377 -5.85397 0
M  V30 4041 H 380.604 0.392797 -6.09335 0
M  V30 4042 H 382.018 -1.78504 -5.44802 0
M  V30 4043 H 380.415 -2.57573 -5.42011 0
M  V30 4044 H 381.485 -2.72042 -4.01399 0
M  V30 4045 N 382.828 1.3818 -0.7579 0
M  V30 4046 C 384.053 2.04827 -0.325679 0
M  V30 4047 C 384.478 1.56788 1.03919 0
M  V30 4048 O 383.836 0.721811 1.66312 0
M  V30 4049 C 383.884 3.58774 -0.362447 0
M  V30 4050 O 382.988 4.07372 0.642033 0
M  V30 4051 H 382.329 0.64833 -0.143402 0
M  V30 4052 H 384.859 1.7677 -1.03023 0
M  V30 4053 H 384.869 4.07434 -0.214844 0
M  V30 4054 H 383.544 3.93096 -1.35824 0
M  V30 4055 H 382.121 3.70068 0.458688 0
M  V30 4056 N 384.306 0.507319 1.49211 0
M  V30 4057 C 385.536 -0.0315292 2.06576 0
M  V30 4058 C 385.944 -1.30791 1.36713 0
M  V30 4059 O 385.287 -1.78324 0.441181 0
M  V30 4060 C 385.349 -0.349104 3.57801 0
M  V30 4061 C 385.013 0.830475 4.49391 0
M  V30 4062 C 386.01 1.72271 4.90529 0
M  V30 4063 C 383.695 1.03107 4.91604 0
M  V30 4064 C 385.689 2.79964 5.72625 0
M  V30 4065 C 383.376 2.11116 5.73475 0
M  V30 4066 C 384.374 2.99379 6.1389 0
M  V30 4067 O 384.062 4.05523 6.94123 0
M  V30 4068 H 383.794 0.0201002 0.675701 0
M  V30 4069 H 386.348 0.705737 1.92895 0
M  V30 4070 H 384.578 -1.14005 3.69513 0
M  V30 4071 H 386.267 -0.827319 3.97379 0
M  V30 4072 H 387.033 1.57958 4.58557 0
M  V30 4073 H 382.912 0.353417 4.59643 0
M  V30 4074 H 386.456 3.48884 6.04091 0
M  V30 4075 H 382.353 2.25421 6.0486 0
M  V30 4076 H 383.121 4.02953 7.1244 0
M  V30 4077 N 385.784 -1.5574 0.241426 0
M  V30 4078 C 387.033 -1.97986 -0.385295 0
M  V30 4079 C 387.346 -1.13267 -1.59468 0
M  V30 4080 O 388.552 -1.45501 -2.2922 0
M  V30 4081 C 387.008 -3.52275 -0.736884 0
M  V30 4082 C 386.616 -4.45726 0.450796 0
M  V30 4083 C 388.36 -4.03189 -1.3281 0
M  V30 4084 C 386.267 -5.91352 0.0756662 0
M  V30 4085 H 385.197 -0.739386 -0.147731 0
M  V30 4086 H 387.848 -1.80308 0.340779 0
M  V30 4087 H 386.23 -3.65628 -1.52094 0
M  V30 4088 H 387.404 -4.44131 1.22819 0
M  V30 4089 H 385.719 -4.05264 0.956573 0
M  V30 4090 H 388.316 -5.09505 -1.62201 0
M  V30 4091 H 388.659 -3.50212 -2.25071 0
M  V30 4092 H 389.192 -3.93141 -0.607069 0
M  V30 4093 H 385.931 -6.48354 0.965272 0
M  V30 4094 H 385.451 -5.96095 -0.665635 0
M  V30 4095 H 387.13 -6.46084 -0.344075 0
M  V30 4096 N 387.262 0.0317525 -1.57568 0
M  V30 4097 C 388.509 0.723104 -1.89149 0
M  V30 4098 C 388.837 1.75504 -0.838377 0
M  V30 4099 O 388.092 1.95037 0.160982 0
M  V30 4100 C 388.391 1.43167 -3.27472 0
M  V30 4101 C 388.057 0.535972 -4.47703 0
M  V30 4102 C 386.719 0.289262 -4.8033 0
M  V30 4103 C 389.071 -0.0826125 -5.21135 0
M  V30 4104 C 386.399 -0.584853 -5.83778 0
M  V30 4105 C 388.751 -0.944414 -6.25511 0
M  V30 4106 C 387.415 -1.20061 -6.56614 0
M  V30 4107 H 386.685 0.264602 -0.692146 0
M  V30 4108 H 389.332 -0.0169496 -1.91492 0
M  V30 4109 H 387.637 2.24497 -3.21105 0
M  V30 4110 H 389.334 1.97209 -3.49155 0
M  V30 4111 H 385.924 0.738414 -4.22191 0
M  V30 4112 H 390.108 0.0950302 -4.96209 0
M  V30 4113 H 385.364 -0.79168 -6.06253 0
M  V30 4114 H 389.538 -1.43026 -6.81554 0
M  V30 4115 H 387.165 -1.87967 -7.36595 0
M  V30 4116 N 388.74 1.54641 0.303973 0
M  V30 4117 C 390.151 1.64811 0.877163 0
M  V30 4118 C 390.502 0.554838 1.88191 0
M  V30 4119 O 389.627 -0.309033 2.14182 0
M  V30 4120 C 390.222 2.9876 1.59775 0
M  V30 4121 C 388.781 3.11061 2.11938 0
M  V30 4122 C 387.928 2.60479 0.951097 0
M  V30 4123 H 390.879 1.58493 0.0810486 0
M  V30 4124 H 390.9 2.90017 2.46314 0
M  V30 4125 H 390.412 3.7831 0.866226 0
M  V30 4126 H 388.513 2.36225 2.88146 0
M  V30 4127 H 388.626 4.17171 2.35595 0
M  V30 4128 H 386.99 2.16859 1.33583 0
M  V30 4129 H 387.773 3.42504 0.233581 0
M  V30 4130 N 390.218 -0.567019 1.47046 0
M  V30 4131 C 391.446 -1.35027 1.56765 0
M  V30 4132 C 391.861 -1.8758 0.214316 0
M  V30 4133 O 391.218 -1.64471 -0.790919 0
M  V30 4134 C 391.269 -2.52698 2.58507 0
M  V30 4135 O 390.99 -2.0232 3.88585 0
M  V30 4136 C 392.491 -3.45043 2.78316 0
M  V30 4137 H 389.711 -0.41195 0.529658 0
M  V30 4138 H 392.255 -0.687832 1.92585 0
M  V30 4139 H 390.41 -3.149 2.25648 0
M  V30 4140 H 390.824 -2.79068 4.44096 0
M  V30 4141 H 392.298 -4.2405 3.53391 0
M  V30 4142 H 392.775 -3.97971 1.85784 0
M  V30 4143 H 393.381 -2.88665 3.12334 0
M  V30 4144 N 391.696 -1.35014 -0.812953 0
M  V30 4145 C 392.926 -1.30841 -1.59888 0
M  V30 4146 C 393.334 0.117576 -1.88834 0
M  V30 4147 O 392.677 1.07807 -1.48739 0
M  V30 4148 C 392.739 -2.0412 -2.95931 0
M  V30 4149 C 392.403 -3.53336 -2.89832 0
M  V30 4150 C 393.4 -4.48052 -2.63714 0
M  V30 4151 C 391.085 -3.95894 -3.0915 0
M  V30 4152 C 393.079 -5.833 -2.56982 0
M  V30 4153 C 390.766 -5.31239 -3.0204 0
M  V30 4154 C 391.764 -6.24754 -2.75991 0
M  V30 4155 O 391.452 -7.57617 -2.68833 0
M  V30 4156 H 391.184 -0.451215 -0.50337 0
M  V30 4157 H 393.738 -1.78354 -1.01877 0
M  V30 4158 H 391.968 -1.51235 -3.559 0
M  V30 4159 H 393.657 -1.93107 -3.57022 0
M  V30 4160 H 394.423 -4.16492 -2.48515 0
M  V30 4161 H 390.302 -3.23495 -3.28438 0
M  V30 4162 H 393.846 -6.56263 -2.36569 0
M  V30 4163 H 389.743 -5.62415 -3.16796 0
M  V30 4164 H 390.511 -7.67469 -2.84487 0
M  V30 4165 N 393.175 1.03435 -1.18907 0
M  V30 4166 C 394.423 1.76394 -0.986382 0
M  V30 4167 C 394.744 1.88883 0.484567 0
M  V30 4168 O 394.014 1.41843 1.3512 0
M  V30 4169 H 392.594 0.65344 -0.361975 0
M  V30 4170 H 395.256 1.248 -1.49703 0
M  V30 4171 H 394.352 2.77424 -1.42978 0
M  V30 4172 N 394.653 0.992116 1.22453 0
M  V30 4173 C 395.899 0.668523 1.91464 0
M  V30 4174 C 396.232 -0.797313 1.77078 0
M  V30 4175 O 395.507 -1.5765 1.13916 0
M  V30 4176 C 395.79 1.07424 3.43703 0
M  V30 4177 C 395.643 2.59857 3.67143 0
M  V30 4178 C 396.962 0.626891 4.35612 0
M  V30 4179 H 394.081 0.244341 0.695318 0
M  V30 4180 H 396.723 1.2355 1.44345 0
M  V30 4181 H 394.873 0.591816 3.83966 0
M  V30 4182 H 396.545 3.15764 3.3629 0
M  V30 4183 H 394.788 3.01961 3.11451 0
M  V30 4184 H 395.459 2.83296 4.73759 0
M  V30 4185 H 397.935 1.04125 4.02861 0
M  V30 4186 H 396.811 0.939076 5.40807 0
M  V30 4187 H 397.072 -0.472457 4.39568 0
M  V30 4188 N 396.131 -1.37776 0.765217 0
M  V30 4189 C 397.359 -2.04124 0.337767 0
M  V30 4190 C 397.774 -1.57715 -1.03785 0
M  V30 4191 O 397.131 -0.755447 -1.6613 0
M  V30 4192 C 397.182 -3.59658 0.364442 0
M  V30 4193 O 396.903 -4.04367 1.68579 0
M  V30 4194 C 398.404 -4.43236 -0.0754221 0
M  V30 4195 H 395.624 -0.655696 0.142491 0
M  V30 4196 H 398.168 -1.76238 1.03732 0
M  V30 4197 H 396.323 -3.86339 -0.286471 0
M  V30 4198 H 396.737 -4.98857 1.61993 0
M  V30 4199 H 398.211 -5.52 -0.00560067 0
M  V30 4200 H 398.688 -4.2455 -1.12491 0
M  V30 4201 H 399.294 -4.21767 0.547055 0
M  V30 4202 N 397.609 -0.515225 -1.4894 0
M  V30 4203 C 399.02 -0.0710067 -1.86565 0
M  V30 4204 C 399.371 1.34733 -1.42623 0
M  V30 4205 O 398.496 2.00653 -0.810379 0
M  V30 4206 C 399.091 -0.122083 -3.3858 0
M  V30 4207 C 397.65 0.266863 -3.75453 0
M  V30 4208 C 396.797 -0.488376 -2.72966 0
M  V30 4209 H 399.748 -0.727266 -1.41055 0
M  V30 4210 H 399.769 0.669818 -3.74558 0
M  V30 4211 H 399.281 -1.15448 -3.70531 0
M  V30 4212 H 397.382 1.30196 -3.49113 0
M  V30 4213 H 397.495 -0.0624811 -4.79059 0
M  V30 4214 H 395.859 0.0635622 -2.54621 0
M  V30 4215 H 396.642 -1.52113 -3.07761 0
M  V30 4216 N 399.087 1.5561 -0.249682 0
M  V30 4217 C 400.035 2.22894 0.664906 0
M  V30 4218 C 401.029 1.21743 1.17792 0
M  V30 4219 O 402.235 1.39748 1.13449 0
M  V30 4220 H 398.61 0.715022 0.232912 0
M  V30 4221 H 400.581 2.98307 0.0742998 0
M  V30 4222 C 399.33 2.94424 1.84959 0
M  V30 4223 H 398.653 3.72031 1.46399 0
M  V30 4224 H 400.093 3.44862 2.4667 0
M  V30 4225 C 398.552 1.98454 2.72245 0
M  V30 4226 O 399.082 1.51939 3.71857 0
M  V30 4227 N 397.288 1.65496 2.38871 0
M  V30 4228 H 396.835 2.03517 1.57919 0
M  V30 4229 H 396.793 1.0155 2.97548 0
M  V30 4230 N 400.565 -0.0233959 1.57583 0
M  V30 4231 C 401.515 -1.03023 2.03397 0
M  V30 4232 C 402.499 -1.31701 0.924315 0
M  V30 4233 O 403.691 -1.31191 1.18819 0
M  V30 4234 C 400.82 -2.32961 2.52159 0
M  V30 4235 C 399.906 -2.07349 3.69956 0
M  V30 4236 N 400.297 -1.51814 4.82479 0
M  V30 4237 C 398.595 -2.37606 3.77438 0
M  V30 4238 C 399.296 -1.42136 5.64068 0
M  V30 4239 N 398.272 -1.89891 5.09355 0
M  V30 4240 H 402.074 -0.594962 2.87815 0
M  V30 4241 H 399.588 -0.229586 1.60769 0
M  V30 4242 H 401.585 -3.05906 2.83244 0
M  V30 4243 H 400.245 -2.77162 1.69149 0
M  V30 4244 H 401.256 -1.20008 5.03804 0
M  V30 4245 H 397.933 -2.84842 3.05239 0
M  V30 4246 H 399.323 -0.996405 6.64471 0
M  V30 4247 N 402.043 -1.548 -0.295768 0
M  V30 4248 C 403.268 -1.78653 -1.05346 0
M  V30 4249 C 403.693 -0.546894 -1.79974 0
M  V30 4250 O 403.051 0.502763 -1.7419 0
M  V30 4251 C 403.099 -2.99679 -2.00561 0
M  V30 4252 O 402.203 -2.7317 -3.08953 0
M  V30 4253 H 401.544 -0.59116 -0.302367 0
M  V30 4254 H 404.074 -2.01895 -0.331598 0
M  V30 4255 H 404.084 -3.27793 -2.42932 0
M  V30 4256 H 402.759 -3.89562 -1.4565 0
M  V30 4257 H 401.336 -2.56089 -2.71059 0
M  V30 4258 N 403.521 0.559213 -1.47345 0
M  V30 4259 C 404.484 1.64854 -1.59235 0
M  V30 4260 C 405.484 1.53851 -0.467607 0
M  V30 4261 O 406.674 1.58045 -0.732617 0
M  V30 4262 C 403.806 3.04388 -1.53496 0
M  V30 4263 H 404.999 1.55662 -2.56339 0
M  V30 4264 H 402.552 0.778973 -1.35505 0
M  V30 4265 H 403.287 3.19115 -0.577604 0
M  V30 4266 H 403.072 3.13783 -2.35123 0
M  V30 4267 H 404.562 3.83642 -1.6495 0
M  V30 4268 N 404.999 1.35443 0.805782 0
M  V30 4269 C 406.246 1.28761 1.56291 0
M  V30 4270 C 406.574 -0.137747 1.94012 0
M  V30 4271 O 405.829 -1.1032 1.61642 0
M  V30 4272 C 406.128 2.14045 2.86216 0
M  V30 4273 C 405.794 3.62826 2.67709 0
M  V30 4274 C 404.456 4.0338 2.6237 0
M  V30 4275 C 406.808 4.57227 2.50186 0
M  V30 4276 C 404.136 5.36501 2.37451 0
M  V30 4277 C 406.488 5.90547 2.26797 0
M  V30 4278 C 405.152 6.30245 2.1988 0
M  V30 4279 H 404.422 0.471171 0.571908 0
M  V30 4280 H 407.069 1.67347 0.930974 0
M  V30 4281 H 405.374 1.68342 3.53791 0
M  V30 4282 H 407.071 2.0621 3.43917 0
M  V30 4283 H 403.661 3.30644 2.72713 0
M  V30 4284 H 407.845 4.2678 2.53323 0
M  V30 4285 H 403.101 5.66259 2.30567 0
M  V30 4286 H 407.275 6.63274 2.12228 0
M  V30 4287 H 404.902 7.33328 2.00333 0
M  V30 4288 N 406.477 -1.02803 1.19454 0
M  V30 4289 C 407.702 -1.80378 1.02364 0
M  V30 4290 C 408.127 -1.83282 -0.423007 0
M  V30 4291 O 407.485 -1.25945 -1.30413 0
M  V30 4292 C 407.533 -3.23248 1.59821 0
M  V30 4293 O 406.637 -4.04 0.828105 0
M  V30 4294 H 405.978 -0.556799 0.361761 0
M  V30 4295 H 408.508 -1.29385 1.58495 0
M  V30 4296 H 408.518 -3.73994 1.63073 0
M  V30 4297 H 407.193 -3.2045 2.65113 0
M  V30 4298 H 405.77 -3.62635 0.86891 0
M  V30 4299 N 407.956 -0.998596 -1.21925 0
M  V30 4300 C 408.889 -0.498517 -2.22688 0
M  V30 4301 C 409.867 0.444301 -1.56412 0
M  V30 4302 O 411.051 0.368518 -1.84863 0
M  V30 4303 C 408.178 0.276639 -3.37568 0
M  V30 4304 C 407.224 -0.61302 -4.22071 0
M  V30 4305 S 408.057 -2.07168 -4.93803 0
M  V30 4306 C 409.213 -1.30617 -6.12119 0
M  V30 4307 H 409.446 -1.35234 -2.64762 0
M  V30 4308 H 406.979 -0.806018 -1.31692 0
M  V30 4309 H 408.937 0.717817 -4.04175 0
M  V30 4310 H 407.598 1.10581 -2.93991 0
M  V30 4311 H 406.791 -0.0162909 -5.03997 0
M  V30 4312 H 406.393 -0.991202 -3.60626 0
M  V30 4313 H 408.685 -0.57675 -6.75041 0
M  V30 4314 H 409.628 -2.10091 -6.76215 0
M  V30 4315 H 410.036 -0.816957 -5.58557 0
M  V30 4316 N 409.434 1.37368 -0.772513 0
M  V30 4317 C 410.384 2.27613 -0.132823 0
M  V30 4318 C 411.368 1.46138 0.673247 0
M  V30 4319 O 412.56 1.68686 0.536095 0
M  V30 4320 C 409.689 3.35122 0.744864 0
M  V30 4321 C 408.775 4.24044 -0.0690771 0
M  V30 4322 N 409.166 4.93355 -1.1151 0
M  V30 4323 C 407.464 4.45731 0.154782 0
M  V30 4324 C 408.165 5.59 -1.60917 0
M  V30 4325 N 407.141 5.35737 -0.921222 0
M  V30 4326 H 410.943 2.78675 -0.933681 0
M  V30 4327 H 408.457 1.50494 -0.610342 0
M  V30 4328 H 410.454 3.98683 1.21892 0
M  V30 4329 H 409.114 2.85616 1.54446 0
M  V30 4330 H 410.125 4.95785 -1.49726 0
M  V30 4331 H 406.802 4.07096 0.926224 0
M  V30 4332 H 408.192 6.24395 -2.48153 0
M  V30 4333 N 410.912 0.523116 1.48665 0
M  V30 4334 C 411.875 -0.232592 2.28017 0
M  V30 4335 C 412.875 -0.874021 1.34972 0
M  V30 4336 O 414.065 -0.735132 1.57929 0
M  V30 4337 C 411.197 -1.33586 3.13636 0
M  V30 4338 H 412.39 0.464008 2.96289 0
M  V30 4339 H 409.943 0.278816 1.53793 0
M  V30 4340 H 410.678 -2.06593 2.4998 0
M  V30 4341 H 410.463 -0.881125 3.82071 0
M  V30 4342 H 411.953 -1.86759 3.73511 0
M  V30 4343 N 412.39 -1.55475 0.257931 0
M  V30 4344 C 413.32 -2.24815 -0.630912 0
M  V30 4345 C 414.301 -1.23224 -1.17259 0
M  V30 4346 O 415.486 -1.51904 -1.20991 0
M  V30 4347 C 412.616 -2.95609 -1.82298 0
M  V30 4348 C 411.57 -4.03982 -1.41359 0
M  V30 4349 C 410.896 -4.6226 -2.68738 0
M  V30 4350 C 412.196 -5.19109 -0.57648 0
M  V30 4351 H 413.89 -2.99354 -0.0526878 0
M  V30 4352 H 411.436 -1.4398 -0.023901 0
M  V30 4353 H 413.389 -3.42822 -2.45054 0
M  V30 4354 H 412.113 -2.18577 -2.42676 0
M  V30 4355 H 410.772 -3.57555 -0.809324 0
M  V30 4356 H 410.42 -3.81915 -3.27338 0
M  V30 4357 H 410.12 -5.35424 -2.42065 0
M  V30 4358 H 411.644 -5.12212 -3.32372 0
M  V30 4359 H 413.058 -5.62479 -1.10861 0
M  V30 4360 H 411.455 -5.98729 -0.405351 0
M  V30 4361 H 412.525 -4.83174 0.408776 0
M  V30 4362 N 413.868 0.0150385 -1.57593 0
M  V30 4363 C 414.798 1.01047 -2.10503 0
M  V30 4364 C 415.779 1.36816 -1.01071 0
M  V30 4365 O 416.964 1.45455 -1.28672 0
M  V30 4366 C 414.094 2.30708 -2.59598 0
M  V30 4367 C 413.048 2.09142 -3.73421 0
M  V30 4368 C 412.374 3.44685 -4.08774 0
M  V30 4369 C 413.674 1.46619 -5.01298 0
M  V30 4370 H 415.368 0.569978 -2.93925 0
M  V30 4371 H 412.914 0.272724 -1.41394 0
M  V30 4372 H 414.867 3.00687 -2.95238 0
M  V30 4373 H 413.591 2.76843 -1.73279 0
M  V30 4374 H 412.25 1.41592 -3.38153 0
M  V30 4375 H 411.898 3.88495 -3.195 0
M  V30 4376 H 411.598 3.31077 -4.8545 0
M  V30 4377 H 413.122 4.16004 -4.4696 0
M  V30 4378 H 414.536 2.06535 -5.34805 0
M  V30 4379 H 412.933 1.43544 -5.82679 0
M  V30 4380 H 414.003 0.433611 -4.82957 0
M  V30 4381 N 415.346 1.54954 0.287554 0
M  V30 4382 C 416.592 1.75132 1.02257 0
M  V30 4383 C 416.925 0.542858 1.86458 0
M  V30 4384 O 416.2 -0.459856 1.88986 0
M  V30 4385 C 416.483 3.04812 1.91733 0
M  V30 4386 C 416.336 4.35985 1.10622 0
M  V30 4387 C 417.655 3.30438 2.90687 0
M  V30 4388 H 414.774 0.637194 0.370341 0
M  V30 4389 H 417.416 1.87678 0.296111 0
M  V30 4390 H 415.566 2.94247 2.53675 0
M  V30 4391 H 417.238 4.58487 0.508636 0
M  V30 4392 H 415.481 4.31865 0.409271 0
M  V30 4393 H 416.152 5.23017 1.76513 0
M  V30 4394 H 418.628 3.40701 2.38877 0
M  V30 4395 H 417.504 4.22467 3.50447 0
M  V30 4396 H 417.765 2.49377 3.65053 0
M  V30 4397 N 416.824 -0.551391 1.4764 0
M  V30 4398 C 417.772 -1.67896 1.60978 0
M  V30 4399 C 418.766 -1.62549 0.476877 0
M  V30 4400 O 419.972 -1.67664 0.654878 0
M  V30 4401 H 416.347 -0.555649 0.506713 0
M  V30 4402 H 418.318 -1.53784 2.55721 0
M  V30 4403 C 417.067 -3.06234 1.64669 0
M  V30 4404 H 416.39 -3.11033 2.51194 0
M  V30 4405 H 417.83 -3.84804 1.7805 0
M  V30 4406 C 416.289 -3.34737 0.381115 0
M  V30 4407 O 416.819 -3.98381 -0.515297 0
M  V30 4408 N 415.025 -2.8944 0.259354 0
M  V30 4409 H 414.572 -2.37827 0.98976 0
M  V30 4410 H 414.53 -3.08882 -0.586464 0
M  V30 4411 N 418.302 -1.35869 -0.798587 0
M  V30 4412 C 419.252 -1.25982 -1.90033 0
M  V30 4413 C 420.236 -0.153303 -1.60168 0
M  V30 4414 O 421.428 -0.38527 -1.72756 0
M  V30 4415 C 418.557 -1.04211 -3.27101 0
M  V30 4416 C 417.643 -2.19289 -3.63006 0
M  V30 4417 N 418.034 -3.44559 -3.70287 0
M  V30 4418 C 416.332 -2.10852 -3.93011 0
M  V30 4419 C 417.033 -4.20283 -4.02166 0
M  V30 4420 N 416.009 -3.49124 -4.16669 0
M  V30 4421 H 419.811 -2.20883 -1.93876 0
M  V30 4422 H 417.325 -1.28457 -0.993614 0
M  V30 4423 H 419.322 -0.952155 -4.05881 0
M  V30 4424 H 417.982 -0.102013 -3.2454 0
M  V30 4425 H 418.993 -3.7881 -3.53162 0
M  V30 4426 H 415.67 -1.24744 -3.98428 0
M  V30 4427 H 417.06 -5.28575 -4.14799 0
M  V30 4428 N 419.78 1.02168 -1.19998 0
M  V30 4429 C 421.01 1.79036 -1.031 0
M  V30 4430 C 421.418 1.84409 0.423078 0
M  V30 4431 O 420.761 1.29228 1.30559 0
M  V30 4432 C 420.823 3.25185 -1.53281 0
M  V30 4433 C 420.487 3.43431 -3.01503 0
M  V30 4434 C 421.484 3.33063 -3.99206 0
M  V30 4435 C 419.169 3.69412 -3.40353 0
M  V30 4436 C 421.163 3.48413 -5.33748 0
M  V30 4437 C 418.85 3.84406 -4.75053 0
M  V30 4438 C 419.848 3.7391 -5.71559 0
M  V30 4439 O 419.536 3.88452 -7.03818 0
M  V30 4440 H 419.268 0.570043 -0.363355 0
M  V30 4441 H 421.822 1.29524 -1.59414 0
M  V30 4442 H 420.052 3.75756 -0.913483 0
M  V30 4443 H 421.741 3.83671 -1.32481 0
M  V30 4444 H 422.507 3.12934 -3.70537 0
M  V30 4445 H 418.386 3.76671 -2.65782 0
M  V30 4446 H 421.93 3.40137 -6.09059 0
M  V30 4447 H 417.827 4.04035 -5.03415 0
M  V30 4448 H 418.595 4.055 -7.10993 0
M  V30 4449 N 421.258 1.00505 1.21394 0
M  V30 4450 C 422.191 0.51032 2.22421 0
M  V30 4451 C 423.169 -0.436 1.56645 0
M  V30 4452 O 424.353 -0.358709 1.85055 0
M  V30 4453 C 421.48 -0.258733 3.3771 0
M  V30 4454 C 420.526 0.635395 4.2174 0
M  V30 4455 S 421.359 2.09783 4.92698 0
M  V30 4456 C 422.515 1.33862 6.11418 0
M  V30 4457 H 422.748 1.36637 2.64041 0
M  V30 4458 H 420.281 0.812991 1.31262 0
M  V30 4459 H 422.239 -0.696372 4.0455 0
M  V30 4460 H 420.9 -1.0902 2.94573 0
M  V30 4461 H 420.093 0.0430189 5.03982 0
M  V30 4462 H 419.695 1.01031 3.60095 0
M  V30 4463 H 421.987 0.612541 6.74725 0
M  V30 4464 H 422.93 2.13675 6.75092 0
M  V30 4465 H 423.338 0.846568 5.58116 0
M  V30 4466 N 422.737 -1.36956 0.779787 0
M  V30 4467 C 423.684 -2.30175 0.169697 0
M  V30 4468 C 424.654 -1.51501 -0.68094 0
M  V30 4469 O 425.839 -1.80042 -0.631629 0
M  V30 4470 C 422.979 -3.37985 -0.697131 0
M  V30 4471 C 422.092 -4.31661 0.170992 0
M  V30 4472 C 421.227 -5.2655 -0.701298 0
M  V30 4473 C 420.266 -6.11867 0.168869 0
M  V30 4474 N 419.403 -6.98973 -0.661855 0
M  V30 4475 H 424.243 -2.81767 0.970135 0
M  V30 4476 H 421.78 -1.38699 0.489994 0
M  V30 4477 H 423.738 -3.99128 -1.2146 0
M  V30 4478 H 422.368 -2.87739 -1.46309 0
M  V30 4479 H 421.42 -3.71756 0.80634 0
M  V30 4480 H 422.732 -4.91644 0.841875 0
M  V30 4481 H 421.886 -5.92937 -1.28494 0
M  V30 4482 H 420.625 -4.66998 -1.40584 0
M  V30 4483 H 419.63 -5.44452 0.764986 0
M  V30 4484 H 420.855 -6.73493 0.870863 0
M  V30 4485 H 418.801 -6.41941 -1.35086 0
M  V30 4486 H 418.718 -7.55984 -0.0484447 0
M  V30 4487 H 419.986 -7.6974 -1.22963 0
M  V30 4488 N 424.215 -0.530993 -1.48385 0
M  V30 4489 C 425.463 0.00273189 -2.021 0
M  V30 4490 C 425.784 1.34672 -1.41027 0
M  V30 4491 O 425.054 1.8724 -0.576012 0
M  V30 4492 H 423.634 0.00399774 -0.746989 0
M  V30 4493 H 426.296 -0.695054 -1.82085 0
M  V30 4494 H 425.392 0.11031 -3.11905 0
M  V30 4495 N 425.693 1.55336 -0.266172 0
M  V30 4496 C 426.941 1.99003 0.35246 0
M  V30 4497 C 427.262 1.15591 1.57047 0
M  V30 4498 O 426.532 0.243268 1.94384 0
M  V30 4499 H 425.112 0.735025 0.133217 0
M  V30 4500 H 427.774 1.91367 -0.369434 0
M  V30 4501 H 426.87 3.05289 0.648453 0
M  V30 4502 N 427.171 -0.0066808 1.57599 0
M  V30 4503 C 428.418 -0.69292 1.90276 0
M  V30 4504 C 428.746 -1.74148 0.866192 0
M  V30 4505 O 428.001 -1.95268 -0.129933 0
M  V30 4506 C 428.3 -1.37939 3.29708 0
M  V30 4507 C 427.966 -0.464679 4.48499 0
M  V30 4508 C 426.628 -0.212809 4.80729 0
M  V30 4509 C 428.98 0.16551 5.20937 0
M  V30 4510 C 426.308 0.677653 5.82773 0
M  V30 4511 C 428.66 1.04381 6.23929 0
M  V30 4512 C 427.324 1.30492 6.54621 0
M  V30 4513 H 426.594 -0.253558 0.696268 0
M  V30 4514 H 429.241 0.0474123 1.91441 0
M  V30 4515 H 427.546 -2.1936 3.24636 0
M  V30 4516 H 429.243 -1.9163 3.52249 0
M  V30 4517 H 425.833 -0.671153 4.23313 0
M  V30 4518 H 430.017 -0.0160756 4.96297 0
M  V30 4519 H 425.273 0.88803 6.04917 0
M  V30 4520 H 429.447 1.53851 6.79193 0
M  V30 4521 H 427.074 1.99662 7.33512 0
M  V30 4522 N 428.649 -1.55105 -0.279332 0
M  V30 4523 C 429.879 -1.7917 -1.02867 0
M  V30 4524 C 430.287 -0.56204 -1.80659 0
M  V30 4525 O 429.63 0.478266 -1.77365 0
M  V30 4526 C 429.692 -2.96061 -2.03932 0
M  V30 4527 C 429.356 -4.33341 -1.45137 0
M  V30 4528 C 430.353 -5.12565 -0.870266 0
M  V30 4529 C 428.038 -4.79987 -1.48048 0
M  V30 4530 C 430.032 -6.36565 -0.326097 0
M  V30 4531 C 427.719 -6.03944 -0.932443 0
M  V30 4532 C 428.717 -6.8207 -0.356247 0
M  V30 4533 O 428.405 -8.03691 0.183412 0
M  V30 4534 H 428.137 -0.600796 -0.309872 0
M  V30 4535 H 430.691 -2.02932 -0.317468 0
M  V30 4536 H 428.921 -2.67975 -2.78794 0
M  V30 4537 H 430.61 -3.07506 -2.64943 0
M  V30 4538 H 431.376 -4.77661 -0.840521 0
M  V30 4539 H 427.255 -4.1919 -1.91835 0
M  V30 4540 H 430.799 -6.97489 0.124286 0
M  V30 4541 H 426.696 -6.3833 -0.959407 0
M  V30 4542 H 427.464 -8.18468 0.0721681 0
M  V30 4543 N 430.127 0.543554 -1.4793 0
M  V30 4544 C 431.538 1.12561 -1.48953 0
M  V30 4545 C 431.889 1.94578 -0.251754 0
M  V30 4546 O 431.014 2.0665 0.642255 0
M  V30 4547 C 431.609 2.04801 -2.69892 0
M  V30 4548 C 430.168 2.58251 -2.73831 0
M  V30 4549 C 429.315 1.34918 -2.42265 0
M  V30 4550 H 432.266 0.32947 -1.55242 0
M  V30 4551 H 432.287 2.88886 -2.47639 0
M  V30 4552 H 431.799 1.4508 -3.59963 0
M  V30 4553 H 429.9 3.21732 -1.87934 0
M  V30 4554 H 430.013 2.98312 -3.74895 0
M  V30 4555 H 428.377 1.66046 -1.93134 0
M  V30 4556 H 429.16 0.769693 -3.3456 0
M  V30 4557 N 431.605 1.3629 0.791371 0
M  V30 4558 C 433.021 1.16661 1.08914 0
M  V30 4559 C 433.221 -0.0106266 2.01497 0
M  V30 4560 O 432.277 -0.676596 2.43266 0
M  V30 4561 C 433.59 2.47656 1.70549 0
M  V30 4562 C 435.138 2.54002 1.82899 0
M  V30 4563 C 435.613 3.85078 2.47949 0
M  V30 4564 N 437.104 3.86413 2.5542 0
M  V30 4565 C 437.839 4.84572 3.06557 0
M  V30 4566 N 437.335 5.93124 3.58016 0
M  V30 4567 N 439.128 4.71994 3.05251 0
M  V30 4568 H 431.279 2.11668 0.176238 0
M  V30 4569 H 433.542 0.937486 0.140796 0
M  V30 4570 H 433.248 3.34059 1.09989 0
M  V30 4571 H 433.122 2.63319 2.70079 0
M  V30 4572 H 435.509 1.68018 2.42598 0
M  V30 4573 H 435.59 2.42239 0.821808 0
M  V30 4574 H 435.234 4.71467 1.88895 0
M  V30 4575 H 435.164 3.94135 3.49235 0
M  V30 4576 H 437.655 3.07988 2.18979 0
M  V30 4577 H 437.968 6.63999 3.95381 0
M  V30 4578 H 436.313 5.96796 3.56173 0
M  V30 4579 H 439.504 3.86321 2.64336 0
M  V30 4580 H 439.677 5.48653 3.44796 0
M  V30 4581 N 433.083 -1.0153 1.20538 0
M  V30 4582 C 434.331 -1.74803 1.01432 0
M  V30 4583 C 434.652 -1.8963 -0.454456 0
M  V30 4584 O 433.922 -1.43975 -1.32846 0
M  V30 4585 H 432.502 -0.647598 0.372324 0
M  V30 4586 H 435.164 -1.22402 1.5167 0
M  V30 4587 H 434.26 -2.75114 1.47373 0
M  V30 4588 N 434.561 -1.01147 -1.20859 0
M  V30 4589 C 435.809 -0.696486 -1.89719 0
M  V30 4590 C 436.13 0.775788 -1.78904 0
M  V30 4591 O 435.4 1.55759 -1.18811 0
M  V30 4592 H 433.98 -0.254628 -0.702263 0
M  V30 4593 H 436.642 -1.28197 -1.46804 0
M  V30 4594 H 435.738 -0.975357 -2.96468 0
M  V30 4595 N 436.039 1.36541 -0.78704 0
M  V30 4596 C 437.264 2.0409 -0.369053 0
M  V30 4597 C 437.689 1.58957 1.00569 0
M  V30 4598 O 437.047 0.756926 1.64743 0
M  V30 4599 C 437.095 3.57924 -0.438466 0
M  V30 4600 O 436.199 4.08642 0.555479 0
M  V30 4601 H 435.54 0.645142 -0.157122 0
M  V30 4602 H 438.07 1.74545 -1.06749 0
M  V30 4603 H 438.08 4.06887 -0.301218 0
M  V30 4604 H 436.755 3.90127 -1.44132 0
M  V30 4605 H 435.332 3.70958 0.380088 0
M  V30 4606 N 437.518 0.538854 1.48102 0
M  V30 4607 C 438.743 0.0102694 2.07397 0
M  V30 4608 C 439.168 -1.26562 1.39153 0
M  V30 4609 O 438.526 -1.75357 0.460387 0
M  V30 4610 C 438.574 -0.187602 3.60112 0
M  V30 4611 O 437.678 -1.25432 3.92862 0
M  V30 4612 H 437.019 0.0430975 0.6626 0
M  V30 4613 H 439.549 0.749301 1.90385 0
M  V30 4614 H 439.559 -0.407517 4.0596 0
M  V30 4615 H 438.234 0.744386 4.09184 0
M  V30 4616 H 436.811 -1.01636 3.58782 0
M  V30 4617 N 438.996 -1.55193 0.274407 0
M  V30 4618 C 439.906 -2.26164 -0.623473 0
M  V30 4619 C 440.922 -1.28729 -1.17068 0
M  V30 4620 O 442.098 -1.61663 -1.20112 0
M  V30 4621 C 439.163 -2.96833 -1.7914 0
M  V30 4622 C 438.224 -4.09745 -1.28093 0
M  V30 4623 C 437.457 -4.77034 -2.3932 0
M  V30 4624 O 437.68 -4.4353 -3.5866 0
M  V30 4625 O 436.614 -5.64996 -2.07516 0
M  V30 4626 H 440.44 -3.03661 -0.0485661 0
M  V30 4627 H 438.025 -1.49341 0.0418382 0
M  V30 4628 H 439.907 -3.41248 -2.4724 0
M  V30 4629 H 438.582 -2.22253 -2.35341 0
M  V30 4630 H 437.489 -3.69787 -0.566416 0
M  V30 4631 H 438.822 -4.86224 -0.764683 0
M  V30 4632 N 440.474 -0.00167713 -1.576 0
M  V30 4633 C 441.723 0.682021 -1.89819 0
M  V30 4634 C 442.036 1.74844 -0.876871 0
M  V30 4635 O 443.242 2.48688 -1.08934 0
M  V30 4636 C 441.698 1.26425 -3.36964 0
M  V30 4637 C 441.306 0.232568 -4.47396 0
M  V30 4638 C 443.05 1.92604 -3.78291 0
M  V30 4639 C 440.957 0.824882 -5.85619 0
M  V30 4640 H 439.887 0.258499 -0.708304 0
M  V30 4641 H 442.538 -0.0624957 -1.83394 0
M  V30 4642 H 440.92 2.05949 -3.38232 0
M  V30 4643 H 442.094 -0.5382 -4.57646 0
M  V30 4644 H 440.409 -0.32888 -4.15099 0
M  V30 4645 H 443.006 2.37827 -4.78897 0
M  V30 4646 H 443.349 2.75732 -3.11894 0
M  V30 4647 H 443.882 1.19812 -3.79328 0
M  V30 4648 H 440.621 0.0323542 -6.55492 0
M  V30 4649 H 440.141 1.56477 -5.79029 0
M  V30 4650 H 441.82 1.32301 -6.33329 0
M  V30 4651 N 441.952 1.55251 0.271103 0
M  V30 4652 C 442.915 1.87484 1.31842 0
M  V30 4653 C 443.915 0.749545 1.42262 0
M  V30 4654 O 445.105 1.01771 1.4138 0
M  V30 4655 C 442.237 2.0818 2.69951 0
M  V30 4656 H 443.43 2.81108 1.0449 0
M  V30 4657 H 440.983 1.47771 0.509258 0
M  V30 4658 H 441.718 1.16944 3.02481 0
M  V30 4659 H 441.503 2.90114 2.63774 0
M  V30 4660 H 442.993 2.34385 3.4562 0
M  V30 4661 N 443.43 -0.535701 1.48216 0
M  V30 4662 C 444.677 -1.29183 1.55942 0
M  V30 4663 C 445.005 -1.93125 0.230857 0
M  V30 4664 O 444.26 -1.79556 -0.778331 0
M  V30 4665 C 444.559 -2.4068 2.64212 0
M  V30 4666 C 444.225 -1.94428 4.06827 0
M  V30 4667 C 442.887 -1.81532 4.45645 0
M  V30 4668 C 445.239 -1.59405 4.96225 0
M  V30 4669 C 442.567 -1.31939 5.71672 0
M  V30 4670 C 444.919 -1.11276 6.22736 0
M  V30 4671 C 443.583 -0.969924 6.60416 0
M  V30 4672 H 442.853 -0.472715 0.570632 0
M  V30 4673 H 445.5 -0.598437 1.81909 0
M  V30 4674 H 443.805 -3.15666 2.32083 0
M  V30 4675 H 445.502 -2.98822 2.67407 0
M  V30 4676 H 442.092 -2.05415 3.76168 0
M  V30 4677 H 446.276 -1.68231 4.66917 0
M  V30 4678 H 441.532 -1.19562 5.99596 0
M  V30 4679 H 445.706 -0.832453 6.91407 0
M  V30 4680 H 443.333 -0.583436 7.57958 0
M  V30 4681 N 444.908 -1.36708 -0.784132 0
M  V30 4682 C 445.858 -1.2799 -1.88686 0
M  V30 4683 C 446.842 -0.170282 -1.59996 0
M  V30 4684 O 448.034 -0.403571 -1.72338 0
M  V30 4685 C 445.163 -1.07674 -3.25977 0
M  V30 4686 C 444.249 -2.23127 -3.60659 0
M  V30 4687 N 444.64 -3.48467 -3.66612 0
M  V30 4688 C 442.938 -2.15009 -3.90752 0
M  V30 4689 C 443.639 -4.24525 -3.97685 0
M  V30 4690 N 442.615 -3.53524 -4.12943 0
M  V30 4691 H 446.417 -2.22927 -1.91522 0
M  V30 4692 H 443.931 -1.29503 -0.979933 0
M  V30 4693 H 445.928 -0.995151 -4.04849 0
M  V30 4694 H 444.588 -0.13643 -3.24413 0
M  V30 4695 H 445.599 -3.82534 -3.49125 0
M  V30 4696 H 442.276 -1.28963 -3.97083 0
M  V30 4697 H 443.666 -5.32944 -4.0917 0
M  V30 4698 N 446.386 1.0089 -1.21074 0
M  V30 4699 C 447.614 1.78191 -1.05145 0
M  V30 4700 C 448.029 1.84537 0.398952 0
M  V30 4701 O 447.386 1.30393 1.27687 0
M  V30 4702 C 447.437 3.22288 -1.63746 0
M  V30 4703 O 447.158 3.16315 -3.03111 0
M  V30 4704 C 448.659 4.16106 -1.52875 0
M  V30 4705 H 445.879 0.560129 -0.369454 0
M  V30 4706 H 448.423 1.26945 -1.60328 0
M  V30 4707 H 446.578 3.70655 -1.12664 0
M  V30 4708 H 446.992 4.06817 -3.31059 0
M  V30 4709 H 448.466 5.15026 -1.98626 0
M  V30 4710 H 448.943 4.36541 -0.482521 0
M  V30 4711 H 449.549 3.73625 -2.03185 0
M  V30 4712 N 447.864 1.01787 1.20321 0
M  V30 4713 C 449.113 0.703249 1.89043 0
M  V30 4714 C 449.426 -0.770445 1.79787 0
M  V30 4715 O 450.632 -1.19767 2.43656 0
M  V30 4716 C 449.088 1.20749 3.3904 0
M  V30 4717 C 448.696 2.70817 3.56878 0
M  V30 4718 C 450.44 0.968352 4.13308 0
M  V30 4719 C 448.347 3.14716 5.00708 0
M  V30 4720 H 447.277 0.259354 0.707991 0
M  V30 4721 H 449.928 1.23072 1.36108 0
M  V30 4722 H 448.31 0.607989 3.91305 0
M  V30 4723 H 449.484 3.36327 3.14993 0
M  V30 4724 H 447.799 2.92888 2.95983 0
M  V30 4725 H 450.396 1.27173 5.19356 0
M  V30 4726 H 450.739 -0.095149 4.16191 0
M  V30 4727 H 451.272 1.53129 3.67146 0
M  V30 4728 H 448.011 4.20347 5.02979 0
M  V30 4729 H 447.531 2.53927 5.43398 0
M  V30 4730 H 449.21 3.07426 5.69296 0
M  V30 4731 N 449.342 -1.36122 0.79427 0
M  V30 4732 C 450.753 -1.81646 0.431446 0
M  V30 4733 C 451.104 -1.66043 -1.04518 0
M  V30 4734 O 450.229 -1.1841 -1.8113 0
M  V30 4735 C 450.824 -3.29785 0.776341 0
M  V30 4736 C 449.383 -3.73501 0.466282 0
M  V30 4737 C 448.53 -2.58313 1.00844 0
M  V30 4738 H 451.481 -1.24274 0.986995 0
M  V30 4739 H 451.502 -3.80437 0.0692413 0
M  V30 4740 H 451.014 -3.4111 1.8511 0
M  V30 4741 H 449.115 -3.67733 -0.600245 0
M  V30 4742 H 449.228 -4.68754 0.990288 0
M  V30 4743 H 447.592 -2.5102 0.431406 0
M  V30 4744 H 448.375 -2.72421 2.08906 0
M  V30 4745 N 450.82 -0.546701 -1.47814 0
M  V30 4746 C 452.066 -0.0187684 -2.02791 0
M  V30 4747 C 452.399 1.32338 -1.42128 0
M  V30 4748 O 451.674 1.85867 -0.573023 0
M  V30 4749 C 451.957 0.0854985 -3.59998 0
M  V30 4750 C 451.81 -1.283 -4.31114 0
M  V30 4751 C 453.129 0.80412 -4.32691 0
M  V30 4752 H 450.248 -0.0082946 -0.736953 0
M  V30 4753 H 452.89 -0.706962 -1.76358 0
M  V30 4754 H 451.04 0.671609 -3.82651 0
M  V30 4755 H 452.712 -1.91151 -4.19832 0
M  V30 4756 H 450.955 -1.86049 -3.91878 0
M  V30 4757 H 451.626 -1.16287 -5.39612 0
M  V30 4758 H 454.102 0.306576 -4.14969 0
M  V30 4759 H 452.978 0.846011 -5.42341 0
M  V30 4760 H 453.239 1.85802 -4.01161 0
M  V30 4761 N 452.299 1.55045 -0.282633 0
M  V30 4762 C 453.548 1.98938 0.332667 0
M  V30 4763 C 453.861 1.17455 1.56409 0
M  V30 4764 O 455.067 1.51527 2.25282 0
M  V30 4765 C 453.523 3.54105 0.643226 0
M  V30 4766 C 453.131 4.44374 -0.568814 0
M  V30 4767 C 454.875 4.06569 1.22074 0
M  V30 4768 C 452.782 5.90943 -0.232426 0
M  V30 4769 H 451.712 0.743043 0.128075 0
M  V30 4770 H 454.363 1.79341 -0.388464 0
M  V30 4771 H 452.745 3.69532 1.42346 0
M  V30 4772 H 453.919 4.40718 -1.34551 0
M  V30 4773 H 452.234 4.02585 -1.06369 0
M  V30 4774 H 454.831 5.13626 1.48635 0
M  V30 4775 H 455.174 3.56057 2.15707 0
M  V30 4776 H 455.707 3.94612 0.502621 0
M  V30 4777 H 452.446 6.45567 -1.13683 0
M  V30 4778 H 451.966 5.9765 0.507357 0
M  V30 4779 H 453.645 6.4677 0.172657 0
M  V30 4780 N 453.777 0.010035 1.57597 0
M  V30 4781 C 454.709 -1.00649 2.05918 0
M  V30 4782 C 455.722 -1.30077 0.978964 0
M  V30 4783 O 456.911 -1.26878 1.25556 0
M  V30 4784 C 454.011 -2.33876 2.45265 0
M  V30 4785 C 453.184 -2.23242 3.7614 0
M  V30 4786 C 452.243 -3.39242 4.02245 0
M  V30 4787 O 451.269 -3.1698 4.72771 0
M  V30 4788 N 452.471 -4.6242 3.50924 0
M  V30 4789 H 455.236 -0.594333 2.93748 0
M  V30 4790 H 452.797 -0.17714 1.60928 0
M  V30 4791 H 454.789 -3.1027 2.59836 0
M  V30 4792 H 453.359 -2.66799 1.62902 0
M  V30 4793 H 452.579 -1.31696 3.71551 0
M  V30 4794 H 453.867 -2.13321 4.61922 0
M  V30 4795 H 453.265 -4.83404 2.93832 0
M  V30 4796 H 451.822 -5.36046 3.70807 0
M  V30 4797 N 455.255 -1.55392 -0.262866 0
M  V30 4798 C 456.671 -1.47459 -0.610582 0
M  V30 4799 C 456.871 -0.697031 -1.8906 0
M  V30 4800 O 455.927 -0.219952 -2.5154 0
M  V30 4801 C 457.24 -2.91751 -0.728131 0
M  V30 4802 C 458.788 -3.02027 -0.821517 0
M  V30 4803 C 459.263 -4.47594 -0.97076 0
M  V30 4804 N 460.754 -4.51465 -1.03603 0
M  V30 4805 C 461.489 -5.61326 -1.17049 0
M  V30 4806 N 460.985 -6.81032 -1.2715 0
M  V30 4807 N 462.778 -5.49089 -1.20239 0
M  V30 4808 H 454.929 -2.04395 0.577632 0
M  V30 4809 H 457.192 -0.927287 0.197086 0
M  V30 4810 H 456.898 -3.51413 0.142132 0
M  V30 4811 H 456.772 -3.4134 -1.6052 0
M  V30 4812 H 459.159 -2.42456 -1.68224 0
M  V30 4813 H 459.24 -2.55674 0.0803688 0
M  V30 4814 H 458.884 -5.07771 -0.114655 0
M  V30 4815 H 458.814 -4.91613 -1.88745 0
M  V30 4816 H 461.305 -3.6524 -0.96996 0
M  V30 4817 H 461.618 -7.60511 -1.37271 0
M  V30 4818 H 459.963 -6.83824 -1.24136 0
M  V30 4819 H 463.154 -4.54507 -1.11985 0
M  V30 4820 H 463.327 -6.34749 -1.30373 0
M  V30 4821 N 456.733 0.527833 -1.48498 0
M  V30 4822 C 457.696 1.61439 -1.62696 0
M  V30 4823 C 458.696 1.52824 -0.500136 0
M  V30 4824 O 459.886 1.56456 -0.765976 0
M  V30 4825 C 457.018 3.01063 -1.59918 0
M  V30 4826 H 458.211 1.50189 -2.59583 0
M  V30 4827 H 455.764 0.750055 -1.37127 0
M  V30 4828 H 456.499 3.17818 -0.645163 0
M  V30 4829 H 456.284 3.08725 -2.41726 0
M  V30 4830 H 457.774 3.80057 -1.73051 0
M  V30 4831 N 458.211 1.37122 0.776871 0
M  V30 4832 C 459.459 1.31787 1.53221 0
M  V30 4833 C 459.78 -0.0987589 1.9475 0
M  V30 4834 O 459.05 -1.0417 1.65908 0
M  V30 4835 H 457.63 0.484839 0.568278 0
M  V30 4836 H 460.292 1.71556 0.924917 0
M  V30 4837 H 459.388 1.95355 2.43398 0
M  V30 4838 N 459.689 -1.00246 1.21608 0
M  V30 4839 C 460.937 -1.73717 1.0328 0
M  V30 4840 C 461.258 -1.90102 -0.434318 0
M  V30 4841 O 460.528 -1.45376 -1.31311 0
M  V30 4842 H 459.108 -0.643613 0.379172 0
M  V30 4843 H 461.77 -1.20787 1.52959 0
M  V30 4844 H 460.866 -2.73535 1.50283 0
M  V30 4845 N 461.167 -1.02423 -1.1978 0
M  V30 4846 C 462.13 -0.605703 -2.21052 0
M  V30 4847 C 463.13 0.328209 -1.57415 0
M  V30 4848 O 464.32 0.115853 -1.73814 0
M  V30 4849 C 461.452 0.114366 -3.40708 0
M  V30 4850 H 462.645 -1.5017 -2.59594 0
M  V30 4851 H 460.198 -0.814888 -1.33376 0
M  V30 4852 H 460.933 1.02492 -3.07678 0
M  V30 4853 H 460.718 -0.556641 -3.88129 0
M  V30 4854 H 462.208 0.394272 -4.15735 0
M  V30 4855 N 462.645 1.35699 -0.801477 0
M  V30 4856 C 463.891 1.99208 -0.380022 0
M  V30 4857 C 464.224 1.63445 1.04878 0
M  V30 4858 O 463.499 0.895223 1.72673 0
M  V30 4859 C 463.782 3.55755 -0.557708 0
M  V30 4860 C 463.635 4.01332 -2.03107 0
M  V30 4861 C 464.954 4.40096 0.0197968 0
M  V30 4862 H 462.073 0.723667 -0.139552 0
M  V30 4863 H 464.715 1.60928 -1.01006 0
M  V30 4864 H 462.865 3.88494 -0.0213741 0
M  V30 4865 H 464.537 3.79026 -2.62939 0
M  V30 4866 H 462.78 3.52429 -2.52936 0
M  V30 4867 H 463.451 5.10234 -2.1063 0
M  V30 4868 H 465.927 4.13786 -0.438179 0
M  V30 4869 H 464.803 5.48735 -0.134477 0
M  V30 4870 H 465.064 4.2786 1.11303 0
M  V30 4871 N 464.123 0.554532 1.47522 0
M  V30 4872 C 465.053 -0.182974 2.32782 0
M  V30 4873 C 466.034 -0.911377 1.43624 0
M  V30 4874 O 467.219 -0.892366 1.72483 0
M  V30 4875 C 464.349 -1.21513 3.25349 0
M  V30 4876 C 463.303 -0.603355 4.23726 0
M  V30 4877 C 462.629 -1.73995 5.05598 0
M  V30 4878 C 463.929 0.441121 5.20434 0
M  V30 4879 H 465.623 0.52882 2.94693 0
M  V30 4880 H 463.169 0.255759 1.41711 0
M  V30 4881 H 465.122 -1.73922 3.83835 0
M  V30 4882 H 463.846 -1.95683 2.61487 0
M  V30 4883 H 462.505 -0.10059 3.66462 0
M  V30 4884 H 462.153 -2.47063 4.38143 0
M  V30 4885 H 461.853 -1.3364 5.72201 0
M  V30 4886 H 463.377 -2.26735 5.66942 0
M  V30 4887 H 464.791 0.00319931 5.733 0
M  V30 4888 H 463.188 0.763402 5.95224 0
M  V30 4889 H 464.258 1.33799 4.66075 0
M  V30 4890 N 465.601 -1.54893 0.290851 0
M  V30 4891 C 466.829 -2.04343 -0.324288 0
M  V30 4892 C 467.244 -1.16859 -1.48289 0
M  V30 4893 O 466.601 -0.192018 -1.81487 0
M  V30 4894 C 466.652 -3.52756 -0.79026 0
M  V30 4895 O 466.373 -4.36913 0.322213 0
M  V30 4896 C 467.874 -4.18161 -1.4716 0
M  V30 4897 H 465.094 -0.667135 -0.0719173 0
M  V30 4898 H 467.638 -1.99981 0.427529 0
M  V30 4899 H 465.793 -3.57511 -1.49213 0
M  V30 4900 H 466.207 -5.24486 -0.0387372 0
M  V30 4901 H 467.681 -5.23562 -1.7489 0
M  V30 4902 H 468.158 -3.67282 -2.40834 0
M  V30 4903 H 468.764 -4.17454 -0.813178 0
M  V30 4904 N 467.08 -0.0183926 -1.57589 0
M  V30 4905 C 468.027 0.967022 -2.09565 0
M  V30 4906 C 468.997 1.32983 -0.995225 0
M  V30 4907 O 470.182 1.42501 -1.26878 0
M  V30 4908 C 467.322 2.24772 -2.61861 0
M  V30 4909 C 466.435 1.94232 -3.85873 0
M  V30 4910 C 465.57 3.16518 -4.26603 0
M  V30 4911 C 464.609 2.81748 -5.43401 0
M  V30 4912 N 463.746 3.96626 -5.79338 0
M  V30 4913 H 468.586 0.516874 -2.93483 0
M  V30 4914 H 466.123 0.243544 -1.4507 0
M  V30 4915 H 468.081 2.99667 -2.90268 0
M  V30 4916 H 466.711 2.67423 -1.8079 0
M  V30 4917 H 465.763 1.09625 -3.64262 0
M  V30 4918 H 467.075 1.64616 -4.70853 0
M  V30 4919 H 466.229 3.99743 -4.56389 0
M  V30 4920 H 464.968 3.49286 -3.40368 0
M  V30 4921 H 463.973 1.96933 -5.1332 0
M  V30 4922 H 465.198 2.50207 -6.31327 0
M  V30 4923 H 463.144 4.29257 -4.96059 0
M  V30 4924 H 463.061 3.70598 -6.58933 0
M  V30 4925 H 464.329 4.80586 -6.13724 0
M  V30 4926 N 468.558 1.5553 0.254621 0
M  V30 4927 C 469.521 1.88872 1.29846 0
M  V30 4928 C 470.521 0.764591 1.41459 0
M  V30 4929 O 471.711 1.03265 1.40293 0
M  V30 4930 C 468.843 2.11032 2.67728 0
M  V30 4931 H 470.036 2.82201 1.01502 0
M  V30 4932 H 467.589 1.48303 0.493556 0
M  V30 4933 H 468.324 1.20146 3.01223 0
M  V30 4934 H 468.109 2.92895 2.60682 0
M  V30 4935 H 469.599 2.38038 3.43115 0
M  V30 4936 N 470.036 -0.519951 1.48776 0
M  V30 4937 C 471.264 -1.29971 1.60982 0
M  V30 4938 C 471.679 -1.86803 0.273885 0
M  V30 4939 O 471.036 -1.66904 -0.738193 0
M  V30 4940 C 471.087 -2.44346 2.66415 0
M  V30 4941 O 470.808 -1.89855 3.94825 0
M  V30 4942 C 472.309 -3.36014 2.89153 0
M  V30 4943 H 469.529 -0.394891 0.542496 0
M  V30 4944 H 472.073 -0.626214 1.94676 0
M  V30 4945 H 470.228 -3.07562 2.35552 0
M  V30 4946 H 470.642 -2.64798 4.5275 0
M  V30 4947 H 472.116 -4.12593 3.66703 0
M  V30 4948 H 472.593 -3.91859 1.98351 0
M  V30 4949 H 473.199 -2.78582 3.21359 0
M  V30 4950 N 471.514 -1.37532 -0.769588 0
M  V30 4951 C 472.76 -1.33057 -1.53048 0
M  V30 4952 C 473.093 0.0841865 -1.94017 0
M  V30 4953 O 472.368 1.04198 -1.64235 0
M  V30 4954 C 472.651 -2.27166 -2.79406 0
M  V30 4955 C 472.504 -3.77429 -2.44677 0
M  V30 4956 C 473.823 -2.19683 -3.81349 0
M  V30 4957 H 470.942 -0.484655 -0.555228 0
M  V30 4958 H 473.584 -1.68251 -0.882702 0
M  V30 4959 H 471.734 -1.97283 -3.34682 0
M  V30 4960 H 473.406 -4.17918 -1.953 0
M  V30 4961 H 471.649 -3.95892 -1.77346 0
M  V30 4962 H 472.32 -4.38716 -3.35011 0
M  V30 4963 H 474.796 -2.46029 -3.35573 0
M  V30 4964 H 473.672 -2.87668 -4.67481 0
M  V30 4965 H 473.933 -1.19045 -4.25771 0
M  V30 4966 N 472.992 0.995999 -1.22138 0
M  V30 4967 C 473.924 2.08745 -0.946485 0
M  V30 4968 C 474.937 1.62633 0.0737356 0
M  V30 4969 O 476.126 1.77782 -0.159886 0
M  V30 4970 C 473.226 3.36516 -0.401305 0
M  V30 4971 C 472.399 4.11672 -1.47801 0
M  V30 4972 C 471.458 5.17728 -0.940461 0
M  V30 4973 O 470.484 5.45482 -1.62596 0
M  V30 4974 N 471.686 5.80005 0.239723 0
M  V30 4975 H 474.451 2.32908 -1.88611 0
M  V30 4976 H 472.012 1.16152 -1.12785 0
M  V30 4977 H 474.004 4.04691 -0.0270837 0
M  V30 4978 H 472.574 3.0944 0.443354 0
M  V30 4979 H 471.794 3.38171 -2.02568 0
M  V30 4980 H 473.082 4.58657 -2.20253 0
M  V30 4981 H 472.48 5.5982 0.813518 0
M  V30 4982 H 471.037 6.4943 0.555361 0
M  V30 4983 N 474.47 1.03057 1.19235 0
M  V30 4984 C 475.695 0.74757 1.93458 0
M  V30 4985 C 476.12 -0.687648 1.7508 0
M  V30 4986 O 475.478 -1.47499 1.05422 0
M  V30 4987 C 475.526 1.10604 3.43219 0
M  V30 4988 O 474.63 0.225671 4.11782 0
M  V30 4989 H 473.971 0.276047 0.603899 0
M  V30 4990 H 476.501 1.3777 1.51263 0
M  V30 4991 H 476.511 1.06366 3.93891 0
M  V30 4992 H 475.186 2.15165 3.55917 0
M  V30 4993 H 473.763 0.326795 3.71465 0
M  V30 4994 N 475.948 -1.35272 0.808662 0
M  V30 4995 C 477.194 -1.99003 0.390581 0
M  V30 4996 C 477.527 -1.63999 -1.0401 0
M  V30 4997 O 476.802 -0.904368 -1.72196 0
M  V30 4998 C 477.085 -3.55454 0.576566 0
M  V30 4999 C 476.938 -4.00249 2.05233 0
M  V30 5000 C 478.257 -4.401 0.00354277 0
M  V30 5001 H 475.376 -0.722917 0.143388 0
M  V30 5002 H 478.018 -1.6039 1.01858 0
M  V30 5003 H 476.168 -3.88477 0.0419766 0
M  V30 5004 H 477.84 -3.77626 2.64946 0
M  V30 5005 H 476.083 -3.51082 2.54801 0
M  V30 5006 H 476.754 -5.0911 2.13333 0
M  V30 5007 H 479.23 -4.13548 0.460117 0
M  V30 5008 H 478.106 -5.48656 0.163575 0
M  V30 5009 H 478.367 -4.28444 -1.09032 0
M  V30 5010 N 477.426 -0.562348 -1.47226 0
M  V30 5011 C 478.356 0.170627 -2.32876 0
M  V30 5012 C 479.337 0.903748 -1.44106 0
M  V30 5013 O 480.522 0.883206 -1.72954 0
M  V30 5014 C 477.652 1.19786 -3.25989 0
M  V30 5015 C 476.606 0.580875 -4.2404 0
M  V30 5016 C 475.932 1.71311 -5.06514 0
M  V30 5017 C 477.232 -0.468714 -5.20193 0
M  V30 5018 H 478.926 -0.544441 -2.94408 0
M  V30 5019 H 476.472 -0.263271 -1.41573 0
M  V30 5020 H 478.425 1.71884 -3.84752 0
M  V30 5021 H 477.149 1.94294 -2.62521 0
M  V30 5022 H 475.808 0.0811538 -3.6651 0
M  V30 5023 H 475.456 2.44736 -4.39447 0
M  V30 5024 H 475.156 1.30604 -5.72902 0
M  V30 5025 H 476.68 2.23725 -5.68137 0
M  V30 5026 H 478.094 -0.0336028 -5.7329 0
M  V30 5027 H 476.491 -0.794957 -5.94811 0
M  V30 5028 H 477.561 -1.36269 -4.65359 0
M  V30 5029 N 478.904 1.54736 -0.299062 0
M  V30 5030 C 479.834 2.26409 0.571085 0
M  V30 5031 C 480.815 1.2629 1.13951 0
M  V30 5032 O 482 1.55059 1.16921 0
M  V30 5033 C 479.13 3.00338 1.74396 0
M  V30 5034 C 478.084 4.07588 1.30599 0
M  V30 5035 C 477.41 4.69222 2.56387 0
M  V30 5036 C 478.71 5.20455 0.438645 0
M  V30 5037 H 480.404 2.99388 -0.0266991 0
M  V30 5038 H 477.95 1.43993 -0.0142812 0
M  V30 5039 H 479.903 3.49198 2.35878 0
M  V30 5040 H 478.627 2.24934 2.36796 0
M  V30 5041 H 477.286 3.59575 0.71424 0
M  V30 5042 H 476.934 3.9046 3.17097 0
M  V30 5043 H 476.634 5.41653 2.27784 0
M  V30 5044 H 478.158 5.20844 3.18675 0
M  V30 5045 H 479.572 5.65221 0.959085 0
M  V30 5046 H 477.969 5.99594 0.246466 0
M  V30 5047 H 479.039 4.8192 -0.536738 0
M  V30 5048 N 480.382 0.0267497 1.57577 0
M  V30 5049 C 481.659 -0.690926 1.82991 0
M  V30 5050 C 482.039 -1.90471 0.910164 0
M  V30 5051 O 481.387 -2.28474 -0.0347985 0
M  V30 5052 C 481.597 -1.07139 3.32148 0
M  V30 5053 C 482.945 -1.46402 3.98562 0
M  V30 5054 O 483.969 -1.16443 3.36629 0
M  V30 5055 O 482.828 -2.02214 5.07712 0
M  V30 5056 H 479.922 -0.338747 0.75444 0
M  V30 5057 H 482.468 0.0542506 1.69613 0
M  V30 5058 H 481.24 -0.207394 3.9075 0
M  V30 5059 H 480.863 -1.87481 3.50623 0
M  V30 5060 N 481.861 -1.55662 -0.24637 0
M  V30 5061 C 483.086 -1.81914 -0.996093 0
M  V30 5062 C 483.511 -0.603875 -1.78143 0
M  V30 5063 O 482.869 0.447091 -1.75701 0
M  V30 5064 C 482.917 -3.05908 -1.90925 0
M  V30 5065 O 482.021 -2.82861 -3.00105 0
M  V30 5066 H 481.362 -0.600481 -0.283406 0
M  V30 5067 H 483.892 -2.02848 -0.267199 0
M  V30 5068 H 483.902 -3.35356 -2.3238 0
M  V30 5069 H 482.577 -3.93999 -1.33183 0
M  V30 5070 H 481.154 -2.64583 -2.62775 0
M  V30 5071 N 483.339 0.512053 -1.4905 0
M  V30 5072 C 484.302 1.59704 -1.64399 0
M  V30 5073 C 485.302 1.52285 -0.516317 0
M  V30 5074 O 486.492 1.55635 -0.782527 0
M  V30 5075 C 483.624 2.9935 -1.63102 0
M  V30 5076 H 484.817 1.47428 -2.61161 0
M  V30 5077 H 482.37 0.735469 -1.37915 0
M  V30 5078 H 483.105 3.17116 -0.678836 0
M  V30 5079 H 482.89 3.06144 -2.44986 0
M  V30 5080 H 484.38 3.782 -1.77072 0
M  V30 5081 N 484.817 1.37938 0.762283 0
M  V30 5082 C 486.065 1.33404 1.51815 0
M  V30 5083 C 486.386 -0.0780975 1.94844 0
M  V30 5084 O 485.656 -1.02405 1.67003 0
M  V30 5085 H 484.236 0.490839 0.563104 0
M  V30 5086 H 486.898 1.72527 0.906669 0
M  V30 5087 H 485.994 1.97926 2.41313 0
M  V30 5088 N 486.295 -0.989507 1.22664 0
M  V30 5089 C 487.242 -2.08024 0.999733 0
M  V30 5090 C 488.212 -1.65909 -0.0797047 0
M  V30 5091 O 489.397 -1.90669 0.0705715 0
M  V30 5092 C 486.537 -3.40067 0.587234 0
M  V30 5093 C 485.65 -3.95505 1.73781 0
M  V30 5094 C 484.785 -5.15722 1.27297 0
M  V30 5095 C 483.824 -5.63305 2.39488 0
M  V30 5096 N 482.961 -6.74758 1.94026 0
M  V30 5097 H 487.801 -2.26768 1.9334 0
M  V30 5098 H 485.338 -1.11171 0.963297 0
M  V30 5099 H 487.296 -4.15899 0.329227 0
M  V30 5100 H 485.926 -3.21314 -0.309426 0
M  V30 5101 H 484.978 -3.16513 2.11006 0
M  V30 5102 H 486.29 -4.26797 2.58158 0
M  V30 5103 H 485.444 -5.98854 0.972546 0
M  V30 5104 H 484.183 -4.86061 0.399445 0
M  V30 5105 H 483.188 -4.78759 2.70315 0
M  V30 5106 H 484.413 -5.94988 3.27362 0
M  V30 5107 H 482.359 -6.46874 1.09041 0
M  V30 5108 H 482.276 -7.05386 2.71968 0
M  V30 5109 H 483.544 -7.61387 1.67062 0
M  V30 5110 N 487.773 -1.03688 -1.18687 0
M  V30 5111 C 488.736 -0.629115 -2.20397 0
M  V30 5112 C 489.736 0.311495 -1.57754 0
M  V30 5113 O 490.926 0.0974107 -1.73927 0
M  V30 5114 C 488.058 0.0782231 -3.4081 0
M  V30 5115 H 489.251 -1.52915 -2.57987 0
M  V30 5116 H 486.804 -0.828988 -1.32505 0
M  V30 5117 H 487.539 0.992233 -3.08748 0
M  V30 5118 H 487.324 -0.597776 -3.87517 0
M  V30 5119 H 488.814 0.350156 -4.16129 0
M  V30 5120 N 489.251 1.34841 -0.815825 0
M  V30 5121 C 490.491 2.00321 -0.406297 0
M  V30 5122 C 490.855 1.63293 1.00992 0
M  V30 5123 O 492.056 2.21563 1.52195 0
M  V30 5124 C 490.327 3.52421 -0.594469 0
M  V30 5125 S 491.886 4.37926 -0.276735 0
M  V30 5126 H 488.704 0.694155 -0.153848 0
M  V30 5127 H 491.306 1.64263 -1.06009 0
M  V30 5128 H 490.01 3.76858 -1.625 0
M  V30 5129 H 489.541 3.9333 0.0743157 0
M  V30 5130 H 491.556 4.87743 0.912215 0
M  V30 5131 N 490.729 0.570148 1.46925 0
M  V30 5132 C 491.977 0.0508523 2.02036 0
M  V30 5133 C 492.298 -1.30885 1.44548 0
M  V30 5134 O 491.568 -1.85647 0.625453 0
M  V30 5135 H 490.148 0.0158088 0.746833 0
M  V30 5136 H 492.81 0.743086 1.80178 0
M  V30 5137 H 491.906 -0.027575 3.12088 0
M  V30 5138 N 492.207 -1.54576 0.307264 0
M  V30 5139 C 493.453 -2.0056 -0.300612 0
M  V30 5140 C 493.786 -1.1953 -1.53057 0
M  V30 5141 O 493.061 -0.27337 -1.92569 0
M  V30 5142 C 493.344 -3.54167 -0.650987 0
M  V30 5143 C 493.197 -4.45933 0.588539 0
M  V30 5144 C 494.516 -4.14645 -1.47506 0
M  V30 5145 H 491.635 -0.729075 -0.107788 0
M  V30 5146 H 494.277 -1.85286 0.420606 0
M  V30 5147 H 492.427 -3.67313 -1.26544 0
M  V30 5148 H 494.099 -4.44683 1.22697 0
M  V30 5149 H 492.342 -4.16274 1.22058 0
M  V30 5150 H 493.013 -5.51189 0.299153 0
M  V30 5151 H 495.489 -4.04973 -0.955821 0
M  V30 5152 H 494.365 -5.22269 -1.68899 0
M  V30 5153 H 494.626 -3.66921 -2.4662 0
M  V30 5154 N 493.685 -0.035106 -1.57561 0
M  V30 5155 C 494.91 0.655802 -1.96759 0
M  V30 5156 C 495.335 1.64523 -0.911809 0
M  V30 5157 O 494.693 1.80857 0.126673 0
M  V30 5158 C 494.741 1.33326 -3.35047 0
M  V30 5159 O 493.845 2.44866 -3.31835 0
M  V30 5160 H 493.186 0.171807 -0.641388 0
M  V30 5161 H 495.716 -0.0987369 -2.04362 0
M  V30 5162 H 495.726 1.68867 -3.71413 0
M  V30 5163 H 494.401 0.608033 -4.11431 0
M  V30 5164 H 492.978 2.11392 -3.07193 0
M  V30 5165 N 495.163 1.55791 0.238111 0
M  V30 5166 C 496.409 1.78297 0.966337 0
M  V30 5167 C 496.742 0.601903 1.84637 0
M  V30 5168 O 496.017 -0.399499 1.90353 0
M  V30 5169 C 496.3 3.10758 1.81939 0
M  V30 5170 C 496.153 4.39283 0.966958 0
M  V30 5171 C 497.472 3.39519 2.80027 0
M  V30 5172 H 494.591 0.648654 0.349882 0
M  V30 5173 H 497.233 1.88525 0.236253 0
M  V30 5174 H 495.383 3.02168 2.44185 0
M  V30 5175 H 497.055 4.59873 0.362514 0
M  V30 5176 H 495.298 4.32948 0.271669 0
M  V30 5177 H 495.969 5.28368 1.59784 0
M  V30 5178 H 498.445 3.48128 2.27917 0
M  V30 5179 H 497.321 4.33402 3.36829 0
M  V30 5180 H 497.582 2.60864 3.56934 0
M  V30 5181 N 496.642 -0.504142 1.49319 0
M  V30 5182 C 497.589 -1.60603 1.65756 0
M  V30 5183 C 498.559 -1.58425 0.499082 0
M  V30 5184 O 499.744 -1.76459 0.725728 0
M  V30 5185 C 496.884 -2.98764 1.72726 0
M  V30 5186 C 495.997 -3.10982 2.99857 0
M  V30 5187 C 495.132 -4.39857 2.97824 0
M  V30 5188 C 494.171 -4.45697 4.19548 0
M  V30 5189 N 493.308 -5.65995 4.15444 0
M  V30 5190 H 498.148 -1.45895 2.59843 0
M  V30 5191 H 495.685 -0.709891 1.28837 0
M  V30 5192 H 497.643 -3.78839 1.74747 0
M  V30 5193 H 496.273 -3.12183 0.821075 0
M  V30 5194 H 495.325 -2.23991 3.07461 0
M  V30 5195 H 496.637 -3.11157 3.89849 0
M  V30 5196 H 495.791 -5.2825 2.98391 0
M  V30 5197 H 494.53 -4.42242 2.05604 0
M  V30 5198 H 493.535 -3.55707 4.19229 0
M  V30 5199 H 494.76 -4.4503 5.12957 0
M  V30 5200 H 492.706 -5.69229 3.26059 0
M  V30 5201 H 492.623 -5.67773 4.99169 0
M  V30 5202 H 493.891 -6.56604 4.20109 0
M  V30 5203 N 498.12 -1.38341 -0.754957 0
M  V30 5204 C 499.067 -1.3546 -1.86867 0
M  V30 5205 C 500.037 -0.217369 -1.64672 0
M  V30 5206 O 501.222 -0.409383 -1.86356 0
M  V30 5207 C 498.362 -1.18413 -3.24149 0
M  V30 5208 C 497.475 -2.41511 -3.58185 0
M  V30 5209 C 496.61 -2.17205 -4.84763 0
M  V30 5210 C 495.649 -3.36081 -5.11582 0
M  V30 5211 N 494.786 -3.11219 -6.29354 0
M  V30 5212 H 499.626 -2.30672 -1.88664 0
M  V30 5213 H 497.163 -1.14607 -0.922154 0
M  V30 5214 H 499.121 -1.06545 -4.03366 0
M  V30 5215 H 497.751 -0.268397 -3.21682 0
M  V30 5216 H 496.803 -2.64056 -2.73822 0
M  V30 5217 H 498.115 -3.30115 -3.73932 0
M  V30 5218 H 497.269 -2.02465 -5.7192 0
M  V30 5219 H 496.008 -1.25964 -4.71152 0
M  V30 5220 H 495.013 -3.51341 -4.22894 0
M  V30 5221 H 496.238 -4.28196 -5.27091 0
M  V30 5222 H 494.184 -2.22624 -6.17069 0
M  V30 5223 H 494.101 -3.93373 -6.45596 0
M  V30 5224 H 495.369 -3.00132 -7.19403 0
M  V30 5225 N 499.598 0.982988 -1.23187 0
M  V30 5226 C 500.846 1.72052 -1.06031 0
M  V30 5227 C 501.167 1.90769 0.404019 0
M  V30 5228 O 500.437 1.47446 1.28982 0
M  V30 5229 H 499.017 0.637499 -0.389363 0
M  V30 5230 H 501.679 1.18338 -1.54862 0
M  V30 5231 H 500.775 2.7111 -1.54615 0
M  V30 5232 N 501.076 1.04316 1.18135 0
M  V30 5233 C 502.026 0.606731 2.19779 0
M  V30 5234 C 503.01 -0.352144 1.56999 0
M  V30 5235 O 504.202 -0.170795 1.76174 0
M  V30 5236 C 501.331 -0.0262443 3.4329 0
M  V30 5237 C 500.417 0.955928 4.13186 0
M  V30 5238 N 500.808 2.12395 4.59045 0
M  V30 5239 C 499.106 0.782473 4.39082 0
M  V30 5240 C 499.807 2.74458 5.12882 0
M  V30 5241 N 498.783 2.02316 5.04548 0
M  V30 5242 H 502.585 1.49679 2.5293 0
M  V30 5243 H 500.099 0.912088 1.34368 0
M  V30 5244 H 502.096 -0.356617 4.15372 0
M  V30 5245 H 500.756 -0.911811 3.11635 0
M  V30 5246 H 501.767 2.50272 4.53414 0
M  V30 5247 H 498.444 -0.0527906 4.17467 0
M  V30 5248 H 499.834 3.73459 5.5855 0
M  V30 5249 N 502.554 -1.34406 0.822964 0
M  V30 5250 C 503.464 -2.33298 0.246838 0
M  V30 5251 C 504.48 -1.62625 -0.618797 0
M  V30 5252 O 505.656 -1.94391 -0.526685 0
M  V30 5253 C 502.721 -3.41785 -0.581731 0
M  V30 5254 C 501.782 -4.28206 0.306309 0
M  V30 5255 C 501.015 -5.31512 -0.48281 0
M  V30 5256 O 501.238 -5.43973 -1.71607 0
M  V30 5257 O 500.172 -6.01749 0.134884 0
M  V30 5258 H 503.998 -2.84401 1.06534 0
M  V30 5259 H 501.583 -1.37466 0.585108 0
M  V30 5260 H 503.465 -4.08028 -1.05313 0
M  V30 5261 H 502.14 -2.92925 -1.37756 0
M  V30 5262 H 501.047 -3.64885 0.825199 0
M  V30 5263 H 502.38 -4.80507 1.06649 0
M  V30 5264 N 504.032 -0.577932 -1.46621 0
M  V30 5265 C 504.962 0.145917 -2.33044 0
M  V30 5266 C 505.943 0.888412 -1.45056 0
M  V30 5267 O 507.128 0.864812 -1.73881 0
M  V30 5268 C 504.258 1.16322 -3.27241 0
M  V30 5269 C 503.212 0.535868 -4.24632 0
M  V30 5270 C 502.538 1.65929 -5.08303 0
M  V30 5271 C 503.838 -0.523861 -5.19666 0
M  V30 5272 H 505.532 -0.575636 -2.93814 0
M  V30 5273 H 503.078 -0.278272 -1.41286 0
M  V30 5274 H 505.031 1.67793 -3.86553 0
M  V30 5275 H 503.755 1.91498 -2.64567 0
M  V30 5276 H 502.414 0.0422759 -3.66576 0
M  V30 5277 H 502.062 2.40061 -4.42018 0
M  V30 5278 H 501.762 1.2452 -5.74255 0
M  V30 5279 H 503.286 2.17686 -5.70478 0
M  V30 5280 H 504.7 -0.0944059 -5.73222 0
M  V30 5281 H 503.097 -0.858 -5.93935 0
M  V30 5282 H 504.167 -1.41197 -4.63887 0
M  V30 5283 N 505.51 1.54411 -0.315457 0
M  V30 5284 C 506.756 2.00716 0.289972 0
M  V30 5285 C 507.089 1.2034 1.5242 0
M  V30 5286 O 506.364 0.283579 1.92422 0
M  V30 5287 C 506.647 3.54507 0.632196 0
M  V30 5288 C 506.5 4.45615 -0.61218 0
M  V30 5289 C 507.819 4.15421 1.45305 0
M  V30 5290 H 504.938 0.729637 0.10392 0
M  V30 5291 H 507.58 1.8506 -0.430427 0
M  V30 5292 H 505.73 3.67979 1.24595 0
M  V30 5293 H 507.402 4.44026 -1.25053 0
M  V30 5294 H 505.645 4.15621 -1.24264 0
M  V30 5295 H 506.316 5.51022 -0.328379 0
M  V30 5296 H 508.792 4.05474 0.934331 0
M  V30 5297 H 507.668 5.23157 1.66127 0
M  V30 5298 H 507.929 3.68223 2.44671 0
M  V30 5299 N 506.988 0.0434614 1.5754 0
M  V30 5300 C 507.936 -0.951465 2.1225 0
M  V30 5301 C 508.93 -1.3274 1.05245 0
M  V30 5302 O 510.136 -1.30795 1.23663 0
M  V30 5303 H 506.511 -0.324667 0.678303 0
M  V30 5304 H 508.482 -0.464855 2.94757 0
M  V30 5305 C 507.231 -2.21972 2.67626 0
M  V30 5306 H 506.554 -1.93923 3.4962 0
M  V30 5307 H 507.994 -2.89765 3.09536 0
M  V30 5308 C 506.453 -2.95919 1.61038 0
M  V30 5309 O 506.983 -3.8857 1.01862 0
M  V30 5310 N 505.189 -2.58511 1.32741 0
M  V30 5311 H 504.736 -1.83244 1.81051 0
M  V30 5312 H 504.694 -3.08296 0.616531 0
M  V30 5313 N 508.466 -1.55915 -0.229846 0
M  V30 5314 C 509.715 -1.77742 -0.953455 0
M  V30 5315 C 510.028 -0.610524 -1.85828 0
M  V30 5316 O 511.234 -0.712219 -2.61992 0
M  V30 5317 C 509.69 -3.14738 -1.74551 0
M  V30 5318 C 509.298 -4.39126 -0.887242 0
M  V30 5319 C 511.042 -3.45895 -2.46084 0
M  V30 5320 C 508.949 -5.67149 -1.67617 0
M  V30 5321 H 507.879 -0.662648 -0.359741 0
M  V30 5322 H 510.53 -1.82322 -0.207576 0
M  V30 5323 H 508.912 -3.04311 -2.53399 0
M  V30 5324 H 510.086 -4.60588 -0.139892 0
M  V30 5325 H 508.401 -4.15427 -0.284443 0
M  V30 5326 H 510.998 -4.38767 -3.05594 0
M  V30 5327 H 511.341 -2.68007 -3.18556 0
M  V30 5328 H 511.874 -3.57614 -1.74233 0
M  V30 5329 H 508.613 -6.47906 -0.994881 0
M  V30 5330 H 508.133 -5.49763 -2.39836 0
M  V30 5331 H 509.812 -6.07025 -2.23898 0
M  V30 5332 N 509.944 0.496216 -1.49584 0
M  V30 5333 C 511.174 1.27209 -1.62793 0
M  V30 5334 C 511.582 1.86799 -0.300476 0
M  V30 5335 O 510.925 1.68802 0.724674 0
M  V30 5336 C 510.987 2.43812 -2.64189 0
M  V30 5337 C 510.651 2.05055 -4.08414 0
M  V30 5338 C 511.648 1.58752 -4.9507 0
M  V30 5339 C 509.333 2.14543 -4.54177 0
M  V30 5340 C 511.327 1.22448 -6.25528 0
M  V30 5341 C 509.014 1.77851 -5.84647 0
M  V30 5342 C 510.012 1.31878 -6.70147 0
M  V30 5343 O 509.7 0.956834 -7.98185 0
M  V30 5344 H 509.432 0.391848 -0.550846 0
M  V30 5345 H 511.986 0.601712 -1.96389 0
M  V30 5346 H 510.216 3.13941 -2.25783 0
M  V30 5347 H 511.905 3.05829 -2.66877 0
M  V30 5348 H 512.671 1.50863 -4.60939 0
M  V30 5349 H 508.55 2.49277 -3.87791 0
M  V30 5350 H 512.094 0.864933 -6.92217 0
M  V30 5351 H 507.991 1.8539 -6.18305 0
M  V30 5352 H 508.759 1.08789 -8.11238 0
M  V30 5353 N 511.423 1.38739 0.74761 0
M  V30 5354 C 512.663 1.36695 1.51966 0
M  V30 5355 C 513.027 -0.0411889 1.91956 0
M  V30 5356 O 514.228 -0.186543 2.68152 0
M  V30 5357 C 512.499 2.30119 2.73459 0
M  V30 5358 S 514.058 2.4615 3.63257 0
M  V30 5359 H 510.876 0.484929 0.519966 0
M  V30 5360 H 513.478 1.7472 0.877104 0
M  V30 5361 H 512.182 3.31312 2.422 0
M  V30 5362 H 511.713 1.93265 3.42655 0
M  V30 5363 H 513.728 1.69001 4.66533 0
M  V30 5364 N 512.901 -0.976442 1.23707 0
M  V30 5365 C 514.312 -1.53284 1.06587 0
M  V30 5366 C 514.663 -1.92765 -0.365526 0
M  V30 5367 O 513.788 -1.7645 -1.25277 0
M  V30 5368 C 514.383 -2.78548 1.92864 0
M  V30 5369 C 512.942 -3.30574 1.79994 0
M  V30 5370 C 512.089 -2.03538 1.88328 0
M  V30 5371 H 515.04 -0.795692 1.37311 0
M  V30 5372 H 515.061 -3.5155 1.45577 0
M  V30 5373 H 514.573 -2.49782 2.97037 0
M  V30 5374 H 512.674 -3.64211 0.786202 0
M  V30 5375 H 512.787 -4.00065 2.636 0
M  V30 5376 H 511.151 -2.17853 1.31954 0
M  V30 5377 H 511.934 -1.77149 2.94063 0
M  V30 5378 N 514.379 -1.04941 -1.1758 0
M  V30 5379 C 515.628 -0.753124 -1.87112 0
M  V30 5380 C 515.941 0.722507 -1.81767 0
M  V30 5381 O 517.147 1.13265 -2.46746 0
M  V30 5382 C 515.603 -1.29695 -3.35719 0
M  V30 5383 C 515.211 -2.80184 -3.49572 0
M  V30 5384 C 516.955 -1.07759 -4.10595 0
M  V30 5385 C 514.862 -3.2788 -4.92187 0
M  V30 5386 H 513.792 -0.278034 -0.700866 0
M  V30 5387 H 516.443 -1.26637 -1.32798 0
M  V30 5388 H 514.825 -0.711522 -3.89555 0
M  V30 5389 H 515.999 -3.44561 -3.05965 0
M  V30 5390 H 514.314 -3.00632 -2.88113 0
M  V30 5391 H 516.911 -1.40899 -5.15802 0
M  V30 5392 H 517.254 -0.0152302 -4.16297 0
M  V30 5393 H 517.787 -1.62809 -3.62957 0
M  V30 5394 H 514.526 -4.33535 -4.91658 0
M  V30 5395 H 514.046 -2.68245 -5.36475 0
M  V30 5396 H 515.725 -3.22412 -5.60945 0
M  V30 5397 N 515.857 1.33968 -0.830081 0
M  V30 5398 C 517.103 1.98357 -0.422191 0
M  V30 5399 C 517.436 1.65633 1.01387 0
M  V30 5400 O 516.711 0.931648 1.70735 0
M  V30 5401 C 516.994 3.54492 -0.633043 0
M  V30 5402 C 516.847 3.96934 -2.11574 0
M  V30 5403 C 518.166 4.40039 -0.0735584 0
M  V30 5404 H 515.285 0.720544 -0.154871 0
M  V30 5405 H 517.927 1.58749 -1.04397 0
M  V30 5406 H 516.077 3.88361 -0.103775 0
M  V30 5407 H 517.749 3.73363 -2.7092 0
M  V30 5408 H 515.992 3.46984 -2.60354 0
M  V30 5409 H 516.663 5.05651 -2.21406 0
M  V30 5410 H 519.139 4.12764 -0.52585 0
M  V30 5411 H 518.015 5.48327 -0.250841 0
M  V30 5412 H 518.276 4.30124 1.02202 0
M  V30 5413 N 517.335 0.585699 1.46312 0
M  V30 5414 C 518.581 0.0725284 2.0267 0
M  V30 5415 C 518.914 -1.28523 1.45586 0
M  V30 5416 O 518.189 -1.84283 0.622101 0
M  V30 5417 C 518.472 0.0099788 3.60099 0
M  V30 5418 C 518.325 1.39685 4.27561 0
M  V30 5419 C 519.644 -0.689117 4.34671 0
M  V30 5420 H 516.763 0.0278307 0.736474 0
M  V30 5421 H 519.405 0.753472 1.74421 0
M  V30 5422 H 517.555 -0.56992 3.84297 0
M  V30 5423 H 519.227 2.02215 4.14617 0
M  V30 5424 H 517.47 1.96374 3.86807 0
M  V30 5425 H 518.141 1.30553 5.36339 0
M  V30 5426 H 520.617 -0.196446 4.15636 0
M  V30 5427 H 519.493 -0.701921 5.44393 0
M  V30 5428 H 519.754 -1.75101 4.05946 0
M  V30 5429 N 518.813 -1.54241 0.323641 0
M  V30 5430 C 520.038 -2.05452 -0.283605 0
M  V30 5431 C 520.463 -1.19823 -1.44997 0
M  V30 5432 O 519.821 -0.207358 -1.8011 0
M  V30 5433 C 519.869 -3.53823 -0.695795 0
M  V30 5434 O 518.973 -3.71134 -1.79815 0
M  V30 5435 H 518.314 -0.662024 -0.0511917 0
M  V30 5436 H 520.844 -1.99079 0.472073 0
M  V30 5437 H 520.854 -3.96094 -0.978434 0
M  V30 5438 H 519.529 -4.15602 0.157287 0
M  V30 5439 H 518.106 -3.40768 -1.51431 0
M  V30 5440 N 520.291 -0.0518155 -1.57515 0
M  V30 5441 C 521.239 0.940195 -2.12751 0
M  V30 5442 C 522.233 1.3218 -1.05948 0
M  V30 5443 O 523.439 1.30138 -1.24355 0
M  V30 5444 H 519.814 0.321066 -0.680015 0
M  V30 5445 H 521.785 0.449217 -2.94999 0
M  V30 5446 C 520.534 2.2055 -2.68799 0
M  V30 5447 H 519.857 1.92066 -3.50643 0
M  V30 5448 H 521.297 2.88119 -3.11068 0
M  V30 5449 C 519.756 2.95061 -1.62605 0
M  V30 5450 O 520.286 3.88025 -1.03921 0
M  V30 5451 N 518.492 2.57804 -1.34111 0
M  V30 5452 H 518.039 1.82281 -1.8202 0
M  V30 5453 H 517.997 3.07964 -0.632872 0
M  V30 5454 N 521.769 1.56035 0.221574 0
M  V30 5455 C 522.732 1.91584 1.2581 0
M  V30 5456 C 523.732 0.794425 1.39805 0
M  V30 5457 O 524.922 1.06217 1.38071 0
M  V30 5458 C 522.054 2.16663 2.63192 0
M  V30 5459 H 523.247 2.8429 0.954935 0
M  V30 5460 H 520.8 1.49316 0.461988 0
M  V30 5461 H 521.535 1.26508 2.98607 0
M  V30 5462 H 521.32 2.98358 2.5441 0
M  V30 5463 H 522.81 2.45262 3.37988 0
M  V30 5464 N 523.247 -0.488276 1.49845 0
M  V30 5465 C 524.495 -1.23911 1.59657 0
M  V30 5466 C 524.816 -1.92816 0.291005 0
M  V30 5467 O 524.086 -1.83328 -0.690485 0
M  V30 5468 H 522.666 -0.460357 0.588286 0
M  V30 5469 H 525.328 -0.564794 1.86537 0
M  V30 5470 H 524.424 -1.99625 2.39909 0
M  V30 5471 N 524.725 -1.39134 -0.740242 0
M  V30 5472 C 525.655 -1.40165 -1.86751 0
M  V30 5473 C 526.636 -0.265708 -1.68012 0
M  V30 5474 O 527.821 -0.47076 -1.88408 0
M  V30 5475 C 524.951 -1.2392 -3.2444 0
M  V30 5476 C 523.905 -2.34858 -3.57807 0
M  V30 5477 C 523.231 -2.03707 -4.94376 0
M  V30 5478 C 524.531 -3.77159 -3.61315 0
M  V30 5479 H 526.225 -2.345 -1.86145 0
M  V30 5480 H 523.771 -1.12875 -0.89416 0
M  V30 5481 H 525.724 -1.23263 -4.02969 0
M  V30 5482 H 524.448 -0.26051 -3.25559 0
M  V30 5483 H 523.107 -2.34723 -2.81604 0
M  V30 5484 H 522.755 -1.04289 -4.9207 0
M  V30 5485 H 522.455 -2.78016 -5.17669 0
M  V30 5486 H 523.979 -2.04691 -5.75268 0
M  V30 5487 H 525.393 -3.79252 -4.29931 0
M  V30 5488 H 523.79 -4.50784 -3.96124 0
M  V30 5489 H 524.86 -4.08513 -2.61238 0
M  V30 5490 N 526.204 0.969867 -1.24223 0
M  V30 5491 C 527.451 1.71256 -1.08063 0
M  V30 5492 C 527.779 1.90734 0.380872 0
M  V30 5493 O 527.034 1.46469 1.29789 0
M  V30 5494 C 527.333 3.10883 -1.76314 0
M  V30 5495 C 526.999 3.11252 -3.26241 0
M  V30 5496 C 525.661 3.1106 -3.67144 0
M  V30 5497 C 528.013 3.05751 -4.22097 0
M  V30 5498 C 525.341 3.03097 -5.02344 0
M  V30 5499 C 527.693 2.9933 -5.57301 0
M  V30 5500 C 526.357 2.97466 -5.97554 0
M  V30 5501 H 525.627 0.62667 -0.395431 0
M  V30 5502 H 528.274 1.13422 -1.54297 0
M  V30 5503 H 526.579 3.72168 -1.22468 0
M  V30 5504 H 528.276 3.67138 -1.61277 0
M  V30 5505 H 524.866 3.12165 -2.93685 0
M  V30 5506 H 529.05 3.05031 -3.91497 0
M  V30 5507 H 524.306 3.00013 -5.32731 0
M  V30 5508 H 528.48 2.94033 -6.31283 0
M  V30 5509 H 526.107 2.91051 -7.02277 0
M  V30 5510 N 527.682 1.05563 1.17022 0
M  V30 5511 C 528.63 0.653887 2.2322 0
M  V30 5512 C 529.624 -0.326642 1.66221 0
M  V30 5513 O 530.83 -0.192301 1.7897 0
M  V30 5514 H 527.205 0.193297 0.726733 0
M  V30 5515 H 529.176 1.5596 2.54399 0
M  V30 5516 C 527.925 0.0485434 3.47666 0
M  V30 5517 H 527.248 0.79413 3.91834 0
M  V30 5518 H 528.688 -0.195133 4.23551 0
M  V30 5519 C 527.147 -1.20583 3.14581 0
M  V30 5520 O 527.677 -2.29475 3.29703 0
M  V30 5521 N 525.883 -1.10493 2.68774 0
M  V30 5522 H 525.43 -0.218795 2.56669 0
M  V30 5523 H 525.388 -1.94507 2.47011 0
M  V30 5524 N 529.16 -1.33526 0.837174 0
M  V30 5525 C 530.388 -2.02047 0.445494 0
M  V30 5526 C 530.803 -1.62995 -0.952788 0
M  V30 5527 O 530.16 -0.842447 -1.61892 0
M  V30 5528 C 530.211 -3.57221 0.554577 0
M  V30 5529 O 529.932 -3.94863 1.89776 0
M  V30 5530 C 531.433 -4.43012 0.159634 0
M  V30 5531 H 528.653 -0.647221 0.177048 0
M  V30 5532 H 531.197 -1.70492 1.12928 0
M  V30 5533 H 529.352 -3.87315 -0.0812781 0
M  V30 5534 H 529.766 -4.89569 1.88208 0
M  V30 5535 H 531.24 -5.51253 0.28701 0
M  V30 5536 H 531.717 -4.29916 -0.898289 0
M  V30 5537 H 532.323 -4.18274 0.769855 0
M  V30 5538 N 530.638 -0.59345 -1.46 0
M  V30 5539 C 531.868 -0.0889642 -2.06408 0
M  V30 5540 C 532.276 1.22597 -1.44106 0
M  V30 5541 O 531.619 1.75448 -0.544398 0
M  V30 5542 C 531.681 0.139902 -3.59228 0
M  V30 5543 C 531.345 -1.09107 -4.43784 0
M  V30 5544 C 532.342 -2.00577 -4.79651 0
M  V30 5545 C 530.027 -1.31593 -4.84756 0
M  V30 5546 C 532.021 -3.12873 -5.55328 0
M  V30 5547 C 529.708 -2.44192 -5.60191 0
M  V30 5548 C 530.706 -3.34661 -5.95392 0
M  V30 5549 O 530.394 -4.45302 -6.69299 0
M  V30 5550 H 530.126 -0.0594613 -0.67338 0
M  V30 5551 H 532.68 -0.817 -1.88452 0
M  V30 5552 H 530.91 0.922672 -3.75531 0
M  V30 5553 H 532.599 0.594228 -4.01527 0
M  V30 5554 H 533.365 -1.84425 -4.48567 0
M  V30 5555 H 529.244 -0.620801 -4.56801 0
M  V30 5556 H 532.788 -3.83511 -5.82722 0
M  V30 5557 H 528.685 -2.60303 -5.90688 0
M  V30 5558 H 529.453 -4.43805 -6.87735 0
M  V30 5559 N 532.116 1.54067 -0.331816 0
M  V30 5560 C 533.026 2.28322 0.539104 0
M  V30 5561 C 534.042 1.32985 1.1221 0
M  V30 5562 O 535.218 1.6601 1.1403 0
M  V30 5563 C 532.283 3.03277 1.68 0
M  V30 5564 C 531.344 4.14216 1.12798 0
M  V30 5565 C 530.577 4.85588 2.2145 0
M  V30 5566 O 530.8 4.56536 3.41952 0
M  V30 5567 O 529.734 5.72309 1.86404 0
M  V30 5568 H 533.56 3.03632 -0.0641692 0
M  V30 5569 H 531.145 1.49083 -0.0972365 0
M  V30 5570 H 533.027 3.50189 2.34405 0
M  V30 5571 H 531.702 2.30834 2.2693 0
M  V30 5572 H 530.609 3.71635 0.428782 0
M  V30 5573 H 531.942 4.88727 0.583698 0
M  V30 5574 N 533.594 0.0601682 1.57485 0
M  V30 5575 C 534.544 -0.920969 2.08572 0
M  V30 5576 C 535.528 -1.26617 0.992827 0
M  V30 5577 O 536.72 -1.24708 1.25606 0
M  V30 5578 C 533.849 -2.19267 2.64153 0
M  V30 5579 C 532.935 -1.87447 3.80427 0
M  V30 5580 N 533.326 -1.26025 4.89848 0
M  V30 5581 C 531.624 -2.17265 3.89502 0
M  V30 5582 C 532.325 -1.12036 5.70809 0
M  V30 5583 N 531.301 -1.62624 5.18705 0
M  V30 5584 H 535.103 -0.441561 2.90564 0
M  V30 5585 H 532.617 -0.144043 1.6176 0
M  V30 5586 H 534.614 -2.90462 2.99061 0
M  V30 5587 H 533.274 -2.67806 1.83603 0
M  V30 5588 H 534.285 -0.931336 5.09457 0
M  V30 5589 H 530.962 -2.68262 3.19909 0
M  V30 5590 H 532.352 -0.642783 6.68818 0
M  V30 5591 N 535.072 -1.5615 -0.213296 0
M  V30 5592 C 536.002 -1.96109 -1.26742 0
M  V30 5593 C 536.983 -0.830448 -1.48451 0
M  V30 5594 O 538.168 -1.09339 -1.60495 0
M  V30 5595 C 535.298 -2.28492 -2.61551 0
M  V30 5596 C 534.252 -3.44124 -2.54485 0
M  V30 5597 C 533.578 -3.62134 -3.93399 0
M  V30 5598 C 534.878 -4.78855 -2.08556 0
M  V30 5599 H 536.572 -2.84412 -0.935434 0
M  V30 5600 H 534.118 -1.36836 -0.44854 0
M  V30 5601 H 536.071 -2.55039 -3.3546 0
M  V30 5602 H 534.795 -1.37052 -2.96453 0
M  V30 5603 H 533.454 -3.17639 -1.83033 0
M  V30 5604 H 533.102 -2.68055 -4.25623 0
M  V30 5605 H 532.802 -4.39913 -3.89551 0
M  V30 5606 H 534.326 -3.91038 -4.68958 0
M  V30 5607 H 535.74 -5.04552 -2.72213 0
M  V30 5608 H 534.137 -5.59975 -2.1575 0
M  V30 5609 H 535.207 -4.73657 -1.03811 0
M  V30 5610 N 536.55 0.480323 -1.50102 0
M  V30 5611 C 537.48 1.58769 -1.71215 0
M  V30 5612 C 538.461 1.60583 -0.560997 0
M  V30 5613 O 539.646 1.76996 -0.799127 0
M  V30 5614 C 536.776 2.97148 -1.79778 0
M  V30 5615 C 535.73 3.10201 -2.94888 0
M  V30 5616 C 535.056 4.50137 -2.88584 0
M  V30 5617 C 536.356 2.88283 -4.35534 0
M  V30 5618 H 538.05 1.41354 -2.6393 0
M  V30 5619 H 535.596 0.678591 -1.27008 0
M  V30 5620 H 537.549 3.74536 -1.93133 0
M  V30 5621 H 536.273 3.15699 -0.836772 0
M  V30 5622 H 534.932 2.35244 -2.81169 0
M  V30 5623 H 534.58 4.65593 -1.90349 0
M  V30 5624 H 534.28 4.59808 -3.65856 0
M  V30 5625 H 535.804 5.29558 -3.03976 0
M  V30 5626 H 537.218 3.55427 -4.49827 0
M  V30 5627 H 535.615 3.09408 -5.14186 0
M  V30 5628 H 536.685 1.84219 -4.48544 0
M  V30 5629 N 538.028 1.39524 0.732853 0
M  V30 5630 C 539.439 1.32905 1.31122 0
M  V30 5631 C 539.79 -0.00558708 1.96199 0
M  V30 5632 O 538.915 -0.907706 1.96443 0
M  V30 5633 C 539.51 2.40704 2.38426 0
M  V30 5634 C 538.069 2.37599 2.91931 0
M  V30 5635 C 537.216 2.2248 1.65523 0
M  V30 5636 H 540.167 1.49581 0.530207 0
M  V30 5637 H 540.188 2.07616 3.18867 0
M  V30 5638 H 539.7 3.37829 1.91033 0
M  V30 5639 H 537.801 1.44119 3.43599 0
M  V30 5640 H 537.914 3.32538 3.44899 0
M  V30 5641 H 536.278 1.69691 1.8994 0
M  V30 5642 H 537.061 3.21577 1.20178 0
M  V30 5643 N 539.506 -0.963266 1.24736 0
M  V30 5644 C 540.754 -1.70343 1.08755 0
M  V30 5645 C 541.075 -1.91387 -0.373619 0
M  V30 5646 O 540.345 -1.4948 -1.2662 0
M  V30 5647 H 538.925 -0.631224 0.399456 0
M  V30 5648 H 541.587 -1.15859 1.56725 0
M  V30 5649 H 540.683 -2.68616 1.58909 0
M  V30 5650 N 540.985 -1.06182 -1.16461 0
M  V30 5651 C 541.933 -0.665716 -2.2287 0
M  V30 5652 C 542.927 0.317822 -1.66392 0
M  V30 5653 O 544.133 0.182807 -1.79069 0
M  V30 5654 H 540.508 -0.197148 -0.725697 0
M  V30 5655 H 542.479 -1.57307 -2.53569 0
M  V30 5656 C 541.228 -0.0669803 -3.47635 0
M  V30 5657 H 540.551 -0.814899 -3.91407 0
M  V30 5658 H 541.991 0.172669 -4.23648 0
M  V30 5659 C 540.45 1.18913 -3.15216 0
M  V30 5660 O 540.98 2.27723 -3.30916 0
M  V30 5661 N 539.186 1.09066 -2.69357 0
M  V30 5662 H 538.733 0.20518 -2.56782 0
M  V30 5663 H 538.691 1.93195 -2.48039 0
M  V30 5664 N 542.463 1.3308 -0.844243 0
M  V30 5665 C 543.426 2.27403 -0.286485 0
M  V30 5666 C 544.426 1.51179 0.547872 0
M  V30 5667 O 545.616 1.70421 0.360886 0
M  V30 5668 C 542.748 3.35653 0.595813 0
M  V30 5669 H 543.941 2.78248 -1.11885 0
M  V30 5670 H 541.494 1.43574 -0.617749 0
M  V30 5671 H 542.229 2.90058 1.4504 0
M  V30 5672 H 542.014 3.921 -0.00125994 0
M  V30 5673 H 543.504 4.05958 0.979168 0
M  V30 5674 N 543.941 0.601185 1.45683 0
M  V30 5675 C 545.357 0.264315 1.57396 0
M  V30 5676 C 545.557 -1.23324 1.59353 0
M  V30 5677 O 544.613 -2.01594 1.52039 0
M  V30 5678 C 545.926 0.929839 2.85962 0
M  V30 5679 C 547.474 0.905156 2.99626 0
M  V30 5680 C 547.949 1.55057 4.30954 0
M  V30 5681 N 549.44 1.51576 4.37697 0
M  V30 5682 C 550.175 1.98436 5.37969 0
M  V30 5683 N 549.671 2.53352 6.44813 0
M  V30 5684 N 551.464 1.89242 5.29286 0
M  V30 5685 H 543.615 1.57363 1.42656 0
M  V30 5686 H 545.878 0.658831 0.681649 0
M  V30 5687 H 545.584 1.98404 2.90394 0
M  V30 5688 H 545.458 0.449224 3.74515 0
M  V30 5689 H 547.845 -0.14048 2.94765 0
M  V30 5690 H 547.926 1.42397 2.12501 0
M  V30 5691 H 547.57 2.5955 4.36573 0
M  V30 5692 H 547.5 1.00682 5.16886 0
M  V30 5693 H 549.991 1.11452 3.61091 0
M  V30 5694 H 550.304 2.86918 7.17564 0
M  V30 5695 H 548.649 2.57388 6.45582 0
M  V30 5696 H 551.84 1.46083 4.44722 0
M  V30 5697 H 552.013 2.26075 6.07284 0
M  V30 5698 N 545.419 -1.53889 0.339982 0
M  V30 5699 C 546.659 -2.02765 -0.258011 0
M  V30 5700 C 547.023 -1.22249 -1.48051 0
M  V30 5701 O 548.224 -1.61007 -2.15245 0
M  V30 5702 C 546.495 -3.5286 -0.567872 0
M  V30 5703 S 548.054 -4.23647 -1.14318 0
M  V30 5704 H 544.872 -0.706814 -0.0770389 0
M  V30 5705 H 547.474 -1.89594 0.476917 0
M  V30 5706 H 546.178 -4.09073 0.329745 0
M  V30 5707 H 545.709 -3.70144 -1.33256 0
M  V30 5708 H 547.724 -4.32676 -2.42911 0
M  V30 5709 N 546.897 -0.0685191 -1.57451 0
M  V30 5710 C 547.827 0.89747 -2.15564 0
M  V30 5711 C 548.808 1.31266 -1.08181 0
M  V30 5712 O 549.993 1.38429 -1.36202 0
M  V30 5713 C 547.123 2.16623 -2.71463 0
M  V30 5714 C 546.077 1.89054 -3.83982 0
M  V30 5715 C 545.403 3.22532 -4.26471 0
M  V30 5716 C 546.703 1.1984 -5.08366 0
M  V30 5717 H 548.397 0.413373 -2.96533 0
M  V30 5718 H 545.943 0.197391 -1.42641 0
M  V30 5719 H 547.896 2.84614 -3.10761 0
M  V30 5720 H 546.62 2.67269 -1.8771 0
M  V30 5721 H 545.279 1.23469 -3.45183 0
M  V30 5722 H 544.927 3.71013 -3.39644 0
M  V30 5723 H 544.627 3.04879 -5.02317 0
M  V30 5724 H 546.151 3.91727 -4.68383 0
M  V30 5725 H 547.565 1.77896 -5.45001 0
M  V30 5726 H 545.962 1.12456 -5.89469 0
M  V30 5727 H 547.032 0.176996 -4.84577 0
M  V30 5728 N 548.375 1.56261 0.205012 0
M  V30 5729 C 549.786 1.70056 0.770574 0
M  V30 5730 C 550.137 0.673398 1.84282 0
M  V30 5731 O 549.262 -0.172196 2.15714 0
M  V30 5732 C 549.857 3.08316 1.40451 0
M  V30 5733 C 548.416 3.2391 1.91727 0
M  V30 5734 C 547.563 2.66001 0.783516 0
M  V30 5735 H 550.514 1.58688 -0.019911 0
M  V30 5736 H 550.535 3.05094 2.27371 0
M  V30 5737 H 550.047 3.83053 0.623882 0
M  V30 5738 H 548.148 2.54072 2.7254 0
M  V30 5739 H 548.261 4.3131 2.08588 0
M  V30 5740 H 546.625 2.24915 1.19521 0
M  V30 5741 H 547.408 3.43297 0.0152883 0
M  V30 5742 N 549.853 -0.472356 1.50355 0
M  V30 5743 C 551.101 -1.22211 1.60962 0
M  V30 5744 C 551.422 -1.92497 0.311439 0
M  V30 5745 O 550.692 -1.8405 -0.671002 0
M  V30 5746 H 549.272 -0.454092 0.593135 0
M  V30 5747 H 551.934 -0.544977 1.87126 0
M  V30 5748 H 551.03 -1.9707 2.42012 0
M  V30 5749 N 551.331 -1.39911 -0.725443 0
M  V30 5750 C 552.577 -1.37858 -1.48738 0
M  V30 5751 C 552.91 0.0224187 -1.94187 0
M  V30 5752 O 552.185 0.989204 -1.67466 0
M  V30 5753 C 552.468 -2.3594 -2.72038 0
M  V30 5754 C 552.321 -3.85023 -2.32546 0
M  V30 5755 C 553.64 -2.31704 -3.74167 0
M  V30 5756 H 550.759 -0.502074 -0.539528 0
M  V30 5757 H 553.401 -1.70974 -0.828728 0
M  V30 5758 H 551.551 -2.0783 -3.28236 0
M  V30 5759 H 553.223 -4.2392 -1.81905 0
M  V30 5760 H 551.466 -4.01334 -1.64661 0
M  V30 5761 H 552.137 -4.49152 -3.20884 0
M  V30 5762 H 554.613 -2.5658 -3.27576 0
M  V30 5763 H 553.489 -3.02395 -4.58092 0
M  V30 5764 H 553.75 -1.3253 -4.21768 0
M  V30 5765 N 552.809 0.956637 -1.25245 0
M  V30 5766 C 553.756 2.053 -1.05454 0
M  V30 5767 C 554.726 1.66062 0.0356889 0
M  V30 5768 O 555.911 1.90415 -0.121099 0
M  V30 5769 C 553.051 3.38391 -0.677191 0
M  V30 5770 C 552.164 3.90758 -1.84206 0
M  V30 5771 C 551.299 5.12165 -1.40926 0
M  V30 5772 C 550.338 5.56757 -2.54338 0
M  V30 5773 N 549.475 6.69376 -2.11848 0
M  V30 5774 H 554.315 2.21562 -1.99284 0
M  V30 5775 H 551.852 1.08578 -0.992434 0
M  V30 5776 H 553.81 4.1488 -0.43938 0
M  V30 5777 H 552.44 3.22021 0.224127 0
M  V30 5778 H 551.492 3.10808 -2.19323 0
M  V30 5779 H 552.804 4.19802 -2.69383 0
M  V30 5780 H 551.958 5.96065 -1.13098 0
M  V30 5781 H 550.697 4.84832 -0.528175 0
M  V30 5782 H 549.702 4.71423 -2.82913 0
M  V30 5783 H 550.927 5.861 -3.43022 0
M  V30 5784 H 548.873 6.43756 -1.26153 0
M  V30 5785 H 548.79 6.97927 -2.90574 0
M  V30 5786 H 550.058 7.5669 -1.87191 0
M  V30 5787 N 554.287 1.06798 1.15896 0
M  V30 5788 C 555.219 0.641263 2.20046 0
M  V30 5789 C 556.232 -0.303355 1.59949 0
M  V30 5790 O 557.421 -0.0935478 1.78255 0
M  V30 5791 C 554.521 -0.0794029 3.38807 0
M  V30 5792 C 553.694 0.879986 4.28457 0
M  V30 5793 C 552.753 0.197638 5.25829 0
M  V30 5794 O 551.779 0.836913 5.63014 0
M  V30 5795 N 552.981 -1.05886 5.70761 0
M  V30 5796 H 555.746 1.53718 2.57276 0
M  V30 5797 H 553.307 0.951951 1.30956 0
M  V30 5798 H 555.299 -0.546418 4.00994 0
M  V30 5799 H 553.869 -0.877193 3.0004 0
M  V30 5800 H 553.089 1.52625 3.63454 0
M  V30 5801 H 554.377 1.53065 4.8523 0
M  V30 5802 H 553.775 -1.59828 5.42652 0
M  V30 5803 H 552.332 -1.46965 6.35015 0
M  V30 5804 N 555.766 -1.3263 0.851289 0
M  V30 5805 C 556.698 -2.27824 0.250757 0
M  V30 5806 C 557.711 -1.52285 -0.575598 0
M  V30 5807 O 558.9 -1.73946 -0.400638 0
M  V30 5808 C 556 -3.3232 -0.664571 0
M  V30 5809 C 555.173 -4.37221 0.125187 0
M  V30 5810 C 554.232 -5.21314 -0.715385 0
M  V30 5811 O 553.258 -5.69002 -0.150111 0
M  V30 5812 N 554.46 -5.43823 -2.03069 0
M  V30 5813 H 557.225 -2.79997 1.06873 0
M  V30 5814 H 554.786 -1.45455 0.710943 0
M  V30 5815 H 556.778 -3.85486 -1.23216 0
M  V30 5816 H 555.348 -2.80331 -1.38323 0
M  V30 5817 H 554.568 -3.84384 0.874199 0
M  V30 5818 H 555.856 -5.04399 0.667774 0
M  V30 5819 H 555.254 -5.06803 -2.51332 0
M  V30 5820 H 553.811 -5.99998 -2.54648 0
M  V30 5821 N 557.244 -0.608902 -1.45362 0
M  V30 5822 C 558.174 0.0964526 -2.33301 0
M  V30 5823 C 559.155 0.857444 -1.46908 0
M  V30 5824 O 560.34 0.827735 -1.75676 0
M  V30 5825 C 557.47 1.09354 -3.29635 0
M  V30 5826 C 556.424 0.445676 -4.25673 0
M  V30 5827 C 555.75 1.5511 -5.11708 0
M  V30 5828 C 557.05 -0.633972 -5.18438 0
M  V30 5829 H 558.744 -0.637829 -2.92527 0
M  V30 5830 H 556.29 -0.308178 -1.40664 0
M  V30 5831 H 558.243 1.59556 -3.90025 0
M  V30 5832 H 556.967 1.85843 -2.6857 0
M  V30 5833 H 555.626 -0.0354897 -3.66583 0
M  V30 5834 H 555.274 2.30631 -4.4701 0
M  V30 5835 H 554.974 1.12311 -5.76767 0
M  V30 5836 H 556.498 2.05537 -5.74967 0
M  V30 5837 H 557.912 -0.215974 -5.72893 0
M  V30 5838 H 556.309 -0.983789 -5.91981 0
M  V30 5839 H 557.379 -1.51005 -4.60788 0
M  V30 5840 N 558.722 1.53707 -0.348139 0
M  V30 5841 C 559.97 2.00591 0.246478 0
M  V30 5842 C 560.291 1.23753 1.50699 0
M  V30 5843 O 559.561 0.345964 1.92821 0
M  V30 5844 H 558.141 0.741053 0.0940679 0
M  V30 5845 H 560.803 1.89139 -0.470354 0
M  V30 5846 H 559.899 3.08297 0.485714 0
M  V30 5847 N 560.2 0.0768682 1.57412 0
M  V30 5848 C 561.428 -0.59997 1.9801 0
M  V30 5849 C 561.843 -1.62842 0.955408 0
M  V30 5850 O 561.2 -1.8241 -0.057314 0
M  V30 5851 C 561.251 -1.26401 3.38681 0
M  V30 5852 O 560.972 -0.276723 4.37225 0
M  V30 5853 C 562.473 -2.0282 3.94182 0
M  V30 5854 H 559.693 -0.162239 0.651091 0
M  V30 5855 H 562.237 0.150771 2.03943 0
M  V30 5856 H 560.392 -1.96581 3.33819 0
M  V30 5857 H 560.806 -0.753744 5.19056 0
M  V30 5858 H 562.28 -2.44667 4.94815 0
M  V30 5859 H 562.757 -2.88678 3.31001 0
M  V30 5860 H 563.363 -1.37496 4.02461 0
M  V30 5861 N 561.678 -1.56367 -0.196722 0
M  V30 5862 C 562.924 -1.80796 -0.918725 0
M  V30 5863 C 563.257 -0.650645 -1.82976 0
M  V30 5864 O 562.532 0.348889 -1.91345 0
M  V30 5865 C 562.815 -3.15472 -1.73636 0
M  V30 5866 C 562.668 -4.41693 -0.85015 0
M  V30 5867 C 563.987 -3.46824 -2.70927 0
M  V30 5868 H 561.106 -0.657702 -0.332561 0
M  V30 5869 H 563.748 -1.89086 -0.186186 0
M  V30 5870 H 561.898 -3.08536 -2.36088 0
M  V30 5871 H 563.57 -4.60673 -0.240459 0
M  V30 5872 H 561.813 -4.33517 -0.156785 0
M  V30 5873 H 562.484 -5.32419 -1.45719 0
M  V30 5874 H 564.96 -3.54049 -2.18607 0
M  V30 5875 H 563.836 -4.4218 -3.25219 0
M  V30 5876 H 564.097 -2.70236 -3.49893 0
M  V30 5877 N 563.156 0.464375 -1.50603 0
M  V30 5878 C 564.572 0.798684 -1.38178 0
M  V30 5879 C 564.772 1.96568 -0.44308 0
M  V30 5880 O 563.828 2.52252 0.111814 0
M  V30 5881 C 565.141 1.10444 -2.79683 0
M  V30 5882 C 566.689 1.2105 -2.88645 0
M  V30 5883 C 567.164 1.54934 -4.30998 0
M  V30 5884 N 568.655 1.61913 -4.3398 0
M  V30 5885 C 569.39 1.8965 -5.41129 0
M  V30 5886 N 568.886 2.15361 -6.58477 0
M  V30 5887 N 570.679 1.91207 -5.28579 0
M  V30 5888 H 562.83 -0.304603 -2.10204 0
M  V30 5889 H 565.093 -0.0737804 -0.945125 0
M  V30 5890 H 564.799 0.319934 -3.50242 0
M  V30 5891 H 564.673 2.03896 -3.17342 0
M  V30 5892 H 567.06 1.98567 -2.18301 0
M  V30 5893 H 567.141 0.255613 -2.5452 0
M  V30 5894 H 566.785 0.779549 -5.01882 0
M  V30 5895 H 566.715 2.51584 -4.62615 0
M  V30 5896 H 569.206 1.44055 -3.49366 0
M  V30 5897 H 569.519 2.35818 -7.35941 0
M  V30 5898 H 567.864 2.1274 -6.6164 0
M  V30 5899 H 571.055 1.70622 -4.35897 0
M  V30 5900 H 571.228 2.12488 -6.12171 0
M  V30 5901 N 564.634 1.40294 0.718013 0
M  V30 5902 C 566.045 1.34289 1.29705 0
M  V30 5903 C 566.396 0.0152228 1.96194 0
M  V30 5904 O 565.521 -0.88682 1.97394 0
M  V30 5905 C 566.116 2.43219 2.3586 0
M  V30 5906 C 564.675 2.40682 2.89394 0
M  V30 5907 C 563.822 2.24223 1.63154 0
M  V30 5908 H 566.773 1.50135 0.514312 0
M  V30 5909 H 566.794 2.10986 3.16647 0
M  V30 5910 H 566.306 3.39836 1.87439 0
M  V30 5911 H 564.407 1.47756 3.42051 0
M  V30 5912 H 564.52 3.36177 3.41353 0
M  V30 5913 H 562.884 1.71696 1.88129 0
M  V30 5914 H 563.667 3.22834 1.16761 0
M  V30 5915 N 566.112 -0.949982 1.2575 0
M  V30 5916 C 567.36 -1.6918 1.10555 0
M  V30 5917 C 567.681 -1.91773 -0.353298 0
M  V30 5918 O 566.951 -1.50814 -1.25027 0
M  V30 5919 H 565.531 -0.626952 0.406129 0
M  V30 5920 H 568.193 -1.1419 1.57945 0
M  V30 5921 H 567.289 -2.66915 1.61749 0
M  V30 5922 N 567.59 -1.07411 -1.15328 0
M  V30 5923 C 568.52 -0.716472 -2.22236 0
M  V30 5924 C 569.501 0.296373 -1.67498 0
M  V30 5925 O 570.686 0.168989 -1.93463 0
M  V30 5926 C 567.816 -0.114142 -3.47112 0
M  V30 5927 C 566.77 -1.05421 -4.14814 0
M  V30 5928 C 566.096 -0.314604 -5.33774 0
M  V30 5929 C 567.396 -2.38808 -4.64508 0
M  V30 5930 H 569.09 -1.61029 -2.52408 0
M  V30 5931 H 566.636 -0.775702 -1.21321 0
M  V30 5932 H 568.589 0.148001 -4.2114 0
M  V30 5933 H 567.313 0.814755 -3.16274 0
M  V30 5934 H 565.972 -1.30128 -3.42728 0
M  V30 5935 H 565.62 0.617772 -4.99192 0
M  V30 5936 H 565.32 -0.941209 -5.80013 0
M  V30 5937 H 566.844 -0.0602747 -6.1057 0
M  V30 5938 H 568.258 -2.18424 -5.3006 0
M  V30 5939 H 566.655 -2.97069 -5.21412 0
M  V30 5940 H 567.725 -3.01067 -3.80114 0
M  V30 5941 N 569.068 1.32177 -0.85831 0
M  V30 5942 C 570.316 1.96735 -0.462568 0
M  V30 5943 C 570.637 1.6824 0.985911 0
M  V30 5944 O 569.907 0.991564 1.68952 0
M  V30 5945 H 568.487 0.727849 -0.168064 0
M  V30 5946 H 571.149 1.61195 -1.09554 0
M  V30 5947 H 570.245 3.06068 -0.610647 0
M  V30 5948 N 570.547 0.616602 1.45037 0
M  V30 5949 C 571.48 -0.145984 2.27733 0
M  V30 5950 C 572.458 -0.865108 1.37676 0
M  V30 5951 O 573.642 -0.872152 1.6711 0
M  V30 5952 C 570.769 -1.2122 3.16265 0
M  V30 5953 C 569.815 -0.595218 4.22326 0
M  V30 5954 S 570.648 0.603744 5.32086 0
M  V30 5955 C 571.804 -0.462842 6.24186 0
M  V30 5956 H 572.037 0.555591 2.92062 0
M  V30 5957 H 569.57 0.404364 1.49011 0
M  V30 5958 H 571.528 -1.82247 3.67827 0
M  V30 5959 H 570.189 -1.88589 2.51183 0
M  V30 5960 H 569.382 -1.39775 4.8423 0
M  V30 5961 H 568.984 -0.0598965 3.73952 0
M  V30 5962 H 571.276 -1.33945 6.64127 0
M  V30 5963 H 572.219 0.120259 7.07998 0
M  V30 5964 H 572.627 -0.782219 5.59054 0
M  V30 5965 N 572.025 -1.5352 0.356285 0
M  V30 5966 C 573.253 -2.05534 -0.237328 0
M  V30 5967 C 573.668 -1.23043 -1.43199 0
M  V30 5968 O 573.025 -0.268821 -1.80509 0
M  V30 5969 C 573.076 -3.55791 -0.639933 0
M  V30 5970 O 572.797 -4.35154 0.507233 0
M  V30 5971 C 574.298 -4.24027 -1.29292 0
M  V30 5972 H 571.518 -0.669585 -0.0435572 0
M  V30 5973 H 574.062 -1.97988 0.511963 0
M  V30 5974 H 572.217 -3.63518 -1.33915 0
M  V30 5975 H 572.631 -5.24178 0.18375 0
M  V30 5976 H 574.105 -5.30509 -1.52527 0
M  V30 5977 H 574.582 -3.77166 -2.25039 0
M  V30 5978 H 575.188 -4.20527 -0.63539 0
M  V30 5979 N 573.503 -0.0852151 -1.57369 0
M  V30 5980 C 574.728 0.592872 -1.98746 0
M  V30 5981 C 575.153 1.61538 -0.963689 0
M  V30 5982 O 574.511 1.81168 0.069071 0
M  V30 5983 C 574.559 1.22599 -3.39119 0
M  V30 5984 O 573.663 2.34185 -3.39457 0
M  V30 5985 H 573.004 0.151314 -0.646529 0
M  V30 5986 H 575.534 -0.163703 -2.03944 0
M  V30 5987 H 575.544 1.56965 -3.76598 0
M  V30 5988 H 574.219 0.476831 -4.13158 0
M  V30 5989 H 572.796 2.01512 -3.13763 0
M  V30 5990 N 574.981 1.5647 0.188427 0
M  V30 5991 C 576.227 1.81281 0.909124 0
M  V30 5992 C 576.56 0.66034 1.82628 0
M  V30 5993 O 575.835 -0.338737 1.91528 0
M  V30 5994 C 576.118 3.16388 1.7196 0
M  V30 5995 C 575.971 4.42137 0.826714 0
M  V30 5996 C 577.29 3.48256 2.69083 0
M  V30 5997 H 574.409 0.659457 0.329068 0
M  V30 5998 H 577.051 1.89182 0.176156 0
M  V30 5999 H 575.201 3.09784 2.34448 0
M  V30 6000 H 576.873 4.60794 0.216025 0
M  V30 6001 H 575.116 4.33594 0.133792 0
M  V30 6002 H 575.787 5.33184 1.42893 0
M  V30 6003 H 578.263 3.55203 2.16726 0
M  V30 6004 H 577.139 4.43899 3.2287 0
M  V30 6005 H 577.4 2.72088 3.48455 0
M  V30 6006 N 576.459 -0.456382 1.50847 0
M  V30 6007 C 577.706 -1.20736 1.62571 0
M  V30 6008 C 578.034 -1.9163 0.332904 0
M  V30 6009 O 577.289 -1.8343 -0.682058 0
M  V30 6010 C 577.588 -2.26336 2.76599 0
M  V30 6011 C 577.254 -1.7259 4.16562 0
M  V30 6012 C 575.916 -1.57654 4.54641 0
M  V30 6013 C 578.268 -1.32877 5.03977 0
M  V30 6014 C 575.596 -1.0145 5.77862 0
M  V30 6015 C 577.948 -0.7811 6.27759 0
M  V30 6016 C 576.612 -0.618488 6.64628 0
M  V30 6017 H 575.882 -0.441803 0.594888 0
M  V30 6018 H 578.529 -0.501169 1.84826 0
M  V30 6019 H 576.834 -3.0292 2.48489 0
M  V30 6020 H 578.531 -2.84227 2.82871 0
M  V30 6021 H 575.121 -1.85187 3.86528 0
M  V30 6022 H 579.305 -1.43245 4.75179 0
M  V30 6023 H 574.561 -0.876109 6.0509 0
M  V30 6024 H 578.735 -0.464783 6.94847 0
M  V30 6025 H 576.362 -0.180838 7.59985 0
M  V30 6026 N 577.937 -1.40673 -0.710563 0
M  V30 6027 C 579.186 -1.38525 -1.46607 0
M  V30 6028 C 579.499 0.0077024 -1.95598 0
M  V30 6029 O 580.705 0.151792 -2.71075 0
M  V30 6030 C 579.161 -2.43489 -2.6503 0
M  V30 6031 C 578.769 -3.88619 -2.22888 0
M  V30 6032 C 580.513 -2.50456 -3.42742 0
M  V30 6033 C 578.42 -4.85168 -3.3818 0
M  V30 6034 H 577.35 -0.515092 -0.550632 0
M  V30 6035 H 580.001 -1.66431 -0.772846 0
M  V30 6036 H 578.383 -2.0869 -3.36548 0
M  V30 6037 H 579.557 -4.32588 -1.58758 0
M  V30 6038 H 577.872 -3.85174 -1.58208 0
M  V30 6039 H 580.469 -3.19776 -4.28541 0
M  V30 6040 H 580.812 -1.53665 -3.86902 0
M  V30 6041 H 581.345 -2.84271 -2.78271 0
M  V30 6042 H 578.084 -5.8331 -2.99047 0
M  V30 6043 H 577.604 -4.4586 -4.01209 0
M  V30 6044 H 579.283 -5.05225 -4.04174 0
M  V30 6045 N 579.415 0.9433 -1.26252 0
M  V30 6046 C 580.655 1.70397 -1.1289 0
M  V30 6047 C 581.019 1.89268 0.322713 0
M  V30 6048 O 582.22 2.62503 0.578418 0
M  V30 6049 C 580.491 3.04296 -1.87453 0
M  V30 6050 S 582.05 3.95475 -1.90119 0
M  V30 6051 H 578.868 0.585559 -0.403289 0
M  V30 6052 H 581.47 1.12424 -1.59941 0
M  V30 6053 H 580.174 2.8824 -2.9214 0
M  V30 6054 H 579.705 3.67327 -1.40835 0
M  V30 6055 H 581.72 4.86297 -0.986373 0
M  V30 6056 N 580.893 1.08022 1.14757 0
M  V30 6057 C 581.823 0.728248 2.21853 0
M  V30 6058 C 582.804 -0.287486 1.67653 0
M  V30 6059 O 583.989 -0.158727 1.9355 0
M  V30 6060 C 581.119 0.132549 3.47047 0
M  V30 6061 C 580.073 1.07619 4.14249 0
M  V30 6062 C 579.399 0.342907 5.33599 0
M  V30 6063 C 580.699 2.41268 4.63235 0
M  V30 6064 H 582.393 1.62365 2.51551 0
M  V30 6065 H 579.939 0.782125 1.20908 0
M  V30 6066 H 581.892 -0.125665 4.21213 0
M  V30 6067 H 580.616 -0.797971 3.16702 0
M  V30 6068 H 579.275 1.31944 3.42033 0
M  V30 6069 H 578.923 -0.59129 4.99513 0
M  V30 6070 H 578.623 0.971955 5.79506 0
M  V30 6071 H 580.147 0.0926538 6.1053 0
M  V30 6072 H 581.561 2.21232 5.28894 0
M  V30 6073 H 579.958 2.9983 5.19829 0
M  V30 6074 H 581.028 3.03079 3.78512 0
M  V30 6075 N 582.371 -1.3172 0.865308 0
M  V30 6076 C 583.787 -1.4958 0.556596 0
M  V30 6077 C 583.987 -1.79763 -0.910353 0
M  V30 6078 O 583.043 -1.87351 -1.6928 0
M  V30 6079 C 584.356 -2.63277 1.45279 0
M  V30 6080 C 585.904 -2.77161 1.45433 0
M  V30 6081 C 586.379 -3.93949 2.33598 0
M  V30 6082 N 587.87 -4.01228 2.31453 0
M  V30 6083 C 588.605 -4.90855 2.96393 0
M  V30 6084 N 588.101 -5.85416 3.70486 0
M  V30 6085 N 589.894 -4.84063 2.85726 0
M  V30 6086 H 582.045 -1.10396 1.81456 0
M  V30 6087 H 584.308 -0.54507 0.775631 0
M  V30 6088 H 584.014 -2.47734 2.49641 0
M  V30 6089 H 583.888 -3.59309 1.14792 0
M  V30 6090 H 586.275 -2.9212 0.41831 0
M  V30 6091 H 586.356 -1.8181 1.79941 0
M  V30 6092 H 586 -3.79748 3.37274 0
M  V30 6093 H 585.93 -4.88598 1.96417 0
M  V30 6094 H 588.421 -3.3357 1.77593 0
M  V30 6095 H 588.734 -6.50525 4.17178 0
M  V30 6096 H 587.079 -5.85409 3.74594 0
M  V30 6097 H 590.27 -4.09163 2.27384 0
M  V30 6098 H 590.443 -5.53708 3.36617 0
M  V30 6099 N 583.85 -0.624285 -1.44708 0
M  V30 6100 C 585.098 -0.125802 -2.01708 0
M  V30 6101 C 585.418 1.2543 -1.49306 0
M  V30 6102 O 584.689 1.83198 -0.693924 0
M  V30 6103 H 583.269 -0.0435161 -0.745731 0
M  V30 6104 H 585.931 -0.809446 -1.77296 0
M  V30 6105 H 585.027 -0.0882734 -3.11975 0
M  V30 6106 N 585.328 1.53329 -0.364422 0
M  V30 6107 C 586.556 2.05657 0.226424 0
M  V30 6108 C 586.971 1.23801 1.42544 0
M  V30 6109 O 586.328 0.27839 1.80364 0
M  V30 6110 C 586.379 3.56125 0.621056 0
M  V30 6111 O 586.1 4.34879 -0.530304 0
M  V30 6112 C 587.601 4.24706 1.27041 0
M  V30 6113 H 584.821 0.669806 0.0400056 0
M  V30 6114 H 587.365 1.97714 -0.522456 0
M  V30 6115 H 585.52 3.64223 1.31985 0
M  V30 6116 H 585.934 5.24073 -0.211546 0
M  V30 6117 H 587.408 5.3131 1.49711 0
M  V30 6118 H 587.885 3.78354 2.23036 0
M  V30 6119 H 588.491 4.20858 0.613079 0
M  V30 6120 N 586.806 0.0935595 1.57322 0
M  V30 6121 C 587.753 -0.865935 2.1394 0
M  V30 6122 C 588.723 -1.28083 1.05754 0
M  V30 6123 O 589.908 -1.36285 1.33533 0
M  V30 6124 C 587.048 -2.12023 2.72287 0
M  V30 6125 C 586.161 -1.756 3.94701 0
M  V30 6126 C 585.296 -2.95804 4.41218 0
M  V30 6127 C 584.335 -2.555 5.56225 0
M  V30 6128 N 583.472 -3.68534 5.97601 0
M  V30 6129 H 588.312 -0.376261 2.95615 0
M  V30 6130 H 585.849 -0.174052 1.46067 0
M  V30 6131 H 587.807 -2.85477 3.04235 0
M  V30 6132 H 586.437 -2.58492 1.93343 0
M  V30 6133 H 585.489 -0.921208 3.69077 0
M  V30 6134 H 586.801 -1.41964 4.78171 0
M  V30 6135 H 585.955 -3.77513 4.74941 0
M  V30 6136 H 584.694 -3.32649 3.56645 0
M  V30 6137 H 583.699 -1.72218 5.22131 0
M  V30 6138 H 584.924 -2.19801 6.42545 0
M  V30 6139 H 582.87 -4.051 5.15974 0
M  V30 6140 H 582.787 -3.38737 6.75865 0
M  V30 6141 H 584.055 -4.50757 6.35955 0
M  V30 6142 N 588.284 -1.56567 -0.180126 0
M  V30 6143 C 589.194 -1.98947 -1.24327 0
M  V30 6144 C 590.21 -0.899446 -1.4895 0
M  V30 6145 O 591.386 -1.20639 -1.61271 0
M  V30 6146 C 588.451 -2.33328 -2.56435 0
M  V30 6147 C 587.512 -3.56114 -2.39752 0
M  V30 6148 C 586.745 -3.88845 -3.65561 0
M  V30 6149 O 586.968 -3.22662 -4.70368 0
M  V30 6150 O 585.902 -4.82226 -3.60197 0
M  V30 6151 H 589.728 -2.89634 -0.913565 0
M  V30 6152 H 587.313 -1.44319 -0.386306 0
M  V30 6153 H 589.195 -2.5645 -3.34382 0
M  V30 6154 H 587.87 -1.45806 -2.89002 0
M  V30 6155 H 586.777 -3.38221 -1.59866 0
M  V30 6156 H 588.11 -4.4415 -2.12113 0
M  V30 6157 N 589.762 0.448376 -1.51087 0
M  V30 6158 C 591.039 1.20926 -1.53741 0
M  V30 6159 C 591.419 2.09025 -0.295222 0
M  V30 6160 O 590.767 2.16851 0.720283 0
M  V30 6161 C 590.977 2.02067 -2.84552 0
M  V30 6162 C 592.325 2.59486 -3.36084 0
M  V30 6163 O 593.349 2.12289 -2.86028 0
M  V30 6164 O 592.208 3.45539 -4.23397 0
M  V30 6165 H 589.302 0.549951 -0.617643 0
M  V30 6166 H 591.848 0.458344 -1.63393 0
M  V30 6167 H 590.62 1.37291 -3.66425 0
M  V30 6168 H 590.243 2.84246 -2.78011 0
M  V30 6169 N 591.24 1.41047 0.703093 0
M  V30 6170 C 592.17 1.45067 1.82969 0
M  V30 6171 C 593.151 0.31016 1.67248 0
M  V30 6172 O 594.336 0.520548 1.87093 0
M  V30 6173 C 591.466 1.32478 3.2104 0
M  V30 6174 C 590.42 2.44262 3.51454 0
M  V30 6175 C 589.746 2.16742 4.88801 0
M  V30 6176 C 591.046 3.86606 3.51189 0
M  V30 6177 H 592.74 2.39353 1.79863 0
M  V30 6178 H 590.286 1.15206 0.863919 0
M  V30 6179 H 592.239 1.33904 3.99559 0
M  V30 6180 H 590.963 0.346735 3.24754 0
M  V30 6181 H 589.622 2.42107 2.75282 0
M  V30 6182 H 589.27 1.17299 4.89132 0
M  V30 6183 H 588.97 2.91643 5.10116 0
M  V30 6184 H 590.494 2.19872 5.69639 0
M  V30 6185 H 591.908 3.90517 4.19725 0
M  V30 6186 H 590.305 4.61128 3.84033 0
M  V30 6187 H 591.375 4.15296 2.50315 0
M  V30 6188 N 592.718 -0.936591 1.26751 0
M  V30 6189 C 593.668 -2.0219 1.05371 0
M  V30 6190 C 594.652 -1.60893 -0.0154112 0
M  V30 6191 O 595.844 -1.75843 0.202085 0
M  V30 6192 C 592.973 -3.36222 0.693541 0
M  V30 6193 C 592.059 -3.8399 1.80035 0
M  V30 6194 N 592.45 -4.0436 3.03852 0
M  V30 6195 C 590.748 -4.12945 1.685 0
M  V30 6196 C 591.449 -4.44 3.75818 0
M  V30 6197 N 590.425 -4.50966 3.03531 0
M  V30 6198 H 594.227 -2.15958 1.99347 0
M  V30 6199 H 591.741 -1.12277 1.17335 0
M  V30 6200 H 593.738 -4.13625 0.521513 0
M  V30 6201 H 592.398 -3.23821 -0.238693 0
M  V30 6202 H 593.409 -3.9092 3.39709 0
M  V30 6203 H 590.086 -4.09308 0.822986 0
M  V30 6204 H 591.476 -4.67914 4.82189 0
M  V30 6205 N 594.196 -1.08629 -1.14182 0
M  V30 6206 C 595.126 -0.740003 -2.21464 0
M  V30 6207 C 596.107 0.278591 -1.67803 0
M  V30 6208 O 597.292 0.148461 -1.93632 0
M  V30 6209 C 594.422 -0.150952 -3.46972 0
M  V30 6210 C 593.376 -1.09815 -4.13672 0
M  V30 6211 C 592.702 -0.3712 -5.3341 0
M  V30 6212 C 594.002 -2.43722 -4.61949 0
M  V30 6213 H 595.696 -1.63697 -2.50686 0
M  V30 6214 H 593.242 -0.788526 -1.20492 0
M  V30 6215 H 595.195 0.103325 -4.21273 0
M  V30 6216 H 593.919 0.781164 -3.1712 0
M  V30 6217 H 592.578 -1.33756 -3.41328 0
M  V30 6218 H 592.226 0.564792 -4.99819 0
M  V30 6219 H 591.926 -1.00267 -5.78982 0
M  V30 6220 H 593.45 -0.12503 -6.10472 0
M  V30 6221 H 594.864 -2.24034 -5.27714 0
M  V30 6222 H 593.261 -3.02582 -5.18232 0
M  V30 6223 H 594.331 -3.05082 -3.76899 0
M  V30 6224 N 595.674 1.31259 -0.872281 0
M  V30 6225 C 597.085 1.78822 -0.536617 0
M  V30 6226 C 597.436 1.71855 0.946594 0
M  V30 6227 O 596.561 1.28769 1.73918 0
M  V30 6228 C 597.156 3.24698 -0.967294 0
M  V30 6229 C 595.715 3.70147 -0.683251 0
M  V30 6230 C 594.862 2.51994 -1.15733 0
M  V30 6231 H 597.813 1.18308 -1.05777 0
M  V30 6232 H 597.834 3.79386 -0.290929 0
M  V30 6233 H 597.346 3.29737 -2.04683 0
M  V30 6234 H 595.447 3.70607 0.384825 0
M  V30 6235 H 595.56 4.62183 -1.2619 0
M  V30 6236 H 593.924 2.48078 -0.577024 0
M  V30 6237 H 594.707 2.59778 -2.24434 0
M  V30 6238 N 597.152 0.631951 1.44375 0
M  V30 6239 C 598.377 0.142146 2.06912 0
M  V30 6240 C 598.802 -1.17456 1.4692 0
M  V30 6241 O 598.16 -1.72074 0.570975 0
M  V30 6242 C 598.208 0.0417952 3.60576 0
M  V30 6243 O 597.312 -1.00194 4.00044 0
M  V30 6244 H 596.653 0.0851491 0.658518 0
M  V30 6245 H 599.183 0.868863 1.85235 0
M  V30 6246 H 599.193 -0.148517 4.0773 0
M  V30 6247 H 597.868 1.0031 4.03622 0
M  V30 6248 H 596.445 -0.786131 3.64519 0
M  V30 6249 N 598.631 -1.53133 0.372548 0
M  V30 6250 C 599.859 -2.05774 -0.215515 0
M  V30 6251 C 600.274 -1.24555 -1.41886 0
M  V30 6252 O 599.631 -0.287951 -1.80214 0
M  V30 6253 C 599.682 -3.5645 -0.602161 0
M  V30 6254 O 599.403 -4.34591 0.553359 0
M  V30 6255 C 600.904 -4.25374 -1.24787 0
M  V30 6256 H 598.124 -0.670009 -0.0364529 0
M  V30 6257 H 600.668 -1.97434 0.532934 0
M  V30 6258 H 598.823 -3.64918 -1.30052 0
M  V30 6259 H 599.237 -5.23954 0.239336 0
M  V30 6260 H 600.711 -5.32097 -1.46891 0
M  V30 6261 H 601.188 -3.79531 -2.21026 0
M  V30 6262 H 601.794 -4.21177 -0.590752 0
M  V30 6263 N 600.109 -0.101901 -1.5727 0
M  V30 6264 C 601.057 0.872034 -2.15635 0
M  V30 6265 C 602.051 1.28742 -1.10099 0
M  V30 6266 O 603.257 1.26116 -1.28432 0
M  V30 6267 H 599.632 0.299269 -0.689886 0
M  V30 6268 H 601.603 0.355137 -2.96279 0
M  V30 6269 C 600.352 2.11886 -2.7568 0
M  V30 6270 H 599.675 1.80813 -3.56576 0
M  V30 6271 H 601.115 2.78077 -3.20077 0
M  V30 6272 C 599.574 2.89739 -1.7191 0
M  V30 6273 O 600.104 3.84522 -1.16213 0
M  V30 6274 N 598.31 2.53407 -1.42245 0
M  V30 6275 H 597.857 1.76398 -1.87727 0
M  V30 6276 H 597.815 3.05795 -0.730529 0
M  V30 6277 N 601.587 1.56661 0.17182 0
M  V30 6278 C 602.817 1.85831 0.902804 0
M  V30 6279 C 603.225 0.685157 1.76358 0
M  V30 6280 O 602.568 -0.354947 1.80238 0
M  V30 6281 C 602.63 3.09406 1.83053 0
M  V30 6282 C 602.294 4.4231 1.1494 0
M  V30 6283 C 603.291 5.17342 0.515104 0
M  V30 6284 C 600.976 4.89045 1.14631 0
M  V30 6285 C 602.97 6.37299 -0.113194 0
M  V30 6286 C 600.657 6.08933 0.514184 0
M  V30 6287 C 601.655 6.82904 -0.114463 0
M  V30 6288 O 601.343 8.00518 -0.736622 0
M  V30 6289 H 601.075 0.620715 0.267748 0
M  V30 6290 H 603.629 2.04637 0.176918 0
M  V30 6291 H 601.859 2.86544 2.59672 0
M  V30 6292 H 603.548 3.25027 2.4313 0
M  V30 6293 H 604.314 4.82317 0.509474 0
M  V30 6294 H 600.193 4.31409 1.62502 0
M  V30 6295 H 603.737 6.94976 -0.604477 0
M  V30 6296 H 599.634 6.43423 0.517395 0
M  V30 6297 H 600.402 8.16027 -0.635822 0
M  V30 6298 N 603.065 -0.440357 1.51323 0
M  V30 6299 C 604.295 -1.21079 1.67402 0
M  V30 6300 C 604.703 -1.85555 0.369599 0
M  V30 6301 O 604.046 -1.71375 -0.661525 0
M  V30 6302 C 604.108 -2.33839 2.73056 0
M  V30 6303 C 603.772 -1.89755 4.15743 0
M  V30 6304 C 604.769 -1.40268 5.0062 0
M  V30 6305 C 602.454 -1.97539 4.61826 0
M  V30 6306 C 604.448 -0.991474 6.29642 0
M  V30 6307 C 602.135 -1.56029 5.90845 0
M  V30 6308 C 603.133 -1.06915 6.7458 0
M  V30 6309 O 602.821 -0.659933 8.01187 0
M  V30 6310 H 602.553 -0.371133 0.56501 0
M  V30 6311 H 605.107 -0.528409 1.98487 0
M  V30 6312 H 603.337 -3.05345 2.37279 0
M  V30 6313 H 605.026 -2.95713 2.78044 0
M  V30 6314 H 605.792 -1.33652 4.66221 0
M  V30 6315 H 601.671 -2.34713 3.96776 0
M  V30 6316 H 605.215 -0.607425 6.9495 0
M  V30 6317 H 601.112 -1.62315 6.24759 0
M  V30 6318 H 601.88 -0.786052 8.14717 0
M  V30 6319 N 604.543 -1.41418 -0.695603 0
M  V30 6320 C 605.789 -1.40982 -1.4578 0
M  V30 6321 C 606.122 -0.0187763 -1.94191 0
M  V30 6322 O 605.397 0.95346 -1.69527 0
M  V30 6323 C 605.68 -2.41657 -2.66972 0
M  V30 6324 C 605.533 -3.89869 -2.24327 0
M  V30 6325 C 606.852 -2.39589 -3.69168 0
M  V30 6326 H 603.971 -0.513405 -0.528757 0
M  V30 6327 H 606.613 -1.72693 -0.792275 0
M  V30 6328 H 604.763 -2.14746 -3.23754 0
M  V30 6329 H 606.435 -4.27683 -1.72872 0
M  V30 6330 H 604.678 -4.04737 -1.56111 0
M  V30 6331 H 605.349 -4.55857 -3.11285 0
M  V30 6332 H 607.825 -2.63471 -3.2206 0
M  V30 6333 H 606.701 -3.12044 -4.51575 0
M  V30 6334 H 606.962 -1.41447 -4.18862 0
M  V30 6335 N 606.021 0.929856 -1.27246 0
M  V30 6336 C 607.251 1.70895 -1.16096 0
M  V30 6337 C 607.659 1.87039 0.285122 0
M  V30 6338 O 607.002 1.38557 1.20614 0
M  V30 6339 C 607.064 3.12919 -1.7698 0
M  V30 6340 C 606.728 3.2012 -3.26148 0
M  V30 6341 C 607.725 3.02533 -4.22812 0
M  V30 6342 C 605.41 3.43148 -3.66817 0
M  V30 6343 C 607.404 3.07861 -5.58122 0
M  V30 6344 C 605.091 3.48109 -5.02258 0
M  V30 6345 C 606.089 3.30483 -5.97721 0
M  V30 6346 O 605.777 3.35175 -7.30694 0
M  V30 6347 H 605.509 0.54152 -0.404639 0
M  V30 6348 H 608.063 1.17342 -1.68582 0
M  V30 6349 H 606.293 3.67945 -1.18969 0
M  V30 6350 H 607.982 3.72787 -1.60576 0
M  V30 6351 H 608.748 2.84586 -3.92728 0
M  V30 6352 H 604.627 3.55918 -2.9299 0
M  V30 6353 H 608.171 2.94021 -6.32612 0
M  V30 6354 H 604.068 3.65579 -5.31998 0
M  V30 6355 H 604.836 3.51644 -7.39114 0
M  V30 6356 N 607.499 1.09233 1.13605 0
M  V30 6357 C 608.729 0.847677 1.88409 0
M  V30 6358 C 609.137 -0.604524 1.79282 0
M  V30 6359 O 608.48 -1.42773 1.15592 0
M  V30 6360 C 608.542 1.20153 3.38827 0
M  V30 6361 C 608.206 2.65824 3.71735 0
M  V30 6362 C 609.203 3.64072 3.71143 0
M  V30 6363 C 606.888 3.01894 4.01454 0
M  V30 6364 C 608.882 4.96419 3.99808 0
M  V30 6365 C 606.569 4.34433 4.29781 0
M  V30 6366 C 607.567 5.31505 4.28942 0
M  V30 6367 O 607.255 6.61659 4.56576 0
M  V30 6368 H 606.987 0.304813 0.603378 0
M  V30 6369 H 609.541 1.4573 1.44748 0
M  V30 6370 H 607.771 0.534946 3.82982 0
M  V30 6371 H 609.46 0.936349 3.94952 0
M  V30 6372 H 610.226 3.37549 3.4826 0
M  V30 6373 H 606.105 2.26971 4.01255 0
M  V30 6374 H 609.649 5.7218 3.99069 0
M  V30 6375 H 605.546 4.607 4.52135 0
M  V30 6376 H 606.314 6.67102 4.74254 0
M  V30 6377 N 608.977 -1.30795 0.87923 0
M  V30 6378 C 610.254 -1.91145 0.415086 0
M  V30 6379 C 610.634 -1.7995 -1.10368 0
M  V30 6380 O 609.982 -1.21305 -1.93642 0
M  V30 6381 C 610.192 -3.37014 0.906778 0
M  V30 6382 C 611.54 -4.14101 0.938358 0
M  V30 6383 O 612.564 -3.45834 0.853053 0
M  V30 6384 O 611.423 -5.36054 1.06342 0
M  V30 6385 H 608.517 -0.81736 0.125905 0
M  V30 6386 H 611.063 -1.39401 0.967753 0
M  V30 6387 H 609.835 -3.3922 1.95053 0
M  V30 6388 H 609.458 -3.96204 0.332948 0
M  V30 6389 N 610.455 -0.639598 -1.44038 0
M  V30 6390 C 611.683 -0.154811 -2.0632 0
M  V30 6391 C 612.098 1.17406 -1.47856 0
M  V30 6392 O 611.455 1.72193 -0.604638 0
M  V30 6393 C 611.506 -0.0429958 -3.61474 0
M  V30 6394 O 611.227 -1.31932 -4.17763 0
M  V30 6395 C 612.728 0.469486 -4.40807 0
M  V30 6396 H 609.948 -0.0835862 -0.665773 0
M  V30 6397 H 612.492 -0.876397 -1.84769 0
M  V30 6398 H 610.647 0.629075 -3.82258 0
M  V30 6399 H 611.061 -1.16965 -5.11292 0
M  V30 6400 H 612.535 0.496712 -5.49761 0
M  V30 6401 H 613.012 1.49819 -4.12857 0
M  V30 6402 H 613.618 -0.169624 -4.24962 0
M  V30 6403 N 611.933 1.52934 -0.380664 0
M  V30 6404 C 613.21 1.93845 0.261417 0
M  V30 6405 C 613.59 1.31544 1.65104 0
M  V30 6406 O 612.938 0.480234 2.23397 0
M  V30 6407 C 613.148 3.47739 0.296466 0
M  V30 6408 C 614.496 4.21284 0.529578 0
M  V30 6409 O 615.52 3.54199 0.377041 0
M  V30 6410 O 614.379 5.40195 0.827753 0
M  V30 6411 H 611.473 0.811318 0.160285 0
M  V30 6412 H 614.019 1.64042 -0.434544 0
M  V30 6413 H 612.791 3.85395 -0.67724 0
M  V30 6414 H 612.414 3.8382 1.0377 0
M  V30 6415 N 613.412 0.11024 1.57214 0
M  V30 6416 C 614.345 -0.880224 2.1054 0
M  V30 6417 C 615.323 -1.26658 1.01964 0
M  V30 6418 O 616.507 -1.36917 1.29561 0
M  V30 6419 C 613.634 -2.17676 2.59489 0
M  V30 6420 C 612.68 -1.93914 3.79868 0
M  V30 6421 S 613.513 -1.16336 5.2271 0
M  V30 6422 C 614.669 -2.47188 5.75021 0
M  V30 6423 H 614.902 -0.426614 2.94223 0
M  V30 6424 H 612.435 -0.10336 1.54054 0
M  V30 6425 H 614.393 -2.92175 2.88347 0
M  V30 6426 H 613.054 -2.60156 1.76005 0
M  V30 6427 H 612.247 -2.8996 4.12236 0
M  V30 6428 H 611.849 -1.27539 3.51582 0
M  V30 6429 H 614.141 -3.43079 5.84211 0
M  V30 6430 H 615.084 -2.19377 6.7326 0
M  V30 6431 H 615.492 -2.56154 5.03036 0
M  V30 6432 N 614.89 -1.56749 -0.16351 0
M  V30 6433 C 616.167 -1.73321 -0.906599 0
M  V30 6434 C 616.547 -0.673779 -2.00059 0
M  V30 6435 O 615.895 0.310121 -2.26386 0
M  V30 6436 C 616.105 -3.168 -1.46419 0
M  V30 6437 C 617.453 -3.77993 -1.93407 0
M  V30 6438 O 618.477 -3.20127 -1.56196 0
M  V30 6439 O 617.336 -4.79615 -2.61976 0
M  V30 6440 H 614.43 -0.708073 -0.427272 0
M  V30 6441 H 616.976 -1.69029 -0.150727 0
M  V30 6442 H 615.748 -3.85396 -0.677189 0
M  V30 6443 H 615.371 -3.2545 -2.28403 0
M  V30 6444 N 616.368 0.432326 -1.51554 0
M  V30 6445 C 617.3 1.54357 -1.6943 0
M  V30 6446 C 618.313 1.52311 -0.574897 0
M  V30 6447 O 619.502 1.56997 -0.849369 0
M  V30 6448 C 616.602 2.93273 -1.69836 0
M  V30 6449 C 615.775 3.19768 -2.98442 0
M  V30 6450 C 614.834 4.38433 -2.90969 0
M  V30 6451 O 613.86 4.36842 -3.64908 0
M  V30 6452 N 615.062 5.42276 -2.07163 0
M  V30 6453 H 617.827 1.39426 -2.65293 0
M  V30 6454 H 615.388 0.621331 -1.49503 0
M  V30 6455 H 617.38 3.70687 -1.62399 0
M  V30 6456 H 615.95 3.01777 -0.815456 0
M  V30 6457 H 615.17 2.30607 -3.19709 0
M  V30 6458 H 616.458 3.343 -3.83563 0
M  V30 6459 H 615.856 5.46407 -1.46477 0
M  V30 6460 H 614.413 6.18524 -2.05601 0
M  V30 6461 N 617.846 1.41785 0.688094 0
M  V30 6462 C 618.809 1.43936 1.78368 0
M  V30 6463 C 619.809 0.328866 1.57401 0
M  V30 6464 O 620.999 0.589093 1.63937 0
M  V30 6465 C 618.131 1.25804 3.16838 0
M  V30 6466 H 619.324 2.41472 1.77852 0
M  V30 6467 H 616.877 1.28037 0.896448 0
M  V30 6468 H 617.612 0.291386 3.22988 0
M  V30 6469 H 617.397 2.06272 3.33458 0
M  V30 6470 H 618.887 1.30162 3.96797 0
M  V30 6471 N 619.324 -0.923095 1.27737 0
M  V30 6472 C 620.257 -2.02515 1.05181 0
M  V30 6473 C 621.235 -1.62574 -0.0292204 0
M  V30 6474 O 622.419 -1.88137 0.116848 0
M  V30 6475 C 619.546 -3.33407 0.596468 0
M  V30 6476 C 618.592 -3.92328 1.67276 0
M  V30 6477 S 619.425 -4.24342 3.26641 0
M  V30 6478 C 620.581 -5.58308 2.82919 0
M  V30 6479 H 620.814 -2.21336 1.98488 0
M  V30 6480 H 618.347 -1.06679 1.1162 0
M  V30 6481 H 620.305 -4.09086 0.34044 0
M  V30 6482 H 618.966 -3.125 -0.316614 0
M  V30 6483 H 618.159 -4.86797 1.30556 0
M  V30 6484 H 617.761 -3.2325 1.8811 0
M  V30 6485 H 620.053 -6.37801 2.28509 0
M  V30 6486 H 620.996 -5.99931 3.7615 0
M  V30 6487 H 621.404 -5.19049 2.21919 0
M  V30 6488 N 620.802 -1.09834 -1.13024 0
M  V30 6489 C 621.712 -0.753731 -2.22162 0
M  V30 6490 C 622.728 0.246105 -1.72251 0
M  V30 6491 O 623.904 0.0864051 -2.01215 0
M  V30 6492 C 620.969 -0.183958 -3.46212 0
M  V30 6493 C 620.03 -1.24028 -4.10993 0
M  V30 6494 C 619.263 -0.697597 -5.29121 0
M  V30 6495 O 619.486 0.478092 -5.68393 0
M  V30 6496 O 618.42 -1.4546 -5.84059 0
M  V30 6497 H 622.246 -1.66456 -2.5402 0
M  V30 6498 H 619.831 -0.873026 -1.21238 0
M  V30 6499 H 621.713 0.130257 -4.21199 0
M  V30 6500 H 620.388 0.699823 -3.16045 0
M  V30 6501 H 619.295 -1.60725 -3.37814 0
M  V30 6502 H 620.628 -2.09685 -4.45301 0
M  V30 6503 N 622.28 1.30327 -0.886154 0
M  V30 6504 C 623.696 1.48676 -0.580323 0
M  V30 6505 C 623.896 1.81189 0.881639 0
M  V30 6506 O 622.952 1.90021 1.66278 0
M  V30 6507 C 624.265 2.60932 -1.49449 0
M  V30 6508 C 625.813 2.74812 -1.49824 0
M  V30 6509 C 626.288 3.90183 -2.39836 0
M  V30 6510 N 627.779 3.97495 -2.37806 0
M  V30 6511 C 628.514 4.86078 -3.04165 0
M  V30 6512 N 628.01 5.79448 -3.79753 0
M  V30 6513 N 629.803 4.79456 -2.93391 0
M  V30 6514 H 621.954 1.07495 -1.8319 0
M  V30 6515 H 624.217 0.532661 -0.784204 0
M  V30 6516 H 623.923 2.43731 -2.5355 0
M  V30 6517 H 623.797 3.57437 -1.20494 0
M  V30 6518 H 626.184 2.91418 -0.464731 0
M  V30 6519 H 626.265 1.78924 -1.82811 0
M  V30 6520 H 625.909 3.74334 -3.43273 0
M  V30 6521 H 625.839 4.85411 -2.04166 0
M  V30 6522 H 628.33 3.30703 -1.82877 0
M  V30 6523 H 628.643 6.43805 -4.27475 0
M  V30 6524 H 626.988 5.79376 -3.8386 0
M  V30 6525 H 630.179 4.05494 -2.33864 0
M  V30 6526 H 630.352 5.48283 -3.45383 0
M  V30 6527 N 623.758 0.647228 1.43697 0
M  V30 6528 C 624.988 0.16551 2.05936 0
M  V30 6529 C 625.396 -1.17164 1.48557 0
M  V30 6530 O 624.739 -1.73307 0.60914 0
M  V30 6531 C 624.801 -0.00648082 3.59499 0
M  V30 6532 C 624.465 1.25503 4.39429 0
M  V30 6533 C 625.462 2.18241 4.71876 0
M  V30 6534 C 623.147 1.49494 4.79538 0
M  V30 6535 C 625.141 3.33268 5.43333 0
M  V30 6536 C 622.828 2.64815 5.50742 0
M  V30 6537 C 623.826 3.56528 5.82561 0
M  V30 6538 O 623.514 4.69836 6.52311 0
M  V30 6539 H 623.246 0.0844124 0.670709 0
M  V30 6540 H 625.8 0.88638 1.8529 0
M  V30 6541 H 624.03 -0.782661 3.78697 0
M  V30 6542 H 625.719 -0.444794 4.03456 0
M  V30 6543 H 626.485 2.00946 4.41413 0
M  V30 6544 H 622.364 0.789912 4.54182 0
M  V30 6545 H 625.908 4.04874 5.68087 0
M  V30 6546 H 621.805 2.82047 5.8062 0
M  V30 6547 H 622.573 4.69024 6.70789 0
M  V30 6548 N 625.236 -1.5273 0.388769 0
M  V30 6549 C 626.482 -2.01871 -0.193877 0
M  V30 6550 C 626.815 -1.27475 -1.46505 0
M  V30 6551 O 626.09 -0.375063 -1.90849 0
M  V30 6552 C 626.373 -3.5712 -0.462336 0
M  V30 6553 C 626.226 -4.42186 0.824091 0
M  V30 6554 C 627.545 -4.21881 -1.25319 0
M  V30 6555 H 624.664 -0.733764 -0.0689899 0
M  V30 6556 H 627.306 -1.82796 0.518231 0
M  V30 6557 H 625.456 -3.73504 -1.06896 0
M  V30 6558 H 627.128 -4.37554 1.46096 0
M  V30 6559 H 625.371 -4.09219 1.43952 0
M  V30 6560 H 626.042 -5.48828 0.590905 0
M  V30 6561 H 628.518 -4.0947 -0.73981 0
M  V30 6562 H 627.394 -5.30487 -1.40977 0
M  V30 6563 H 627.655 -3.79478 -2.26824 0
M  V30 6564 N 626.714 -0.118576 -1.57153 0
M  V30 6565 C 627.939 0.550582 -1.99958 0
M  V30 6566 C 628.364 1.59458 -0.997736 0
M  V30 6567 O 627.722 1.81274 0.0306269 0
M  V30 6568 C 627.77 1.15379 -3.41643 0
M  V30 6569 O 626.874 2.26932 -3.44348 0
M  V30 6570 H 626.215 0.137567 -0.649593 0
M  V30 6571 H 628.745 -0.206926 -2.03551 0
M  V30 6572 H 628.755 1.48942 -3.79843 0
M  V30 6573 H 627.43 0.389087 -4.14076 0
M  V30 6574 H 626.007 1.94812 -3.17967 0
M  V30 6575 N 628.193 1.56834 0.155195 0
M  V30 6576 C 629.126 1.9278 1.22111 0
M  V30 6577 C 630.104 0.792588 1.41975 0
M  V30 6578 O 631.288 1.04743 1.5672 0
M  V30 6579 C 628.415 2.19273 2.58142 0
M  V30 6580 C 627.461 3.41932 2.54921 0
M  V30 6581 S 628.294 4.95769 2.02418 0
M  V30 6582 C 629.45 5.25375 3.40194 0
M  V30 6583 H 629.683 2.82889 0.914393 0
M  V30 6584 H 627.216 1.50133 0.360461 0
M  V30 6585 H 629.174 2.35217 3.36427 0
M  V30 6586 H 627.835 1.29843 2.86007 0
M  V30 6587 H 627.028 3.57721 3.55038 0
M  V30 6588 H 626.63 3.25188 1.8474 0
M  V30 6589 H 628.922 5.1834 4.36268 0
M  V30 6590 H 629.865 6.26889 3.29266 0
M  V30 6591 H 630.273 4.52906 3.36951 0
M  V30 6592 N 629.671 -0.424282 1.51781 0
M  V30 6593 C 631.082 -1.00368 1.57427 0
M  V30 6594 C 631.433 -1.91962 0.40558 0
M  V30 6595 O 630.558 -2.111 -0.47601 0
M  V30 6596 C 631.153 -1.82707 2.85313 0
M  V30 6597 C 629.712 -2.35675 2.93487 0
M  V30 6598 C 628.859 -1.1524 2.5222 0
M  V30 6599 H 631.81 -0.205064 1.5737 0
M  V30 6600 H 631.831 -2.68294 2.69812 0
M  V30 6601 H 631.343 -1.16017 3.70353 0
M  V30 6602 H 629.444 -3.05781 2.12906 0
M  V30 6603 H 629.557 -2.67578 3.97415 0
M  V30 6604 H 627.921 -1.50174 2.05718 0
M  V30 6605 H 628.704 -0.5014 3.39619 0
M  V30 6606 N 631.149 -1.42148 -0.680565 0
M  V30 6607 C 632.565 -1.24947 -0.992995 0
M  V30 6608 C 632.765 -0.149527 -2.00944 0
M  V30 6609 O 631.821 0.481145 -2.47873 0
M  V30 6610 C 633.134 -2.60426 -1.5033 0
M  V30 6611 C 634.682 -2.67733 -1.62137 0
M  V30 6612 C 635.157 -4.03564 -2.16565 0
M  V30 6613 N 636.648 -4.05488 -2.23905 0
M  V30 6614 C 637.383 -5.07401 -2.67081 0
M  V30 6615 N 636.879 -6.19698 -3.09751 0
M  V30 6616 N 638.672 -4.94758 -2.66778 0
M  V30 6617 H 630.823 -2.12399 -0.0074788 0
M  V30 6618 H 633.086 -0.94571 -0.0658529 0
M  V30 6619 H 632.792 -3.41743 -0.830947 0
M  V30 6620 H 632.666 -2.83949 -2.483 0
M  V30 6621 H 635.053 -1.86765 -2.2848 0
M  V30 6622 H 635.134 -2.48004 -0.626713 0
M  V30 6623 H 634.778 -4.84987 -1.50833 0
M  V30 6624 H 634.708 -4.20641 -3.1681 0
M  V30 6625 H 637.199 -3.24415 -1.93812 0
M  V30 6626 H 637.512 -6.93318 -3.41365 0
M  V30 6627 H 635.857 -6.23212 -3.07623 0
M  V30 6628 H 639.048 -4.06105 -2.32801 0
M  V30 6629 H 639.221 -5.74317 -3.00107 0
M  V30 6630 N 632.627 0.916307 -1.28225 0
M  V30 6631 C 633.537 2.05165 -1.13775 0
M  V30 6632 C 634.553 1.73879 -0.0649418 0
M  V30 6633 O 635.729 1.99531 -0.273722 0
M  V30 6634 C 632.794 3.37385 -0.798267 0
M  V30 6635 C 631.855 3.82296 -1.95316 0
M  V30 6636 C 631.088 5.08206 -1.62978 0
M  V30 6637 O 631.311 5.6781 -0.542948 0
M  V30 6638 O 630.245 5.48768 -2.47261 0
M  V30 6639 H 634.071 2.20273 -2.09078 0
M  V30 6640 H 631.656 1.0373 -1.07519 0
M  V30 6641 H 633.538 4.16773 -0.62278 0
M  V30 6642 H 632.213 3.23458 0.125139 0
M  V30 6643 H 631.12 3.03746 -2.18378 0
M  V30 6644 H 632.453 4.00782 -2.85718 0
M  V30 6645 N 634.105 1.10431 1.1244 0
M  V30 6646 C 635.015 0.765502 2.21759 0
M  V30 6647 C 636.031 -0.236966 1.72379 0
M  V30 6648 O 637.207 -0.0757329 2.01258 0
M  V30 6649 C 634.272 0.202316 3.46109 0
M  V30 6650 C 633.333 1.26205 4.1033 0
M  V30 6651 C 632.566 0.725648 5.28744 0
M  V30 6652 O 632.789 -0.447942 5.68638 0
M  V30 6653 O 631.723 1.48555 5.83279 0
M  V30 6654 H 635.549 1.67801 2.53133 0
M  V30 6655 H 633.134 0.879443 1.20773 0
M  V30 6656 H 635.016 -0.107918 4.21262 0
M  V30 6657 H 633.691 -0.683052 3.16411 0
M  V30 6658 H 632.598 1.62514 3.36957 0
M  V30 6659 H 633.931 2.12044 4.44183 0
M  V30 6660 N 635.583 -1.29855 0.893053 0
M  V30 6661 C 636.546 -2.26183 0.370687 0
M  V30 6662 C 637.546 -1.53108 -0.491385 0
M  V30 6663 O 638.736 -1.71643 -0.297386 0
M  V30 6664 C 635.868 -3.37633 -0.470827 0
M  V30 6665 H 637.061 -2.73903 1.22135 0
M  V30 6666 H 634.614 -1.41183 0.67061 0
M  V30 6667 H 635.349 -2.95241 -1.34175 0
M  V30 6668 H 635.134 -3.91825 0.146784 0
M  V30 6669 H 636.624 -4.09313 -0.827825 0
M  V30 6670 N 637.061 -0.65484 -1.43351 0
M  V30 6671 C 638.024 0.0263562 -2.29185 0
M  V30 6672 C 639.024 0.748951 -1.42293 0
M  V30 6673 O 640.214 0.589957 -1.63906 0
M  V30 6674 C 637.346 1.04806 -3.2439 0
M  V30 6675 H 638.539 -0.728883 -2.90908 0
M  V30 6676 H 636.092 -0.416149 -1.50658 0
M  V30 6677 H 636.827 1.83247 -2.67565 0
M  V30 6678 H 636.612 0.533554 -3.88453 0
M  V30 6679 H 638.102 1.52372 -3.88809 0
M  V30 6680 N 638.539 1.52521 -0.396863 0
M  V30 6681 C 639.449 2.30403 0.44178 0
M  V30 6682 C 640.465 1.37625 1.06468 0
M  V30 6683 O 641.641 1.70697 1.06886 0
M  V30 6684 C 638.706 3.1013 1.54986 0
M  V30 6685 C 637.767 4.18628 0.951279 0
M  V30 6686 C 637 4.94543 2.00655 0
M  V30 6687 O 637.223 4.70629 3.22281 0
M  V30 6688 O 636.157 5.797 1.61962 0
M  V30 6689 H 639.983 3.03087 -0.192892 0
M  V30 6690 H 637.568 1.48537 -0.16038 0
M  V30 6691 H 639.45 3.59816 2.19341 0
M  V30 6692 H 638.125 2.40251 2.16935 0
M  V30 6693 H 637.032 3.73119 0.270773 0
M  V30 6694 H 638.365 4.90763 0.375887 0
M  V30 6695 N 640.017 0.126909 1.57088 0
M  V30 6696 C 640.967 -0.831678 2.1229 0
M  V30 6697 C 641.951 -1.22292 1.04564 0
M  V30 6698 O 643.143 -1.19269 1.30782 0
M  V30 6699 C 640.272 -2.07866 2.73215 0
M  V30 6700 C 639.358 -1.71143 3.88035 0
M  V30 6701 N 639.749 -1.05136 4.94753 0
M  V30 6702 C 638.047 -2.00549 3.98367 0
M  V30 6703 C 638.748 -0.877257 5.75047 0
M  V30 6704 N 637.724 -1.40477 5.25135 0
M  V30 6705 H 641.526 -0.317926 2.92175 0
M  V30 6706 H 639.04 -0.0753052 1.62225 0
M  V30 6707 H 641.037 -2.77516 3.11111 0
M  V30 6708 H 639.697 -2.59778 1.94796 0
M  V30 6709 H 640.708 -0.71442 5.12949 0
M  V30 6710 H 637.385 -2.54452 3.30999 0
M  V30 6711 H 638.775 -0.358536 6.70943 0
M  V30 6712 N 641.495 -1.56914 -0.146875 0
M  V30 6713 C 642.744 -1.82546 -0.857898 0
M  V30 6714 C 643.057 -0.708169 -1.8233 0
M  V30 6715 O 644.263 -0.850093 -2.57848 0
M  V30 6716 C 642.719 -3.23548 -1.57623 0
M  V30 6717 C 642.327 -4.43212 -0.653224 0
M  V30 6718 C 644.071 -3.58453 -2.27402 0
M  V30 6719 C 641.978 -5.75237 -1.37318 0
M  V30 6720 H 640.908 -0.680786 -0.32411 0
M  V30 6721 H 643.559 -1.83166 -0.110639 0
M  V30 6722 H 641.941 -3.17315 -2.36912 0
M  V30 6723 H 643.115 -4.60682 0.104452 0
M  V30 6724 H 641.43 -4.16351 -0.0638336 0
M  V30 6725 H 644.027 -4.54349 -2.81907 0
M  V30 6726 H 644.37 -2.84516 -3.03901 0
M  V30 6727 H 644.903 -3.66347 -1.55032 0
M  V30 6728 H 641.642 -6.52269 -0.650041 0
M  V30 6729 H 641.162 -5.61703 -2.10357 0
M  V30 6730 H 642.841 -6.18039 -1.91406 0
M  V30 6731 N 642.974 0.416227 -1.52004 0
M  V30 6732 C 644.385 0.995319 -1.57957 0
M  V30 6733 C 644.736 1.91744 -0.415754 0
M  V30 6734 O 643.861 2.11349 0.464808 0
M  V30 6735 C 644.456 1.81191 -2.86278 0
M  V30 6736 C 643.015 2.34115 -2.94732 0
M  V30 6737 C 642.162 1.139 -2.52828 0
M  V30 6738 H 645.113 0.196716 -1.57476 0
M  V30 6739 H 645.134 2.66859 -2.71231 0
M  V30 6740 H 644.646 1.14051 -3.70963 0
M  V30 6741 H 642.747 3.04647 -2.14525 0
M  V30 6742 H 642.86 2.65466 -3.98829 0
M  V30 6743 H 641.224 1.49081 -2.06511 0
M  V30 6744 H 642.007 0.483383 -3.3988 0
M  V30 6745 N 644.452 1.42507 0.673017 0
M  V30 6746 C 645.382 1.48916 1.79851 0
M  V30 6747 C 646.363 0.345566 1.66553 0
M  V30 6748 O 647.548 0.560116 1.85947 0
M  V30 6749 C 644.678 1.39258 3.18158 0
M  V30 6750 C 643.632 2.51662 3.46194 0
M  V30 6751 C 642.958 2.27062 4.84094 0
M  V30 6752 C 644.258 3.93968 3.42909 0
M  V30 6753 H 645.952 2.43114 1.74745 0
M  V30 6754 H 643.498 1.17013 0.839288 0
M  V30 6755 H 645.451 1.42349 3.96629 0
M  V30 6756 H 644.175 0.415542 3.23946 0
M  V30 6757 H 642.834 2.47891 2.70084 0
M  V30 6758 H 642.482 1.27648 4.86534 0
M  V30 6759 H 642.182 3.02398 5.03815 0
M  V30 6760 H 643.706 2.31905 5.64847 0
M  V30 6761 H 645.12 3.99332 4.11347 0
M  V30 6762 H 643.517 4.6917 3.74165 0
M  V30 6763 H 644.587 4.20512 2.41449 0
M  V30 6764 N 645.93 -0.909495 1.28709 0
M  V30 6765 C 646.86 -2.0291 1.15542 0
M  V30 6766 C 647.841 -1.7002 0.0521017 0
M  V30 6767 O 649.026 -1.92835 0.229849 0
M  V30 6768 C 646.156 -3.37458 0.820935 0
M  V30 6769 C 645.11 -3.84524 1.87949 0
M  V30 6770 C 644.436 -5.16086 1.39854 0
M  V30 6771 C 645.736 -4.05918 3.28676 0
M  V30 6772 H 647.43 -2.14183 2.09203 0
M  V30 6773 H 644.976 -1.02913 1.00722 0
M  V30 6774 H 646.929 -4.1528 0.715571 0
M  V30 6775 H 645.653 -3.26249 -0.151374 0
M  V30 6776 H 644.312 -3.08911 1.97408 0
M  V30 6777 H 643.96 -5.01284 0.41518 0
M  V30 6778 H 643.66 -5.48547 2.1064 0
M  V30 6779 H 645.184 -5.96459 1.30649 0
M  V30 6780 H 646.598 -4.74252 3.22115 0
M  V30 6781 H 644.995 -4.49717 3.97334 0
M  V30 6782 H 646.065 -3.10583 3.72379 0
M  V30 6783 N 647.408 -1.11026 -1.11852 0
M  V30 6784 C 648.655 -0.85646 -1.83497 0
M  V30 6785 C 648.983 0.617938 -1.84423 0
M  V30 6786 O 648.238 1.47194 -1.28966 0
M  V30 6787 C 648.537 -1.35777 -3.30604 0
M  V30 6788 C 648.203 -2.84465 -3.49843 0
M  V30 6789 C 646.865 -3.25068 -3.54802 0
M  V30 6790 C 649.217 -3.80251 -3.56453 0
M  V30 6791 C 646.545 -4.60194 -3.63921 0
M  V30 6792 C 648.897 -5.15188 -3.67102 0
M  V30 6793 C 647.561 -5.55356 -3.70319 0
M  V30 6794 H 646.831 -0.313401 -0.671462 0
M  V30 6795 H 649.478 -1.38792 -1.31943 0
M  V30 6796 H 647.783 -0.746455 -3.84624 0
M  V30 6797 H 649.48 -1.13779 -3.8452 0
M  V30 6798 H 646.07 -2.52054 -3.46651 0
M  V30 6799 H 650.254 -3.49986 -3.51886 0
M  V30 6800 H 645.51 -4.90728 -3.64686 0
M  V30 6801 H 649.684 -5.89248 -3.71159 0
M  V30 6802 H 647.311 -6.60054 -3.77138 0
M  V30 6803 N 648.886 1.2938 -0.899927 0
M  V30 6804 C 650.133 1.9555 -0.525963 0
M  V30 6805 C 650.461 1.70945 0.927789 0
M  V30 6806 O 649.716 1.01545 1.67293 0
M  V30 6807 C 650.015 3.49114 -0.765113 0
M  V30 6808 C 649.681 3.93796 -2.19626 0
M  V30 6809 C 648.343 4.05707 -2.58758 0
M  V30 6810 C 650.695 4.16883 -3.12823 0
M  V30 6811 C 648.023 4.38074 -3.90267 0
M  V30 6812 C 650.375 4.50725 -4.4388 0
M  V30 6813 C 649.039 4.60845 -4.82885 0
M  V30 6814 H 648.309 0.715569 -0.192463 0
M  V30 6815 H 650.956 1.53972 -1.13863 0
M  V30 6816 H 649.261 3.91738 -0.069531 0
M  V30 6817 H 650.958 3.98409 -0.455144 0
M  V30 6818 H 647.548 3.85042 -1.88256 0
M  V30 6819 H 651.732 4.07147 -2.83804 0
M  V30 6820 H 646.988 4.44112 -4.20207 0
M  V30 6821 H 651.162 4.67538 -5.16121 0
M  V30 6822 H 648.789 4.85681 -5.84823 0
M  V30 6823 N 650.364 0.662433 1.43002 0
M  V30 6824 C 651.327 -0.0142016 2.29196 0
M  V30 6825 C 652.327 -0.741394 1.42688 0
M  V30 6826 O 653.517 -0.581257 1.64216 0
M  V30 6827 C 650.649 -1.03084 3.24941 0
M  V30 6828 H 651.842 0.7443 2.90517 0
M  V30 6829 H 649.395 0.424133 1.50435 0
M  V30 6830 H 650.13 -1.81826 2.68533 0
M  V30 6831 H 649.915 -0.512946 3.8873 0
M  V30 6832 H 651.405 -1.50308 3.89612 0
M  V30 6833 N 651.842 -1.52309 0.404946 0
M  V30 6834 C 653.089 -2.01767 -0.1722 0
M  V30 6835 C 653.417 -1.29075 -1.45498 0
M  V30 6836 O 652.672 -0.3843 -1.9189 0
M  V30 6837 C 652.971 -3.54284 -0.470895 0
M  V30 6838 C 652.637 -4.45079 0.722194 0
M  V30 6839 C 651.299 -4.69617 1.04946 0
M  V30 6840 C 653.651 -4.98555 1.51962 0
M  V30 6841 C 650.979 -5.44878 2.17543 0
M  V30 6842 C 653.331 -5.75049 2.63632 0
M  V30 6843 C 651.995 -5.9786 2.9685 0
M  V30 6844 H 651.265 -0.738316 -0.0630125 0
M  V30 6845 H 653.912 -1.83566 0.545506 0
M  V30 6846 H 652.217 -3.70642 -1.27012 0
M  V30 6847 H 653.914 -3.90058 -0.930346 0
M  V30 6848 H 650.504 -4.26155 0.457131 0
M  V30 6849 H 654.688 -4.79509 1.28002 0
M  V30 6850 H 649.944 -5.60762 2.43631 0
M  V30 6851 H 654.118 -6.15483 3.25813 0
M  V30 6852 H 651.745 -6.5596 3.84215 0
M  V30 6853 N 653.32 -0.135238 -1.57019 0
M  V30 6854 C 654.731 0.387521 -1.82634 0
M  V30 6855 C 655.082 1.65528 -1.05332 0
M  V30 6856 O 654.207 2.14381 -0.294926 0
M  V30 6857 C 654.802 0.709852 -3.3128 0
M  V30 6858 C 653.361 1.17718 -3.57518 0
M  V30 6859 C 652.508 0.194183 -2.76619 0
M  V30 6860 H 655.459 -0.360126 -1.5456 0
M  V30 6861 H 655.48 1.5657 -3.46794 0
M  V30 6862 H 654.992 -0.213024 -3.87515 0
M  V30 6863 H 653.093 2.1164 -3.06658 0
M  V30 6864 H 653.206 1.11128 -4.66034 0
M  V30 6865 H 651.57 0.684478 -2.4533 0
M  V30 6866 H 652.353 -0.722076 -3.3562 0
M  V30 6867 N 654.798 1.5699 0.138552 0
M  V30 6868 C 656.023 1.88344 0.86841 0
M  V30 6869 C 656.448 0.725159 1.7356 0
M  V30 6870 O 655.806 -0.324992 1.78363 0
M  V30 6871 C 655.854 3.18334 1.69398 0
M  V30 6872 O 654.958 3.02863 2.79907 0
M  V30 6873 H 654.299 0.618577 0.241367 0
M  V30 6874 H 656.829 2.04207 0.126826 0
M  V30 6875 H 656.839 3.50567 2.08726 0
M  V30 6876 H 655.514 4.02238 1.05725 0
M  V30 6877 H 654.091 2.82056 2.43924 0
M  V30 6878 N 656.276 -0.40816 1.52223 0
M  V30 6879 C 657.239 -1.48 1.7501 0
M  V30 6880 C 658.239 -1.48367 0.619996 0
M  V30 6881 O 659.429 -1.49874 0.887881 0
M  V30 6882 C 656.561 -2.87403 1.83336 0
M  V30 6883 H 657.754 -1.29086 2.70697 0
M  V30 6884 H 655.307 -0.638715 1.42654 0
M  V30 6885 H 656.042 -3.11686 0.895677 0
M  V30 6886 H 655.827 -2.8854 2.65494 0
M  V30 6887 H 657.317 -3.65103 2.02705 0
M  V30 6888 N 657.755 -1.42862 -0.66545 0
M  V30 6889 C 658.702 -1.4707 -1.77874 0
M  V30 6890 C 659.672 -0.321654 -1.62956 0
M  V30 6891 O 660.857 -0.52707 -1.83376 0
M  V30 6892 C 657.997 -1.38788 -3.15962 0
M  V30 6893 C 657.11 -2.63801 -3.42101 0
M  V30 6894 C 656.245 -2.47594 -4.69969 0
M  V30 6895 C 655.284 -3.67936 -4.89172 0
M  V30 6896 N 654.421 -3.50614 -6.08288 0
M  V30 6897 H 659.261 -2.42204 -1.73613 0
M  V30 6898 H 656.798 -1.20239 -0.847401 0
M  V30 6899 H 658.756 -1.31982 -3.95773 0
M  V30 6900 H 657.386 -0.472431 -3.19324 0
M  V30 6901 H 656.438 -2.80935 -2.56475 0
M  V30 6902 H 657.75 -3.53228 -3.52181 0
M  V30 6903 H 656.904 -2.38427 -5.57886 0
M  V30 6904 H 655.643 -1.55672 -4.62188 0
M  V30 6905 H 654.648 -3.77525 -3.99694 0
M  V30 6906 H 655.873 -4.60851 -4.98792 0
M  V30 6907 H 653.819 -2.61417 -6.01662 0
M  V30 6908 H 653.736 -4.33634 -6.19272 0
M  V30 6909 H 655.004 -3.45276 -6.98859 0
M  V30 6910 N 659.233 0.902656 -1.29189 0
M  V30 6911 C 660.51 1.63296 -1.07674 0
M  V30 6912 C 660.89 2.07649 0.380137 0
M  V30 6913 O 660.238 1.82997 1.36837 0
M  V30 6914 C 660.448 2.81603 -2.06158 0
M  V30 6915 C 661.796 3.52359 -2.36914 0
M  V30 6916 O 662.82 2.91767 -2.04329 0
M  V30 6917 O 661.679 4.61586 -2.92576 0
M  V30 6918 H 658.773 0.716889 -0.41231 0
M  V30 6919 H 661.319 0.950984 -1.4055 0
M  V30 6920 H 660.091 2.46004 -3.04299 0
M  V30 6921 H 659.714 3.57508 -1.73993 0
M  V30 6922 N 660.711 1.11618 1.11262 0
M  V30 6923 C 662.122 0.881942 1.64556 0
M  V30 6924 C 662.473 -0.585442 1.87262 0
M  V30 6925 O 661.598 -1.44795 1.60821 0
M  V30 6926 C 662.193 1.59446 2.98935 0
M  V30 6927 C 660.752 1.40661 3.4913 0
M  V30 6928 C 659.899 1.63593 2.23903 0
M  V30 6929 H 662.85 1.27217 0.94877 0
M  V30 6930 H 662.871 1.04054 3.65996 0
M  V30 6931 H 662.383 2.66241 2.82378 0
M  V30 6932 H 660.484 0.360835 3.70849 0
M  V30 6933 H 660.597 2.15693 4.27801 0
M  V30 6934 H 658.961 1.05944 2.3162 0
M  V30 6935 H 659.744 2.71666 2.09886 0
M  V30 6936 N 662.189 -1.289 0.906776 0
M  V30 6937 C 663.417 -1.99401 0.551969 0
M  V30 6938 C 663.832 -1.67816 -0.865048 0
M  V30 6939 O 663.189 -0.927078 -1.57199 0
M  V30 6940 C 663.24 -3.53779 0.743152 0
M  V30 6941 O 662.961 -3.84248 2.1044 0
M  V30 6942 C 664.462 -4.41543 0.39424 0
M  V30 6943 H 661.682 -0.636926 0.211106 0
M  V30 6944 H 664.226 -1.64266 1.21807 0
M  V30 6945 H 662.381 -3.87201 0.124143 0
M  V30 6946 H 662.795 -4.78904 2.13895 0
M  V30 6947 H 664.269 -5.48957 0.578814 0
M  V30 6948 H 664.746 -4.34073 -0.669137 0
M  V30 6949 H 665.352 -4.13605 0.990491 0
M  V30 6950 N 663.667 -0.670007 -1.42649 0
M  V30 6951 C 664.913 -0.19923 -2.02422 0
M  V30 6952 C 665.268 1.17947 -1.52007 0
M  V30 6953 O 664.561 1.77939 -0.710512 0
M  V30 6954 C 664.755 -0.168298 -3.57004 0
M  V30 6955 C 664.584 -1.54246 -4.22419 0
M  V30 6956 C 663.354 -2.13904 -4.57792 0
M  V30 6957 C 665.552 -2.4842 -4.50324 0
M  V30 6958 N 663.534 -3.44151 -5.08364 0
M  V30 6959 C 664.905 -3.63317 -5.02395 0
M  V30 6960 C 666.96 -2.47011 -4.32308 0
M  V30 6961 C 665.663 -4.77051 -5.38345 0
M  V30 6962 C 667.689 -3.59838 -4.6933 0
M  V30 6963 C 667.051 -4.73462 -5.21549 0
M  V30 6964 H 663.15 -0.117717 -0.773089 0
M  V30 6965 H 665.734 -0.881955 -1.73579 0
M  V30 6966 H 663.905 0.483824 -3.85375 0
M  V30 6967 H 665.637 0.314914 -4.03473 0
M  V30 6968 H 662.392 -1.66441 -4.4339 0
M  V30 6969 H 662.816 -4.10846 -5.38084 0
M  V30 6970 H 667.458 -1.60394 -3.91195 0
M  V30 6971 H 665.176 -5.64347 -5.78393 0
M  V30 6972 H 668.762 -3.59969 -4.57071 0
M  V30 6973 H 667.642 -5.59321 -5.49663 0
M  V30 6974 N 665.145 1.52092 -0.413018 0
M  V30 6975 C 666.055 2.30858 0.417318 0
M  V30 6976 C 667.071 1.38746 1.05003 0
M  V30 6977 O 668.247 1.71821 1.05069 0
M  V30 6978 C 665.312 3.11756 1.51687 0
M  V30 6979 C 664.373 4.19613 0.906825 0
M  V30 6980 C 663.606 4.96644 1.95399 0
M  V30 6981 O 663.829 4.7402 3.17271 0
M  V30 6982 O 662.763 5.81385 1.55805 0
M  V30 6983 H 666.589 3.02865 -0.225028 0
M  V30 6984 H 664.174 1.48358 -0.176126 0
M  V30 6985 H 666.056 3.62122 2.15512 0
M  V30 6986 H 664.731 2.42539 2.14375 0
M  V30 6987 H 663.638 3.73385 0.231183 0
M  V30 6988 H 664.971 4.91134 0.323814 0
M  V30 6989 N 666.623 0.143563 1.56945 0
M  V30 6990 C 667.9 -0.553285 1.87612 0
M  V30 6991 C 668.28 -1.83195 1.04894 0
M  V30 6992 O 667.628 -2.28102 0.134773 0
M  V30 6993 C 667.838 -0.822055 3.3918 0
M  V30 6994 C 669.186 -1.16435 4.08324 0
M  V30 6995 O 670.21 -0.911522 3.4434 0
M  V30 6996 O 669.069 -1.63996 5.21313 0
M  V30 6997 H 666.163 -0.281851 0.777489 0
M  V30 6998 H 668.709 0.179916 1.68744 0
M  V30 6999 H 667.481 0.0830265 3.91212 0
M  V30 7000 H 667.104 -1.60956 3.63564 0
M  V30 7001 N 668.101 -1.57061 -0.130224 0
M  V30 7002 C 669.517 -1.52103 -0.483413 0
M  V30 7003 C 669.717 -0.854752 -1.82473 0
M  V30 7004 O 668.773 -0.432342 -2.48771 0
M  V30 7005 C 670.086 -2.96872 -0.47825 0
M  V30 7006 C 671.634 -3.07902 -0.562592 0
M  V30 7007 C 672.109 -4.54211 -0.587929 0
M  V30 7008 N 673.6 -4.58621 -0.649684 0
M  V30 7009 C 674.335 -5.69227 -0.690551 0
M  V30 7010 N 673.831 -6.89358 -0.689743 0
M  V30 7011 N 675.624 -5.57304 -0.732708 0
M  V30 7012 H 667.775 -1.98764 0.748779 0
M  V30 7013 H 670.038 -0.907248 0.274965 0
M  V30 7014 H 669.744 -3.48944 0.439444 0
M  V30 7015 H 669.618 -3.53716 -1.31013 0
M  V30 7016 H 672.005 -2.5584 -1.47071 0
M  V30 7017 H 672.086 -2.54073 0.296764 0
M  V30 7018 H 671.73 -5.06915 0.316096 0
M  V30 7019 H 671.66 -5.0584 -1.46401 0
M  V30 7020 H 674.151 -3.72146 -0.656927 0
M  V30 7021 H 674.464 -7.69408 -0.723239 0
M  V30 7022 H 672.809 -6.91884 -0.657347 0
M  V30 7023 H 676 -4.62363 -0.730625 0
M  V30 7024 H 676.173 -6.43515 -0.76109 0
M  V30 7025 N 669.579 0.400081 -1.52437 0
M  V30 7026 C 670.826 1.14619 -1.6694 0
M  V30 7027 C 671.154 1.90262 -0.403797 0
M  V30 7028 O 670.409 1.85835 0.61351 0
M  V30 7029 C 670.708 2.15914 -2.84808 0
M  V30 7030 C 670.374 1.57011 -4.2268 0
M  V30 7031 C 669.036 1.40672 -4.60179 0
M  V30 7032 C 671.388 1.14081 -5.08562 0
M  V30 7033 C 668.716 0.799335 -5.81229 0
M  V30 7034 C 671.068 0.547573 -6.30226 0
M  V30 7035 C 669.732 0.371389 -6.66466 0
M  V30 7036 H 669.002 0.419419 -0.610875 0
M  V30 7037 H 671.649 0.432227 -1.86558 0
M  V30 7038 H 669.954 2.93488 -2.59561 0
M  V30 7039 H 671.651 2.73533 -2.93225 0
M  V30 7040 H 668.241 1.70713 -3.93135 0
M  V30 7041 H 672.425 1.2551 -4.80168 0
M  V30 7042 H 667.681 0.65093 -6.07925 0
M  V30 7043 H 671.855 0.206575 -6.96094 0
M  V30 7044 H 669.482 -0.10135 -7.60132 0
M  V30 7045 N 671.057 1.43213 0.657864 0
M  V30 7046 C 672.468 1.39669 1.23893 0
M  V30 7047 C 672.819 0.0984217 1.95953 0
M  V30 7048 O 671.944 -0.8023 2.00978 0
M  V30 7049 C 672.539 2.53004 2.25332 0
M  V30 7050 C 671.098 2.5274 2.78926 0
M  V30 7051 C 670.245 2.30941 1.53497 0
M  V30 7052 H 673.196 1.52181 0.450172 0
M  V30 7053 H 673.217 2.24226 3.07413 0
M  V30 7054 H 672.729 3.4748 1.72856 0
M  V30 7055 H 670.83 1.6213 3.35477 0
M  V30 7056 H 670.943 3.50352 3.26787 0
M  V30 7057 H 669.307 1.7952 1.80678 0
M  V30 7058 H 670.09 3.27496 1.02963 0
M  V30 7059 N 672.536 -0.895792 1.29666 0
M  V30 7060 C 673.784 -1.64339 1.17631 0
M  V30 7061 C 674.105 -1.93099 -0.271643 0
M  V30 7062 O 673.375 -1.55981 -1.18518 0
M  V30 7063 H 671.955 -0.609162 0.432354 0
M  V30 7064 H 674.617 -1.07389 1.62646 0
M  V30 7065 H 673.713 -2.59815 1.72924 0
M  V30 7066 N 674.014 -1.12206 -1.10668 0
M  V30 7067 C 675.43 -0.857619 -1.346 0
M  V30 7068 C 675.63 0.513542 -1.94846 0
M  V30 7069 O 674.686 1.26273 -2.18658 0
M  V30 7070 C 675.999 -1.97212 -2.26998 0
M  V30 7071 C 677.547 -2.00272 -2.40542 0
M  V30 7072 C 678.022 -3.10948 -3.36267 0
M  V30 7073 N 679.513 -3.10375 -3.43834 0
M  V30 7074 C 680.248 -3.92651 -4.17867 0
M  V30 7075 N 679.744 -4.84911 -4.94807 0
M  V30 7076 N 681.537 -3.80798 -4.1346 0
M  V30 7077 H 673.688 -2.00558 -0.699306 0
M  V30 7078 H 675.951 -0.872612 -0.370477 0
M  V30 7079 H 675.657 -2.96002 -1.89936 0
M  V30 7080 H 675.531 -1.87521 -3.27286 0
M  V30 7081 H 677.918 -1.02103 -2.76874 0
M  V30 7082 H 677.999 -2.14037 -1.40077 0
M  V30 7083 H 677.643 -4.09348 -3.00661 0
M  V30 7084 H 677.573 -2.94421 -4.36605 0
M  V30 7085 H 680.064 -2.43536 -2.88961 0
M  V30 7086 H 680.377 -5.44207 -5.48688 0
M  V30 7087 H 678.722 -4.88926 -4.93939 0
M  V30 7088 H 681.913 -3.08058 -3.52445 0
M  V30 7089 H 682.086 -4.4515 -4.70898 0
M  V30 7090 N 675.492 1.28418 -0.913599 0
M  V30 7091 C 676.717 1.99643 -0.561899 0
M  V30 7092 C 677.142 1.67819 0.849608 0
M  V30 7093 O 676.5 0.910503 1.56779 0
M  V30 7094 C 676.548 3.52116 -0.777622 0
M  V30 7095 O 675.652 4.12076 0.163457 0
M  V30 7096 H 674.993 0.627229 -0.217898 0
M  V30 7097 H 677.523 1.63575 -1.229 0
M  V30 7098 H 677.533 4.02163 -0.687666 0
M  V30 7099 H 676.208 3.74613 -1.8066 0
M  V30 7100 H 674.785 3.72892 0.0247827 0
M  V30 7101 N 676.97 0.677563 1.42291 0
M  V30 7102 C 678.198 0.209459 2.05837 0
M  V30 7103 C 678.613 -1.13444 1.50917 0
M  V30 7104 O 677.97 -1.70529 0.65008 0
M  V30 7105 C 678.021 0.138819 3.61233 0
M  V30 7106 O 677.742 1.42962 4.14118 0
M  V30 7107 C 679.243 -0.352449 4.41897 0
M  V30 7108 H 676.463 0.101209 0.663323 0
M  V30 7109 H 679.007 0.925077 1.8238 0
M  V30 7110 H 677.162 -0.527505 3.83792 0
M  V30 7111 H 677.576 1.3048 5.08011 0
M  V30 7112 H 679.05 -0.350778 5.50884 0
M  V30 7113 H 679.527 -1.3882 4.16684 0
M  V30 7114 H 680.133 0.282236 4.24362 0
M  V30 7115 N 678.448 -1.51871 0.421078 0
M  V30 7116 C 679.381 -2.23851 -0.443369 0
M  V30 7117 C 680.359 -1.25142 -1.03818 0
M  V30 7118 O 681.543 -1.5423 -1.08377 0
M  V30 7119 C 678.67 -2.97637 -1.61648 0
M  V30 7120 C 677.716 -4.10873 -1.14391 0
M  V30 7121 S 678.549 -5.35408 -0.0992403 0
M  V30 7122 C 679.705 -6.12726 -1.27739 0
M  V30 7123 H 679.938 -2.96826 0.167786 0
M  V30 7124 H 677.471 -1.53027 0.205461 0
M  V30 7125 H 679.429 -3.40751 -2.28909 0
M  V30 7126 H 678.09 -2.24282 -2.199 0
M  V30 7127 H 677.283 -4.61718 -2.02069 0
M  V30 7128 H 676.885 -3.69937 -0.549775 0
M  V30 7129 H 679.177 -6.40827 -2.19881 0
M  V30 7130 H 680.12 -7.03461 -0.809239 0
M  V30 7131 H 680.528 -5.43968 -1.5086 0
M  V30 7132 N 679.926 -0.151884 -1.56866 0
M  V30 7133 C 681.175 0.497992 -1.95456 0
M  V30 7134 C 681.488 1.6569 -1.03953 0
M  V30 7135 O 682.694 2.37173 -1.32142 0
M  V30 7136 C 681.15 0.93732 -3.4748 0
M  V30 7137 C 680.758 -0.194921 -4.47576 0
M  V30 7138 C 682.502 1.55671 -3.94926 0
M  V30 7139 C 680.409 0.26295 -5.90815 0
M  V30 7140 H 679.339 0.189811 -0.729717 0
M  V30 7141 H 681.99 -0.237011 -1.81963 0
M  V30 7142 H 680.372 1.72773 -3.56322 0
M  V30 7143 H 681.546 -0.971951 -4.50433 0
M  V30 7144 H 679.861 -0.72303 -4.10075 0
M  V30 7145 H 682.458 1.91099 -4.99385 0
M  V30 7146 H 682.801 2.44748 -3.36755 0
M  V30 7147 H 683.334 0.831109 -3.89021 0
M  V30 7148 H 680.073 -0.592568 -6.52816 0
M  V30 7149 H 679.593 1.00575 -5.91308 0
M  V30 7150 H 681.272 0.713333 -6.43056 0
M  V30 7151 N 681.404 1.57128 0.121893 0
M  V30 7152 C 682.337 1.95327 1.17995 0
M  V30 7153 C 683.315 0.822524 1.40262 0
M  V30 7154 O 684.499 1.08044 1.54463 0
M  V30 7155 C 681.626 2.24699 2.53432 0
M  V30 7156 C 680.672 3.47263 2.4761 0
M  V30 7157 S 681.505 4.99951 1.91857 0
M  V30 7158 C 682.661 5.32473 3.28973 0
M  V30 7159 H 682.894 2.84765 0.854182 0
M  V30 7160 H 680.427 1.50864 0.328534 0
M  V30 7161 H 682.385 2.423 3.31362 0
M  V30 7162 H 681.046 1.3588 2.83188 0
M  V30 7163 H 680.239 3.65171 3.4737 0
M  V30 7164 H 679.841 3.29034 1.778 0
M  V30 7165 H 682.133 5.27478 4.25175 0
M  V30 7166 H 683.076 6.33732 3.15895 0
M  V30 7167 H 683.484 4.59952 3.27268 0
M  V30 7168 N 682.882 -0.391992 1.52647 0
M  V30 7169 C 683.812 -1.48517 1.8018 0
M  V30 7170 C 684.793 -1.57039 0.653667 0
M  V30 7171 O 685.978 -1.72036 0.900962 0
M  V30 7172 C 683.108 -2.86161 1.96797 0
M  V30 7173 C 682.062 -2.92481 3.12472 0
M  V30 7174 C 681.388 -4.32546 3.14338 0
M  V30 7175 C 682.688 -2.624 4.51601 0
M  V30 7176 H 684.382 -1.25726 2.71723 0
M  V30 7177 H 681.928 -0.603387 1.30749 0
M  V30 7178 H 683.881 -3.62639 2.14641 0
M  V30 7179 H 682.605 -3.10283 1.01941 0
M  V30 7180 H 681.264 -2.18451 2.94406 0
M  V30 7181 H 680.912 -4.53703 2.1717 0
M  V30 7182 H 680.612 -4.37695 3.92042 0
M  V30 7183 H 682.136 -5.10934 3.34333 0
M  V30 7184 H 683.55 -3.28596 4.69785 0
M  V30 7185 H 681.947 -2.78903 5.3135 0
M  V30 7186 H 683.017 -1.57754 4.58521 0
M  V30 7187 N 684.36 -1.4356 -0.65026 0
M  V30 7188 C 685.609 -1.44619 -1.406 0
M  V30 7189 C 685.922 -0.0752645 -1.95455 0
M  V30 7190 O 687.128 0.0366832 -2.71475 0
M  V30 7191 C 685.584 -2.54511 -2.54465 0
M  V30 7192 C 685.192 -3.97723 -2.06204 0
M  V30 7193 C 686.936 -2.64768 -3.31811 0
M  V30 7194 C 684.843 -4.99075 -3.17298 0
M  V30 7195 H 683.773 -0.537983 -0.52829 0
M  V30 7196 H 686.424 -1.69559 -0.701561 0
M  V30 7197 H 684.806 -2.22777 -3.27393 0
M  V30 7198 H 685.98 -4.38932 -1.40267 0
M  V30 7199 H 684.295 -3.91538 -1.41729 0
M  V30 7200 H 686.892 -3.37664 -4.14593 0
M  V30 7201 H 687.235 -1.69936 -3.80036 0
M  V30 7202 H 687.768 -2.95817 -2.65964 0
M  V30 7203 H 684.507 -5.95469 -2.74038 0
M  V30 7204 H 684.027 -4.62476 -3.81937 0
M  V30 7205 H 685.706 -5.21913 -3.82382 0
M  V30 7206 N 685.838 0.888903 -1.30139 0
M  V30 7207 C 687.249 1.45578 -1.16893 0
M  V30 7208 C 687.6 1.94825 0.231866 0
M  V30 7209 O 686.725 1.84661 1.12824 0
M  V30 7210 C 687.32 2.646 -2.11595 0
M  V30 7211 C 685.879 3.17389 -2.02339 0
M  V30 7212 C 685.026 1.90081 -2.01902 0
M  V30 7213 H 687.977 0.69921 -1.42467 0
M  V30 7214 H 687.998 3.40687 -1.69449 0
M  V30 7215 H 687.51 2.28726 -3.13538 0
M  V30 7216 H 685.611 3.5793 -1.03523 0
M  V30 7217 H 685.724 3.80955 -2.90534 0
M  V30 7218 H 684.088 2.08246 -1.46648 0
M  V30 7219 H 684.871 1.5647 -3.05568 0
M  V30 7220 N 687.317 1.12792 1.10072 0
M  V30 7221 C 688.545 0.908506 1.85886 0
M  V30 7222 C 688.96 -0.542408 1.80841 0
M  V30 7223 O 688.317 -1.37517 1.1998 0
M  V30 7224 C 688.368 1.37973 3.34134 0
M  V30 7225 O 688.089 2.77378 3.39106 0
M  V30 7226 C 689.59 1.1978 4.26811 0
M  V30 7227 H 686.81 0.3244 0.587372 0
M  V30 7228 H 689.354 1.49882 1.39125 0
M  V30 7229 H 687.509 0.832566 3.78348 0
M  V30 7230 H 687.923 2.98144 4.31521 0
M  V30 7231 H 689.397 1.57635 5.29014 0
M  V30 7232 H 689.874 0.138768 4.38981 0
M  V30 7233 H 690.48 1.73266 3.88406 0
M  V30 7234 N 688.795 -1.27931 0.920396 0
M  V30 7235 C 689.758 -2.25345 0.41858 0
M  V30 7236 C 690.758 -1.54116 -0.458798 0
M  V30 7237 O 691.948 -1.72235 -0.260912 0
M  V30 7238 C 689.08 -3.38556 -0.399104 0
M  V30 7239 H 690.273 -2.71251 1.27918 0
M  V30 7240 H 687.826 -1.39728 0.700406 0
M  V30 7241 H 688.561 -2.98021 -1.27882 0
M  V30 7242 H 688.346 -3.91426 0.229863 0
M  V30 7243 H 689.836 -4.10976 -0.740817 0
M  V30 7244 N 690.273 -0.685099 -1.4193 0
M  V30 7245 C 691.503 -0.220052 -2.05425 0
M  V30 7246 C 691.911 1.13185 -1.51611 0
M  V30 7247 O 691.254 1.71631 -0.654875 0
M  V30 7248 C 691.316 -0.0888364 -3.5939 0
M  V30 7249 C 690.98 -1.37109 -4.35947 0
M  V30 7250 C 691.977 -2.30675 -4.65924 0
M  V30 7251 C 689.662 -1.62155 -4.75406 0
M  V30 7252 C 691.656 -3.47556 -5.34306 0
M  V30 7253 C 689.343 -2.79324 -5.43527 0
M  V30 7254 C 690.341 -3.71848 -5.72903 0
M  V30 7255 O 690.029 -4.86966 -6.39624 0
M  V30 7256 H 689.761 -0.102165 -0.668235 0
M  V30 7257 H 692.315 -0.935194 -1.82875 0
M  V30 7258 H 690.545 0.681981 -3.80639 0
M  V30 7259 H 692.234 0.337669 -4.04493 0
M  V30 7260 H 693 -2.12579 -4.3593 0
M  V30 7261 H 688.879 -0.910053 -4.51928 0
M  V30 7262 H 692.423 -4.19794 -5.57153 0
M  V30 7263 H 688.32 -2.97342 -5.72938 0
M  V30 7264 H 689.088 -4.86644 -6.58118 0
M  V30 7265 N 691.751 1.51645 -0.429126 0
M  V30 7266 C 692.661 2.31288 0.392809 0
M  V30 7267 C 693.677 1.39852 1.03525 0
M  V30 7268 O 694.853 1.72926 1.03241 0
M  V30 7269 C 691.918 3.13347 1.48372 0
M  V30 7270 C 690.979 4.20551 0.862268 0
M  V30 7271 C 690.212 4.98688 1.9012 0
M  V30 7272 O 690.435 4.77359 3.12225 0
M  V30 7273 O 689.369 5.83005 1.4963 0
M  V30 7274 H 693.195 3.02609 -0.257138 0
M  V30 7275 H 690.78 1.48163 -0.191851 0
M  V30 7276 H 692.662 3.64387 2.1166 0
M  V30 7277 H 691.337 2.44799 2.1179 0
M  V30 7278 H 690.244 3.73609 0.191568 0
M  V30 7279 H 691.577 4.91449 0.271704 0
M  V30 7280 N 693.229 0.160201 1.56784 0
M  V30 7281 C 694.475 -0.481855 1.9761 0
M  V30 7282 C 694.83 -1.61605 1.04411 0
M  V30 7283 O 694.123 -1.91426 0.0816402 0
M  V30 7284 C 694.317 -1.02259 3.42459 0
M  V30 7285 C 694.146 0.0576781 4.49663 0
M  V30 7286 C 692.916 0.503585 5.02784 0
M  V30 7287 C 695.114 0.854013 5.0716 0
M  V30 7288 N 693.096 1.56532 5.93608 0
M  V30 7289 C 694.467 1.76593 5.94319 0
M  V30 7290 C 696.522 0.900333 4.89692 0
M  V30 7291 C 695.225 2.72023 6.6588 0
M  V30 7292 C 697.251 1.84252 5.61965 0
M  V30 7293 C 696.613 2.74194 6.48843 0
M  V30 7294 H 692.712 -0.144748 0.768487 0
M  V30 7295 H 695.296 0.257853 1.92985 0
M  V30 7296 H 693.467 -1.73186 3.47651 0
M  V30 7297 H 695.199 -1.63235 3.70319 0
M  V30 7298 H 691.954 0.103361 4.73487 0
M  V30 7299 H 692.378 2.09634 6.43726 0
M  V30 7300 H 697.02 0.219023 4.22232 0
M  V30 7301 H 694.738 3.41147 7.3256 0
M  V30 7302 H 698.324 1.88433 5.5044 0
M  V30 7303 H 697.204 3.45912 7.03786 0
M  V30 7304 N 694.707 -1.5719 -0.113559 0
M  V30 7305 C 695.954 -1.85138 -0.820382 0
M  V30 7306 C 696.282 -0.74608 -1.79622 0
M  V30 7307 O 695.537 0.262077 -1.93937 0
M  V30 7308 C 695.836 -3.19593 -1.59984 0
M  V30 7309 C 695.502 -4.44315 -0.767809 0
M  V30 7310 C 694.164 -4.78179 -0.538379 0
M  V30 7311 C 696.516 -5.2086 -0.188203 0
M  V30 7312 C 693.844 -5.86028 0.28082 0
M  V30 7313 C 696.196 -6.29572 0.618217 0
M  V30 7314 C 694.86 -6.61964 0.857912 0
M  V30 7315 H 694.13 -0.677467 -0.300199 0
M  V30 7316 H 696.777 -1.91322 -0.0825443 0
M  V30 7317 H 695.082 -3.0901 -2.40874 0
M  V30 7318 H 696.779 -3.3844 -2.1508 0
M  V30 7319 H 693.369 -4.17786 -0.956724 0
M  V30 7320 H 697.553 -4.95045 -0.352658 0
M  V30 7321 H 692.809 -6.09547 0.475693 0
M  V30 7322 H 696.983 -6.88064 1.0743 0
M  V30 7323 H 694.61 -7.45365 1.49451 0
M  V30 7324 N 696.185 0.383891 -1.52853 0
M  V30 7325 C 697.095 1.49343 -1.80925 0
M  V30 7326 C 698.111 1.59458 -0.696348 0
M  V30 7327 O 699.287 1.75698 -0.984481 0
M  V30 7328 C 696.352 2.84819 -1.97684 0
M  V30 7329 C 695.413 2.84382 -3.21598 0
M  V30 7330 C 694.646 4.13397 -3.37548 0
M  V30 7331 O 694.869 5.08619 -2.58192 0
M  V30 7332 O 693.803 4.20325 -4.30826 0
M  V30 7333 H 697.629 1.2855 -2.75152 0
M  V30 7334 H 695.214 0.572229 -1.38007 0
M  V30 7335 H 697.096 3.65125 -2.10385 0
M  V30 7336 H 695.771 3.05627 -1.06647 0
M  V30 7337 H 694.678 2.0284 -3.14336 0
M  V30 7338 H 696.011 2.68526 -4.12498 0
M  V30 7339 N 697.663 1.43903 0.642637 0
M  V30 7340 C 698.573 1.52349 1.78401 0
M  V30 7341 C 699.589 0.409869 1.69104 0
M  V30 7342 O 700.765 0.665548 1.90085 0
M  V30 7343 C 697.83 1.45408 3.14734 0
M  V30 7344 C 696.891 2.67528 3.35749 0
M  V30 7345 C 696.124 2.60909 4.65577 0
M  V30 7346 O 696.347 1.6627 5.45628 0
M  V30 7347 O 695.281 3.5158 4.88544 0
M  V30 7348 H 699.107 2.48752 1.7423 0
M  V30 7349 H 696.692 1.26021 0.802439 0
M  V30 7350 H 698.574 1.44019 3.96026 0
M  V30 7351 H 697.249 0.521437 3.19473 0
M  V30 7352 H 696.156 2.74487 2.5418 0
M  V30 7353 H 697.489 3.598 3.35864 0
M  V30 7354 N 699.141 -0.881989 1.30609 0
M  V30 7355 C 700.387 -1.63649 1.20791 0
M  V30 7356 C 700.742 -1.90966 -0.234437 0
M  V30 7357 O 700.035 -1.52163 -1.16434 0
M  V30 7358 C 700.229 -2.97999 1.97311 0
M  V30 7359 C 700.058 -2.83798 3.48839 0
M  V30 7360 C 698.828 -2.83622 4.18195 0
M  V30 7361 C 701.026 -2.59529 4.44015 0
M  V30 7362 N 699.008 -2.60344 5.55962 0
M  V30 7363 C 700.379 -2.45401 5.69366 0
M  V30 7364 C 702.434 -2.44777 4.33576 0
M  V30 7365 C 701.137 -2.18023 6.85462 0
M  V30 7366 C 703.163 -2.18785 5.49443 0
M  V30 7367 C 702.525 -2.05436 6.73777 0
M  V30 7368 H 698.624 -0.603687 0.497077 0
M  V30 7369 H 701.208 -1.03908 1.64655 0
M  V30 7370 H 699.379 -3.55767 1.55834 0
M  V30 7371 H 701.111 -3.6266 1.79611 0
M  V30 7372 H 697.866 -2.95562 3.70054 0
M  V30 7373 H 698.29 -2.51709 6.28468 0
M  V30 7374 H 702.932 -2.53831 3.38126 0
M  V30 7375 H 700.65 -2.07707 7.8095 0
M  V30 7376 H 704.236 -2.08188 5.43276 0
M  V30 7377 H 703.116 -1.85605 7.61919 0
M  V30 7378 N 700.619 -1.13374 -1.09472 0
M  V30 7379 C 701.551 -0.768466 -2.15933 0
M  V30 7380 C 702.564 0.209585 -1.61445 0
M  V30 7381 O 703.753 -0.010539 -1.78497 0
M  V30 7382 C 700.853 -0.118266 -3.38694 0
M  V30 7383 C 700.026 -1.12829 -4.22597 0
M  V30 7384 C 699.085 -0.503875 -5.23782 0
M  V30 7385 O 698.111 -1.16374 -5.57177 0
M  V30 7386 N 699.313 0.724288 -5.75964 0
M  V30 7387 H 702.078 -1.68457 -2.47876 0
M  V30 7388 H 699.639 -1.02668 -1.25183 0
M  V30 7389 H 701.631 0.311698 -4.03498 0
M  V30 7390 H 700.201 0.700769 -3.04644 0
M  V30 7391 H 699.421 -1.73556 -3.53938 0
M  V30 7392 H 700.709 -1.81095 -4.75481 0
M  V30 7393 H 700.107 1.27918 -5.51048 0
M  V30 7394 H 698.664 1.09692 -6.42504 0
M  V30 7395 N 702.098 1.27442 -0.927168 0
M  V30 7396 C 703.061 2.2512 -0.430525 0
M  V30 7397 C 704.061 1.54357 0.450619 0
M  V30 7398 O 705.251 1.72371 0.251774 0
M  V30 7399 C 702.383 3.38763 0.381144 0
M  V30 7400 H 703.576 2.70569 -1.29354 0
M  V30 7401 H 701.129 1.39355 -0.707806 0
M  V30 7402 H 701.864 2.98695 1.263 0
M  V30 7403 H 701.649 3.91298 -0.250618 0
M  V30 7404 H 703.139 4.11364 0.719012 0
M  V30 7405 N 703.576 0.692616 1.41565 0
M  V30 7406 C 704.486 0.0258451 2.34586 0
M  V30 7407 C 705.502 -0.769324 1.56069 0
M  V30 7408 O 706.678 -0.707563 1.88562 0
M  V30 7409 C 703.743 -0.901289 3.3478 0
M  V30 7410 C 702.804 -0.0986579 4.29187 0
M  V30 7411 C 702.037 -0.981634 5.24595 0
M  V30 7412 O 702.26 -2.22115 5.25377 0
M  V30 7413 O 701.194 -0.432892 6.00341 0
M  V30 7414 H 705.02 0.792537 2.93177 0
M  V30 7415 H 702.605 0.452935 1.42369 0
M  V30 7416 H 704.487 -1.43302 3.96286 0
M  V30 7417 H 703.162 -1.64752 2.78637 0
M  V30 7418 H 702.069 0.477604 3.71039 0
M  V30 7419 H 703.402 0.608848 4.8842 0
M  V30 7420 N 705.054 -1.51416 0.437162 0
M  V30 7421 C 705.984 -2.30631 -0.364922 0
M  V30 7422 C 706.965 -1.36037 -1.02118 0
M  V30 7423 O 708.15 -1.64956 -1.02485 0
M  V30 7424 C 705.28 -3.1482 -1.46648 0
M  V30 7425 C 704.234 -4.17691 -0.933717 0
M  V30 7426 C 703.56 -4.904 -2.13101 0
M  V30 7427 C 704.86 -5.2229 0.0317201 0
M  V30 7428 H 706.554 -2.97932 0.29614 0
M  V30 7429 H 704.1 -1.4328 0.143865 0
M  V30 7430 H 706.053 -3.69017 -2.03481 0
M  V30 7431 H 704.777 -2.4534 -2.15583 0
M  V30 7432 H 703.436 -3.64545 -0.387602 0
M  V30 7433 H 703.084 -4.17423 -2.80654 0
M  V30 7434 H 702.784 -5.59962 -1.78092 0
M  V30 7435 H 704.308 -5.4742 -2.70487 0
M  V30 7436 H 705.722 -5.7156 -0.446302 0
M  V30 7437 H 704.119 -5.99378 0.29437 0
M  V30 7438 H 705.189 -4.75131 0.968447 0
M  V30 7439 N 706.532 -0.168513 -1.56696 0
M  V30 7440 C 707.479 0.762875 -2.17828 0
M  V30 7441 C 708.449 1.22892 -1.11745 0
M  V30 7442 O 709.634 1.29759 -1.39883 0
M  V30 7443 C 706.774 1.9879 -2.82093 0
M  V30 7444 C 705.887 1.56568 -4.02629 0
M  V30 7445 C 705.022 2.74416 -4.54829 0
M  V30 7446 C 704.061 2.28671 -5.67782 0
M  V30 7447 N 703.198 3.39602 -6.14504 0
M  V30 7448 H 708.038 0.23479 -2.97074 0
M  V30 7449 H 705.575 0.104163 -1.46731 0
M  V30 7450 H 707.533 2.70636 -3.17509 0
M  V30 7451 H 706.163 2.48973 -2.05456 0
M  V30 7452 H 705.215 0.744067 -3.73052 0
M  V30 7453 H 706.527 1.18988 -4.844 0
M  V30 7454 H 705.681 3.54423 -4.92412 0
M  V30 7455 H 704.42 3.15254 -3.7211 0
M  V30 7456 H 703.425 1.4711 -5.29753 0
M  V30 7457 H 704.65 1.88894 -6.52301 0
M  V30 7458 H 702.596 3.80021 -5.34715 0
M  V30 7459 H 702.513 3.06105 -6.91257 0
M  V30 7460 H 703.781 4.19902 -6.56737 0
M  V30 7461 N 708.01 1.57248 0.105221 0
M  V30 7462 C 709.258 1.85204 0.808951 0
M  V30 7463 C 709.579 0.75574 1.7976 0
M  V30 7464 O 708.849 -0.218984 1.94672 0
M  V30 7465 H 707.429 0.683346 0.301739 0
M  V30 7466 H 710.091 1.94695 0.0892605 0
M  V30 7467 H 709.187 2.81595 1.34575 0
M  V30 7468 N 709.488 -0.375779 1.53054 0
M  V30 7469 C 710.435 -1.45978 1.78771 0
M  V30 7470 C 711.405 -1.53625 0.631552 0
M  V30 7471 O 712.59 -1.69674 0.872667 0
M  V30 7472 C 709.73 -2.8305 1.97425 0
M  V30 7473 C 708.843 -2.84451 3.25134 0
M  V30 7474 C 707.978 -4.13034 3.34031 0
M  V30 7475 C 707.017 -4.08536 4.55812 0
M  V30 7476 N 706.154 -5.2875 4.61918 0
M  V30 7477 H 710.994 -1.23349 2.71273 0
M  V30 7478 H 708.531 -0.598147 1.3439 0
M  V30 7479 H 710.489 -3.62666 2.06225 0
M  V30 7480 H 709.119 -3.04101 1.0827 0
M  V30 7481 H 708.171 -1.97127 3.25338 0
M  V30 7482 H 709.483 -2.76998 4.14818 0
M  V30 7483 H 708.637 -5.0106 3.42087 0
M  V30 7484 H 707.376 -4.23226 2.42345 0
M  V30 7485 H 706.381 -3.18897 4.47867 0
M  V30 7486 H 707.606 -3.99955 5.48828 0
M  V30 7487 H 705.552 -5.39547 3.73129 0
M  V30 7488 H 705.469 -5.23426 5.45492 0
M  V30 7489 H 706.737 -6.18637 4.74245 0
M  V30 7490 N 710.966 -1.44241 -0.634997 0
M  V30 7491 C 712.382 -1.28043 -0.952742 0
M  V30 7492 C 712.582 -0.21338 -2.00367 0
M  V30 7493 O 711.638 0.402042 -2.49279 0
M  V30 7494 C 712.951 -2.65076 -1.41968 0
M  V30 7495 C 714.499 -2.72755 -1.53537 0
M  V30 7496 C 714.974 -4.10249 -2.03616 0
M  V30 7497 N 716.465 -4.12406 -2.10892 0
M  V30 7498 C 717.2 -5.15641 -2.50803 0
M  V30 7499 N 716.696 -6.29239 -2.89879 0
M  V30 7500 N 718.489 -5.02995 -2.50903 0
M  V30 7501 H 710.64 -2.12315 0.060098 0
M  V30 7502 H 712.903 -0.947326 -0.0357325 0
M  V30 7503 H 712.609 -3.44213 -0.721804 0
M  V30 7504 H 712.483 -2.91704 -2.39141 0
M  V30 7505 H 714.87 -1.93939 -2.22422 0
M  V30 7506 H 714.951 -2.49872 -0.547496 0
M  V30 7507 H 714.595 -4.8954 -1.35327 0
M  V30 7508 H 714.525 -4.30507 -3.03268 0
M  V30 7509 H 717.016 -3.30417 -1.83393 0
M  V30 7510 H 717.329 -7.03827 -3.19135 0
M  V30 7511 H 715.674 -6.32683 -2.8764 0
M  V30 7512 H 718.865 -4.13306 -2.19763 0
M  V30 7513 H 719.038 -5.83574 -2.81683 0
M  V30 7514 N 712.444 0.87505 -1.31075 0
M  V30 7515 C 713.692 1.62447 -1.20231 0
M  V30 7516 C 714.013 1.93506 0.240888 0
M  V30 7517 O 713.283 1.57847 1.16022 0
M  V30 7518 H 711.863 0.602207 -0.441991 0
M  V30 7519 H 714.525 1.04788 -1.64334 0
M  V30 7520 H 713.621 2.57031 -1.77036 0
M  V30 7521 N 713.922 1.13953 1.08869 0
M  V30 7522 C 715.147 0.928559 1.85452 0
M  V30 7523 C 715.572 -0.517642 1.80837 0
M  V30 7524 O 714.93 -1.36779 1.19001 0
M  V30 7525 C 714.978 1.42814 3.31114 0
M  V30 7526 O 714.082 0.617129 4.07756 0
M  V30 7527 H 713.423 0.33235 0.574839 0
M  V30 7528 H 715.953 1.5156 1.37443 0
M  V30 7529 H 715.963 1.43425 3.8196 0
M  V30 7530 H 714.638 2.48109 3.33788 0
M  V30 7531 H 713.215 0.679365 3.66659 0
M  V30 7532 N 715.4 -1.26948 0.933913 0
M  V30 7533 C 716.677 -1.89212 0.495784 0
M  V30 7534 C 717.057 -1.84469 -1.02637 0
M  V30 7535 O 716.405 -1.29409 -1.88323 0
M  V30 7536 C 716.615 -3.32865 1.0489 0
M  V30 7537 C 717.963 -4.09749 1.11315 0
M  V30 7538 O 718.987 -3.41905 0.998966 0
M  V30 7539 O 717.846 -5.31061 1.28983 0
M  V30 7540 H 714.94 -0.811284 0.160459 0
M  V30 7541 H 717.486 -1.35171 1.02601 0
M  V30 7542 H 716.258 -3.30642 2.09265 0
M  V30 7543 H 715.881 -3.94435 0.500692 0
M  V30 7544 N 716.879 -0.700114 -1.41195 0
M  V30 7545 C 718.109 -0.241828 -2.0518 0
M  V30 7546 C 718.517 1.1157 -1.52803 0
M  V30 7547 O 717.86 1.70926 -0.673042 0
M  V30 7548 C 717.922 -0.12695 -3.59276 0
M  V30 7549 C 717.586 -1.41725 -4.34469 0
M  V30 7550 C 718.583 -2.35604 -4.63451 0
M  V30 7551 C 716.268 -1.67189 -4.73659 0
M  V30 7552 C 718.262 -3.53204 -5.3059 0
M  V30 7553 C 715.949 -2.85073 -5.40534 0
M  V30 7554 C 716.947 -3.77904 -5.68927 0
M  V30 7555 O 716.635 -4.93723 -6.34424 0
M  V30 7556 H 716.367 -0.109247 -0.667114 0
M  V30 7557 H 718.921 -0.954538 -1.81873 0
M  V30 7558 H 717.151 0.641571 -3.81341 0
M  V30 7559 H 718.84 0.294748 -4.04828 0
M  V30 7560 H 719.606 -2.1719 -4.33651 0
M  V30 7561 H 715.485 -0.957935 -4.50937 0
M  V30 7562 H 719.029 -4.25679 -5.52669 0
M  V30 7563 H 714.926 -3.03402 -5.69752 0
M  V30 7564 H 715.694 -4.93597 -6.5292 0
M  V30 7565 N 718.357 1.51182 -0.445186 0
M  V30 7566 C 719.267 2.31692 0.368255 0
M  V30 7567 C 720.283 1.40942 1.02036 0
M  V30 7568 O 721.459 1.74011 1.01401 0
M  V30 7569 C 718.524 3.14903 1.45041 0
M  V30 7570 C 717.585 4.21442 0.817615 0
M  V30 7571 C 716.818 5.00677 1.8482 0
M  V30 7572 O 717.041 4.80644 3.07145 0
M  V30 7573 O 715.975 5.84559 1.43438 0
M  V30 7574 H 719.801 3.0232 -0.289219 0
M  V30 7575 H 717.386 1.47951 -0.207555 0
M  V30 7576 H 719.268 3.66612 2.07783 0
M  V30 7577 H 717.943 2.47031 2.09182 0
M  V30 7578 H 716.85 3.73791 0.151931 0
M  V30 7579 H 718.183 4.9171 0.219564 0
M  V30 7580 N 719.835 0.176821 1.56605 0
M  V30 7581 C 721.063 -0.472828 2.01425 0
M  V30 7582 C 721.478 -1.56436 1.05703 0
M  V30 7583 O 720.835 -1.82405 0.058808 0
M  V30 7584 C 720.886 -1.04607 3.46034 0
M  V30 7585 O 720.607 0.00189608 4.381 0
M  V30 7586 C 722.108 -1.7734 4.06282 0
M  V30 7587 H 719.328 -0.120503 0.660091 0
M  V30 7588 H 721.872 0.280166 2.02572 0
M  V30 7589 H 720.027 -1.74953 3.45645 0
M  V30 7590 H 720.441 -0.422118 5.22799 0
M  V30 7591 H 721.915 -2.12703 5.09374 0
M  V30 7592 H 722.392 -2.67043 3.4869 0
M  V30 7593 H 722.998 -1.11623 4.10391 0
M  V30 7594 N 721.313 -1.57302 -0.09688 0
M  V30 7595 C 722.56 -1.85997 -0.800699 0
M  V30 7596 C 722.888 -0.765089 -1.7882 0
M  V30 7597 O 722.143 0.241492 -1.94204 0
M  V30 7598 C 722.442 -3.21272 -1.56586 0
M  V30 7599 C 722.108 -4.45104 -0.72064 0
M  V30 7600 C 720.77 -4.78723 -0.487632 0
M  V30 7601 C 723.122 -5.2103 -0.132948 0
M  V30 7602 C 720.45 -5.85697 0.34296 0
M  V30 7603 C 722.802 -6.28881 0.684957 0
M  V30 7604 C 721.466 -6.61017 0.928073 0
M  V30 7605 H 720.736 -0.680613 -0.292997 0
M  V30 7606 H 723.383 -1.91399 -0.0622474 0
M  V30 7607 H 721.688 -3.11547 -2.37583 0
M  V30 7608 H 723.385 -3.40702 -2.11478 0
M  V30 7609 H 719.975 -4.18777 -0.912359 0
M  V30 7610 H 724.159 -4.95392 -0.300132 0
M  V30 7611 H 719.415 -6.09008 0.540317 0
M  V30 7612 H 723.589 -6.86886 1.14721 0
M  V30 7613 H 721.216 -7.43738 1.57348 0
M  V30 7614 N 722.791 0.367657 -1.53252 0
M  V30 7615 C 723.738 1.45028 -1.79543 0
M  V30 7616 C 724.708 1.53288 -0.63969 0
M  V30 7617 O 725.893 1.69209 -0.881653 0
M  V30 7618 C 723.033 2.82 -1.98923 0
M  V30 7619 C 722.146 2.82722 -3.26638 0
M  V30 7620 C 721.281 4.11257 -3.36216 0
M  V30 7621 C 720.32 4.06113 -4.57972 0
M  V30 7622 N 719.457 5.26293 -4.64715 0
M  V30 7623 H 724.297 1.21908 -2.71923 0
M  V30 7624 H 721.834 0.591011 -1.34705 0
M  V30 7625 H 723.792 3.61568 -2.08146 0
M  V30 7626 H 722.422 3.03523 -1.09881 0
M  V30 7627 H 721.474 1.95399 -3.26379 0
M  V30 7628 H 722.786 2.74794 -4.16281 0
M  V30 7629 H 721.94 4.99239 -3.44739 0
M  V30 7630 H 720.679 4.21935 -2.44586 0
M  V30 7631 H 719.684 3.16517 -4.49552 0
M  V30 7632 H 720.909 3.97039 -5.50942 0
M  V30 7633 H 718.855 5.37561 -3.75985 0
M  V30 7634 H 718.772 5.20526 -5.4826 0
M  V30 7635 H 720.04 6.16113 -4.77519 0
M  V30 7636 N 724.269 1.44576 0.627338 0
M  V30 7637 C 725.217 1.52039 1.76031 0
M  V30 7638 C 726.211 0.391796 1.64807 0
M  V30 7639 O 727.417 0.5669 1.7084 0
M  V30 7640 H 723.792 0.477165 0.581221 0
M  V30 7641 H 725.763 2.47387 1.6686 0
M  V30 7642 C 724.512 1.48539 3.14375 0
M  V30 7643 H 723.835 2.34699 3.23661 0
M  V30 7644 H 725.275 1.57821 3.93534 0
M  V30 7645 C 723.734 0.20672 3.36265 0
M  V30 7646 O 724.264 -0.72154 3.95167 0
M  V30 7647 N 722.47 0.108654 2.90397 0
M  V30 7648 H 722.017 0.864884 2.42647 0
M  V30 7649 H 721.975 -0.746121 3.05418 0
M  V30 7650 N 725.747 -0.868086 1.31537 0
M  V30 7651 C 726.972 -1.65926 1.24432 0
M  V30 7652 C 727.397 -1.87169 -0.186936 0
M  V30 7653 O 726.755 -1.4148 -1.13371 0
M  V30 7654 C 726.803 -3.00347 1.9956 0
M  V30 7655 O 725.907 -3.90221 1.33422 0
M  V30 7656 H 725.248 -0.506375 0.429512 0
M  V30 7657 H 727.778 -1.0822 1.73637 0
M  V30 7658 H 727.788 -3.50269 2.09226 0
M  V30 7659 H 726.463 -2.84205 3.03645 0
M  V30 7660 H 725.04 -3.48672 1.32219 0
M  V30 7661 N 727.225 -1.14528 -1.08264 0
M  V30 7662 C 728.472 -0.914405 -1.80679 0
M  V30 7663 C 728.8 0.558952 -1.86295 0
M  V30 7664 O 728.055 1.43017 -1.33584 0
M  V30 7665 C 728.354 -1.46226 -3.26117 0
M  V30 7666 C 728.02 -2.95451 -3.40616 0
M  V30 7667 C 726.682 -3.36191 -3.4428 0
M  V30 7668 C 729.034 -3.91399 -3.44175 0
M  V30 7669 C 726.362 -4.71539 -3.49096 0
M  V30 7670 C 728.714 -5.26606 -3.50526 0
M  V30 7671 C 727.378 -5.66856 -3.52464 0
M  V30 7672 H 726.648 -0.334604 -0.661151 0
M  V30 7673 H 729.295 -1.4292 -1.27461 0
M  V30 7674 H 727.6 -0.868442 -3.82054 0
M  V30 7675 H 729.297 -1.25955 -3.80705 0
M  V30 7676 H 725.887 -2.62955 -3.38456 0
M  V30 7677 H 730.071 -3.61004 -3.40573 0
M  V30 7678 H 725.327 -5.02082 -3.4889 0
M  V30 7679 H 729.501 -6.00758 -3.52225 0
M  V30 7680 H 727.128 -6.71718 -3.55948 0
M  V30 7681 N 728.703 1.26451 -0.940633 0
M  V30 7682 C 729.949 1.94065 -0.58878 0
M  V30 7683 C 730.282 1.7363 0.869853 0
M  V30 7684 O 729.557 1.073 1.62225 0
M  V30 7685 C 729.84 3.47852 -0.931199 0
M  V30 7686 C 729.693 3.77575 -2.44453 0
M  V30 7687 C 731.012 4.37832 -0.446229 0
M  V30 7688 H 728.131 0.704827 -0.21538 0
M  V30 7689 H 730.773 1.4933 -1.17475 0
M  V30 7690 H 728.923 3.86085 -0.432539 0
M  V30 7691 H 730.595 3.49059 -3.01588 0
M  V30 7692 H 728.838 3.23671 -2.88825 0
M  V30 7693 H 729.509 4.85068 -2.63464 0
M  V30 7694 H 731.985 4.06822 -0.873778 0
M  V30 7695 H 730.861 5.44228 -0.714648 0
M  V30 7696 H 731.122 4.37239 0.653815 0
M  V30 7697 N 730.181 0.707592 1.40822 0
M  V30 7698 C 731.091 0.0507246 2.34545 0
M  V30 7699 C 732.107 -0.752727 1.56876 0
M  V30 7700 O 733.283 -0.687524 1.89302 0
M  V30 7701 C 730.348 -0.865731 3.35717 0
M  V30 7702 C 729.409 -0.0531313 4.29267 0
M  V30 7703 C 728.642 -0.925939 5.25606 0
M  V30 7704 O 728.865 -2.16531 5.27703 0
M  V30 7705 O 727.799 -0.369194 6.00767 0
M  V30 7706 H 731.625 0.823587 2.9232 0
M  V30 7707 H 729.21 0.46801 1.4188 0
M  V30 7708 H 731.092 -1.39091 3.97783 0
M  V30 7709 H 729.767 -1.61788 2.80368 0
M  V30 7710 H 728.674 0.516931 3.70511 0
M  V30 7711 H 730.007 0.660617 4.87747 0
M  V30 7712 N 731.66 -1.50943 0.453197 0
M  V30 7713 C 732.623 -2.26684 -0.338705 0
M  V30 7714 C 733.623 -1.30748 -0.936032 0
M  V30 7715 O 734.813 -1.54327 -0.808002 0
M  V30 7716 C 731.945 -3.07063 -1.48071 0
M  V30 7717 H 733.138 -2.98131 0.325289 0
M  V30 7718 H 730.691 -1.54926 0.206771 0
M  V30 7719 H 731.426 -2.4007 -2.18029 0
M  V30 7720 H 731.211 -3.77545 -1.0584 0
M  V30 7721 H 732.701 -3.64393 -2.0398 0
M  V30 7722 N 733.138 -0.185124 -1.56509 0
M  V30 7723 C 734.363 0.465278 -2.02114 0
M  V30 7724 C 734.788 1.55083 -1.06447 0
M  V30 7725 O 734.146 1.81241 -0.0462852 0
M  V30 7726 C 734.194 1.00784 -3.46229 0
M  V30 7727 O 733.298 2.12123 -3.53663 0
M  V30 7728 H 732.639 0.109891 -0.654843 0
M  V30 7729 H 735.169 -0.293072 -2.0249 0
M  V30 7730 H 735.179 1.32697 -3.85818 0
M  V30 7731 H 733.854 0.213113 -4.15354 0
M  V30 7732 H 732.431 1.8115 -3.25943 0
M  V30 7733 N 734.616 1.57351 0.0885366 0
M  V30 7734 C 735.549 1.97786 1.13825 0
M  V30 7735 C 736.527 0.852091 1.38485 0
M  V30 7736 O 737.711 1.11296 1.52137 0
M  V30 7737 C 734.838 2.30024 2.48609 0
M  V30 7738 C 733.884 3.52437 2.40189 0
M  V30 7739 S 734.717 5.03908 1.81209 0
M  V30 7740 C 735.873 5.39331 3.17605 0
M  V30 7741 H 736.106 2.86513 0.793587 0
M  V30 7742 H 733.639 1.51527 0.29646 0
M  V30 7743 H 735.597 2.49274 3.26148 0
M  V30 7744 H 734.258 1.41856 2.80242 0
M  V30 7745 H 733.451 3.72457 3.39546 0
M  V30 7746 H 733.053 3.32731 1.70781 0
M  V30 7747 H 735.345 5.36378 4.13891 0
M  V30 7748 H 736.288 6.4029 3.02381 0
M  V30 7749 H 736.696 4.6679 3.17438 0
M  V30 7750 N 736.094 -0.359525 1.53444 0
M  V30 7751 C 737.319 -1.12644 1.74144 0
M  V30 7752 C 737.744 -1.82082 0.472007 0
M  V30 7753 O 737.102 -1.71962 -0.57436 0
M  V30 7754 C 737.15 -2.12781 2.9113 0
M  V30 7755 O 736.254 -3.19984 2.60162 0
M  V30 7756 H 735.595 -0.326553 0.578152 0
M  V30 7757 H 738.125 -0.414798 2.00351 0
M  V30 7758 H 738.135 -2.56278 3.17467 0
M  V30 7759 H 736.81 -1.61634 3.83207 0
M  V30 7760 H 735.387 -2.81417 2.44661 0
M  V30 7761 N 737.572 -1.44907 -0.619662 0
M  V30 7762 C 738.818 -1.48512 -1.38102 0
M  V30 7763 C 739.151 -0.121686 -1.93818 0
M  V30 7764 O 738.426 0.862256 -1.74343 0
M  V30 7765 C 738.709 -2.55469 -2.53787 0
M  V30 7766 C 738.562 -4.01212 -2.03345 0
M  V30 7767 C 739.881 -2.58821 -3.55949 0
M  V30 7768 H 737 -0.540712 -0.500799 0
M  V30 7769 H 739.642 -1.7665 -0.69962 0
M  V30 7770 H 737.792 -2.31606 -3.11915 0
M  V30 7771 H 739.464 -4.36245 -1.49959 0
M  V30 7772 H 737.707 -4.12443 -1.34438 0
M  V30 7773 H 738.378 -4.71717 -2.86683 0
M  V30 7774 H 740.854 -2.80172 -3.07641 0
M  V30 7775 H 739.73 -3.35542 -4.34399 0
M  V30 7776 H 739.991 -1.63451 -4.10775 0
M  V30 7777 N 739.05 0.861098 -1.31996 0
M  V30 7778 C 740.296 1.61721 -1.22369 0
M  V30 7779 C 740.629 1.93 0.215587 0
M  V30 7780 O 739.904 1.56789 1.15098 0
M  V30 7781 C 740.187 2.9417 -2.07691 0
M  V30 7782 C 740.04 2.69714 -3.59965 0
M  V30 7783 C 741.359 3.95372 -1.93312 0
M  V30 7784 H 738.478 0.586822 -0.44588 0
M  V30 7785 H 741.12 0.994788 -1.61876 0
M  V30 7786 H 739.27 3.47292 -1.74128 0
M  V30 7787 H 740.942 2.23196 -4.03709 0
M  V30 7788 H 739.185 2.03789 -3.82952 0
M  V30 7789 H 739.856 3.63996 -4.14983 0
M  V30 7790 H 742.332 3.51487 -2.22701 0
M  V30 7791 H 741.208 4.85916 -2.55298 0
M  V30 7792 H 741.469 4.32865 -0.898922 0
M  V30 7793 N 740.528 1.15101 1.07655 0
M  V30 7794 C 741.458 0.867864 2.16773 0
M  V30 7795 C 742.439 -0.180283 1.69142 0
M  V30 7796 O 743.624 -0.0353152 1.94168 0
M  V30 7797 C 740.754 0.35299 3.45501 0
M  V30 7798 C 739.708 1.33746 4.06566 0
M  V30 7799 C 739.034 0.681562 5.30338 0
M  V30 7800 C 740.334 2.7024 4.46954 0
M  V30 7801 H 742.028 1.78034 2.40716 0
M  V30 7802 H 739.574 0.857435 1.15689 0
M  V30 7803 H 741.527 0.142465 4.21159 0
M  V30 7804 H 740.251 -0.594945 3.21135 0
M  V30 7805 H 738.91 1.53429 3.32949 0
M  V30 7806 H 738.558 -0.272422 5.02262 0
M  V30 7807 H 738.258 1.33853 5.72151 0
M  V30 7808 H 739.782 0.48074 6.08705 0
M  V30 7809 H 741.196 2.5442 5.13754 0
M  V30 7810 H 739.593 3.32282 4.99709 0
M  V30 7811 H 740.663 3.26537 3.58471 0
M  V30 7812 N 742.006 -1.2595 0.947325 0
M  V30 7813 C 742.953 -2.26159 0.460497 0
M  V30 7814 C 743.923 -1.58919 -0.483125 0
M  V30 7815 O 745.108 -1.86603 -0.397983 0
M  V30 7816 C 742.248 -3.441 -0.26247 0
M  V30 7817 C 741.361 -4.25999 0.717539 0
M  V30 7818 C 740.496 -5.31193 -0.0272486 0
M  V30 7819 C 739.535 -6.04774 0.944177 0
M  V30 7820 N 738.672 -7.01721 0.230741 0
M  V30 7821 H 743.512 -2.67173 1.31995 0
M  V30 7822 H 741.049 -1.31358 0.662088 0
M  V30 7823 H 743.007 -4.11317 -0.698137 0
M  V30 7824 H 741.637 -3.03983 -1.08602 0
M  V30 7825 H 740.689 -3.58513 1.27171 0
M  V30 7826 H 742.001 -4.76981 1.45913 0
M  V30 7827 H 741.155 -6.04451 -0.521903 0
M  V30 7828 H 739.894 -4.81066 -0.801682 0
M  V30 7829 H 738.899 -5.30338 1.4499 0
M  V30 7830 H 740.124 -6.56991 1.71872 0
M  V30 7831 H 738.07 -6.53895 -0.525088 0
M  V30 7832 H 737.987 -7.50484 0.911556 0
M  V30 7833 H 739.255 -7.79122 -0.242616 0
M  V30 7834 N 743.484 -0.715051 -1.40445 0
M  V30 7835 C 744.414 -0.0768699 -2.33373 0
M  V30 7836 C 745.395 0.746109 -1.52863 0
M  V30 7837 O 746.58 0.695142 -1.81332 0
M  V30 7838 C 743.71 0.846014 -3.36838 0
M  V30 7839 C 742.664 0.128694 -4.27806 0
M  V30 7840 C 741.99 1.16726 -5.21804 0
M  V30 7841 C 743.29 -1.01679 -5.12307 0
M  V30 7842 H 744.984 -0.853061 -2.8699 0
M  V30 7843 H 742.53 -0.41167 -1.3799 0
M  V30 7844 H 744.483 1.30185 -4.00786 0
M  V30 7845 H 743.207 1.6541 -2.81615 0
M  V30 7846 H 741.866 -0.307314 -3.6531 0
M  V30 7847 H 741.514 1.96838 -4.62887 0
M  V30 7848 H 741.214 0.692188 -5.83509 0
M  V30 7849 H 742.738 1.62321 -5.88629 0
M  V30 7850 H 744.152 -0.640337 -5.69713 0
M  V30 7851 H 742.549 -1.4202 -5.83053 0
M  V30 7852 H 743.619 -1.84769 -4.48317 0
M  V30 7853 N 744.962 1.50701 -0.461195 0
M  V30 7854 C 746.209 2.02267 0.0971971 0
M  V30 7855 C 746.537 1.34387 1.40608 0
M  V30 7856 O 745.792 0.455254 1.90331 0
M  V30 7857 C 746.091 3.55788 0.33908 0
M  V30 7858 C 745.757 4.42092 -0.886885 0
M  V30 7859 C 744.419 4.65398 -1.22304 0
M  V30 7860 C 746.771 4.92571 -1.70361 0
M  V30 7861 C 744.099 5.36429 -2.37616 0
M  V30 7862 C 746.451 5.64868 -2.84793 0
M  V30 7863 C 745.115 5.86431 -3.18834 0
M  V30 7864 H 744.385 0.740146 0.0355669 0
M  V30 7865 H 747.032 1.81415 -0.61326 0
M  V30 7866 H 745.337 3.751 1.13168 0
M  V30 7867 H 747.034 3.93243 0.784937 0
M  V30 7868 H 743.624 4.24165 -0.614981 0
M  V30 7869 H 747.808 4.74428 -1.4571 0
M  V30 7870 H 743.064 5.51333 -2.64276 0
M  V30 7871 H 747.238 6.02966 -3.48432 0
M  V30 7872 H 744.865 6.41248 -4.08296 0
M  V30 7873 N 746.441 0.193421 1.56409 0
M  V30 7874 C 747.852 -0.319471 1.83946 0
M  V30 7875 C 748.203 -1.61505 1.11403 0
M  V30 7876 O 747.328 -2.13139 0.374289 0
M  V30 7877 C 747.923 -0.586411 3.33686 0
M  V30 7878 C 746.482 -1.04368 3.61641 0
M  V30 7879 C 745.629 -0.0913834 2.77149 0
M  V30 7880 H 748.58 0.417242 1.53117 0
M  V30 7881 H 748.601 -1.43591 3.52366 0
M  V30 7882 H 748.113 0.356701 3.86457 0
M  V30 7883 H 746.214 -2.00113 3.14302 0
M  V30 7884 H 746.327 -0.937549 4.69837 0
M  V30 7885 H 744.691 -0.592954 2.47702 0
M  V30 7886 H 745.474 0.846142 3.32709 0
M  V30 7887 N 747.919 -1.57396 -0.0801906 0
M  V30 7888 C 748.851 -1.9982 -1.12271 0
M  V30 7889 C 749.864 -0.902902 -1.35468 0
M  V30 7890 O 751.053 -1.18088 -1.33856 0
M  V30 7891 C 748.153 -2.31476 -2.47532 0
M  V30 7892 C 747.326 -3.62745 -2.44407 0
M  V30 7893 C 746.385 -3.82168 -3.6171 0
M  V30 7894 O 745.411 -4.53852 -3.43522 0
M  V30 7895 N 746.613 -3.2388 -4.81749 0
M  V30 7896 H 749.378 -2.89864 -0.761501 0
M  V30 7897 H 746.939 -1.5965 -0.268965 0
M  V30 7898 H 748.931 -2.4165 -3.24634 0
M  V30 7899 H 747.501 -1.47364 -2.75686 0
M  V30 7900 H 746.721 -3.63403 -1.52747 0
M  V30 7901 H 748.009 -4.48954 -2.39412 0
M  V30 7902 H 747.407 -2.6568 -4.9943 0
M  V30 7903 H 745.964 -3.39515 -5.56392 0
M  V30 7904 N 749.397 0.351382 -1.53633 0
M  V30 7905 C 750.327 1.43688 -1.84055 0
M  V30 7906 C 751.308 1.55251 -0.695073 0
M  V30 7907 O 752.493 1.69587 -0.946257 0
M  V30 7908 C 749.623 2.80843 -2.04315 0
M  V30 7909 C 748.577 2.84094 -3.20117 0
M  V30 7910 C 747.903 4.2406 -3.25696 0
M  V30 7911 C 749.203 2.50334 -4.58399 0
M  V30 7912 H 750.897 1.18478 -2.74961 0
M  V30 7913 H 748.443 0.568509 -1.32303 0
M  V30 7914 H 750.396 3.56821 -2.2418 0
M  V30 7915 H 749.12 3.07471 -1.10132 0
M  V30 7916 H 747.779 2.10568 -3.00094 0
M  V30 7917 H 747.427 4.47785 -2.29123 0
M  V30 7918 H 747.127 4.27147 -4.03509 0
M  V30 7919 H 748.651 5.0189 -3.47762 0
M  V30 7920 H 750.065 3.16025 -4.78332 0
M  V30 7921 H 748.462 2.64717 -5.38558 0
M  V30 7922 H 749.532 1.45542 -4.62543 0
M  V30 7923 N 750.875 1.45233 0.611969 0
M  V30 7924 C 751.785 1.56098 1.7513 0
M  V30 7925 C 752.801 0.445646 1.68196 0
M  V30 7926 O 753.977 0.705718 1.88631 0
M  V30 7927 C 751.042 1.52052 3.11579 0
M  V30 7928 C 750.103 2.74589 3.29999 0
M  V30 7929 C 749.336 2.70726 4.59938 0
M  V30 7930 O 749.559 1.77806 5.41979 0
M  V30 7931 O 748.493 3.61864 4.80976 0
M  V30 7932 H 752.319 2.52392 1.68914 0
M  V30 7933 H 749.904 1.27695 0.775528 0
M  V30 7934 H 751.786 1.52387 3.92882 0
M  V30 7935 H 750.461 0.589085 3.18295 0
M  V30 7936 H 749.368 2.79817 2.48301 0
M  V30 7937 H 750.701 3.66843 3.28157 0
M  V30 7938 N 752.353 -0.854086 1.3245 0
M  V30 7939 C 753.601 -1.60513 1.228 0
M  V30 7940 C 753.922 -1.93865 -0.210073 0
M  V30 7941 O 753.192 -1.59673 -1.13496 0
M  V30 7942 H 751.772 -0.595099 0.451516 0
M  V30 7943 H 754.434 -1.0216 1.6598 0
M  V30 7944 H 753.53 -2.54182 1.81102 0
M  V30 7945 N 753.831 -1.1567 -1.07043 0
M  V30 7946 C 754.778 -0.856336 -2.14326 0
M  V30 7947 C 755.748 0.192051 -1.64986 0
M  V30 7948 O 756.933 0.0589148 -1.90709 0
M  V30 7949 C 754.073 -0.355227 -3.43267 0
M  V30 7950 C 753.186 -1.46555 -4.06381 0
M  V30 7951 C 752.321 -0.920245 -5.23168 0
M  V30 7952 C 751.36 -2.00729 -5.78251 0
M  V30 7953 N 750.497 -1.47813 -6.86364 0
M  V30 7954 H 755.337 -1.77514 -2.39359 0
M  V30 7955 H 752.874 -0.885676 -1.17449 0
M  V30 7956 H 754.832 -0.0463804 -4.17174 0
M  V30 7957 H 753.462 0.526649 -3.18475 0
M  V30 7958 H 752.514 -1.89052 -3.30096 0
M  V30 7959 H 753.826 -2.28616 -4.43324 0
M  V30 7960 H 752.98 -0.564127 -6.04072 0
M  V30 7961 H 751.719 -0.0688477 -4.87651 0
M  V30 7962 H 750.724 -2.3722 -4.95991 0
M  V30 7963 H 751.949 -2.86252 -6.15822 0
M  V30 7964 H 749.895 -0.649145 -6.5278 0
M  V30 7965 H 749.812 -2.23498 -7.22208 0
M  V30 7966 H 751.08 -1.15036 -7.70965 0
M  V30 7967 N 755.309 1.25446 -0.953992 0
M  V30 7968 C 756.555 1.9343 -0.60933 0
M  V30 7969 C 756.888 1.74542 0.851388 0
M  V30 7970 O 756.163 1.09014 1.61078 0
M  V30 7971 C 756.446 3.46844 -0.968041 0
M  V30 7972 C 756.299 3.74961 -2.48444 0
M  V30 7973 C 757.618 4.37334 -0.492641 0
M  V30 7974 H 754.737 0.702502 -0.222844 0
M  V30 7975 H 757.379 1.48076 -1.19053 0
M  V30 7976 H 755.529 3.85604 -0.473465 0
M  V30 7977 H 757.201 3.45841 -3.05273 0
M  V30 7978 H 755.444 3.20589 -2.92241 0
M  V30 7979 H 756.115 4.82246 -2.68594 0
M  V30 7980 H 758.591 4.05873 -0.916878 0
M  V30 7981 H 757.467 5.43439 -0.772331 0
M  V30 7982 H 757.728 4.37908 0.607403 0
M  V30 7983 N 756.787 0.722489 1.40064 0
M  V30 7984 C 757.697 0.0755984 2.34478 0
M  V30 7985 C 758.713 -0.736046 1.57665 0
M  V30 7986 O 759.889 -0.667407 1.9002 0
M  V30 7987 C 756.954 -0.830075 3.36616 0
M  V30 7988 C 756.015 -0.00759884 4.29299 0
M  V30 7989 C 755.248 -0.870139 5.26559 0
M  V30 7990 O 755.471 -2.10921 5.2997 0
M  V30 7991 O 754.405 -0.305454 6.01124 0
M  V30 7992 H 758.231 0.854545 2.9143 0
M  V30 7993 H 755.816 0.483032 1.41376 0
M  V30 7994 H 757.698 -1.34864 3.99236 0
M  V30 7995 H 756.373 -1.58805 2.82069 0
M  V30 7996 H 755.28 0.556199 3.69942 0
M  V30 7997 H 756.613 0.712312 4.87018 0
M  V30 7998 N 758.265 -1.50454 0.469181 0
M  V30 7999 C 759.49 -2.0722 -0.0864892 0
M  V30 8000 C 759.915 -1.33098 -1.32916 0
M  V30 8001 O 759.273 -0.378084 -1.77314 0
M  V30 8002 C 759.321 -3.58845 -0.355384 0
M  V30 8003 O 758.425 -3.86583 -1.43622 0
M  V30 8004 H 757.766 -0.663889 0.0121414 0
M  V30 8005 H 760.296 -1.93674 0.659674 0
M  V30 8006 H 760.306 -4.03617 -0.596447 0
M  V30 8007 H 758.981 -4.12211 0.552698 0
M  V30 8008 H 757.558 -3.5365 -1.18262 0
M  V30 8009 N 759.743 -0.201713 -1.56304 0
M  V30 8010 C 760.989 0.435952 -1.98059 0
M  V30 8011 C 761.322 1.60811 -1.08873 0
M  V30 8012 O 760.597 1.9398 -0.142128 0
M  V30 8013 C 760.88 0.889706 -3.48936 0
M  V30 8014 C 760.733 -0.284725 -4.48898 0
M  V30 8015 C 762.052 1.7529 -4.03685 0
M  V30 8016 H 759.171 0.15699 -0.720085 0
M  V30 8017 H 761.813 -0.293965 -1.87712 0
M  V30 8018 H 759.963 1.51166 -3.57884 0
M  V30 8019 H 761.635 -0.922531 -4.51981 0
M  V30 8020 H 759.878 -0.935427 -4.23594 0
M  V30 8021 H 760.549 0.0753865 -5.51949 0
M  V30 8022 H 763.025 1.2283 -3.97558 0
M  V30 8023 H 761.901 2.03933 -5.0961 0
M  V30 8024 H 762.162 2.70939 -3.49348 0
M  V30 8025 N 761.222 1.57436 0.0718424 0
M  V30 8026 C 762.45 1.91474 0.783932 0
M  V30 8027 C 762.865 0.797669 1.71122 0
M  V30 8028 O 762.222 -0.228989 1.81058 0
M  V30 8029 C 762.273 3.25259 1.57761 0
M  V30 8030 O 761.994 4.3267 0.687596 0
M  V30 8031 C 763.495 3.7331 2.3907 0
M  V30 8032 H 760.715 0.632901 0.222885 0
M  V30 8033 H 763.259 2.04457 0.0421262 0
M  V30 8034 H 761.414 3.13804 2.27169 0
M  V30 8035 H 761.828 5.09641 1.23962 0
M  V30 8036 H 763.302 4.69551 2.90216 0
M  V30 8037 H 763.779 3.02318 3.18591 0
M  V30 8038 H 764.385 3.8771 1.74818 0
M  V30 8039 N 762.7 -0.34323 1.53817 0
M  V30 8040 C 763.663 -1.40444 1.8113 0
M  V30 8041 C 764.663 -1.45604 0.682366 0
M  V30 8042 O 765.853 -1.45974 0.950649 0
M  V30 8043 C 762.985 -2.79369 1.95361 0
M  V30 8044 H 764.178 -1.17489 2.75928 0
M  V30 8045 H 761.731 -0.577636 1.45234 0
M  V30 8046 H 762.466 -3.07607 1.02707 0
M  V30 8047 H 762.251 -2.7702 2.77493 0
M  V30 8048 H 763.741 -3.56178 2.18008 0
M  V30 8049 N 764.178 -1.45556 -0.604258 0
M  V30 8050 C 765.426 -1.4945 -1.36048 0
M  V30 8051 C 765.747 -0.138933 -1.94504 0
M  V30 8052 O 765.017 0.832097 -1.7735 0
M  V30 8053 H 763.597 -0.550381 -0.505064 0
M  V30 8054 H 766.259 -1.81535 -0.709308 0
M  V30 8055 H 765.355 -2.23519 -2.17821 0
M  V30 8056 N 765.656 0.84705 -1.32902 0
M  V30 8057 C 766.881 1.63925 -1.27056 0
M  V30 8058 C 767.306 1.87443 0.157136 0
M  V30 8059 O 766.664 1.43266 1.11106 0
M  V30 8060 C 766.712 2.97134 -2.04313 0
M  V30 8061 O 765.816 3.88049 -1.39614 0
M  V30 8062 H 765.157 0.499477 -0.437514 0
M  V30 8063 H 767.687 1.05443 -1.75336 0
M  V30 8064 H 767.697 3.46896 -2.14772 0
M  V30 8065 H 766.372 2.79339 -3.08128 0
M  V30 8066 H 764.949 3.46525 -1.3775 0
M  V30 8067 N 767.134 1.16236 1.06428 0
M  V30 8068 C 768.545 0.950942 1.60667 0
M  V30 8069 C 768.896 -0.505491 1.89576 0
M  V30 8070 O 768.021 -1.37843 1.66818 0
M  V30 8071 C 768.616 1.71982 2.91904 0
M  V30 8072 C 767.175 1.55342 3.4285 0
M  V30 8073 C 766.322 1.72942 2.16763 0
M  V30 8074 H 769.273 1.31126 0.893959 0
M  V30 8075 H 769.294 1.19483 3.61253 0
M  V30 8076 H 768.806 2.77978 2.70831 0
M  V30 8077 H 766.907 0.5178 3.68985 0
M  V30 8078 H 767.02 2.33643 4.18267 0
M  V30 8079 H 765.384 1.15673 2.26918 0
M  V30 8080 H 766.167 2.80324 1.98175 0
M  V30 8081 N 768.612 -1.24939 0.960631 0
M  V30 8082 C 769.542 -2.28 0.503815 0
M  V30 8083 C 770.523 -1.63959 -0.452928 0
M  V30 8084 O 771.708 -1.91009 -0.350585 0
M  V30 8085 C 768.838 -3.46643 -0.213535 0
M  V30 8086 C 767.792 -4.22903 0.658535 0
M  V30 8087 C 767.118 -5.34363 -0.189902 0
M  V30 8088 C 768.418 -4.84949 1.93963 0
M  V30 8089 H 770.112 -2.66462 1.36521 0
M  V30 8090 H 767.658 -1.28093 0.657897 0
M  V30 8091 H 769.611 -4.1787 -0.544286 0
M  V30 8092 H 768.335 -3.07187 -1.10923 0
M  V30 8093 H 766.994 -3.53467 0.972455 0
M  V30 8094 H 766.642 -4.91147 -1.08553 0
M  V30 8095 H 766.342 -5.86302 0.390331 0
M  V30 8096 H 767.866 -6.0842 -0.515484 0
M  V30 8097 H 769.28 -5.48288 1.67491 0
M  V30 8098 H 767.677 -5.47091 2.46601 0
M  V30 8099 H 768.747 -4.06799 2.639 0
M  V30 8100 N 770.09 -0.729906 -1.39679 0
M  V30 8101 C 771.318 -0.285709 -2.04918 0
M  V30 8102 C 771.733 1.07765 -1.55023 0
M  V30 8103 O 771.09 1.67999 -0.712923 0
M  V30 8104 C 771.141 -0.272793 -3.60469 0
M  V30 8105 O 770.862 -1.58233 -4.08527 0
M  V30 8106 C 772.363 0.188199 -4.429 0
M  V30 8107 H 769.583 -0.125758 -0.65911 0
M  V30 8108 H 772.127 -0.992129 -1.78821 0
M  V30 8109 H 770.282 0.384699 -3.85485 0
M  V30 8110 H 770.696 -1.49245 -5.02818 0
M  V30 8111 H 772.17 0.14608 -5.51807 0
M  V30 8112 H 772.647 1.2326 -4.21549 0
M  V30 8113 H 773.253 -0.439541 -4.23023 0
M  V30 8114 N 771.568 1.50203 -0.477153 0
M  V30 8115 C 772.516 2.30278 0.327826 0
M  V30 8116 C 773.51 1.37831 0.984839 0
M  V30 8117 O 774.716 1.54994 0.915251 0
M  V30 8118 H 771.091 0.741612 0.124564 0
M  V30 8119 H 773.062 2.96124 -0.367853 0
M  V30 8120 C 771.811 3.18548 1.39365 0
M  V30 8121 H 771.134 3.89596 0.897475 0
M  V30 8122 H 772.574 3.77561 1.92934 0
M  V30 8123 C 771.033 2.36548 2.39889 0
M  V30 8124 O 771.563 2.05282 3.45286 0
M  V30 8125 N 769.769 1.99015 2.11758 0
M  V30 8126 H 769.316 2.24641 1.26071 0
M  V30 8127 H 769.274 1.44454 2.7925 0
M  V30 8128 N 773.046 0.209999 1.56195 0
M  V30 8129 C 773.978 -0.736967 2.17029 0
M  V30 8130 C 774.991 -1.16599 1.13616 0
M  V30 8131 O 776.18 -1.09914 1.40646 0
M  V30 8132 C 773.28 -2.00852 2.72969 0
M  V30 8133 C 772.453 -1.73691 4.01435 0
M  V30 8134 C 771.512 -2.85439 4.42053 0
M  V30 8135 O 770.538 -2.54405 5.09183 0
M  V30 8136 N 771.74 -4.14135 4.06783 0
M  V30 8137 H 774.505 -0.216656 2.98916 0
M  V30 8138 H 772.066 0.0285672 1.61875 0
M  V30 8139 H 774.058 -2.74778 2.97118 0
M  V30 8140 H 772.628 -2.43963 1.95451 0
M  V30 8141 H 771.848 -0.834676 3.85262 0
M  V30 8142 H 773.136 -1.52961 4.85263 0
M  V30 8143 H 772.534 -4.42196 3.52816 0
M  V30 8144 H 771.091 -4.84642 4.35851 0
M  V30 8145 N 774.524 -1.57472 -0.0634922 0
M  V30 8146 C 775.771 -1.87654 -0.761066 0
M  V30 8147 C 776.099 -0.802847 -1.77157 0
M  V30 8148 O 775.354 0.200244 -1.94673 0
M  V30 8149 C 775.653 -3.24521 -1.49736 0
M  V30 8150 C 775.319 -4.46532 -0.626065 0
M  V30 8151 C 773.981 -4.7965 -0.385978 0
M  V30 8152 C 776.333 -5.21195 -0.0224001 0
M  V30 8153 C 773.661 -5.84837 0.467118 0
M  V30 8154 C 776.013 -6.27286 0.818198 0
M  V30 8155 C 774.677 -6.58899 1.06808 0
M  V30 8156 H 773.947 -0.686675 -0.278494 0
M  V30 8157 H 776.594 -1.91488 -0.0216348 0
M  V30 8158 H 774.899 -3.16516 -2.30921 0
M  V30 8159 H 776.596 -3.45111 -2.04204 0
M  V30 8160 H 773.186 -4.20618 -0.823325 0
M  V30 8161 H 777.37 -4.95917 -0.194985 0
M  V30 8162 H 772.626 -6.07725 0.669375 0
M  V30 8163 H 776.8 -6.84298 1.29265 0
M  V30 8164 H 774.427 -7.40233 1.73088 0
M  V30 8165 N 776.003 0.335068 -1.53997 0
M  V30 8166 C 777.233 1.0926 -1.75345 0
M  V30 8167 C 777.641 1.82568 -0.496545 0
M  V30 8168 O 776.984 1.75525 0.541897 0
M  V30 8169 C 777.046 2.14473 -2.88516 0
M  V30 8170 C 776.71 1.60665 -4.27827 0
M  V30 8171 C 777.707 1.05448 -5.09094 0
M  V30 8172 C 775.392 1.65255 -4.74337 0
M  V30 8173 C 777.386 0.555372 -6.34976 0
M  V30 8174 C 775.073 1.14956 -6.0019 0
M  V30 8175 C 776.071 0.601907 -6.80343 0
M  V30 8176 O 775.759 0.106445 -8.0383 0
M  V30 8177 H 775.491 0.331329 -0.589234 0
M  V30 8178 H 778.045 0.39042 -2.01655 0
M  V30 8179 H 776.275 2.88274 -2.5775 0
M  V30 8180 H 777.964 2.75857 -2.97755 0
M  V30 8181 H 778.73 1.01218 -4.74321 0
M  V30 8182 H 774.609 2.06822 -4.12002 0
M  V30 8183 H 778.153 0.127245 -6.97484 0
M  V30 8184 H 774.05 1.18891 -6.34457 0
M  V30 8185 H 774.818 0.222944 -8.18196 0
M  V30 8186 N 777.481 1.45874 0.596531 0
M  V30 8187 C 778.411 1.5824 1.71705 0
M  V30 8188 C 779.392 0.433366 1.64487 0
M  V30 8189 O 780.577 0.657895 1.82717 0
M  V30 8190 C 777.707 1.55927 3.10329 0
M  V30 8191 C 776.661 2.69659 3.32367 0
M  V30 8192 C 775.987 2.52403 4.71377 0
M  V30 8193 C 777.287 4.11591 3.21544 0
M  V30 8194 H 778.981 2.52035 1.61613 0
M  V30 8195 H 776.527 1.21297 0.776082 0
M  V30 8196 H 778.48 1.63173 3.88526 0
M  V30 8197 H 777.204 0.586674 3.21288 0
M  V30 8198 H 775.863 2.61859 2.56564 0
M  V30 8199 H 775.511 1.53258 4.79083 0
M  V30 8200 H 775.211 3.28679 4.87077 0
M  V30 8201 H 776.735 2.6152 5.5176 0
M  V30 8202 H 778.149 4.20576 3.89601 0
M  V30 8203 H 776.546 4.88344 3.4877 0
M  V30 8204 H 777.616 4.32719 2.1882 0
M  V30 8205 N 778.959 -0.83999 1.33349 0
M  V30 8206 C 779.922 -1.93128 1.23426 0
M  V30 8207 C 780.922 -1.60065 0.153599 0
M  V30 8208 O 782.112 -1.69425 0.405049 0
M  V30 8209 C 779.244 -3.28761 0.901622 0
M  V30 8210 H 780.437 -2.03352 2.20427 0
M  V30 8211 H 777.99 -1.03194 1.17391 0
M  V30 8212 H 778.725 -3.24233 -0.0659337 0
M  V30 8213 H 778.51 -3.54138 1.68311 0
M  V30 8214 H 780 -4.08714 0.856913 0
M  V30 8215 N 780.437 -1.16799 -1.0581 0
M  V30 8216 C 781.4 -0.881396 -2.11575 0
M  V30 8217 C 782.4 0.12574 -1.60308 0
M  V30 8218 O 783.59 -0.105716 -1.73879 0
M  V30 8219 C 780.722 -0.319037 -3.39404 0
M  V30 8220 H 781.915 -1.81907 -2.38432 0
M  V30 8221 H 779.468 -0.977597 -1.21954 0
M  V30 8222 H 780.203 0.626082 -3.18199 0
M  V30 8223 H 779.988 -1.04481 -3.77923 0
M  V30 8224 H 781.478 -0.13663 -4.17376 0
M  V30 8225 N 781.915 1.24427 -0.967243 0
M  V30 8226 C 783.326 1.74349 -0.667785 0
M  V30 8227 C 783.677 1.78403 0.816509 0
M  V30 8228 O 782.802 1.41315 1.63887 0
M  V30 8229 C 783.397 3.16628 -1.20548 0
M  V30 8230 C 781.956 3.64059 -0.955934 0
M  V30 8231 C 781.103 2.42715 -1.34106 0
M  V30 8232 H 784.054 1.10136 -1.14262 0
M  V30 8233 H 784.075 3.76183 -0.571547 0
M  V30 8234 H 783.587 3.13646 -2.28578 0
M  V30 8235 H 781.688 3.72441 0.108858 0
M  V30 8236 H 781.801 4.51549 -1.60126 0
M  V30 8237 H 780.165 2.43114 -0.759452 0
M  V30 8238 H 780.948 2.42414 -2.43085 0
M  V30 8239 N 783.393 0.737304 1.3929 0
M  V30 8240 C 784.809 0.413132 1.5416 0
M  V30 8241 C 785.009 -1.07574 1.70382 0
M  V30 8242 O 784.065 -1.86185 1.70562 0
M  V30 8243 C 785.378 1.19817 2.75798 0
M  V30 8244 C 786.926 1.18662 2.89635 0
M  V30 8245 C 787.401 1.95427 4.14213 0
M  V30 8246 N 788.892 1.92605 4.21257 0
M  V30 8247 C 789.627 2.48808 5.16606 0
M  V30 8248 N 789.123 3.13659 6.1773 0
M  V30 8249 N 790.916 2.38829 5.08839 0
M  V30 8250 H 783.067 1.70243 1.27008 0
M  V30 8251 H 785.33 0.720802 0.61575 0
M  V30 8252 H 785.036 2.25179 2.70161 0
M  V30 8253 H 784.91 0.804144 3.68529 0
M  V30 8254 H 787.297 0.141112 2.94762 0
M  V30 8255 H 787.378 1.62003 1.97961 0
M  V30 8256 H 787.022 2.9998 4.09847 0
M  V30 8257 H 786.952 1.4949 5.04936 0
M  V30 8258 H 789.443 1.45362 3.48824 0
M  V30 8259 H 789.756 3.54006 6.8695 0
M  V30 8260 H 788.101 3.17749 6.1811 0
M  V30 8261 H 791.292 1.87806 4.28773 0
M  V30 8262 H 791.465 2.82929 5.82971 0
M  V30 8263 N 784.871 -1.49948 0.485112 0
M  V30 8264 C 786.119 -2.01996 -0.0648775 0
M  V30 8265 C 786.44 -1.36819 -1.38945 0
M  V30 8266 O 785.71 -0.518163 -1.88923 0
M  V30 8267 H 784.29 -0.746513 -0.0269662 0
M  V30 8268 H 786.952 -1.84136 0.638733 0
M  V30 8269 H 786.048 -3.11418 -0.20617 0
M  V30 8270 N 786.349 -0.21828 -1.56081 0
M  V30 8271 C 787.312 0.679633 -2.18892 0
M  V30 8272 C 788.312 1.12405 -1.14986 0
M  V30 8273 O 789.502 1.03339 -1.40238 0
M  V30 8274 C 786.634 1.93063 -2.80962 0
M  V30 8275 H 787.827 0.132066 -2.99609 0
M  V30 8276 H 785.38 0.0313374 -1.56269 0
M  V30 8277 H 786.115 2.52015 -2.04106 0
M  V30 8278 H 785.9 1.62046 -3.57048 0
M  V30 8279 H 787.39 2.57043 -3.29118 0
M  V30 8280 N 787.827 1.57504 0.0551401 0
M  V30 8281 C 789.067 1.89895 0.756252 0
M  V30 8282 C 789.431 0.813983 1.73892 0
M  V30 8283 O 790.632 1.02145 2.48636 0
M  V30 8284 C 788.903 3.27494 1.43116 0
M  V30 8285 S 790.462 3.81669 2.16504 0
M  V30 8286 H 787.28 0.665173 0.251129 0
M  V30 8287 H 789.882 1.95496 0.0117193 0
M  V30 8288 H 788.586 4.04345 0.702391 0
M  V30 8289 H 788.117 3.25132 2.21479 0
M  V30 8290 H 790.132 3.58295 3.43277 0
M  V30 8291 N 789.305 -0.326896 1.54172 0
M  V30 8292 C 790.535 -1.08328 1.75922 0
M  V30 8293 C 790.943 -1.82302 0.50622 0
M  V30 8294 O 790.286 -1.7581 -0.532581 0
M  V30 8295 C 790.348 -2.1294 2.8965 0
M  V30 8296 C 790.012 -1.58394 4.28673 0
M  V30 8297 C 791.009 -1.02747 5.09646 0
M  V30 8298 C 788.694 -1.62737 4.75207 0
M  V30 8299 C 790.688 -0.52169 6.35261 0
M  V30 8300 C 788.375 -1.11772 6.00791 0
M  V30 8301 C 789.373 -0.565819 6.80652 0
M  V30 8302 O 789.061 -0.0638146 8.03875 0
M  V30 8303 H 788.793 -0.3282 0.590983 0
M  V30 8304 H 791.347 -0.37972 2.0186 0
M  V30 8305 H 789.577 -2.86903 2.59275 0
M  V30 8306 H 791.266 -2.74274 2.99213 0
M  V30 8307 H 792.032 -0.987007 4.74851 0
M  V30 8308 H 787.911 -2.04635 4.13093 0
M  V30 8309 H 791.455 -0.0902544 6.97542 0
M  V30 8310 H 787.352 -1.15524 6.35078 0
M  V30 8311 H 788.12 -0.17955 8.18303 0
M  V30 8312 N 790.784 -1.46188 -0.588786 0
M  V30 8313 C 792.032 -1.50885 -1.34455 0
M  V30 8314 C 792.353 -0.159555 -1.94346 0
M  V30 8315 O 791.623 0.813239 -1.78222 0
M  V30 8316 H 790.203 -0.555707 -0.499198 0
M  V30 8317 H 792.865 -1.82277 -0.690014 0
M  V30 8318 H 791.961 -2.25816 -2.15438 0
M  V30 8319 N 792.262 0.832906 -1.33792 0
M  V30 8320 C 793.225 1.92471 -1.24449 0
M  V30 8321 C 794.225 1.59981 -0.162085 0
M  V30 8322 O 795.415 1.69208 -0.414029 0
M  V30 8323 C 792.547 3.28278 -0.919044 0
M  V30 8324 H 793.74 2.0218 -2.21502 0
M  V30 8325 H 791.293 1.0257 -1.17936 0
M  V30 8326 H 792.028 3.24263 0.048738 0
M  V30 8327 H 791.813 3.53241 -1.70187 0
M  V30 8328 H 793.303 4.08253 -0.878576 0
M  V30 8329 N 793.74 1.17359 1.05189 0
M  V30 8330 C 795.017 0.871914 1.75091 0
M  V30 8331 C 795.397 -0.627821 2.01548 0
M  V30 8332 O 794.745 -1.5791 1.65156 0
M  V30 8333 C 794.955 1.70687 3.04413 0
M  V30 8334 C 796.303 1.92684 3.78362 0
M  V30 8335 O 797.327 1.67645 3.14282 0
M  V30 8336 O 796.186 2.34765 4.93505 0
M  V30 8337 H 793.28 0.322831 0.761386 0
M  V30 8338 H 795.826 1.28054 1.11357 0
M  V30 8339 H 794.598 2.72405 2.80911 0
M  V30 8340 H 794.221 1.29602 3.75884 0
M  V30 8341 N 795.218 -1.23913 0.973828 0
M  V30 8342 C 796.168 -2.22892 0.479933 0
M  V30 8343 C 797.152 -1.54726 -0.441434 0
M  V30 8344 O 798.344 -1.74908 -0.271358 0
M  V30 8345 C 795.473 -3.42577 -0.222702 0
M  V30 8346 C 794.559 -4.17981 0.717851 0
M  V30 8347 N 794.95 -4.7045 1.8577 0
M  V30 8348 C 793.248 -4.42841 0.529858 0
M  V30 8349 C 793.949 -5.27751 2.44651 0
M  V30 8350 N 792.925 -5.15302 1.73104 0
M  V30 8351 H 796.727 -2.61083 1.34956 0
M  V30 8352 H 794.241 -1.39368 0.83368 0
M  V30 8353 H 796.238 -4.1265 -0.593793 0
M  V30 8354 H 794.898 -3.05904 -1.0887 0
M  V30 8355 H 795.909 -4.66997 2.23908 0
M  V30 8356 H 792.586 -4.1648 -0.291664 0
M  V30 8357 H 793.976 -5.79011 3.40875 0
M  V30 8358 N 796.696 -0.74468 -1.38897 0
M  V30 8359 C 797.973 -0.222773 -1.94327 0
M  V30 8360 C 798.353 1.27731 -1.68071 0
M  V30 8361 O 797.701 2.04754 -1.01429 0
M  V30 8362 C 797.911 -0.566836 -3.44366 0
M  V30 8363 C 799.259 -0.521531 -4.21385 0
M  V30 8364 O 800.283 -0.504599 -3.52608 0
M  V30 8365 O 799.142 -0.524595 -5.43976 0
M  V30 8366 H 796.236 -0.0439259 -0.825833 0
M  V30 8367 H 798.782 -0.824197 -1.48341 0
M  V30 8368 H 797.554 -1.60321 -3.56949 0
M  V30 8369 H 797.177 0.0630577 -3.9755 0
M  V30 8370 N 798.174 1.49689 -0.493057 0
M  V30 8371 C 799.104 2.31826 0.279073 0
M  V30 8372 C 800.085 1.39733 0.969987 0
M  V30 8373 O 801.27 1.68646 0.962925 0
M  V30 8374 C 798.4 3.20046 1.34862 0
M  V30 8375 C 797.354 4.20869 0.77805 0
M  V30 8376 C 796.68 4.97971 1.94753 0
M  V30 8377 C 797.98 5.21813 -0.225543 0
M  V30 8378 H 799.674 2.96627 -0.406512 0
M  V30 8379 H 797.22 1.42647 -0.196943 0
M  V30 8380 H 799.173 3.76315 1.89645 0
M  V30 8381 H 797.897 2.53172 2.06328 0
M  V30 8382 H 796.556 3.65733 0.252036 0
M  V30 8383 H 796.204 4.27552 2.64969 0
M  V30 8384 H 795.904 5.66186 1.57187 0
M  V30 8385 H 797.428 5.57082 2.49984 0
M  V30 8386 H 798.842 5.72823 0.233864 0
M  V30 8387 H 797.239 5.97872 -0.516622 0
M  V30 8388 H 798.309 4.71209 -1.14412 0
M  V30 8389 N 799.652 0.226554 1.55963 0
M  V30 8390 C 800.9 -0.402991 1.98041 0
M  V30 8391 C 801.221 -1.59938 1.11557 0
M  V30 8392 O 800.491 -1.9494 0.193719 0
M  V30 8393 H 799.071 -0.15188 0.731397 0
M  V30 8394 H 801.733 0.320613 1.92245 0
M  V30 8395 H 800.829 -0.725937 3.0354 0
M  V30 8396 N 801.13 -1.57531 -0.0467866 0
M  V30 8397 C 802.546 -1.54451 -0.402107 0
M  V30 8398 C 802.746 -0.950275 -1.77685 0
M  V30 8399 O 801.802 -0.563602 -2.4613 0
M  V30 8400 C 803.115 -2.9899 -0.320212 0
M  V30 8401 C 804.663 -3.10452 -0.398588 0
M  V30 8402 C 805.138 -4.56689 -0.346335 0
M  V30 8403 N 806.629 -4.6142 -0.405666 0
M  V30 8404 C 807.364 -5.72087 -0.387845 0
M  V30 8405 N 806.86 -6.92045 -0.32336 0
M  V30 8406 N 808.653 -5.60404 -0.436263 0
M  V30 8407 H 800.804 -1.94515 0.853087 0
M  V30 8408 H 803.067 -0.891397 0.322669 0
M  V30 8409 H 802.773 -3.46124 0.623794 0
M  V30 8410 H 802.647 -3.60164 -1.1208 0
M  V30 8411 H 805.034 -2.63276 -1.33302 0
M  V30 8412 H 805.115 -2.52142 0.431026 0
M  V30 8413 H 804.759 -5.04527 0.584356 0
M  V30 8414 H 804.689 -5.12889 -1.19382 0
M  V30 8415 H 807.18 -3.75105 -0.458737 0
M  V30 8416 H 807.493 -7.7216 -0.314375 0
M  V30 8417 H 805.838 -6.94396 -0.28967 0
M  V30 8418 H 809.029 -4.65586 -0.48451 0
M  V30 8419 H 809.202 -6.46645 -0.418907 0
M  V30 8420 N 802.608 0.318715 -1.54344 0
M  V30 8421 C 803.538 1.39751 -1.87061 0
M  V30 8422 C 804.519 1.53741 -0.727848 0
M  V30 8423 O 805.704 1.67541 -0.982016 0
M  V30 8424 C 802.834 2.76446 -2.10226 0
M  V30 8425 C 801.788 2.77239 -3.26071 0
M  V30 8426 C 801.114 4.17056 -3.34617 0
M  V30 8427 C 802.414 2.40555 -4.63606 0
M  V30 8428 H 804.108 1.12619 -2.77412 0
M  V30 8429 H 801.654 0.540318 -1.33479 0
M  V30 8430 H 803.607 3.51985 -2.31699 0
M  V30 8431 H 802.331 3.05066 -1.16629 0
M  V30 8432 H 800.99 2.04155 -3.04493 0
M  V30 8433 H 800.638 4.42824 -2.3857 0
M  V30 8434 H 800.338 4.18492 -4.12478 0
M  V30 8435 H 801.862 4.94401 -3.5833 0
M  V30 8436 H 803.276 3.05808 -4.84927 0
M  V30 8437 H 801.673 2.53234 -5.44052 0
M  V30 8438 H 802.743 1.35698 -4.65526 0
M  V30 8439 N 804.086 1.46499 0.581025 0
M  V30 8440 C 805.036 1.53606 1.68491 0
M  V30 8441 C 806.02 0.396853 1.55929 0
M  V30 8442 O 807.212 0.645366 1.64815 0
M  V30 8443 C 804.341 1.53089 3.07276 0
M  V30 8444 C 803.427 2.72309 3.25128 0
M  V30 8445 N 803.818 3.97216 3.13134 0
M  V30 8446 C 802.116 2.68568 3.56072 0
M  V30 8447 C 802.817 4.7693 3.33036 0
M  V30 8448 N 801.793 4.08833 3.58269 0
M  V30 8449 H 805.595 2.47976 1.5775 0
M  V30 8450 H 803.109 1.42161 0.785104 0
M  V30 8451 H 805.106 1.56268 3.86505 0
M  V30 8452 H 803.766 0.597969 3.19146 0
M  V30 8453 H 804.777 4.28439 2.90964 0
M  V30 8454 H 801.454 1.84307 3.74616 0
M  V30 8455 H 802.844 5.85879 3.28932 0
M  V30 8456 N 805.565 -0.825799 1.34232 0
M  V30 8457 C 806.976 -1.39835 1.23706 0
M  V30 8458 C 807.327 -1.95709 -0.138649 0
M  V30 8459 O 806.452 -1.89833 -1.03886 0
M  V30 8460 C 807.047 -2.54203 2.23978 0
M  V30 8461 C 805.606 -3.07374 2.17251 0
M  V30 8462 C 804.753 -1.80232 2.10741 0
M  V30 8463 H 807.704 -0.630442 1.4564 0
M  V30 8464 H 807.725 -3.32214 1.8551 0
M  V30 8465 H 807.237 -2.13506 3.24094 0
M  V30 8466 H 805.338 -3.52583 1.20483 0
M  V30 8467 H 805.451 -3.6666 3.08379 0
M  V30 8468 H 803.815 -2.01012 1.56417 0
M  V30 8469 H 804.598 -1.41713 3.12686 0
M  V30 8470 N 807.043 -1.17915 -1.04565 0
M  V30 8471 C 808.283 -0.982331 -1.79247 0
M  V30 8472 C 808.647 0.47998 -1.85904 0
M  V30 8473 O 809.848 0.796078 -2.56741 0
M  V30 8474 C 808.119 -1.61329 -3.18916 0
M  V30 8475 S 809.678 -1.56355 -4.09998 0
M  V30 8476 H 806.496 -0.352869 -0.617256 0
M  V30 8477 H 809.098 -1.49971 -1.25415 0
M  V30 8478 H 807.802 -2.66993 -3.11678 0
M  V30 8479 H 807.333 -1.09599 -3.77825 0
M  V30 8480 H 809.348 -0.57593 -4.92846 0
M  V30 8481 N 808.521 1.23394 -0.980386 0
M  V30 8482 C 809.767 1.92094 -0.650223 0
M  V30 8483 C 810.1 1.76309 0.814173 0
M  V30 8484 O 809.375 1.12406 1.5873 0
M  V30 8485 C 809.658 3.44713 -1.04139 0
M  V30 8486 C 809.511 3.69606 -2.56342 0
M  V30 8487 C 810.83 4.36191 -0.585296 0
M  V30 8488 H 807.949 0.697618 -0.237695 0
M  V30 8489 H 810.591 1.45517 -1.22167 0
M  V30 8490 H 808.741 3.84513 -0.55515 0
M  V30 8491 H 810.413 3.39288 -3.1254 0
M  V30 8492 H 808.656 3.14318 -2.98976 0
M  V30 8493 H 809.327 4.76441 -2.78762 0
M  V30 8494 H 811.803 4.03836 -1.00276 0
M  V30 8495 H 810.679 5.41679 -0.887428 0
M  V30 8496 H 810.94 4.39097 0.51438 0
M  V30 8497 N 809.999 0.752036 1.385 0
M  V30 8498 C 810.932 0.0717411 2.28087 0
M  V30 8499 C 811.91 -0.729945 1.45295 0
M  V30 8500 O 813.094 -0.708902 1.74662 0
M  V30 8501 C 810.221 -0.905237 3.26379 0
M  V30 8502 C 809.267 -0.189973 4.26077 0
M  V30 8503 S 810.1 1.10815 5.23909 0
M  V30 8504 C 811.256 0.134202 6.25756 0
M  V30 8505 H 811.489 0.831438 2.85437 0
M  V30 8506 H 809.022 0.544552 1.44478 0
M  V30 8507 H 810.98 -1.46358 3.83523 0
M  V30 8508 H 809.641 -1.63789 2.68015 0
M  V30 8509 H 808.834 -0.92985 4.95348 0
M  V30 8510 H 808.436 0.296804 3.7282 0
M  V30 8511 H 810.728 -0.700345 6.7387 0
M  V30 8512 H 811.671 0.794532 7.03628 0
M  V30 8513 H 812.079 -0.245801 5.63965 0
M  V30 8514 N 811.477 -1.49425 0.500989 0
M  V30 8515 C 812.44 -2.27646 -0.266416 0
M  V30 8516 C 813.44 -1.3366 -0.893961 0
M  V30 8517 O 814.63 -1.5682 -0.758495 0
M  V30 8518 C 811.762 -3.11618 -1.38227 0
M  V30 8519 H 812.955 -2.96945 0.419973 0
M  V30 8520 H 810.508 -1.5419 0.255954 0
M  V30 8521 H 811.243 -2.46885 -2.10281 0
M  V30 8522 H 811.028 -3.80721 -0.937746 0
M  V30 8523 H 812.518 -3.70698 -1.92283 0
M  V30 8524 N 812.955 -0.234822 -1.55841 0
M  V30 8525 C 814.18 0.400741 -2.03492 0
M  V30 8526 C 814.605 1.51618 -1.11327 0
M  V30 8527 O 813.963 1.81002 -0.103922 0
M  V30 8528 C 814.011 0.897184 -3.49261 0
M  V30 8529 O 813.115 2.00764 -3.60233 0
M  V30 8530 H 812.456 0.0890023 -0.658008 0
M  V30 8531 H 814.986 -0.357345 -2.01455 0
M  V30 8532 H 814.996 1.20356 -3.89844 0
M  V30 8533 H 813.671 0.0808639 -4.15821 0
M  V30 8534 H 812.248 1.70689 -3.31541 0
M  V30 8535 N 814.433 1.57553 0.0384317 0
M  V30 8536 C 815.363 2.0898 1.04161 0
M  V30 8537 C 816.344 0.99029 1.38301 0
M  V30 8538 O 817.529 1.26499 1.47349 0
M  V30 8539 C 814.659 2.56145 2.34536 0
M  V30 8540 C 813.613 3.70275 2.14663 0
M  V30 8541 C 812.939 4.03612 3.50715 0
M  V30 8542 C 814.239 4.99067 1.54045 0
M  V30 8543 H 815.933 2.93046 0.613548 0
M  V30 8544 H 813.479 1.40973 0.293684 0
M  V30 8545 H 815.432 2.90741 3.05037 0
M  V30 8546 H 814.156 1.6915 2.79385 0
M  V30 8547 H 812.815 3.36013 1.46597 0
M  V30 8548 H 812.463 3.13698 3.93195 0
M  V30 8549 H 812.163 4.80482 3.38247 0
M  V30 8550 H 813.687 4.40735 4.22593 0
M  V30 8551 H 815.101 5.3168 2.14451 0
M  V30 8552 H 813.498 5.80484 1.52178 0
M  V30 8553 H 814.568 4.8226 0.505259 0
M  V30 8554 N 815.911 -0.310526 1.54511 0
M  V30 8555 C 817.327 -0.655637 1.45511 0
M  V30 8556 C 817.527 -1.91114 0.638564 0
M  V30 8557 O 816.583 -2.52098 0.142497 0
M  V30 8558 C 817.896 -0.817501 2.89374 0
M  V30 8559 C 819.444 -0.914003 2.99358 0
M  V30 8560 C 819.919 -1.10794 4.44397 0
M  V30 8561 N 821.41 -1.17437 4.48066 0
M  V30 8562 C 822.145 -1.34255 5.57461 0
M  V30 8563 N 821.641 -1.48032 6.768 0
M  V30 8564 N 823.434 -1.37067 5.45132 0
M  V30 8565 H 815.585 0.514506 2.06074 0
M  V30 8566 H 817.848 0.168478 0.932909 0
M  V30 8567 H 817.554 0.034003 3.51684 0
M  V30 8568 H 817.428 -1.7094 3.36243 0
M  V30 8569 H 819.815 -1.756 2.37168 0
M  V30 8570 H 819.896 0.00170958 2.558 0
M  V30 8571 H 819.54 -0.270743 5.07178 0
M  V30 8572 H 819.47 -2.03773 4.85576 0
M  V30 8573 H 821.961 -1.08181 3.62084 0
M  V30 8574 H 822.274 -1.60593 7.5593 0
M  V30 8575 H 820.619 -1.45105 6.79683 0
M  V30 8576 H 823.81 -1.25909 4.50849 0
M  V30 8577 H 823.983 -1.49831 6.3044 0
M  V30 8578 N 817.389 -1.46805 -0.573248 0
M  V30 8579 C 818.352 -1.57655 -1.66366 0
M  V30 8580 C 819.352 -0.452905 -1.5429 0
M  V30 8581 O 820.542 -0.717502 -1.58737 0
M  V30 8582 C 817.674 -1.50584 -3.05839 0
M  V30 8583 H 818.867 -2.54842 -1.581 0
M  V30 8584 H 816.42 -1.34756 -0.791868 0
M  V30 8585 H 817.155 -0.547127 -3.19651 0
M  V30 8586 H 816.94 -2.32118 -3.16012 0
M  V30 8587 H 818.43 -1.61282 -3.85199 0
M  V30 8588 N 818.867 0.818669 -1.34668 0
M  V30 8589 C 819.799 1.93754 -1.22442 0
M  V30 8590 C 820.812 1.62103 -0.150501 0
M  V30 8591 O 822.001 1.73898 -0.402728 0
M  V30 8592 C 819.101 3.27806 -0.860031 0
M  V30 8593 C 818.274 3.8745 -2.02981 0
M  V30 8594 C 817.333 4.99887 -1.64314 0
M  V30 8595 O 816.359 5.17957 -2.36029 0
M  V30 8596 N 817.561 5.77795 -0.55976 0
M  V30 8597 H 820.326 2.04773 -2.18833 0
M  V30 8598 H 817.887 0.995472 -1.27679 0
M  V30 8599 H 819.879 4.00478 -0.583068 0
M  V30 8600 H 818.449 3.12597 0.0138253 0
M  V30 8601 H 817.669 3.07119 -2.47127 0
M  V30 8602 H 818.957 4.2403 -2.81204 0
M  V30 8603 H 818.355 5.65688 0.0363329 0
M  V30 8604 H 816.912 6.50899 -0.342541 0
M  V30 8605 N 820.346 1.18468 1.03938 0
M  V30 8606 C 821.571 1.00638 1.81347 0
M  V30 8607 C 821.996 -0.440477 1.8287 0
M  V30 8608 O 821.354 -1.31609 1.24695 0
M  V30 8609 C 821.402 1.5673 3.24759 0
M  V30 8610 O 820.506 0.789517 4.04772 0
M  V30 8611 H 819.847 0.356432 0.560225 0
M  V30 8612 H 822.377 1.57253 1.30891 0
M  V30 8613 H 822.387 1.59496 3.75533 0
M  V30 8614 H 821.062 2.62043 3.22965 0
M  V30 8615 H 819.639 0.834267 3.63448 0
M  V30 8616 N 821.824 -1.22873 0.986916 0
M  V30 8617 C 823.235 -1.73264 0.695438 0
M  V30 8618 C 823.586 -1.79679 -0.788023 0
M  V30 8619 O 822.711 -1.43905 -1.61618 0
M  V30 8620 C 823.306 -3.14671 1.2557 0
M  V30 8621 C 821.865 -3.62492 1.01373 0
M  V30 8622 C 821.012 -2.40551 1.37951 0
M  V30 8623 H 823.963 -1.08304 1.15999 0
M  V30 8624 H 823.984 -3.75226 0.631322 0
M  V30 8625 H 823.496 -3.0997 2.33539 0
M  V30 8626 H 821.597 -3.72567 -0.0495917 0
M  V30 8627 H 821.71 -4.48944 1.67289 0
M  V30 8628 H 820.074 -2.41875 0.798033 0
M  V30 8629 H 820.857 -2.38516 2.46911 0
M  V30 8630 N 823.302 -0.75937 -1.38099 0
M  V30 8631 C 824.551 -0.314864 -1.99227 0
M  V30 8632 C 824.864 1.1113 -1.60964 0
M  V30 8633 O 826.07 1.65657 -2.15105 0
M  V30 8634 C 824.526 -0.512001 -3.56239 0
M  V30 8635 C 824.134 -1.94762 -4.0345 0
M  V30 8636 C 825.878 -0.130497 -4.24299 0
M  V30 8637 C 823.785 -2.09301 -5.53125 0
M  V30 8638 H 822.715 -0.113978 -0.745335 0
M  V30 8639 H 825.366 -0.936736 -1.57789 0
M  V30 8640 H 823.748 0.179144 -3.95595 0
M  V30 8641 H 824.922 -2.67271 -3.75371 0
M  V30 8642 H 823.237 -2.28457 -3.48133 0
M  V30 8643 H 825.834 -0.21781 -5.34256 0
M  V30 8644 H 826.177 0.917644 -4.0606 0
M  V30 8645 H 826.71 -0.773716 -3.90203 0
M  V30 8646 H 823.449 -3.1239 -5.76275 0
M  V30 8647 H 822.969 -1.41261 -5.82928 0
M  V30 8648 H 824.648 -1.88571 -6.1891 0
M  V30 8649 N 824.78 1.49157 -0.508906 0
M  V30 8650 C 826.191 1.86593 -0.0630975 0
M  V30 8651 C 826.542 1.42051 1.35337 0
M  V30 8652 O 825.667 0.801866 2.00995 0
M  V30 8653 C 826.262 3.38629 -0.107729 0
M  V30 8654 C 824.821 3.75336 0.282776 0
M  V30 8655 C 823.968 2.7317 -0.4768 0
M  V30 8656 H 826.919 1.41362 -0.72128 0
M  V30 8657 H 826.94 3.74271 0.685689 0
M  V30 8658 H 826.452 3.71017 -1.13876 0
M  V30 8659 H 824.553 3.48558 1.31675 0
M  V30 8660 H 824.666 4.79081 -0.0421728 0
M  V30 8661 H 823.03 2.54591 0.0743552 0
M  V30 8662 H 823.813 3.08403 -1.50807 0
M  V30 8663 N 826.258 0.243083 1.55714 0
M  V30 8664 C 827.206 -0.674349 2.2261 0
M  V30 8665 C 828.2 -1.18307 1.21243 0
M  V30 8666 O 829.406 -1.1404 1.39265 0
M  V30 8667 H 825.781 -0.235941 0.714028 0
M  V30 8668 H 827.752 -0.0869446 2.98273 0
M  V30 8669 C 826.501 -1.86206 2.93637 0
M  V30 8670 H 825.824 -1.47975 3.71407 0
M  V30 8671 H 827.264 -2.4813 3.43813 0
M  V30 8672 C 825.723 -2.73084 1.97298 0
M  V30 8673 O 826.253 -3.72497 1.50361 0
M  V30 8674 N 824.459 -2.39571 1.64482 0
M  V30 8675 H 824.006 -1.5878 2.02846 0
M  V30 8676 H 823.964 -2.97976 1.00288 0
M  V30 8677 N 827.736 -1.57571 -0.0300757 0
M  V30 8678 C 828.666 -2.0953 -1.03051 0
M  V30 8679 C 829.647 -0.99761 -1.37774 0
M  V30 8680 O 830.832 -1.27279 -1.46676 0
M  V30 8681 C 827.962 -2.57385 -2.33174 0
M  V30 8682 C 826.916 -3.71409 -2.12696 0
M  V30 8683 C 826.242 -4.05467 -3.4857 0
M  V30 8684 C 827.542 -4.99877 -1.51396 0
M  V30 8685 H 829.236 -2.93367 -0.597999 0
M  V30 8686 H 826.782 -1.41127 -0.286203 0
M  V30 8687 H 828.735 -2.92355 -3.03491 0
M  V30 8688 H 827.459 -1.70629 -2.78484 0
M  V30 8689 H 826.118 -3.36786 -1.44813 0
M  V30 8690 H 825.766 -3.15779 -3.91526 0
M  V30 8691 H 825.466 -4.82269 -3.35694 0
M  V30 8692 H 826.99 -4.4297 -4.2025 0
M  V30 8693 H 828.404 -5.3281 -2.11629 0
M  V30 8694 H 826.801 -5.81283 -1.49098 0
M  V30 8695 H 827.871 -4.82522 -0.479676 0
M  V30 8696 N 829.214 0.302327 -1.54673 0
M  V30 8697 C 830.444 1.05516 -1.77623 0
M  V30 8698 C 830.852 1.81474 -0.535159 0
M  V30 8699 O 830.195 1.76635 0.504543 0
M  V30 8700 C 830.257 2.08305 -2.93001 0
M  V30 8701 C 829.921 1.51554 -4.31139 0
M  V30 8702 C 830.918 0.946261 -5.11216 0
M  V30 8703 C 828.603 1.55157 -4.77736 0
M  V30 8704 C 830.597 0.420559 -6.36011 0
M  V30 8705 C 828.284 1.022 -6.02494 0
M  V30 8706 C 829.282 0.457461 -6.81466 0
M  V30 8707 O 828.97 -0.064083 -8.03874 0
M  V30 8708 H 828.702 0.318756 -0.59613 0
M  V30 8709 H 831.256 0.347558 -2.02438 0
M  V30 8710 H 829.486 2.82742 -2.63807 0
M  V30 8711 H 831.175 2.69479 -3.03539 0
M  V30 8712 H 831.941 0.911338 -4.76361 0
M  V30 8713 H 827.82 1.98037 -4.16296 0
M  V30 8714 H 831.364 -0.0207298 -6.97597 0
M  V30 8715 H 827.261 1.05406 -6.36836 0
M  V30 8716 H 828.029 0.0493422 -8.18485 0
M  V30 8717 N 830.692 1.47107 0.565454 0
M  V30 8718 C 831.622 1.61846 1.68309 0
M  V30 8719 C 832.603 0.468159 1.63531 0
M  V30 8720 O 833.788 0.696504 1.8128 0
M  V30 8721 C 830.918 1.62474 3.06952 0
M  V30 8722 C 829.872 2.76649 3.26572 0
M  V30 8723 C 829.198 2.62345 4.65917 0
M  V30 8724 C 830.498 4.18319 3.12741 0
M  V30 8725 H 832.192 2.55407 1.5623 0
M  V30 8726 H 829.738 1.22916 0.750179 0
M  V30 8727 H 831.691 1.71378 3.84977 0
M  V30 8728 H 830.415 0.654692 3.19971 0
M  V30 8729 H 829.074 2.67242 2.50952 0
M  V30 8730 H 828.722 1.63386 4.75725 0
M  V30 8731 H 828.422 3.38936 4.79996 0
M  V30 8732 H 829.946 2.73165 5.46089 0
M  V30 8733 H 831.36 4.28745 3.80593 0
M  V30 8734 H 829.757 4.95632 3.38333 0
M  V30 8735 H 830.827 4.37263 2.09592 0
M  V30 8736 N 832.17 -0.811516 1.35101 0
M  V30 8737 C 833.398 -1.59981 1.31201 0
M  V30 8738 C 833.813 -1.8847 -0.111552 0
M  V30 8739 O 833.17 -1.48414 -1.06205 0
M  V30 8740 C 833.221 -2.934 2.11184 0
M  V30 8741 O 832.942 -2.66148 3.4799 0
M  V30 8742 C 834.443 -3.87776 2.14813 0
M  V30 8743 H 831.663 -0.496921 0.450899 0
M  V30 8744 H 834.207 -1.00886 1.77883 0
M  V30 8745 H 832.362 -3.49022 1.68115 0
M  V30 8746 H 832.776 -3.51301 3.89471 0
M  V30 8747 H 834.25 -4.7852 2.75178 0
M  V30 8748 H 834.727 -4.23997 1.14556 0
M  V30 8749 H 835.333 -3.3809 2.58022 0
M  V30 8750 N 833.648 -1.19017 -1.03309 0
M  V30 8751 C 834.896 -0.988258 -1.76289 0
M  V30 8752 C 835.217 0.482557 -1.88935 0
M  V30 8753 O 834.487 1.34969 -1.41987 0
M  V30 8754 H 833.067 -0.36267 -0.653054 0
M  V30 8755 H 835.729 -1.49836 -1.2464 0
M  V30 8756 H 834.825 -1.43273 -2.77271 0
M  V30 8757 N 835.127 1.22348 -0.993418 0
M  V30 8758 C 836.059 2.23626 -0.502404 0
M  V30 8759 C 837.072 1.57739 0.402784 0
M  V30 8760 O 838.261 1.77321 0.204835 0
M  V30 8761 C 835.361 3.37647 0.291118 0
M  V30 8762 C 834.534 4.33121 -0.610332 0
M  V30 8763 C 833.593 5.26035 0.131572 0
M  V30 8764 O 832.619 5.67145 -0.483199 0
M  V30 8765 N 833.821 5.63023 1.41371 0
M  V30 8766 H 836.586 2.66385 -1.37329 0
M  V30 8767 H 834.147 1.36653 -0.868196 0
M  V30 8768 H 836.139 3.96792 0.796107 0
M  V30 8769 H 834.709 2.93967 1.0631 0
M  V30 8770 H 833.929 3.72287 -1.29598 0
M  V30 8771 H 835.217 4.93853 -1.22422 0
M  V30 8772 H 834.615 5.31596 1.93449 0
M  V30 8773 H 833.172 6.24582 1.86388 0
M  V30 8774 N 836.605 0.766683 1.37694 0
M  V30 8775 C 837.882 0.25366 1.93948 0
M  V30 8776 C 838.262 -1.25041 1.70082 0
M  V30 8777 O 837.61 -2.03115 1.04674 0
M  V30 8778 C 837.82 0.621549 3.43421 0
M  V30 8779 C 839.168 0.588504 4.20502 0
M  V30 8780 O 840.192 0.560632 3.5176 0
M  V30 8781 O 839.051 0.61107 5.43073 0
M  V30 8782 H 836.145 0.0570586 0.825029 0
M  V30 8783 H 838.691 0.847693 1.47011 0
M  V30 8784 H 837.463 1.65979 3.54354 0
M  V30 8785 H 837.086 0.000197027 3.976 0
M  V30 8786 N 838.083 -1.48885 0.516809 0
M  V30 8787 C 839.332 -2.01686 -0.0239899 0
M  V30 8788 C 839.645 -1.40029 -1.3657 0
M  V30 8789 O 840.851 -1.84249 -1.9941 0
M  V30 8790 C 839.307 -3.59779 -0.0931825 0
M  V30 8791 C 838.915 -4.30416 1.24283 0
M  V30 8792 C 840.659 -4.20471 -0.583507 0
M  V30 8793 C 838.566 -5.80408 1.13494 0
M  V30 8794 H 837.496 -0.753892 -0.0127376 0
M  V30 8795 H 840.147 -1.71273 0.65861 0
M  V30 8796 H 838.529 -3.86976 -0.840577 0
M  V30 8797 H 839.703 -4.14905 2.00476 0
M  V30 8798 H 838.018 -3.81539 1.66785 0
M  V30 8799 H 840.615 -5.30333 -0.681987 0
M  V30 8800 H 840.958 -3.84898 -1.58617 0
M  V30 8801 H 841.491 -3.97654 0.107814 0
M  V30 8802 H 838.23 -6.20532 2.11235 0
M  V30 8803 H 837.75 -5.98368 0.414167 0
M  V30 8804 H 839.429 -6.41781 0.820162 0
M  V30 8805 N 839.561 -0.251338 -1.55583 0
M  V30 8806 C 840.808 0.372169 -1.99051 0
M  V30 8807 C 841.136 1.57623 -1.13953 0
M  V30 8808 O 840.391 1.94762 -0.191398 0
M  V30 8809 C 840.69 0.821186 -3.47838 0
M  V30 8810 C 840.356 -0.275608 -4.50057 0
M  V30 8811 C 839.018 -0.57683 -4.7773 0
M  V30 8812 C 841.37 -1.01585 -5.11204 0
M  V30 8813 C 838.698 -1.62229 -5.63825 0
M  V30 8814 C 841.05 -2.05087 -5.98433 0
M  V30 8815 C 839.714 -2.35869 -6.24437 0
M  V30 8816 H 838.984 0.136186 -0.728378 0
M  V30 8817 H 841.631 -0.360089 -1.88084 0
M  V30 8818 H 839.936 1.63272 -3.56159 0
M  V30 8819 H 841.633 1.31396 -3.78861 0
M  V30 8820 H 838.223 -0.030697 -4.28589 0
M  V30 8821 H 842.407 -0.79639 -4.89869 0
M  V30 8822 H 837.663 -1.86607 -5.82226 0
M  V30 8823 H 841.837 -2.62934 -6.44855 0
M  V30 8824 H 839.464 -3.17017 -6.90944 0
M  V30 8825 N 841.039 1.57585 0.0217189 0
M  V30 8826 C 842.267 1.93871 0.722619 0
M  V30 8827 C 842.682 0.851706 1.68498 0
M  V30 8828 O 842.039 -0.17127 1.81695 0
M  V30 8829 C 842.09 3.30114 1.47333 0
M  V30 8830 O 841.811 4.34639 0.549597 0
M  V30 8831 C 843.312 3.80727 2.27072 0
M  V30 8832 H 840.532 0.639671 0.202637 0
M  V30 8833 H 843.076 2.04487 -0.0229414 0
M  V30 8834 H 841.231 3.20872 2.17071 0
M  V30 8835 H 841.645 5.13326 1.07686 0
M  V30 8836 H 843.119 4.78547 2.75131 0
M  V30 8837 H 843.596 3.12301 3.08812 0
M  V30 8838 H 844.202 3.93075 1.62395 0
M  V30 8839 N 842.517 -0.29412 1.54831 0
M  V30 8840 C 843.757 -1.03635 1.76179 0
M  V30 8841 C 844.121 -1.84251 0.539953 0
M  V30 8842 O 845.322 -2.61282 0.631295 0
M  V30 8843 C 843.593 -1.91275 3.01909 0
M  V30 8844 S 845.152 -2.7205 3.44288 0
M  V30 8845 H 841.97 -0.349403 0.619224 0
M  V30 8846 H 844.572 -0.309006 1.93042 0
M  V30 8847 H 843.276 -1.30937 3.88952 0
M  V30 8848 H 842.807 -2.68365 2.87652 0
M  V30 8849 H 844.822 -3.93791 3.01899 0
M  V30 8850 N 843.995 -1.47404 -0.557645 0
M  V30 8851 C 845.243 -1.53703 -1.31224 0
M  V30 8852 C 845.564 -0.200742 -1.93964 0
M  V30 8853 O 844.834 0.775253 -1.79907 0
M  V30 8854 H 843.414 -0.566171 -0.487299 0
M  V30 8855 H 846.076 -1.83699 -0.651195 0
M  V30 8856 H 845.172 -2.30335 -2.10599 0
M  V30 8857 N 845.473 0.80434 -1.35529 0
M  V30 8858 C 846.403 1.93086 -1.31301 0
M  V30 8859 C 847.384 1.69068 -0.187044 0
M  V30 8860 O 848.569 1.90399 -0.382359 0
M  V30 8861 C 845.699 3.29867 -1.0865 0
M  V30 8862 C 844.653 3.68373 -2.17911 0
M  V30 8863 C 843.979 5.0334 -1.80423 0
M  V30 8864 C 845.279 3.78516 -3.59893 0
M  V30 8865 H 846.973 1.96882 -2.25561 0
M  V30 8866 H 844.519 0.945841 -1.08581 0
M  V30 8867 H 846.472 4.08281 -1.04331 0
M  V30 8868 H 845.196 3.2642 -0.108359 0
M  V30 8869 H 843.855 2.92247 -2.21331 0
M  V30 8870 H 843.503 4.96399 -0.812213 0
M  V30 8871 H 843.203 5.30074 -2.53565 0
M  V30 8872 H 844.727 5.84191 -1.77633 0
M  V30 8873 H 846.141 4.47155 -3.58783 0
M  V30 8874 H 844.538 4.16721 -4.31814 0
M  V30 8875 H 845.608 2.8001 -3.95882 0
M  V30 8876 N 846.951 1.19563 1.02676 0
M  V30 8877 C 848.197 1.00105 1.76371 0
M  V30 8878 C 848.53 -0.466823 1.88506 0
M  V30 8879 O 847.805 -1.34665 1.40341 0
M  V30 8880 C 848.088 1.67321 3.18866 0
M  V30 8881 C 847.941 3.21486 3.1459 0
M  V30 8882 C 849.26 1.39794 4.17308 0
M  V30 8883 H 846.379 0.365075 0.640226 0
M  V30 8884 H 849.021 1.47433 1.19848 0
M  V30 8885 H 847.171 1.27081 3.67128 0
M  V30 8886 H 848.843 3.70953 2.7421 0
M  V30 8887 H 847.086 3.5292 2.52249 0
M  V30 8888 H 847.757 3.63665 4.15273 0
M  V30 8889 H 850.233 1.74685 3.77657 0
M  V30 8890 H 849.109 1.89371 5.15199 0
M  V30 8891 H 849.37 0.323505 4.40915 0
M  V30 8892 N 848.429 -1.21819 0.999893 0
M  V30 8893 C 849.677 -1.90375 0.678351 0
M  V30 8894 C 849.998 -1.78155 -0.792824 0
M  V30 8895 O 849.268 -1.17319 -1.56885 0
M  V30 8896 H 847.848 -0.704661 0.247915 0
M  V30 8897 H 850.51 -1.48021 1.2679 0
M  V30 8898 H 849.606 -2.97385 0.947023 0
M  V30 8899 N 849.908 -0.773975 -1.37286 0
M  V30 8900 C 850.871 -0.167974 -2.28584 0
M  V30 8901 C 851.871 0.625662 -1.48129 0
M  V30 8902 O 853.061 0.448924 -1.68316 0
M  V30 8903 C 850.193 0.769364 -3.32105 0
M  V30 8904 H 851.386 -0.972806 -2.83684 0
M  V30 8905 H 848.939 -0.542335 -1.46589 0
M  V30 8906 H 849.674 1.59912 -2.82132 0
M  V30 8907 H 849.459 0.202419 -3.91577 0
M  V30 8908 H 850.949 1.18872 -4.00324 0
M  V30 8909 N 851.386 1.48609 -0.524698 0
M  V30 8910 C 852.316 2.32366 0.229837 0
M  V30 8911 C 853.297 1.41759 0.940129 0
M  V30 8912 O 854.482 1.7065 0.926936 0
M  V30 8913 C 851.612 3.22835 1.28043 0
M  V30 8914 C 850.566 4.22424 0.688603 0
M  V30 8915 C 849.892 5.0199 1.84146 0
M  V30 8916 C 851.192 5.21217 -0.336176 0
M  V30 8917 H 852.886 2.95698 -0.469339 0
M  V30 8918 H 850.432 1.42197 -0.227156 0
M  V30 8919 H 852.385 3.80253 1.8162 0
M  V30 8920 H 851.109 2.57492 2.00912 0
M  V30 8921 H 849.768 3.66185 0.174402 0
M  V30 8922 H 849.416 4.33076 2.5584 0
M  V30 8923 H 849.116 5.69392 1.45142 0
M  V30 8924 H 850.64 5.62259 2.38111 0
M  V30 8925 H 852.054 5.7319 0.112307 0
M  V30 8926 H 850.451 5.96642 -0.643324 0
M  V30 8927 H 851.521 4.68676 -1.24381 0
M  V30 8928 N 852.864 0.259585 1.55447 0
M  V30 8929 C 853.796 -0.667548 2.19263 0
M  V30 8930 C 854.809 -1.12925 1.17268 0
M  V30 8931 O 855.998 -1.05384 1.44071 0
M  V30 8932 C 853.098 -1.92066 2.7922 0
M  V30 8933 C 852.271 -1.60832 4.06758 0
M  V30 8934 C 851.33 -2.71231 4.50911 0
M  V30 8935 O 850.356 -2.38077 5.17019 0
M  V30 8936 N 851.558 -4.00984 4.19752 0
M  V30 8937 H 854.323 -0.121449 2.99454 0
M  V30 8938 H 851.884 0.0800519 1.61702 0
M  V30 8939 H 853.876 -2.65186 3.0571 0
M  V30 8940 H 852.446 -2.37621 2.03113 0
M  V30 8941 H 851.666 -0.711685 3.87722 0
M  V30 8942 H 852.954 -1.37445 4.89884 0
M  V30 8943 H 852.352 -4.30748 3.66706 0
M  V30 8944 H 850.909 -4.7053 4.51048 0
M  V30 8945 N 854.342 -1.57594 -0.0133615 0
M  V30 8946 C 855.59 -1.89605 -0.699596 0
M  V30 8947 C 855.911 -0.85926 -1.75048 0
M  V30 8948 O 855.181 0.105112 -1.95618 0
M  V30 8949 H 853.761 -0.699776 -0.261385 0
M  V30 8950 H 856.423 -1.94885 0.0244044 0
M  V30 8951 H 855.519 -2.88962 -1.17928 0
M  V30 8952 N 855.82 0.285905 -1.54985 0
M  V30 8953 C 856.783 1.33625 -1.86218 0
M  V30 8954 C 857.783 1.42971 -0.735936 0
M  V30 8955 O 858.973 1.42345 -1.00417 0
M  V30 8956 C 856.105 2.71926 -2.05595 0
M  V30 8957 H 857.298 1.07167 -2.80099 0
M  V30 8958 H 854.851 0.523335 -1.47278 0
M  V30 8959 H 855.586 3.03583 -1.14053 0
M  V30 8960 H 855.371 2.6653 -2.87583 0
M  V30 8961 H 856.861 3.47841 -2.31077 0
M  V30 8962 N 857.298 1.47698 0.54982 0
M  V30 8963 C 858.228 1.63622 1.66583 0
M  V30 8964 C 859.209 0.485477 1.63025 0
M  V30 8965 O 860.394 0.715692 1.80531 0
M  V30 8966 C 857.524 1.65721 3.05211 0
M  V30 8967 C 856.478 2.80097 3.2362 0
M  V30 8968 C 855.804 2.67272 4.63109 0
M  V30 8969 C 857.104 4.21612 3.08286 0
M  V30 8970 H 858.798 2.57049 1.53512 0
M  V30 8971 H 856.344 1.23705 0.737099 0
M  V30 8972 H 858.297 1.75451 3.83138 0
M  V30 8973 H 857.021 0.688593 3.19258 0
M  V30 8974 H 855.68 2.69889 2.48104 0
M  V30 8975 H 855.328 1.68422 4.73965 0
M  V30 8976 H 855.028 3.44008 4.76374 0
M  V30 8977 H 856.552 2.78942 5.43161 0
M  V30 8978 H 857.966 4.32758 3.76024 0
M  V30 8979 H 856.363 4.99193 3.33057 0
M  V30 8980 H 857.433 4.39462 2.04942 0
M  V30 8981 N 858.776 -0.797141 1.35954 0
M  V30 8982 C 859.706 -1.92387 1.32323 0
M  V30 8983 C 860.687 -1.68967 0.196007 0
M  V30 8984 O 861.872 -1.90193 0.39245 0
M  V30 8985 C 859.002 -3.29286 1.10398 0
M  V30 8986 C 857.956 -3.67212 2.19862 0
M  V30 8987 C 857.282 -5.02377 1.8309 0
M  V30 8988 C 858.582 -3.76602 3.61896 0
M  V30 8989 H 860.276 -1.95683 2.26602 0
M  V30 8990 H 857.822 -0.94007 1.09081 0
M  V30 8991 H 859.775 -4.07721 1.06495 0
M  V30 8992 H 858.499 -3.26358 0.125668 0
M  V30 8993 H 857.158 -2.91069 2.22878 0
M  V30 8994 H 856.806 -4.95961 0.838527 0
M  V30 8995 H 856.506 -5.28722 2.56372 0
M  V30 8996 H 858.03 -5.8324 1.80729 0
M  V30 8997 H 859.444 -4.45246 3.6115 0
M  V30 8998 H 857.841 -4.14425 4.34018 0
M  V30 8999 H 858.911 -2.77906 3.97361 0
M  V30 9000 N 860.254 -1.20106 -1.0204 0
M  V30 9001 C 861.494 -1.02013 -1.77123 0
M  V30 9002 C 861.858 0.440439 -1.8688 0
M  V30 9003 O 863.059 0.74144 -2.58372 0
M  V30 9004 C 861.33 -1.68058 -3.15423 0
M  V30 9005 S 862.889 -1.65016 -4.0659 0
M  V30 9006 H 859.707 -0.365882 -0.609632 0
M  V30 9007 H 862.309 -1.52597 -1.22206 0
M  V30 9008 H 861.013 -2.73544 -3.05944 0
M  V30 9009 H 860.544 -1.17589 -3.75415 0
M  V30 9010 H 862.559 -0.680341 -4.91514 0
M  V30 9011 N 861.732 1.21287 -1.00634 0
M  V30 9012 C 862.957 1.94925 -0.708441 0
M  V30 9013 C 863.382 1.73659 0.722783 0
M  V30 9014 O 862.74 1.02429 1.49593 0
M  V30 9015 C 862.788 3.45377 -1.03667 0
M  V30 9016 O 861.892 4.12153 -0.142661 0
M  V30 9017 H 861.233 0.609338 -0.263824 0
M  V30 9018 H 863.763 1.54008 -1.34695 0
M  V30 9019 H 863.773 3.95954 -0.984086 0
M  V30 9020 H 862.448 3.6018 -2.0795 0
M  V30 9021 H 861.025 3.72048 -0.251888 0
M  V30 9022 N 863.21 0.781244 1.36873 0
M  V30 9023 C 864.435 0.360398 2.04245 0
M  V30 9024 C 864.86 -1.01242 1.58529 0
M  V30 9025 O 864.218 -1.65063 0.749936 0
M  V30 9026 C 864.266 0.42329 3.58107 0
M  V30 9027 O 863.37 -0.572796 4.08403 0
M  V30 9028 H 862.711 0.154386 0.645803 0
M  V30 9029 H 865.241 1.06008 1.74996 0
M  V30 9030 H 865.251 0.283967 4.07011 0
M  V30 9031 H 863.926 1.42477 3.90734 0
M  V30 9032 H 862.503 -0.395809 3.70793 0
M  V30 9033 N 864.689 -1.48329 0.532571 0
M  V30 9034 C 865.652 -2.2816 -0.218069 0
M  V30 9035 C 866.652 -1.35526 -0.865409 0
M  V30 9036 O 867.842 -1.58394 -0.725061 0
M  V30 9037 C 864.974 -3.1448 -1.31586 0
M  V30 9038 H 866.167 -2.95987 0.482865 0
M  V30 9039 H 863.72 -1.53612 0.288603 0
M  V30 9040 H 864.455 -2.5129 -2.04997 0
M  V30 9041 H 864.24 -3.82625 -0.856779 0
M  V30 9042 H 865.73 -3.74693 -1.84377 0
M  V30 9043 N 866.167 -0.267825 -1.55308 0
M  V30 9044 C 867.416 0.351635 -1.98611 0
M  V30 9045 C 867.729 1.57522 -1.15957 0
M  V30 9046 O 868.935 2.26717 -1.49371 0
M  V30 9047 C 867.391 0.676986 -3.53475 0
M  V30 9048 C 866.999 -0.526385 -4.44897 0
M  V30 9049 C 868.743 1.25948 -4.05386 0
M  V30 9050 C 866.65 -0.176026 -5.91138 0
M  V30 9051 H 865.58 0.13516 -0.741787 0
M  V30 9052 H 868.231 -0.371333 -1.79704 0
M  V30 9053 H 866.613 1.45866 -3.68156 0
M  V30 9054 H 867.787 -1.30339 -4.41982 0
M  V30 9055 H 866.102 -1.02522 -4.03582 0
M  V30 9056 H 868.699 1.53529 -5.12184 0
M  V30 9057 H 869.042 2.19094 -3.53982 0
M  V30 9058 H 869.575 0.540253 -3.94114 0
M  V30 9059 H 866.314 -1.07518 -6.46622 0
M  V30 9060 H 865.834 0.564363 -5.97139 0
M  V30 9061 H 867.513 0.234365 -6.46575 0
M  V30 9062 N 867.645 1.57599 0.00500368 0
M  V30 9063 C 868.575 2.11143 0.99705 0
M  V30 9064 C 869.556 1.0194 1.3617 0
M  V30 9065 O 870.741 1.29596 1.44632 0
M  V30 9066 C 867.871 2.61062 2.2905 0
M  V30 9067 C 866.825 3.74745 2.0676 0
M  V30 9068 C 866.151 4.10961 3.42075 0
M  V30 9069 C 867.451 5.02222 1.43424 0
M  V30 9070 H 869.145 2.94281 0.551251 0
M  V30 9071 H 866.691 1.41565 0.263715 0
M  V30 9072 H 868.644 2.97146 2.98801 0
M  V30 9073 H 867.368 1.75038 2.75734 0
M  V30 9074 H 866.027 3.39047 1.39436 0
M  V30 9075 H 865.675 3.21968 3.86453 0
M  V30 9076 H 865.375 4.87549 3.27979 0
M  V30 9077 H 866.899 4.49599 4.1315 0
M  V30 9078 H 868.313 5.36109 2.03125 0
M  V30 9079 H 866.71 5.83581 1.39831 0
M  V30 9080 H 867.78 4.83224 0.40285 0
M  V30 9081 N 869.123 -0.277682 1.55134 0
M  V30 9082 C 870.07 -1.34313 1.87693 0
M  V30 9083 C 871.04 -1.49298 0.727973 0
M  V30 9084 O 872.225 -1.6378 0.978807 0
M  V30 9085 C 869.365 -2.69922 2.15026 0
M  V30 9086 C 868.478 -2.63197 3.42565 0
M  V30 9087 C 867.613 -3.90955 3.59622 0
M  V30 9088 C 866.652 -3.78722 4.8087 0
M  V30 9089 N 865.789 -4.98303 4.94609 0
M  V30 9090 H 870.629 -1.05847 2.78569 0
M  V30 9091 H 868.166 -0.511469 1.37922 0
M  V30 9092 H 870.124 -3.48817 2.28872 0
M  V30 9093 H 868.754 -2.966 1.2739 0
M  V30 9094 H 867.806 -1.76038 3.37216 0
M  V30 9095 H 869.118 -2.50056 4.31594 0
M  V30 9096 H 868.272 -4.78291 3.7326 0
M  V30 9097 H 867.011 -4.06957 2.6877 0
M  V30 9098 H 866.016 -2.89769 4.67241 0
M  V30 9099 H 867.241 -3.64242 5.73153 0
M  V30 9100 H 865.187 -5.14725 4.06687 0
M  V30 9101 H 865.104 -4.87675 5.77676 0
M  V30 9102 H 866.372 -5.87225 5.12628 0
M  V30 9103 N 870.601 -1.47988 -0.541979 0
M  V30 9104 C 872.017 -1.33843 -0.869383 0
M  V30 9105 C 872.217 -0.340374 -1.98604 0
M  V30 9106 O 871.273 0.242696 -2.51331 0
M  V30 9107 C 872.586 -2.73568 -1.24823 0
M  V30 9108 C 874.134 -2.81967 -1.3588 0
M  V30 9109 C 874.609 -4.22368 -1.77114 0
M  V30 9110 N 876.1 -4.24983 -1.84237 0
M  V30 9111 C 876.835 -5.30547 -2.17503 0
M  V30 9112 N 876.331 -6.46401 -2.49275 0
M  V30 9113 N 878.124 -5.17933 -2.18406 0
M  V30 9114 H 870.275 -2.11503 0.195001 0
M  V30 9115 H 872.538 -0.947681 0.0245862 0
M  V30 9116 H 872.244 -3.48107 -0.501435 0
M  V30 9117 H 872.118 -3.06322 -2.20106 0
M  V30 9118 H 874.505 -2.07692 -2.09638 0
M  V30 9119 H 874.586 -2.52848 -0.387478 0
M  V30 9120 H 874.23 -4.97155 -1.0392 0
M  V30 9121 H 874.16 -4.48922 -2.75275 0
M  V30 9122 H 876.651 -3.41411 -1.62009 0
M  V30 9123 H 876.964 -7.22698 -2.73729 0
M  V30 9124 H 875.309 -6.49696 -2.46821 0
M  V30 9125 H 878.5 -4.26445 -1.93034 0
M  V30 9126 H 878.673 -6.00307 -2.44 0
M  V30 9127 N 872.079 0.78992 -1.36375 0
M  V30 9128 C 873.027 1.92394 -1.30719 0
M  V30 9129 C 874.021 1.68226 -0.199076 0
M  V30 9130 O 875.227 1.76239 -0.366051 0
M  V30 9131 H 871.602 0.632382 -0.406936 0
M  V30 9132 H 873.573 1.94282 -2.26488 0
M  V30 9133 C 872.322 3.2941 -1.11284 0
M  V30 9134 H 871.645 3.48573 -1.95798 0
M  V30 9135 H 873.085 4.09111 -1.11373 0
M  V30 9136 C 871.544 3.36405 0.182543 0
M  V30 9137 O 872.074 3.84206 1.17255 0
M  V30 9138 N 870.28 2.89712 0.227046 0
M  V30 9139 H 869.827 2.51004 -0.579217 0
M  V30 9140 H 869.785 2.94773 1.09344 0
M  V30 9141 N 873.557 1.20646 1.01402 0
M  V30 9142 C 874.487 0.98155 2.11867 0
M  V30 9143 C 875.468 -0.0903712 1.6986 0
M  V30 9144 O 876.653 0.0676586 1.94082 0
M  V30 9145 C 873.783 0.535636 3.43145 0
M  V30 9146 C 872.737 1.55109 3.98905 0
M  V30 9147 C 872.063 0.961725 5.2598 0
M  V30 9148 C 873.363 2.93552 4.32001 0
M  V30 9149 H 875.057 1.90544 2.3094 0
M  V30 9150 H 872.603 0.917554 1.10982 0
M  V30 9151 H 874.556 0.365512 4.19812 0
M  V30 9152 H 873.28 -0.423882 3.23838 0
M  V30 9153 H 871.939 1.70862 3.24348 0
M  V30 9154 H 871.587 -0.00580108 5.03 0
M  V30 9155 H 871.287 1.63993 5.64252 0
M  V30 9156 H 872.811 0.802726 6.053 0
M  V30 9157 H 874.225 2.81295 4.99546 0
M  V30 9158 H 872.622 3.58303 4.81393 0
M  V30 9159 H 873.692 3.4508 3.40658 0
M  V30 9160 N 875.035 -1.20752 1.01276 0
M  V30 9161 C 876.265 -1.93725 0.717934 0
M  V30 9162 C 876.673 -1.74769 -0.724732 0
M  V30 9163 O 876.016 -1.05642 -1.50285 0
M  V30 9164 C 876.078 -3.46196 0.968954 0
M  V30 9165 C 875.742 -3.88909 2.39998 0
M  V30 9166 C 876.739 -3.94982 3.38061 0
M  V30 9167 C 874.424 -4.21006 2.7397 0
M  V30 9168 C 876.418 -4.32558 4.68159 0
M  V30 9169 C 874.105 -4.58257 4.04282 0
M  V30 9170 C 875.103 -4.64004 5.01187 0
M  V30 9171 O 874.791 -5.00403 6.29168 0
M  V30 9172 H 874.523 -0.622663 0.263186 0
M  V30 9173 H 877.077 -1.54299 1.35577 0
M  V30 9174 H 875.307 -3.85728 0.273952 0
M  V30 9175 H 876.996 -4.00394 0.666312 0
M  V30 9176 H 877.762 -3.70353 3.13151 0
M  V30 9177 H 873.641 -4.15725 1.99233 0
M  V30 9178 H 877.185 -4.36959 5.43795 0
M  V30 9179 H 873.082 -4.82341 4.28973 0
M  V30 9180 H 873.85 -5.18409 6.33399 0
M  V30 9181 N 876.513 -0.788492 -1.36457 0
M  V30 9182 C 877.738 -0.371224 -2.04051 0
M  V30 9183 C 878.163 1.004 -1.59064 0
M  V30 9184 O 877.521 1.64663 -0.758679 0
M  V30 9185 C 877.569 -0.442275 -3.57877 0
M  V30 9186 O 876.673 0.55113 -4.08701 0
M  V30 9187 H 876.014 -0.157808 -0.644975 0
M  V30 9188 H 878.544 -1.06935 -1.74431 0
M  V30 9189 H 878.554 -0.305548 -4.06854 0
M  V30 9190 H 877.229 -1.44547 -3.89973 0
M  V30 9191 H 875.806 0.37614 -3.70998 0
M  V30 9192 N 877.991 1.48044 -0.54043 0
M  V30 9193 C 879.268 1.95523 0.0547302 0
M  V30 9194 C 879.648 1.48284 1.5025 0
M  V30 9195 O 878.996 0.714037 2.17057 0
M  V30 9196 C 879.206 3.48923 -0.0733393 0
M  V30 9197 C 880.554 4.24523 0.0806026 0
M  V30 9198 O 881.578 3.562 -5.58687e-05 0
M  V30 9199 O 880.437 5.45922 0.251216 0
M  V30 9200 H 877.531 0.823728 0.073493 0
M  V30 9201 H 880.077 1.5852 -0.605768 0
M  V30 9202 H 878.849 3.76059 -1.08144 0
M  V30 9203 H 878.472 3.92648 0.625536 0
M  V30 9204 N 879.47 0.276058 1.55163 0
M  V30 9205 C 880.4 -0.604633 2.25536 0
M  V30 9206 C 881.381 -1.15813 1.24585 0
M  V30 9207 O 882.566 -1.1921 1.53306 0
M  V30 9208 C 879.696 -1.78836 2.97716 0
M  V30 9209 C 878.65 -1.36635 4.05604 0
M  V30 9210 C 877.976 -2.63325 4.65364 0
M  V30 9211 C 879.276 -0.515858 5.19746 0
M  V30 9212 H 880.97 -0.0177483 2.99395 0
M  V30 9213 H 878.516 -0.00709627 1.43998 0
M  V30 9214 H 880.469 -2.41036 3.45658 0
M  V30 9215 H 879.193 -2.40109 2.21394 0
M  V30 9216 H 877.852 -0.767541 3.58475 0
M  V30 9217 H 877.5 -3.22858 3.85709 0
M  V30 9218 H 877.2 -2.358 5.38212 0
M  V30 9219 H 878.724 -3.26372 5.16056 0
M  V30 9220 H 880.138 -1.04289 5.63735 0
M  V30 9221 H 878.535 -0.335449 5.99162 0
M  V30 9222 H 879.605 0.465137 4.82664 0
M  V30 9223 N 880.948 -1.576 0.00335426 0
M  V30 9224 C 881.895 -2.08632 -0.986975 0
M  V30 9225 C 882.865 -0.982491 -1.33927 0
M  V30 9226 O 884.05 -1.25513 -1.43705 0
M  V30 9227 C 881.19 -2.59705 -2.27261 0
M  V30 9228 C 880.303 -3.84002 -1.97905 0
M  V30 9229 C 879.438 -4.23563 -3.20574 0
M  V30 9230 C 878.477 -5.40688 -2.8692 0
M  V30 9231 N 877.614 -5.75526 -4.02136 0
M  V30 9232 H 882.454 -2.92977 -0.544855 0
M  V30 9233 H 879.991 -1.44831 -0.257376 0
M  V30 9234 H 881.949 -2.87395 -3.02423 0
M  V30 9235 H 880.579 -1.7823 -2.69136 0
M  V30 9236 H 879.631 -3.63199 -1.13096 0
M  V30 9237 H 880.943 -4.69261 -1.69102 0
M  V30 9238 H 880.097 -4.52554 -4.04079 0
M  V30 9239 H 878.836 -3.37019 -3.52518 0
M  V30 9240 H 877.841 -5.11417 -2.01822 0
M  V30 9241 H 879.066 -6.2891 -2.5622 0
M  V30 9242 H 877.012 -4.9194 -4.33971 0
M  V30 9243 H 876.929 -6.55367 -3.76869 0
M  V30 9244 H 878.197 -6.0911 -4.8642 0
M  V30 9245 N 882.426 0.269451 -1.5528 0
M  V30 9246 C 883.374 1.35303 -1.89198 0
M  V30 9247 C 884.368 1.50956 -0.768671 0
M  V30 9248 O 885.574 1.52699 -0.953054 0
M  V30 9249 H 881.949 0.452591 -0.600554 0
M  V30 9250 H 883.92 1.03949 -2.79709 0
M  V30 9251 C 882.669 2.70585 -2.18356 0
M  V30 9252 H 881.992 2.59332 -3.04281 0
M  V30 9253 H 883.432 3.45335 -2.46007 0
M  V30 9254 C 881.891 3.21954 -0.992327 0
M  V30 9255 O 882.421 4.01048 -0.228769 0
M  V30 9256 N 880.627 2.79682 -0.789062 0
M  V30 9257 H 880.174 2.15475 -1.41167 0
M  V30 9258 H 880.132 3.14399 0.00634776 0
M  V30 9259 N 883.904 1.48273 0.534124 0
M  V30 9260 C 884.834 1.6538 1.64839 0
M  V30 9261 C 885.815 0.502741 1.62501 0
M  V30 9262 O 887 0.734799 1.79762 0
M  V30 9263 C 884.13 1.68949 3.03436 0
M  V30 9264 C 883.084 2.83513 3.20631 0
M  V30 9265 C 882.41 2.72169 4.60248 0
M  V30 9266 C 883.71 4.24858 3.03797 0
M  V30 9267 H 885.404 2.58663 1.50777 0
M  V30 9268 H 882.95 1.24479 0.723937 0
M  V30 9269 H 884.903 1.79505 3.81256 0
M  V30 9270 H 883.627 0.722415 3.1851 0
M  V30 9271 H 882.286 2.72505 2.45227 0
M  V30 9272 H 881.934 1.7344 4.72152 0
M  V30 9273 H 881.634 3.49042 4.72698 0
M  V30 9274 H 883.158 2.84687 5.40172 0
M  V30 9275 H 884.572 4.36721 3.71413 0
M  V30 9276 H 882.969 5.02697 3.27743 0
M  V30 9277 H 884.039 4.41611 2.0027 0
M  V30 9278 N 885.382 -0.782676 1.36792 0
M  V30 9279 C 886.659 -1.52939 1.21939 0
M  V30 9280 C 887.039 -2.10228 -0.191639 0
M  V30 9281 O 886.387 -1.94574 -1.19805 0
M  V30 9282 C 886.597 -2.61898 2.30674 0
M  V30 9283 C 887.945 -3.29598 2.67676 0
M  V30 9284 O 888.969 -2.72186 2.29768 0
M  V30 9285 O 887.828 -4.3337 3.32946 0
M  V30 9286 H 884.922 -0.676856 0.47518 0
M  V30 9287 H 887.468 -0.82058 1.48542 0
M  V30 9288 H 886.24 -2.17607 3.25212 0
M  V30 9289 H 885.863 -3.40391 2.05475 0
M  V30 9290 N 886.86 -1.21182 -1.00761 0
M  V30 9291 C 888.085 -1.05411 -1.78615 0
M  V30 9292 C 888.51 0.391837 -1.83973 0
M  V30 9293 O 887.868 1.28256 -1.28141 0
M  V30 9294 C 887.916 -1.65285 -3.20489 0
M  V30 9295 O 887.02 -0.896558 -4.02536 0
M  V30 9296 H 886.361 -0.37116 -0.550578 0
M  V30 9297 H 888.891 -1.60669 -1.26676 0
M  V30 9298 H 888.901 -1.69397 -3.71172 0
M  V30 9299 H 887.576 -2.70514 -3.15904 0
M  V30 9300 H 886.153 -0.930335 -3.61108 0
M  V30 9301 N 888.338 1.20213 -1.01915 0
M  V30 9302 C 889.754 1.41696 -0.734459 0
M  V30 9303 C 889.954 1.89504 0.684867 0
M  V30 9304 O 889.01 2.06556 1.45227 0
M  V30 9305 C 890.323 2.43644 -1.76233 0
M  V30 9306 C 891.871 2.57406 -1.78076 0
M  V30 9307 C 892.346 3.626 -2.79796 0
M  V30 9308 N 893.837 3.70086 -2.78551 0
M  V30 9309 C 894.572 4.51145 -3.53915 0
M  V30 9310 N 894.068 5.35988 -4.38963 0
M  V30 9311 N 895.861 4.45702 -3.425 0
M  V30 9312 H 888.012 0.874976 -1.93541 0
M  V30 9313 H 890.275 0.446647 -0.836188 0
M  V30 9314 H 889.981 2.15519 -2.77929 0
M  V30 9315 H 889.855 3.42672 -1.57657 0
M  V30 9316 H 892.242 2.8486 -0.770634 0
M  V30 9317 H 892.323 1.58565 -2.00725 0
M  V30 9318 H 891.967 3.35889 -3.80973 0
M  V30 9319 H 891.897 4.61069 -2.54407 0
M  V30 9320 H 894.388 3.09484 -2.1686 0
M  V30 9321 H 894.701 5.94932 -4.9323 0
M  V30 9322 H 893.046 5.35482 -4.4304 0
M  V30 9323 H 896.237 3.78456 -2.75478 0
M  V30 9324 H 896.41 5.08637 -4.01487 0
M  V30 9325 N 889.816 0.795718 1.36037 0
M  V30 9326 C 891.065 0.367575 1.98322 0
M  V30 9327 C 891.378 -1.06823 1.63854 0
M  V30 9328 O 892.584 -1.59895 2.19421 0
M  V30 9329 C 891.04 0.606272 3.54757 0
M  V30 9330 C 890.648 2.0539 3.98144 0
M  V30 9331 C 892.392 0.242947 4.23804 0
M  V30 9332 C 890.299 2.23893 5.47381 0
M  V30 9333 H 889.229 0.133699 0.742052 0
M  V30 9334 H 891.88 0.978242 1.5525 0
M  V30 9335 H 890.262 -0.0741957 3.9593 0
M  V30 9336 H 891.436 2.77129 3.68152 0
M  V30 9337 H 889.751 2.37607 3.41953 0
M  V30 9338 H 892.348 0.359382 5.33491 0
M  V30 9339 H 892.691 -0.809661 4.08351 0
M  V30 9340 H 893.224 0.876899 3.88015 0
M  V30 9341 H 889.963 3.27559 5.6779 0
M  V30 9342 H 889.483 1.56666 5.78978 0
M  V30 9343 H 891.162 2.04914 6.13693 0
M  V30 9344 N 891.294 -1.47756 0.548274 0
M  V30 9345 C 892.71 -1.58247 0.207401 0
M  V30 9346 C 892.91 -1.54804 -1.28988 0
M  V30 9347 O 891.966 -1.44673 -2.06944 0
M  V30 9348 C 893.279 -2.89129 0.826142 0
M  V30 9349 C 894.827 -3.02695 0.79655 0
M  V30 9350 C 895.302 -4.36264 1.3942 0
M  V30 9351 N 896.793 -4.42877 1.35698 0
M  V30 9352 C 897.528 -5.44773 1.78913 0
M  V30 9353 N 897.024 -6.53528 2.29942 0
M  V30 9354 N 898.817 -5.35765 1.70038 0
M  V30 9355 H 890.968 -1.48236 1.52117 0
M  V30 9356 H 893.231 -0.704957 0.633829 0
M  V30 9357 H 892.937 -2.97358 1.87806 0
M  V30 9358 H 892.811 -3.75891 0.313916 0
M  V30 9359 H 895.198 -2.94067 -0.246655 0
M  V30 9360 H 895.279 -2.17496 1.34644 0
M  V30 9361 H 894.923 -4.45646 2.43642 0
M  V30 9362 H 894.853 -5.20179 0.819827 0
M  V30 9363 H 897.344 -3.64874 0.983623 0
M  V30 9364 H 897.657 -7.27441 2.60863 0
M  V30 9365 H 896.002 -6.54442 2.33947 0
M  V30 9366 H 899.193 -4.49699 1.29955 0
M  V30 9367 H 899.366 -6.1504 2.04035 0
M  V30 9368 N 892.772 -0.284283 -1.55015 0
M  V30 9369 C 893.735 0.586182 -2.21577 0
M  V30 9370 C 894.735 1.07427 -1.1965 0
M  V30 9371 O 895.925 0.972977 -1.44495 0
M  V30 9372 C 893.057 1.80973 -2.88897 0
M  V30 9373 H 894.25 0.00487253 -2.999 0
M  V30 9374 H 891.803 -0.0349696 -1.56261 0
M  V30 9375 H 892.538 2.43131 -2.14611 0
M  V30 9376 H 892.323 1.46757 -3.636 0
M  V30 9377 H 893.813 2.42853 -3.39724 0
M  V30 9378 N 894.251 1.57596 -0.0117121 0
M  V30 9379 C 895.183 2.06025 1.0043 0
M  V30 9380 C 896.196 0.980348 1.29973 0
M  V30 9381 O 897.385 1.25691 1.26744 0
M  V30 9382 C 894.485 2.45514 2.33615 0
M  V30 9383 C 893.658 3.76378 2.22842 0
M  V30 9384 C 892.717 4.02606 3.38814 0
M  V30 9385 O 891.743 4.73108 3.16477 0
M  V30 9386 N 892.945 3.51416 4.62047 0
M  V30 9387 H 895.71 2.93811 0.591206 0
M  V30 9388 H 893.271 1.60947 0.175427 0
M  V30 9389 H 895.263 2.60166 3.09993 0
M  V30 9390 H 893.833 1.63186 2.66625 0
M  V30 9391 H 893.053 3.71691 1.313 0
M  V30 9392 H 894.341 4.62149 2.12829 0
M  V30 9393 H 893.739 2.94346 4.83091 0
M  V30 9394 H 892.296 3.71377 5.35651 0
M  V30 9395 N 895.729 -0.261212 1.5542 0
M  V30 9396 C 896.676 -1.32315 1.89107 0
M  V30 9397 C 897.646 -1.48517 0.743767 0
M  V30 9398 O 898.831 -1.62733 0.996123 0
M  V30 9399 C 895.971 -2.67626 2.17877 0
M  V30 9400 C 895.084 -2.59549 3.45338 0
M  V30 9401 C 894.219 -3.87118 3.63748 0
M  V30 9402 C 893.258 -3.736 4.8486 0
M  V30 9403 N 892.395 -4.93029 4.99867 0
M  V30 9404 H 897.235 -1.02886 2.79675 0
M  V30 9405 H 894.772 -0.496812 1.38456 0
M  V30 9406 H 896.73 -3.4637 2.32559 0
M  V30 9407 H 895.36 -2.95232 1.30529 0
M  V30 9408 H 894.412 -1.72452 3.39064 0
M  V30 9409 H 895.724 -2.45465 4.34222 0
M  V30 9410 H 894.878 -4.74305 3.78312 0
M  V30 9411 H 893.617 -4.04084 2.73071 0
M  V30 9412 H 892.622 -2.84797 4.70288 0
M  V30 9413 H 893.847 -3.58143 5.76984 0
M  V30 9414 H 891.793 -5.10383 4.12123 0
M  V30 9415 H 891.71 -4.81521 5.82815 0
M  V30 9416 H 892.978 -5.81754 5.18828 0
M  V30 9417 N 897.207 -1.48554 -0.526253 0
M  V30 9418 C 898.154 -1.63354 -1.63046 0
M  V30 9419 C 899.124 -0.475509 -1.59148 0
M  V30 9420 O 900.309 -0.699453 -1.77517 0
M  V30 9421 C 897.449 -1.68271 -3.01295 0
M  V30 9422 C 896.562 -2.95207 -3.15399 0
M  V30 9423 C 895.697 -2.91262 -4.4423 0
M  V30 9424 C 894.736 -4.12886 -4.51876 0
M  V30 9425 N 893.873 -4.06996 -5.721 0
M  V30 9426 H 898.713 -2.57649 -1.49737 0
M  V30 9427 H 896.25 -1.27769 -0.728938 0
M  V30 9428 H 898.208 -1.69104 -3.81392 0
M  V30 9429 H 896.838 -0.774641 -3.13367 0
M  V30 9430 H 895.89 -3.04102 -2.2853 0
M  V30 9431 H 897.202 -3.85187 -3.1691 0
M  V30 9432 H 896.356 -2.90516 -5.32621 0
M  V30 9433 H 895.095 -1.99016 -4.45246 0
M  V30 9434 H 894.1 -4.13902 -3.61891 0
M  V30 9435 H 895.325 -5.06294 -4.52596 0
M  V30 9436 H 893.271 -3.17573 -5.74006 0
M  V30 9437 H 893.188 -4.90685 -5.75121 0
M  V30 9438 H 894.456 -4.10315 -6.62768 0
M  V30 9439 N 898.685 0.775411 -1.37205 0
M  V30 9440 C 899.632 1.88857 -1.32671 0
M  V30 9441 C 900.602 1.64976 -0.192899 0
M  V30 9442 O 901.787 1.86944 -0.381673 0
M  V30 9443 C 898.927 3.25871 -1.13588 0
M  V30 9444 C 898.04 3.61731 -2.36167 0
M  V30 9445 C 897.175 4.87934 -2.09985 0
M  V30 9446 C 896.214 5.16514 -3.2845 0
M  V30 9447 N 895.351 6.33905 -3.01842 0
M  V30 9448 H 900.191 1.92068 -2.27846 0
M  V30 9449 H 897.728 0.939066 -1.13225 0
M  V30 9450 H 899.686 4.04903 -1.00546 0
M  V30 9451 H 898.316 3.22045 -0.220613 0
M  V30 9452 H 897.368 2.77712 -2.59962 0
M  V30 9453 H 898.68 3.78792 -3.24528 0
M  V30 9454 H 897.834 5.74863 -1.93953 0
M  V30 9455 H 896.573 4.7297 -1.18956 0
M  V30 9456 H 895.578 4.28063 -3.45025 0
M  V30 9457 H 896.803 5.33389 -4.20325 0
M  V30 9458 H 894.749 6.20306 -2.13439 0
M  V30 9459 H 894.666 6.51364 -3.83746 0
M  V30 9460 H 895.934 7.23779 -2.8942 0
M  V30 9461 N 900.163 1.21714 1.00117 0
M  V30 9462 C 901.111 0.976937 2.11089 0
M  V30 9463 C 902.105 -0.0771295 1.69224 0
M  V30 9464 O 903.311 0.0745945 1.79845 0
M  V30 9465 H 899.686 0.298687 0.690138 0
M  V30 9466 H 901.657 1.91881 2.28526 0
M  V30 9467 C 900.406 0.562369 3.43122 0
M  V30 9468 H 899.729 1.36509 3.75773 0
M  V30 9469 H 901.169 0.433642 4.21777 0
M  V30 9470 C 899.628 -0.727148 3.28959 0
M  V30 9471 O 900.158 -1.78171 3.60025 0
M  V30 9472 N 898.364 -0.695129 2.82164 0
M  V30 9473 H 897.911 0.163346 2.57082 0
M  V30 9474 H 897.869 -1.55822 2.73069 0
M  V30 9475 O 901.68 -1.13182 1.15204 0
M  V30 9476 H 902.371 -1.72675 0.877672 0
M  V30 END ATOM
M  V30 BEGIN BOND
M  V30 END BOND
M  V30 END CTAB
M  END
$$$$
