drugbank_target|Q6NVY1 3-hydroxyisobutyryl-CoA hydrolase, mitochondrial (DB04216)
 OpenBabel12092120513D

  0  0  0     0  0            999 V3000
M  V30 BEGIN CTAB
M  V30 COUNTS 6147 6203 0 0 0
M  V30 BEGIN ATOM
M  V30 1 H -0.908 1.98254 -0.117106 0
M  V30 2 N 0 1.576 0 0
M  V30 3 C 0.933 2.03868 1.02534 0
M  V30 4 C 1.911 0.928543 1.3348 0
M  V30 5 O 3.095 1.19667 1.45644 0
M  V30 6 C 0.222 2.43627 2.35294 0
M  V30 7 C -0.732 3.65373 2.2001 0
M  V30 8 S 0.101 5.13292 1.52614 0
M  V30 9 C 1.257 5.56322 2.86805 0
M  V30 10 H 1.49 2.90518 0.631377 0
M  V30 11 H -0.977 1.52953 0.210867 0
M  V30 12 H 0.981 2.67203 3.11629 0
M  V30 13 H -0.358 1.57376 2.7183 0
M  V30 14 H -1.165 3.90944 3.18086 0
M  V30 15 H -1.563 3.418 1.51819 0
M  V30 16 H 0.729 5.58782 3.83104 0
M  V30 17 H 1.672 6.56266 2.65933 0
M  V30 18 H 2.08 4.83886 2.90714 0
M  V30 19 N 1.4781 -0.272755 1.55222 0
M  V30 20 C 2.7261 -1.00234 1.75492 0
M  V30 21 C 3.0471 -1.8681 0.5592 0
M  V30 22 O 2.3171 -1.91215 -0.425882 0
M  V30 23 H 0.8971 -0.373076 0.647166 0
M  V30 24 H 3.5591 -0.296926 1.92625 0
M  V30 25 H 2.6551 -1.63913 2.65592 0
M  V30 26 N 2.9562 -1.48159 -0.537278 0
M  V30 27 C 3.8882 -1.58218 -1.65831 0
M  V30 28 C 4.9012 -0.466948 -1.5596 0
M  V30 29 O 6.0902 -0.73747 -1.62553 0
M  V30 30 C 3.1902 -1.48906 -3.04434 0
M  V30 31 C 2.3632 -2.75343 -3.3986 0
M  V30 32 C 1.4222 -2.59588 -4.57712 0
M  V30 33 O 0.4482 -3.33457 -4.61297 0
M  V30 34 N 1.6502 -1.68724 -5.55439 0
M  V30 35 H 4.4152 -2.54891 -1.57641 0
M  V30 36 H 1.9762 -1.4479 -0.724386 0
M  V30 37 H 3.9682 -1.36072 -3.81139 0
M  V30 38 H 2.5382 -0.602368 -3.06741 0
M  V30 39 H 1.7582 -3.02795 -2.52406 0
M  V30 40 H 3.0462 -3.5924 -3.60311 0
M  V30 41 H 2.4442 -1.07898 -5.55315 0
M  V30 42 H 1.0012 -1.61832 -6.3139 0
M  V30 43 N 4.4343 0.785586 -1.36625 0
M  V30 44 C 5.8503 1.08419 -1.17122 0
M  V30 45 C 6.0503 2.015 0.00208491 0
M  V30 46 O 5.1063 2.43551 0.666278 0
M  V30 47 C 6.4193 1.69498 -2.48377 0
M  V30 48 C 7.9673 1.81821 -2.54775 0
M  V30 49 C 8.4423 2.46315 -3.86126 0
M  V30 50 N 9.9333 2.53779 -3.87492 0
M  V30 51 C 10.6683 3.045 -4.85868 0
M  V30 52 N 10.1643 3.55499 -5.94637 0
M  V30 53 N 11.9573 3.03247 -4.73284 0
M  V30 54 H 4.1083 0.167264 -2.1174 0
M  V30 55 H 6.3713 0.13682 -0.938075 0
M  V30 56 H 6.0773 1.08571 -3.34522 0
M  V30 57 H 5.9513 2.6896 -2.64462 0
M  V30 58 H 8.3383 2.41884 -1.69045 0
M  V30 59 H 8.4193 0.811532 -2.42586 0
M  V30 60 H 8.0633 1.86895 -4.72263 0
M  V30 61 H 7.9933 3.47561 -3.95612 0
M  V30 62 H 10.4843 2.17672 -3.08913 0
M  V30 63 H 10.7973 3.92562 -6.65669 0
M  V30 64 H 9.1423 3.5364 -5.98301 0
M  V30 65 H 12.3333 2.62696 -3.87438 0
M  V30 66 H 12.5063 3.42467 -5.50109 0
M  V30 67 N 5.9124 1.20967 1.01018 0
M  V30 68 C 6.8224 0.980157 2.13143 0
M  V30 69 C 7.8384 -0.0660665 1.73875 0
M  V30 70 O 9.0144 0.122821 2.01025 0
M  V30 71 C 6.0794 0.54216 3.42435 0
M  V30 72 C 5.1404 1.65999 3.95908 0
M  V30 73 C 4.3734 1.2428 5.19028 0
M  V30 74 O 4.5964 0.114196 5.70286 0
M  V30 75 O 3.5304 2.05271 5.65816 0
M  V30 76 H 7.3564 1.91913 2.35379 0
M  V30 77 H 4.9414 0.994099 1.11526 0
M  V30 78 H 6.8234 0.30744 4.20277 0
M  V30 79 H 5.4984 -0.36815 3.216 0
M  V30 80 H 4.4054 1.94906 3.19316 0
M  V30 81 H 5.7384 2.54753 4.21143 0
M  V30 82 N 7.3905 -1.2043 1.01659 0
M  V30 83 C 8.3235 -2.21924 0.531521 0
M  V30 84 C 9.3015 -1.57054 -0.421032 0
M  V30 85 O 10.4855 -1.85389 -0.341035 0
M  V30 86 C 7.6125 -3.37942 -0.226496 0
M  V30 87 C 6.6585 -4.21115 0.67561 0
M  V30 88 S 7.4915 -4.90674 2.14475 0
M  V30 89 C 8.6475 -6.10113 1.3969 0
M  V30 90 H 8.8805 -2.62725 1.3915 0
M  V30 91 H 6.4135 -1.30481 0.825479 0
M  V30 92 H 8.3715 -4.05196 -0.657738 0
M  V30 93 H 7.0325 -2.956 -1.06205 0
M  V30 94 H 6.2255 -5.03918 0.091108 0
M  V30 95 H 5.8275 -3.59115 1.04463 0
M  V30 96 H 8.1195 -6.7411 0.676897 0
M  V30 97 H 9.0625 -6.73022 2.20107 0
M  V30 98 H 9.4705 -5.57283 0.899786 0
M  V30 99 N 8.8686 -0.792821 -1.36206 0
M  V30 100 C 10.1146 -0.376415 -1.99887 0
M  V30 101 C 10.4696 1.04127 -1.61788 0
M  V30 102 O 9.7626 1.71004 -0.864193 0
M  V30 103 C 9.9566 -0.481501 -3.54142 0
M  V30 104 C 9.7856 -1.90786 -4.07223 0
M  V30 105 C 8.5556 -2.53322 -4.37214 0
M  V30 106 C 10.7536 -2.87048 -4.26741 0
M  V30 107 N 8.7356 -3.8751 -4.7614 0
M  V30 108 C 10.1066 -4.06077 -4.6851 0
M  V30 109 C 12.1616 -2.8406 -4.08918 0
M  V30 110 C 10.8646 -5.22532 -4.94321 0
M  V30 111 C 12.8906 -3.99705 -4.35878 0
M  V30 112 C 12.2526 -5.1748 -4.77906 0
M  V30 113 H 8.3516 -0.185226 -0.759747 0
M  V30 114 H 10.9356 -1.03114 -1.65153 0
M  V30 115 H 9.1066 0.143154 -3.88136 0
M  V30 116 H 10.8386 -0.0410128 -4.04679 0
M  V30 117 H 7.5936 -2.04777 -4.2704 0
M  V30 118 H 8.0176 -4.5656 -4.99882 0
M  V30 119 H 12.6596 -1.94165 -3.75579 0
M  V30 120 H 10.3776 -6.1301 -5.2654 0
M  V30 121 H 13.9636 -3.98758 -4.23655 0
M  V30 122 H 12.8436 -6.05478 -4.98363 0
M  V30 123 N 10.3467 1.47872 -0.545128 0
M  V30 124 C 11.7627 1.5829 -0.204032 0
M  V30 125 C 11.9627 1.54529 1.29317 0
M  V30 126 O 11.0187 1.44232 2.07252 0
M  V30 127 C 12.3317 2.89304 -0.819987 0
M  V30 128 C 13.8797 3.02864 -0.790105 0
M  V30 129 C 14.3547 4.3656 -1.38491 0
M  V30 130 N 15.8457 4.43165 -1.34755 0
M  V30 131 C 16.5807 5.45153 -1.77753 0
M  V30 132 N 16.0767 6.54016 -2.2855 0
M  V30 133 N 17.8697 5.36125 -1.68897 0
M  V30 134 H 10.0207 1.4856 -1.51802 0
M  V30 135 H 12.2837 0.706305 -0.632327 0
M  V30 136 H 11.9897 2.97757 -1.87173 0
M  V30 137 H 11.8637 3.75957 -0.305915 0
M  V30 138 H 14.2507 2.94014 0.252913 0
M  V30 139 H 14.3317 2.17782 -1.34181 0
M  V30 140 H 13.9757 4.46164 -2.42693 0
M  V30 141 H 13.9057 5.20353 -0.808754 0
M  V30 142 H 16.3967 3.65083 -0.975855 0
M  V30 143 H 16.7097 7.27994 -2.59314 0
M  V30 144 H 15.0547 6.54938 -2.32553 0
M  V30 145 H 18.2457 4.49975 -1.28998 0
M  V30 146 H 18.4187 6.15472 -2.02726 0
M  V30 147 N 11.8248 0.280983 1.55075 0
M  V30 148 C 12.7548 -0.597469 2.25727 0
M  V30 149 C 13.7358 -1.15417 1.24952 0
M  V30 150 O 14.9208 -1.18722 1.53684 0
M  V30 151 C 12.0508 -1.7789 2.98283 0
M  V30 152 C 11.0048 -1.35347 4.06036 0
M  V30 153 C 10.3308 -2.61846 4.66198 0
M  V30 154 C 11.6308 -0.499354 5.19907 0
M  V30 155 H 13.3248 -0.00824265 2.99399 0
M  V30 156 H 10.8708 -0.0025244 1.44 0
M  V30 157 H 12.8238 -2.39937 3.46422 0
M  V30 158 H 11.5478 -2.39405 2.22155 0
M  V30 159 H 10.2068 -0.756156 3.58717 0
M  V30 160 H 9.8548 -3.21632 3.86732 0
M  V30 161 H 9.5548 -2.3409 5.38958 0
M  V30 162 H 11.0788 -3.24732 5.1709 0
M  V30 163 H 12.4928 -1.02498 5.64063 0
M  V30 164 H 10.8898 -0.316424 5.99265 0
M  V30 165 H 11.9598 0.480459 4.82514 0
M  V30 166 N 13.3029 -1.57598 0.00835791 0
M  V30 167 C 14.2359 -2.04409 -1.01451 0
M  V30 168 C 15.2139 -0.935609 -1.32985 0
M  V30 169 O 16.3979 -1.20437 -1.45007 0
M  V30 170 C 13.5249 -2.44872 -2.33999 0
M  V30 171 C 12.5709 -3.66535 -2.18069 0
M  V30 172 S 13.4039 -5.14095 -1.4989 0
M  V30 173 C 14.5599 -5.57835 -2.8385 0
M  V30 174 H 14.7929 -2.90849 -0.615961 0
M  V30 175 H 12.3259 -1.53063 -0.202752 0
M  V30 176 H 14.2839 -2.68852 -3.10208 0
M  V30 177 H 12.9449 -1.58815 -2.70992 0
M  V30 178 H 12.1379 -3.92626 -3.16008 0
M  V30 179 H 11.7399 -3.426 -1.50004 0
M  V30 180 H 14.0319 -5.60806 -3.80136 0
M  V30 181 H 14.9749 -6.57667 -2.62449 0
M  V30 182 H 15.3829 -4.85421 -2.88144 0
M  V30 183 N 14.781 0.264519 -1.55364 0
M  V30 184 C 16.006 1.01726 -1.80739 0
M  V30 185 C 16.431 1.78836 -0.583044 0
M  V30 186 O 15.789 1.75167 0.467566 0
M  V30 187 C 15.837 1.94482 -3.03659 0
M  V30 188 O 14.941 3.03386 -2.7934 0
M  V30 189 H 14.282 0.290395 -0.597132 0
M  V30 190 H 16.812 0.290854 -2.02522 0
M  V30 191 H 16.822 2.36278 -3.32621 0
M  V30 192 H 15.497 1.37772 -3.92418 0
M  V30 193 H 14.074 2.65844 -2.61498 0
M  V30 194 N 16.2591 1.48442 0.529413 0
M  V30 195 C 17.6751 1.34575 0.858004 0
M  V30 196 C 17.8751 0.3572 1.98309 0
M  V30 197 O 16.9311 -0.221379 2.51528 0
M  V30 198 C 18.2441 2.74617 1.22499 0
M  V30 199 C 19.7921 2.83109 1.33484 0
M  V30 200 C 20.2671 4.23854 1.73526 0
M  V30 201 N 21.7581 4.2653 1.80628 0
M  V30 202 C 22.4931 5.32372 2.12997 0
M  V30 203 N 21.9891 6.48491 2.43786 0
M  V30 204 N 23.7821 5.19766 2.14008 0
M  V30 205 H 15.9331 2.1133 -0.212925 0
M  V30 206 H 18.1961 0.947439 -0.0326199 0
M  V30 207 H 17.9021 3.4852 0.471905 0
M  V30 208 H 17.7761 3.08177 2.17501 0
M  V30 209 H 20.1631 2.09462 2.0787 0
M  V30 210 H 20.2441 2.53168 0.366027 0
M  V30 211 H 19.8881 4.98018 0.997013 0
M  V30 212 H 19.8181 4.5124 2.71459 0
M  V30 213 H 22.3091 3.42772 1.59108 0
M  V30 214 H 22.6221 7.24993 2.67592 0
M  V30 215 H 20.9671 6.51765 2.41304 0
M  V30 216 H 24.1581 4.28066 1.89412 0
M  V30 217 H 24.3311 6.02354 2.38902 0
M  V30 218 N 17.7372 -0.778329 1.37039 0
M  V30 219 C 18.9842 -1.53665 1.31884 0
M  V30 220 C 19.3122 -1.9425 -0.0986303 0
M  V30 221 O 18.5672 -1.63832 -1.07041 0
M  V30 222 C 18.8662 -2.81845 2.19768 0
M  V30 223 C 18.5322 -2.60345 3.68146 0
M  V30 224 C 17.1942 -2.5419 4.08584 0
M  V30 225 C 19.5462 -2.40923 4.62175 0
M  V30 226 C 16.8742 -2.26594 5.41177 0
M  V30 227 C 19.2262 -2.14852 5.94997 0
M  V30 228 C 17.8902 -2.07137 6.34547 0
M  V30 229 H 17.1602 -0.562299 0.482598 0
M  V30 230 H 19.8072 -0.897069 1.69189 0
M  V30 231 H 18.1122 -3.50328 1.75436 0
M  V30 232 H 19.8092 -3.39692 2.13097 0
M  V30 233 H 16.3992 -2.65996 3.36072 0
M  V30 234 H 20.5832 -2.44673 4.31797 0
M  V30 235 H 15.8392 -2.19111 5.70789 0
M  V30 236 H 20.0132 -1.98822 6.67415 0
M  V30 237 H 17.6402 -1.85518 7.37216 0
M  V30 238 N 19.2153 -1.21501 -1.00376 0
M  V30 239 C 20.1633 -0.972442 -2.11297 0
M  V30 240 C 21.1573 0.080731 -1.69208 0
M  V30 241 O 22.3633 -0.0707666 -1.79861 0
M  V30 242 H 18.7383 -0.297218 -0.690772 0
M  V30 243 H 20.7093 -1.91394 -2.28934 0
M  V30 244 C 19.4583 -0.555065 -3.43241 0
M  V30 245 H 18.7813 -1.35709 -3.76062 0
M  V30 246 H 20.2213 -0.424664 -4.21868 0
M  V30 247 C 18.6803 0.734147 -3.28804 0
M  V30 248 O 19.2103 1.78937 -3.59645 0
M  V30 249 N 17.4163 0.701133 -2.82015 0
M  V30 250 H 16.9633 -0.157874 -2.57116 0
M  V30 251 H 16.9213 1.56403 -2.72737 0
M  V30 252 N 20.6934 1.19889 -1.02296 0
M  V30 253 C 21.6564 2.21116 -0.603351 0
M  V30 254 C 22.6564 1.5738 0.329884 0
M  V30 255 O 23.8464 1.73802 0.117702 0
M  V30 256 C 20.9784 3.40696 0.117992 0
M  V30 257 H 22.1714 2.59754 -1.49893 0
M  V30 258 H 19.7244 1.33463 -0.813468 0
M  V30 259 H 20.4594 3.07569 1.0282 0
M  V30 260 H 20.2444 3.88188 -0.552511 0
M  V30 261 H 21.7344 4.15692 0.398696 0
M  V30 262 N 22.1715 0.800033 1.35784 0
M  V30 263 C 23.4185 0.377342 1.98953 0
M  V30 264 C 23.7465 -1.05378 1.6348 0
M  V30 265 O 23.0015 -1.74459 0.886707 0
M  V30 266 C 23.3005 0.500276 3.53881 0
M  V30 267 C 22.9665 1.89375 4.09204 0
M  V30 268 C 21.6285 2.27499 4.24025 0
M  V30 269 C 23.9805 2.8057 4.39238 0
M  V30 270 C 21.3085 3.562 4.66195 0
M  V30 271 C 23.6605 4.0871 4.82844 0
M  V30 272 C 22.3245 4.46843 4.95871 0
M  V30 273 H 21.5945 0.138079 0.728021 0
M  V30 274 H 24.2415 1.01955 1.62103 0
M  V30 275 H 22.5465 -0.225405 3.91151 0
M  V30 276 H 24.2435 0.154097 4.00704 0
M  V30 277 H 20.8335 1.58753 3.98115 0
M  V30 278 H 25.0175 2.52367 4.27346 0
M  V30 279 H 20.2735 3.85602 4.74469 0
M  V30 280 H 24.4475 4.79481 5.05046 0
M  V30 281 H 22.0745 5.46623 5.28306 0
M  V30 282 N 23.6496 -1.47581 0.552962 0
M  V30 283 C 24.5966 -2.29957 -0.197108 0
M  V30 284 C 25.5666 -1.38799 -0.912359 0
M  V30 285 O 26.7516 -1.67761 -0.908888 0
M  V30 286 C 23.8916 -3.22672 -1.22379 0
M  V30 287 C 23.0046 -4.28919 -0.515038 0
M  V30 288 C 22.1396 -5.0879 -1.52664 0
M  V30 289 C 21.1786 -6.06815 -0.802631 0
M  V30 290 N 20.3156 -6.7966 -1.76086 0
M  V30 291 H 25.1556 -2.93578 0.511486 0
M  V30 292 H 22.6926 -1.4471 0.264067 0
M  V30 293 H 24.6506 -3.74845 -1.83159 0
M  V30 294 H 23.2806 -2.60925 -1.90047 0
M  V30 295 H 22.3326 -3.79835 0.207192 0
M  V30 296 H 23.6446 -4.98773 0.0523425 0
M  V30 297 H 22.7986 -5.65091 -2.20809 0
M  V30 298 H 21.5376 -4.38828 -2.12794 0
M  V30 299 H 20.5426 -5.49695 -0.107238 0
M  V30 300 H 21.7676 -6.78784 -0.207135 0
M  V30 301 H 19.7136 -6.12432 -2.35081 0
M  V30 302 H 19.6306 -7.45669 -1.24552 0
M  V30 303 H 20.8986 -7.40538 -2.43359 0
M  V30 304 N 25.1277 -0.289203 -1.54924 0
M  V30 305 C 26.5437 0.0645403 -1.59469 0
M  V30 306 C 26.7437 1.53419 -1.30632 0
M  V30 307 O 25.7997 2.2852 -1.074 0
M  V30 308 C 27.1127 -0.32278 -2.98963 0
M  V30 309 C 28.6607 -0.270564 -3.11828 0
M  V30 310 C 29.1357 -0.632532 -4.53611 0
M  V30 311 N 30.6267 -0.584617 -4.59496 0
M  V30 312 C 31.3617 -0.837314 -5.67254 0
M  V30 313 N 30.8577 -1.15536 -6.83098 0
M  V30 314 N 32.6507 -0.765166 -5.56868 0
M  V30 315 H 24.8017 -1.24714 -1.71931 0
M  V30 316 H 27.0647 -0.504809 -0.802416 0
M  V30 317 H 26.7707 -1.34541 -3.24948 0
M  V30 318 H 26.6447 0.32944 -3.75759 0
M  V30 319 H 29.0317 0.742805 -2.85598 0
M  V30 320 H 29.1127 -0.957242 -2.37214 0
M  V30 321 H 28.7567 -1.64365 -4.80569 0
M  V30 322 H 28.6867 0.07609 -5.26545 0
M  V30 323 H 31.1777 -0.349248 -3.76283 0
M  V30 324 H 31.4907 -1.33447 -7.61191 0
M  V30 325 H 29.8357 -1.19328 -6.84679 0
M  V30 326 H 33.0267 -0.516432 -4.65243 0
M  V30 327 H 33.1997 -0.965477 -6.40767 0
M  V30 328 N 26.6058 1.57591 -0.0167156 0
M  V30 329 C 27.8338 1.95575 0.675128 0
M  V30 330 C 28.2488 0.892542 1.6637 0
M  V30 331 O 27.6058 -0.126912 1.82058 0
M  V30 332 C 27.6568 3.33608 1.39239 0
M  V30 333 O 27.3778 4.3585 0.443444 0
M  V30 334 C 28.8788 3.86151 2.17721 0
M  V30 335 H 26.0988 0.644423 0.186978 0
M  V30 336 H 28.6428 2.0437 -0.0728 0
M  V30 337 H 26.7978 3.2607 2.09182 0
M  V30 338 H 27.2118 5.158 0.951358 0
M  V30 339 H 28.6858 4.85114 2.63379 0
M  V30 340 H 29.1628 3.19738 3.01105 0
M  V30 341 H 29.7688 3.96918 1.52761 0
M  V30 342 N 28.0839 -0.256276 1.55502 0
M  V30 343 C 29.0319 -1.33694 1.90338 0
M  V30 344 C 30.0259 -1.50299 0.781441 0
M  V30 345 O 31.2319 -1.51885 0.965966 0
M  V30 346 H 27.6069 -0.447483 0.60437 0
M  V30 347 H 29.5779 -1.01574 2.8058 0
M  V30 348 C 28.3269 -2.68724 2.20642 0
M  V30 349 H 27.6499 -2.56743 3.06469 0
M  V30 350 H 29.0899 -3.43237 2.48926 0
M  V30 351 C 27.5489 -3.21101 1.01959 0
M  V30 352 O 28.0789 -4.0084 0.262762 0
M  V30 353 N 26.2849 -2.79003 0.812746 0
M  V30 354 H 25.8319 -2.14271 1.42989 0
M  V30 355 H 25.7899 -3.14393 0.0203076 0
M  V30 356 N 29.562 -1.4872 -0.521534 0
M  V30 357 C 30.79 -1.60843 -1.30142 0
M  V30 358 C 31.205 -0.271897 -1.86832 0
M  V30 359 O 30.562 0.739969 -1.66825 0
M  V30 360 C 30.613 -2.66155 -2.4463 0
M  V30 361 O 30.334 -3.94623 -1.90275 0
M  V30 362 C 31.835 -2.88795 -3.36322 0
M  V30 363 H 29.055 -0.542075 -0.395468 0
M  V30 364 H 31.599 -1.94609 -0.628285 0
M  V30 365 H 29.754 -2.35224 -3.07812 0
M  V30 366 H 30.168 -4.52468 -2.65279 0
M  V30 367 H 31.642 -3.66264 -4.12983 0
M  V30 368 H 32.119 -1.97934 -3.9207 0
M  V30 369 H 32.725 -3.21063 -2.78924 0
M  V30 370 N 31.0401 0.771051 -1.3745 0
M  V30 371 C 32.2891 1.52491 -1.3202 0
M  V30 372 C 32.6021 1.9538 0.0927347 0
M  V30 373 O 33.8081 2.70159 0.269503 0
M  V30 374 C 32.2641 2.75366 -2.31736 0
M  V30 375 C 31.8721 2.39573 -3.78562 0
M  V30 376 C 33.6161 3.53307 -2.35318 0
M  V30 377 C 31.5231 3.58954 -4.70007 0
M  V30 378 H 30.4531 0.572506 -0.490666 0
M  V30 379 H 33.1041 0.844474 -1.62914 0
M  V30 380 H 31.4861 3.45303 -1.93861 0
M  V30 381 H 32.6601 1.77415 -4.25277 0
M  V30 382 H 30.9751 1.74805 -3.77932 0
M  V30 383 H 33.5721 4.42039 -3.00842 0
M  V30 384 H 33.9151 3.93217 -1.36698 0
M  V30 385 H 34.4481 2.90367 -2.71904 0
M  V30 386 H 31.1871 3.24125 -5.69757 0
M  V30 387 H 30.7071 4.20214 -4.27996 0
M  V30 388 H 32.3861 4.25758 -4.87175 0
M  V30 389 N 32.5182 1.22032 0.997298 0
M  V30 390 C 33.4482 1.01065 2.10495 0
M  V30 391 C 34.4292 -0.0669542 1.69968 0
M  V30 392 O 35.6142 0.0943987 1.9397 0
M  V30 393 C 32.7442 0.582874 3.42374 0
M  V30 394 C 31.6982 1.60592 3.96729 0
M  V30 395 C 31.0242 1.03412 5.24605 0
M  V30 396 C 32.3242 2.99478 4.27914 0
M  V30 397 H 34.0182 1.93708 2.28292 0
M  V30 398 H 31.5642 0.932761 1.09707 0
M  V30 399 H 33.5172 0.423332 4.19268 0
M  V30 400 H 32.2412 -0.379213 3.24391 0
M  V30 401 H 30.9002 1.75316 3.21963 0
M  V30 402 H 30.5482 0.063518 5.0296 0
M  V30 403 H 30.2482 1.71754 5.61938 0
M  V30 404 H 31.7722 0.886066 6.04137 0
M  V30 405 H 33.1862 2.88153 4.95622 0
M  V30 406 H 31.5832 3.64903 4.76409 0
M  V30 407 H 32.6532 3.49742 3.3587 0
M  V30 408 N 33.9963 -1.19345 1.0293 0
M  V30 409 C 34.9463 -2.20472 0.58104 0
M  V30 410 C 35.9303 -1.56578 -0.370442 0
M  V30 411 O 37.1223 -1.75963 -0.191344 0
M  V30 412 C 34.2513 -3.43236 -0.066306 0
M  V30 413 C 33.3373 -4.14274 0.907642 0
M  V30 414 N 33.7283 -4.61492 2.07023 0
M  V30 415 C 32.0263 -4.39966 0.731177 0
M  V30 416 C 32.7273 -5.1605 2.68454 0
M  V30 417 N 31.7033 -5.06875 1.96414 0
M  V30 418 H 35.5053 -2.54659 1.46717 0
M  V30 419 H 33.0193 -1.35423 0.896345 0
M  V30 420 H 35.0163 -4.14927 -0.405068 0
M  V30 421 H 33.6763 -3.10549 -0.948118 0
M  V30 422 H 34.6873 -4.56304 2.44963 0
M  V30 423 H 31.3643 -4.17377 -0.101507 0
M  V30 424 H 32.7543 -5.6287 3.66915 0
M  V30 425 N 35.4744 -0.807222 -1.35358 0
M  V30 426 C 36.4244 -0.190706 -2.27201 0
M  V30 427 C 37.4084 0.635838 -1.47804 0
M  V30 428 O 38.6004 0.492991 -1.69996 0
M  V30 429 C 35.7294 0.659337 -3.36909 0
M  V30 430 C 34.8154 -0.176971 -4.23731 0
M  V30 431 N 35.2064 -1.24029 -4.90357 0
M  V30 432 C 33.5044 0.0412953 -4.45981 0
M  V30 433 C 34.2054 -1.75092 -5.54723 0
M  V30 434 N 33.1814 -1.05727 -5.33219 0
M  V30 435 H 36.9834 -1.0043 -2.76208 0
M  V30 436 H 34.4974 -0.648445 -1.48892 0
M  V30 437 H 36.4944 1.11706 -4.01656 0
M  V30 438 H 35.1544 1.47127 -2.89454 0
M  V30 439 H 36.1654 -1.62295 -4.91814 0
M  V30 440 H 32.8424 0.82232 -4.09322 0
M  V30 441 H 34.2324 -2.63963 -6.17878 0
M  V30 442 N 36.9525 1.47285 -0.560781 0
M  V30 443 C 37.8825 2.32857 0.173105 0
M  V30 444 C 38.8635 1.44009 0.905281 0
M  V30 445 O 40.0485 1.7286 0.885046 0
M  V30 446 C 37.1785 3.25861 1.20133 0
M  V30 447 C 36.1325 4.23978 0.585388 0
M  V30 448 C 35.4585 5.06332 1.7185 0
M  V30 449 C 36.7585 5.20242 -0.463178 0
M  V30 450 H 38.4525 2.94466 -0.541307 0
M  V30 451 H 35.9985 1.41601 -0.261764 0
M  V30 452 H 37.9515 3.84569 1.72293 0
M  V30 453 H 36.6755 2.62315 1.94573 0
M  V30 454 H 35.3345 3.66501 0.085054 0
M  V30 455 H 34.9825 4.39186 2.45203 0
M  V30 456 H 34.6825 5.72762 1.31213 0
M  V30 457 H 36.2065 5.67899 2.24329 0
M  V30 458 H 37.6205 5.73293 -0.027502 0
M  V30 459 H 36.0175 5.94896 -0.788627 0
M  V30 460 H 37.0875 4.65504 -1.35773 0
M  V30 461 N 38.4306 0.297415 1.54768 0
M  V30 462 C 39.8466 -0.0560823 1.59501 0
M  V30 463 C 40.0466 -1.52725 1.31444 0
M  V30 464 O 39.1026 -2.27947 1.08611 0
M  V30 465 C 40.4156 0.338631 2.98787 0
M  V30 466 C 41.9636 0.287097 3.11681 0
M  V30 467 C 42.4386 0.656579 4.53269 0
M  V30 468 N 43.9296 0.608977 4.59179 0
M  V30 469 C 44.6646 0.867385 5.66802 0
M  V30 470 N 44.1606 1.19157 6.82476 0
M  V30 471 N 45.9536 0.794687 5.56454 0
M  V30 472 H 38.1046 1.25624 1.71267 0
M  V30 473 H 40.3676 0.509057 0.799728 0
M  V30 474 H 40.0736 1.36263 3.2423 0
M  V30 475 H 39.9476 -0.309508 3.75928 0
M  V30 476 H 42.3346 -0.727649 2.85988 0
M  V30 477 H 42.4156 0.969809 2.36703 0
M  V30 478 H 42.0596 1.66912 4.7969 0
M  V30 479 H 41.9896 -0.0481649 5.26578 0
M  V30 480 H 44.4806 0.369198 3.76092 0
M  V30 481 H 44.7936 1.37482 7.60473 0
M  V30 482 H 43.1386 1.22958 6.84037 0
M  V30 483 H 46.3296 0.541098 4.64962 0
M  V30 484 H 46.5026 0.999445 6.40246 0
M  V30 485 N 39.9087 -1.5758 0.0250728 0
M  V30 486 C 40.8417 -2.05473 -0.992777 0
M  V30 487 C 41.8197 -0.949661 -1.31986 0
M  V30 488 O 43.0037 -1.21969 -1.43722 0
M  V30 489 C 40.1307 -2.4734 -2.31389 0
M  V30 490 C 39.1767 -3.68827 -2.1417 0
M  V30 491 S 40.0097 -5.15655 -1.44429 0
M  V30 492 C 41.1657 -5.60814 -2.77918 0
M  V30 493 H 41.3987 -2.91486 -0.585078 0
M  V30 494 H 38.9317 -1.53269 -0.186507 0
M  V30 495 H 40.8897 -2.72127 -3.07339 0
M  V30 496 H 39.5507 -1.6168 -2.69292 0
M  V30 497 H 38.7437 -3.95955 -3.11826 0
M  V30 498 H 38.3457 -3.44172 -1.46362 0
M  V30 499 H 40.6377 -5.64806 -3.74166 0
M  V30 500 H 41.5807 -6.60414 -2.55459 0
M  V30 501 H 41.9887 -4.8845 -2.82979 0
M  V30 502 N 41.3868 0.248026 -1.55636 0
M  V30 503 C 42.6118 0.998028 -1.81808 0
M  V30 504 C 43.0368 1.78207 -0.601979 0
M  V30 505 O 42.3948 1.75653 0.448961 0
M  V30 506 C 42.4428 1.9125 -3.05705 0
M  V30 507 O 41.5468 3.00406 -2.82542 0
M  V30 508 H 40.8878 0.284045 -0.600179 0
M  V30 509 H 43.4178 0.269357 -2.02819 0
M  V30 510 H 43.4278 2.32737 -3.35108 0
M  V30 511 H 42.1028 1.33602 -3.93857 0
M  V30 512 H 40.6798 2.63056 -2.64303 0
M  V30 513 N 42.8649 1.48995 0.513639 0
M  V30 514 C 43.8119 1.6473 1.61656 0
M  V30 515 C 44.7819 0.488984 1.58739 0
M  V30 516 O 45.9669 0.714478 1.76918 0
M  V30 517 C 43.1069 1.7082 2.99858 0
M  V30 518 C 42.2199 2.9787 3.12885 0
M  V30 519 C 41.3549 2.95017 4.41744 0
M  V30 520 C 40.3939 4.16702 4.48359 0
M  V30 521 N 39.5309 4.11832 5.68629 0
M  V30 522 H 44.3709 2.58909 1.47547 0
M  V30 523 H 41.9079 1.28382 0.71808 0
M  V30 524 H 43.8659 1.72331 3.79944 0
M  V30 525 H 42.4959 0.801181 3.12699 0
M  V30 526 H 41.5479 3.06029 2.25944 0
M  V30 527 H 42.8599 3.8786 3.13633 0
M  V30 528 H 42.0139 2.95021 5.30139 0
M  V30 529 H 40.7529 2.02784 4.43542 0
M  V30 530 H 39.7579 4.16955 3.58369 0
M  V30 531 H 40.9829 5.10113 4.48287 0
M  V30 532 H 38.9289 3.22428 5.71293 0
M  V30 533 H 38.8459 4.95543 5.7094 0
M  V30 534 H 40.1139 4.1592 6.59266 0
M  V30 535 N 44.343 -0.763751 1.37857 0
M  V30 536 C 45.293 -1.86765 1.30777 0
M  V30 537 C 46.277 -1.59726 0.194015 0
M  V30 538 O 47.469 -1.7172 0.42911 0
M  V30 539 C 44.598 -3.24343 1.12502 0
M  V30 540 C 43.684 -3.57307 2.28456 0
M  V30 541 N 44.075 -3.61398 3.53871 0
M  V30 542 C 42.373 -3.87517 2.20786 0
M  V30 543 C 43.074 -3.91339 4.30382 0
M  V30 544 N 42.05 -4.07649 3.59615 0
M  V30 545 H 45.852 -1.88191 2.25746 0
M  V30 546 H 43.366 -0.9606 1.30944 0
M  V30 547 H 45.363 -4.03327 1.05514 0
M  V30 548 H 44.023 -3.24175 0.184574 0
M  V30 549 H 45.034 -3.43407 3.87675 0
M  V30 550 H 41.711 -3.95125 1.34844 0
M  V30 551 H 43.101 -4.01213 5.3896 0
M  V30 552 N 45.8211 -1.22559 -0.990812 0
M  V30 553 C 47.0491 -1.07779 -1.76611 0
M  V30 554 C 47.4641 0.371513 -1.85109 0
M  V30 555 O 46.8211 1.25737 -1.32274 0
M  V30 556 C 46.8721 -1.68512 -3.19822 0
M  V30 557 O 46.5931 -3.07774 -3.1178 0
M  V30 558 C 48.0941 -1.59035 -4.13791 0
M  V30 559 H 45.3141 -0.377729 -0.554583 0
M  V30 560 H 47.8581 -1.62195 -1.24551 0
M  V30 561 H 46.0131 -1.18154 -3.68942 0
M  V30 562 H 46.4271 -3.37062 -4.01858 0
M  V30 563 H 47.9011 -2.0625 -5.1202 0
M  V30 564 H 48.3781 -0.547273 -4.35777 0
M  V30 565 H 48.9841 -2.08709 -3.70568 0
M  V30 566 N 47.2992 1.18797 -1.03562 0
M  V30 567 C 48.5762 1.84469 -0.650434 0
M  V30 568 C 48.9562 1.92319 0.870433 0
M  V30 569 O 48.3042 1.44528 1.76986 0
M  V30 570 C 48.5142 3.2306 -1.32036 0
M  V30 571 C 49.8622 3.9915 -1.44792 0
M  V30 572 O 50.8862 3.32481 -1.27806 0
M  V30 573 O 49.7452 5.18587 -1.72423 0
M  V30 574 H 46.8392 0.795251 -0.226946 0
M  V30 575 H 49.3852 1.26231 -1.13419 0
M  V30 576 H 48.1572 3.1222 -2.3587 0
M  V30 577 H 47.7802 3.88949 -0.8249 0
M  V30 578 N 48.7773 0.814389 1.34928 0
M  V30 579 C 49.7403 0.235759 2.27984 0
M  V30 580 C 50.7403 -0.581412 1.49921 0
M  V30 581 O 51.9303 -0.398758 1.69575 0
M  V30 582 C 49.0623 -0.670433 3.34242 0
M  V30 583 H 50.2553 1.05659 2.80671 0
M  V30 584 H 47.8083 0.585614 1.44915 0
M  V30 585 H 48.5433 -1.51466 2.86755 0
M  V30 586 H 48.3283 -0.0860822 3.92005 0
M  V30 587 H 49.8183 -1.06935 4.03676 0
M  V30 588 N 50.2554 -1.46986 0.568584 0
M  V30 589 C 51.2184 -2.28624 -0.162366 0
M  V30 590 C 52.2184 -1.37596 -0.832103 0
M  V30 591 O 53.4084 -1.60115 -0.68622 0
M  V30 592 C 50.5404 -3.17596 -1.23878 0
M  V30 593 H 51.7334 -2.94722 0.554899 0
M  V30 594 H 49.2864 -1.52863 0.325976 0
M  V30 595 H 50.0214 -2.56214 -1.98808 0
M  V30 596 H 49.8064 -3.846 -0.763219 0
M  V30 597 H 51.2964 -3.79078 -1.75185 0
M  V30 598 N 51.7335 -0.305618 -1.54608 0
M  V30 599 C 52.6435 0.57778 -2.27374 0
M  V30 600 C 53.6595 1.14451 -1.31061 0
M  V30 601 O 54.8355 1.16831 -1.6405 0
M  V30 602 C 51.9005 1.73123 -3.00382 0
M  V30 603 C 50.9615 1.19812 -4.12242 0
M  V30 604 C 50.1945 2.2966 -4.81759 0
M  V30 605 O 50.4175 3.49651 -4.50666 0
M  V30 606 O 49.3515 1.96091 -5.69062 0
M  V30 607 H 53.1775 -0.012624 -3.03697 0
M  V30 608 H 50.7625 -0.0719184 -1.49227 0
M  V30 609 H 52.6445 2.40315 -3.4616 0
M  V30 610 H 51.3195 2.30815 -2.26949 0
M  V30 611 H 50.2265 0.491798 -3.70853 0
M  V30 612 H 51.5595 0.666566 -4.87666 0
M  V30 613 N 53.2116 1.57565 -0.0334293 0
M  V30 614 C 54.1216 2.13943 0.962572 0
M  V30 615 C 55.1376 1.09276 1.35406 0
M  V30 616 O 56.3136 1.41355 1.4346 0
M  V30 617 C 53.3786 2.65887 2.22497 0
M  V30 618 C 52.4396 3.85286 1.8935 0
M  V30 619 C 51.6726 4.34743 3.09571 0
M  V30 620 O 51.8956 3.83352 4.22371 0
M  V30 621 O 50.8296 5.26538 2.91618 0
M  V30 622 H 54.6556 2.99333 0.513169 0
M  V30 623 H 52.2406 1.4822 0.18743 0
M  V30 624 H 54.1226 2.99346 2.96598 0
M  V30 625 H 52.7976 1.83578 2.6661 0
M  V30 626 H 51.7046 3.56746 1.1262 0
M  V30 627 H 53.0376 4.68771 1.5005 0
M  V30 628 N 54.6897 -0.239769 1.55765 0
M  V30 629 C 55.9357 -0.968234 1.78194 0
M  V30 630 C 56.2687 -1.84701 0.599938 0
M  V30 631 O 55.5437 -1.9031 -0.401524 0
M  V30 632 C 55.8267 -1.8227 3.10564 0
M  V30 633 C 55.6797 -0.971633 4.3918 0
M  V30 634 C 56.9987 -2.80388 3.39221 0
M  V30 635 H 54.1177 -0.350572 0.648281 0
M  V30 636 H 56.7597 -0.238259 1.885 0
M  V30 637 H 54.9097 -2.44507 3.01908 0
M  V30 638 H 56.5817 -0.367408 4.59835 0
M  V30 639 H 54.8247 -0.276276 4.32919 0
M  V30 640 H 55.4957 -1.60346 5.28198 0
M  V30 641 H 57.9717 -2.28287 3.47885 0
M  V30 642 H 56.8477 -3.3729 4.33044 0
M  V30 643 H 57.1087 -3.57212 2.60484 0
M  V30 644 N 56.1678 -1.49265 -0.50573 0
M  V30 645 C 57.0978 -1.68495 -1.61653 0
M  V30 646 C 58.0788 -0.53366 -1.61512 0
M  V30 647 O 59.2638 -0.76897 -1.78327 0
M  V30 648 C 56.3938 -1.74709 -3.00157 0
M  V30 649 C 55.3478 -2.89581 -3.15162 0
M  V30 650 C 54.6738 -2.80903 -4.5497 0
M  V30 651 C 55.9738 -4.30578 -2.95634 0
M  V30 652 H 57.6678 -2.61493 -1.45814 0
M  V30 653 H 55.2138 -1.25838 -0.70005 0
M  V30 654 H 57.1668 -1.86748 -3.77761 0
M  V30 655 H 55.8908 -0.783067 -3.17074 0
M  V30 656 H 54.5498 -2.77136 -2.39982 0
M  V30 657 H 54.1978 -1.82419 -4.68756 0
M  V30 658 H 53.8978 -3.57999 -4.65951 0
M  V30 659 H 55.4218 -2.94944 -5.34641 0
M  V30 660 H 56.8358 -4.4373 -3.63011 0
M  V30 661 H 55.2328 -5.0886 -3.18091 0
M  V30 662 H 56.3028 -4.45352 -1.91806 0
M  V30 663 N 57.6459 0.756429 -1.3826 0
M  V30 664 C 58.5759 1.88374 -1.37976 0
M  V30 665 C 59.5569 1.68311 -0.246082 0
M  V30 666 O 60.7419 1.88944 -0.44874 0
M  V30 667 C 57.8719 3.25864 -1.20125 0
M  V30 668 C 56.8259 3.60523 -2.30666 0
M  V30 669 C 56.1519 4.9672 -1.97923 0
M  V30 670 C 57.4519 3.65692 -3.72916 0
M  V30 671 H 59.1459 1.88869 -2.32312 0
M  V30 672 H 56.6919 0.907272 -1.11824 0
M  V30 673 H 58.6449 4.0438 -1.18552 0
M  V30 674 H 57.3689 3.25841 -0.222498 0
M  V30 675 H 56.0279 2.84324 -2.3142 0
M  V30 676 H 55.6759 4.93253 -0.985393 0
M  V30 677 H 55.3759 5.20878 -2.71955 0
M  V30 678 H 56.8999 5.77618 -1.97964 0
M  V30 679 H 58.3139 4.34328 -3.74208 0
M  V30 680 H 56.7109 4.01358 -4.4613 0
M  V30 681 H 57.7809 2.65987 -4.05436 0
M  V30 682 N 59.124 1.23083 0.984299 0
M  V30 683 C 60.034 1.02515 2.11016 0
M  V30 684 C 61.05 -0.0291702 1.73976 0
M  V30 685 O 62.226 0.165434 2.00719 0
M  V30 686 C 59.291 0.614673 3.41208 0
M  V30 687 C 58.352 1.74359 3.92297 0
M  V30 688 C 57.585 1.35261 5.16275 0
M  V30 689 O 57.808 0.235136 5.69915 0
M  V30 690 O 56.742 2.17227 5.61334 0
M  V30 691 H 60.568 1.96862 2.31255 0
M  V30 692 H 58.153 1.01753 1.09392 0
M  V30 693 H 60.035 0.396518 4.1953 0
M  V30 694 H 58.71 -0.299851 3.22308 0
M  V30 695 H 57.617 2.01635 3.1511 0
M  V30 696 H 58.95 2.63629 4.15645 0
M  V30 697 N 60.6021 -1.18246 1.0419 0
M  V30 698 C 61.5491 -2.2192 0.634037 0
M  V30 699 C 62.5191 -1.62179 -0.358765 0
M  V30 700 O 63.7041 -1.89122 -0.252466 0
M  V30 701 C 60.8441 -3.451 0.00445535 0
M  V30 702 C 59.9571 -4.19174 1.04487 0
M  V30 703 C 59.0921 -5.29813 0.383676 0
M  V30 704 C 58.1311 -5.9566 1.4091 0
M  V30 705 N 57.2681 -6.97834 0.772784 0
M  V30 706 H 62.1081 -2.56164 1.52263 0
M  V30 707 H 59.6451 -1.25843 0.761701 0
M  V30 708 H 61.6031 -4.15485 -0.377919 0
M  V30 709 H 60.2331 -3.11472 -0.847652 0
M  V30 710 H 59.2851 -3.47604 1.54518 0
M  V30 711 H 60.5971 -4.64267 1.82368 0
M  V30 712 H 59.7511 -6.06677 -0.0528366 0
M  V30 713 H 58.4901 -4.85825 -0.427208 0
M  V30 714 H 57.4951 -5.17535 1.85574 0
M  V30 715 H 58.7201 -6.4173 2.22171 0
M  V30 716 H 56.6661 -6.55998 -0.0177708 0
M  V30 717 H 56.5831 -7.41186 1.48928 0
M  V30 718 H 57.8511 -7.78665 0.36071 0
M  V30 719 N 62.0802 -0.821533 -1.34494 0
M  V30 720 C 63.0272 -0.240397 -2.29545 0
M  V30 721 C 63.9972 0.634031 -1.53523 0
M  V30 722 O 65.1822 0.575966 -1.81899 0
M  V30 723 C 62.3222 0.592869 -3.39969 0
M  V30 724 C 61.4352 -0.30365 -4.30932 0
M  V30 725 C 60.5702 0.539049 -5.28458 0
M  V30 726 C 59.6092 -0.356942 -6.11058 0
M  V30 727 N 58.7462 0.446603 -7.00678 0
M  V30 728 H 63.5862 -1.05632 -2.7865 0
M  V30 729 H 61.1232 -0.532413 -1.37127 0
M  V30 730 H 63.0812 1.09129 -4.02675 0
M  V30 731 H 61.7112 1.37392 -2.92102 0
M  V30 732 H 60.7632 -0.920276 -3.691 0
M  V30 733 H 62.0752 -0.992661 -4.88823 0
M  V30 734 H 61.2292 1.102 -5.96608 0
M  V30 735 H 59.9682 1.26157 -4.71101 0
M  V30 736 H 58.9732 -0.932047 -5.41842 0
M  V30 737 H 60.1982 -1.07755 -6.70497 0
M  V30 738 H 58.1442 1.15282 -6.45791 0
M  V30 739 H 58.0612 -0.184048 -7.55776 0
M  V30 740 H 59.3292 0.992352 -7.73158 0
M  V30 741 N 63.5583 1.46682 -0.576371 0
M  V30 742 C 64.8063 2.02013 -0.0594163 0
M  V30 743 C 65.1273 1.45101 1.30271 0
M  V30 744 O 64.3973 0.633317 1.8538 0
M  V30 745 H 62.9773 0.746759 -0.0189745 0
M  V30 746 H 65.6393 1.79862 -0.750717 0
M  V30 747 H 64.7353 3.12097 0.014345 0
M  V30 748 N 65.0364 0.313813 1.54444 0
M  V30 749 C 66.2764 -0.292389 2.02298 0
M  V30 750 C 66.6404 -1.50105 1.19719 0
M  V30 751 O 67.8414 -2.17947 1.5733 0
M  V30 752 C 66.1124 -0.627682 3.51845 0
M  V30 753 S 67.6714 -1.21493 4.21646 0
M  V30 754 H 64.4894 -0.0890247 0.705405 0
M  V30 755 H 67.0914 0.444668 1.90376 0
M  V30 756 H 65.7954 0.260265 4.09574 0
M  V30 757 H 65.3264 -1.39519 3.67829 0
M  V30 758 H 67.3414 -2.5022 4.28491 0
M  V30 759 N 66.5145 -1.57545 0.0417849 0
M  V30 760 C 67.7425 -1.96624 -0.643928 0
M  V30 761 C 68.1575 -0.918897 -1.64929 0
M  V30 762 O 67.5145 0.0979323 -1.82237 0
M  V30 763 C 67.5655 -3.35781 -1.33914 0
M  V30 764 O 67.2865 -4.365 -0.374048 0
M  V30 765 C 68.7875 -3.89566 -2.1155 0
M  V30 766 H 66.0075 -0.647316 -0.176702 0
M  V30 767 H 68.5515 -2.04229 0.105304 0
M  V30 768 H 66.7065 -3.29357 -2.03968 0
M  V30 769 H 67.1205 -5.17248 -0.869179 0
M  V30 770 H 68.5945 -4.89242 -2.55628 0
M  V30 771 H 69.0715 -3.24488 -2.9598 0
M  V30 772 H 69.6775 -3.99298 -1.46427 0
M  V30 773 N 67.9926 0.231505 -1.5589 0
M  V30 774 C 69.2406 0.955461 -1.78088 0
M  V30 775 C 69.5616 1.85262 -0.608533 0
M  V30 776 O 68.8316 1.92277 0.375035 0
M  V30 777 H 67.4116 0.355787 -0.656829 0
M  V30 778 H 70.0736 0.245751 -1.93344 0
M  V30 779 H 69.1696 1.56814 -2.69844 0
M  V30 780 N 69.4707 1.49531 0.497807 0
M  V30 781 C 70.7167 1.59415 1.25358 0
M  V30 782 C 71.0497 0.281422 1.9215 0
M  V30 783 O 70.3247 -0.715249 1.80871 0
M  V30 784 C 70.6077 2.75566 2.3181 0
M  V30 785 C 70.4607 4.16642 1.69498 0
M  V30 786 C 71.7797 2.87347 3.33346 0
M  V30 787 H 68.8987 0.580244 0.454408 0
M  V30 788 H 71.5407 1.81827 0.551262 0
M  V30 789 H 69.6907 2.56587 2.91711 0
M  V30 790 H 71.3627 4.47145 1.13399 0
M  V30 791 H 69.6057 4.22141 0.998978 0
M  V30 792 H 70.2767 4.93792 2.46725 0
M  V30 793 H 72.7527 3.04634 2.83438 0
M  V30 794 H 71.6287 3.70289 4.05188 0
M  V30 795 H 71.8897 1.96834 3.95865 0
M  V30 796 N 70.9488 -0.749086 1.3866 0
M  V30 797 C 72.1978 -1.50371 1.3443 0
M  V30 798 C 72.5108 -1.95503 -0.0616397 0
M  V30 799 O 73.7168 -2.70554 -0.226489 0
M  V30 800 C 72.1728 -2.71644 2.36088 0
M  V30 801 C 71.7808 -2.3352 3.82325 0
M  V30 802 C 73.5248 -3.49518 2.40909 0
M  V30 803 C 71.4318 -3.51431 4.75658 0
M  V30 804 H 70.3618 -0.564628 0.499712 0
M  V30 805 H 73.0128 -0.818449 1.64237 0
M  V30 806 H 71.3948 -3.42175 1.9933 0
M  V30 807 H 72.5688 -1.70627 4.28046 0
M  V30 808 H 70.8838 -1.6877 3.80665 0
M  V30 809 H 73.4808 -4.37197 3.07836 0
M  V30 810 H 73.8238 -3.90992 1.42937 0
M  V30 811 H 74.3568 -2.86005 2.76489 0
M  V30 812 H 71.0958 -3.15019 5.74842 0
M  V30 813 H 70.6158 -4.13352 4.34627 0
M  V30 814 H 72.2948 -4.17953 4.93887 0
M  V30 815 N 72.4269 -1.23603 -0.977757 0
M  V30 816 C 73.6549 -1.09646 -1.75458 0
M  V30 817 C 74.0699 0.351859 -1.85492 0
M  V30 818 O 73.4269 1.24327 -1.336 0
M  V30 819 C 73.4779 -1.71895 -3.18016 0
M  V30 820 O 73.1989 -3.11063 -3.08498 0
M  V30 821 C 74.6999 -1.63415 -4.12081 0
M  V30 822 H 71.9199 -0.38359 -0.550545 0
M  V30 823 H 74.4639 -1.63507 -1.22824 0
M  V30 824 H 72.6189 -1.22061 -3.67668 0
M  V30 825 H 73.0329 -3.41305 -3.9826 0
M  V30 826 H 74.5069 -2.11669 -5.09804 0
M  V30 827 H 74.9839 -0.593462 -4.35172 0
M  V30 828 H 75.5899 -2.12628 -3.68334 0
M  V30 829 N 73.905 1.17692 -1.04816 0
M  V30 830 C 74.835 2.23777 -0.666791 0
M  V30 831 C 75.816 1.66796 0.33361 0
M  V30 832 O 77.001 1.93039 0.212042 0
M  V30 833 C 74.131 3.47281 -0.0367933 0
M  V30 834 C 73.085 4.17059 -0.961546 0
M  V30 835 C 72.411 5.34342 -0.195626 0
M  V30 836 C 73.711 4.69713 -2.28402 0
M  V30 837 H 75.405 2.55933 -1.55367 0
M  V30 838 H 72.951 1.23019 -0.748484 0
M  V30 839 H 74.904 4.20706 0.241775 0
M  V30 840 H 73.628 3.14381 0.885004 0
M  V30 841 H 72.287 3.45541 -1.22462 0
M  V30 842 H 71.935 4.97692 0.728816 0
M  V30 843 H 71.635 5.81966 -0.811775 0
M  V30 844 H 73.159 6.10553 0.0757473 0
M  V30 845 H 74.573 5.34794 -2.06563 0
M  V30 846 H 72.97 5.279 -2.8538 0
M  V30 847 H 74.04 3.86726 -2.92525 0
M  V30 848 N 75.3831 0.828654 1.34056 0
M  V30 849 C 76.3311 0.242973 2.31327 0
M  V30 850 C 77.3251 -0.61944 1.57668 0
M  V30 851 O 78.5311 -0.51014 1.7262 0
M  V30 852 H 74.9061 0.059834 0.749616 0
M  V30 853 H 76.8771 1.07809 2.78244 0
M  V30 854 C 75.6261 -0.575733 3.429 0
M  V30 855 H 74.9491 0.0785582 3.99723 0
M  V30 856 H 76.3891 -0.951547 4.13185 0
M  V30 857 C 74.8481 -1.75044 2.87856 0
M  V30 858 O 75.3781 -2.84882 2.83205 0
M  V30 859 N 73.5841 -1.56903 2.44602 0
M  V30 860 H 73.1311 -0.675547 2.48584 0
M  V30 861 H 73.0891 -2.35652 2.08124 0
M  V30 862 N 76.8612 -1.46375 0.584142 0
M  V30 863 C 78.2772 -1.57694 0.245929 0
M  V30 864 C 78.4772 -1.57903 -1.25175 0
M  V30 865 O 77.5332 -1.49676 -2.03355 0
M  V30 866 C 78.8462 -2.87028 0.896402 0
M  V30 867 C 80.3942 -3.00662 0.870127 0
M  V30 868 C 80.8692 -4.32734 1.50017 0
M  V30 869 N 82.3602 -4.39436 1.46458 0
M  V30 870 C 83.0952 -5.40248 1.92144 0
M  V30 871 N 82.5912 -6.47726 2.4581 0
M  V30 872 N 84.3842 -5.31459 1.83052 0
M  V30 873 H 76.5352 -1.44483 1.55687 0
M  V30 874 H 78.7982 -0.689291 0.650831 0
M  V30 875 H 78.5042 -2.9269 1.95002 0
M  V30 876 H 78.3782 -3.75014 0.405486 0
M  V30 877 H 80.7652 -2.94581 -0.174871 0
M  V30 878 H 80.8462 -2.14148 1.39908 0
M  V30 879 H 80.4902 -4.39573 2.54437 0
M  V30 880 H 80.4202 -5.18025 0.946432 0
M  V30 881 H 82.9112 -3.62367 1.07231 0
M  V30 882 H 83.2242 -7.20863 2.78525 0
M  V30 883 H 81.5692 -6.48542 2.49836 0
M  V30 884 H 84.7602 -4.46396 1.40883 0
M  V30 885 H 84.9332 -6.09881 2.18973 0
M  V30 886 N 78.3393 -0.321999 -1.54275 0
M  V30 887 C 79.7503 0.166384 -1.85957 0
M  V30 888 C 80.1013 1.51747 -1.24367 0
M  V30 889 O 79.2263 2.09317 -0.549124 0
M  V30 890 C 79.8213 0.308681 -3.37391 0
M  V30 891 C 78.3803 0.741286 -3.69028 0
M  V30 892 C 77.5273 -0.137937 -2.76957 0
M  V30 893 H 80.4783 -0.542335 -1.49146 0
M  V30 894 H 80.4993 1.13984 -3.63026 0
M  V30 895 H 80.0113 -0.674809 -3.82188 0
M  V30 896 H 78.1123 1.73458 -3.29762 0
M  V30 897 H 78.2253 0.546118 -4.75977 0
M  V30 898 H 76.5893 0.386251 -2.51754 0
M  V30 899 H 77.3723 -1.11816 -3.2458 0
M  V30 900 N 79.8174 1.5752 -0.0501392 0
M  V30 901 C 80.7644 2.1147 0.924603 0
M  V30 902 C 81.7344 1.02182 1.30951 0
M  V30 903 O 82.9194 1.29723 1.39916 0
M  V30 904 C 80.0594 2.66337 2.19451 0
M  V30 905 C 79.1724 3.89708 1.86418 0
M  V30 906 C 78.3074 4.32893 3.07859 0
M  V30 907 C 77.3464 5.48967 2.70742 0
M  V30 908 N 76.4834 5.87211 3.84874 0
M  V30 909 H 81.3234 2.94465 0.457639 0
M  V30 910 H 78.8604 1.45531 0.214266 0
M  V30 911 H 80.8184 2.96247 2.93758 0
M  V30 912 H 79.4484 1.86141 2.63726 0
M  V30 913 H 78.5004 3.66396 1.02264 0
M  V30 914 H 79.8124 4.74074 1.55096 0
M  V30 915 H 78.9664 4.6435 3.90466 0
M  V30 916 H 77.7054 3.47336 3.42358 0
M  V30 917 H 76.7104 5.17183 1.86551 0
M  V30 918 H 77.9354 6.3624 2.37436 0
M  V30 919 H 75.8814 5.04607 4.19175 0
M  V30 920 H 75.7984 6.66266 3.57247 0
M  V30 921 H 77.0664 6.23282 4.68123 0
M  V30 922 N 81.2955 -0.223234 1.56011 0
M  V30 923 C 82.5425 -0.947875 1.78946 0
M  V30 924 C 82.8705 -1.844 0.618608 0
M  V30 925 O 82.1255 -1.91629 -0.397093 0
M  V30 926 C 82.4245 -1.81948 3.0762 0
M  V30 927 C 82.0905 -1.07672 4.37856 0
M  V30 928 C 80.7525 -0.871544 4.73242 0
M  V30 929 C 83.1045 -0.552081 5.18268 0
M  V30 930 C 80.4325 -0.129791 5.86556 0
M  V30 931 C 82.7845 0.17632 6.32354 0
M  V30 932 C 81.4485 0.39277 6.66343 0
M  V30 933 H 80.7185 -0.346852 0.654809 0
M  V30 934 H 83.3655 -0.216171 1.90276 0
M  V30 935 H 81.6705 -2.61899 2.91404 0
M  V30 936 H 83.3675 -2.38227 3.22566 0
M  V30 937 H 79.9575 -1.24662 4.1007 0
M  V30 938 H 84.1415 -0.698076 4.91366 0
M  V30 939 H 79.3975 0.048153 6.11381 0
M  V30 940 H 83.5715 0.590367 6.93893 0
M  V30 941 H 81.1985 0.969466 7.53993 0
M  V30 942 N 82.7736 -1.49793 -0.48987 0
M  V30 943 C 83.7036 -1.70201 -1.59856 0
M  V30 944 C 84.6846 -0.55076 -1.60937 0
M  V30 945 O 85.8696 -0.787841 -1.77501 0
M  V30 946 C 82.9996 -1.77882 -2.98287 0
M  V30 947 C 81.9536 -2.92907 -3.12073 0
M  V30 948 C 81.2796 -2.85712 -4.51965 0
M  V30 949 C 82.5796 -4.3369 -2.91051 0
M  V30 950 H 84.2736 -2.63025 -1.43032 0
M  V30 951 H 81.8196 -1.26574 -0.686664 0
M  V30 952 H 83.7726 -1.90744 -3.75759 0
M  V30 953 H 82.4966 -0.816653 -3.16225 0
M  V30 954 H 81.1556 -2.79665 -2.37029 0
M  V30 955 H 80.8036 -1.8738 -4.66795 0
M  V30 956 H 80.5036 -3.62921 -4.62128 0
M  V30 957 H 82.0276 -3.00598 -5.31482 0
M  V30 958 H 83.4416 -4.47555 -3.58284 0
M  V30 959 H 81.8386 -5.12205 -3.12675 0
M  V30 960 H 82.9086 -4.47362 -1.87071 0
M  V30 961 N 84.2517 0.741722 -1.39055 0
M  V30 962 C 85.1997 1.87702 -1.3737 0
M  V30 963 C 86.1937 1.67427 -0.257812 0
M  V30 964 O 87.3997 1.7485 -0.427489 0
M  V30 965 H 83.7747 0.617757 -0.428812 0
M  V30 966 H 85.7457 1.86239 -2.33147 0
M  V30 967 C 84.4947 3.25315 -1.22741 0
M  V30 968 H 83.8177 3.41509 -2.07873 0
M  V30 969 H 85.2577 4.04964 -1.25618 0
M  V30 970 C 83.7167 3.36838 0.0647316 0
M  V30 971 O 84.2467 3.88073 1.03741 0
M  V30 972 N 82.4527 2.90329 0.125544 0
M  V30 973 H 81.9997 2.48823 -0.666682 0
M  V30 974 H 81.9577 2.98418 0.989639 0
M  V30 975 N 85.7298 1.2412 0.971189 0
M  V30 976 C 86.6928 1.03156 2.04674 0
M  V30 977 C 87.6928 -0.00990322 1.60797 0
M  V30 978 O 88.8828 0.230729 1.72665 0
M  V30 979 C 86.0148 0.562765 3.36223 0
M  V30 980 H 87.2078 1.98614 2.24705 0
M  V30 981 H 84.7608 1.06293 1.14593 0
M  V30 982 H 85.4958 -0.395176 3.21883 0
M  V30 983 H 85.2808 1.31441 3.69413 0
M  V30 984 H 86.7708 0.437015 4.15307 0
M  V30 985 N 87.2079 -1.17134 1.05439 0
M  V30 986 C 88.1379 -2.2342 0.678649 0
M  V30 987 C 89.1189 -1.66971 -0.32476 0
M  V30 988 O 90.3039 -1.93149 -0.201802 0
M  V30 989 C 87.4339 -3.47256 0.0552099 0
M  V30 990 C 86.3879 -4.16543 0.98365 0
M  V30 991 C 85.7139 -5.34231 0.223961 0
M  V30 992 C 87.0139 -4.68495 2.3089 0
M  V30 993 H 88.7079 -2.55105 1.56722 0
M  V30 994 H 86.2539 -1.2262 0.754998 0
M  V30 995 H 88.2069 -4.20828 -0.21946 0
M  V30 996 H 86.9309 -3.14846 -0.868319 0
M  V30 997 H 85.5899 -3.44887 1.24293 0
M  V30 998 H 85.2379 -4.98071 -0.702412 0
M  V30 999 H 84.9379 -5.81527 0.842627 0
M  V30 1000 H 86.4619 -6.10585 -0.0433671 0
M  V30 1001 H 87.8759 -5.33691 2.09396 0
M  V30 1002 H 86.2729 -5.26379 2.88176 0
M  V30 1003 H 87.3429 -3.85169 2.94572 0
M  V30 1004 N 88.686 -0.835752 -1.33615 0
M  V30 1005 C 89.914 -0.443344 -2.02094 0
M  V30 1006 C 90.329 0.954522 -1.62894 0
M  V30 1007 O 89.686 1.61982 -0.840723 0
M  V30 1008 C 89.737 -0.550775 -3.5728 0
M  V30 1009 O 89.458 -1.89356 -3.95065 0
M  V30 1010 C 90.959 -0.154919 -4.43029 0
M  V30 1011 H 88.179 -0.176359 -0.647409 0
M  V30 1012 H 90.723 -1.12746 -1.70612 0
M  V30 1013 H 88.878 0.0853997 -3.87306 0
M  V30 1014 H 89.292 -1.87687 -4.89769 0
M  V30 1015 H 90.766 -0.281144 -5.51284 0
M  V30 1016 H 91.243 0.902863 -4.2982 0
M  V30 1017 H 91.849 -0.765404 -4.18356 0
M  V30 1018 N 90.1641 1.46063 -0.591896 0
M  V30 1019 C 91.0941 2.33172 0.123673 0
M  V30 1020 C 92.0751 1.45897 0.87453 0
M  V30 1021 O 93.2601 1.74698 0.848181 0
M  V30 1022 C 90.3901 3.28336 1.13194 0
M  V30 1023 C 89.3441 4.25124 0.495324 0
M  V30 1024 C 88.6701 5.09863 1.61071 0
M  V30 1025 C 89.9701 5.19143 -0.573425 0
M  V30 1026 H 91.6641 2.93252 -0.603646 0
M  V30 1027 H 89.2101 1.41014 -0.291741 0
M  V30 1028 H 91.1631 3.88137 1.64097 0
M  V30 1029 H 89.8871 2.66383 1.88965 0
M  V30 1030 H 88.5461 3.66599 0.00729452 0
M  V30 1031 H 88.1941 4.44288 2.35832 0
M  V30 1032 H 87.8941 5.75417 1.19035 0
M  V30 1033 H 89.4181 5.72529 2.12233 0
M  V30 1034 H 90.8321 5.73106 -0.1491 0
M  V30 1035 H 89.2291 5.93089 -0.914636 0
M  V30 1036 H 90.2991 4.62519 -1.45617 0
M  V30 1037 N 91.6422 0.330177 1.54103 0
M  V30 1038 C 92.5902 -0.548226 2.26047 0
M  V30 1039 C 93.5842 -1.11309 1.27698 0
M  V30 1040 O 94.7902 -1.06036 1.45452 0
M  V30 1041 H 91.1652 -0.195456 0.726155 0
M  V30 1042 H 93.1362 0.0807567 2.98291 0
M  V30 1043 C 91.8852 -1.69415 3.03634 0
M  V30 1044 H 91.2082 -1.26876 3.79134 0
M  V30 1045 H 92.6482 -2.28423 3.5721 0
M  V30 1046 C 91.1072 -2.61569 2.12328 0
M  V30 1047 O 91.6372 -3.63462 1.7105 0
M  V30 1048 N 89.8432 -2.29952 1.77681 0
M  V30 1049 H 89.3902 -1.47134 2.11446 0
M  V30 1050 H 89.3482 -2.91871 1.16869 0
M  V30 1051 N 93.1203 -1.57491 0.0584922 0
M  V30 1052 C 94.0533 -2.07533 -0.948969 0
M  V30 1053 C 95.0313 -0.977444 -1.29942 0
M  V30 1054 O 96.2153 -1.2499 -1.41102 0
M  V30 1055 C 93.3423 -2.52192 -2.2609 0
M  V30 1056 C 92.3883 -3.73287 -2.06298 0
M  V30 1057 S 93.2213 -5.18603 -1.33459 0
M  V30 1058 C 94.3773 -5.66583 -2.65959 0
M  V30 1059 H 94.6103 -2.92662 -0.523118 0
M  V30 1060 H 92.1433 -1.53631 -0.153954 0
M  V30 1061 H 94.1013 -2.78585 -3.01498 0
M  V30 1062 H 92.7623 -1.67356 -2.65802 0
M  V30 1063 H 91.9553 -4.0248 -3.03357 0
M  V30 1064 H 91.5573 -3.47199 -1.39029 0
M  V30 1065 H 93.8493 -5.72616 -3.62101 0
M  V30 1066 H 94.7923 -6.65684 -2.41393 0
M  V30 1067 H 95.2003 -4.94342 -2.72554 0
M  V30 1068 N 94.5984 0.214957 -1.56127 0
M  V30 1069 C 95.8474 0.936451 -1.78643 0
M  V30 1070 C 96.1604 1.85237 -0.628229 0
M  V30 1071 O 97.3664 2.613 -0.737186 0
M  V30 1072 C 95.8224 1.7154 -3.16389 0
M  V30 1073 C 95.4304 0.845299 -4.39953 0
M  V30 1074 C 97.1744 2.42772 -3.48227 0
M  V30 1075 C 95.0814 1.62198 -5.68723 0
M  V30 1076 H 94.0114 0.353401 -0.666051 0
M  V30 1077 H 96.6624 0.190169 -1.82512 0
M  V30 1078 H 95.0444 2.50484 -3.06715 0
M  V30 1079 H 96.2184 0.0959353 -4.607 0
M  V30 1080 H 94.5334 0.244789 -4.1568 0
M  V30 1081 H 97.1304 3.01394 -4.41663 0
M  V30 1082 H 97.4734 3.15984 -2.71035 0
M  V30 1083 H 98.0064 1.70813 -3.5926 0
M  V30 1084 H 94.7454 0.933011 -6.48826 0
M  V30 1085 H 94.2654 2.34579 -5.52026 0
M  V30 1086 H 95.9444 2.18095 -6.09133 0
M  V30 1087 N 96.0765 1.50051 0.48192 0
M  V30 1088 C 97.4925 1.37237 0.814756 0
M  V30 1089 C 97.6925 0.420109 1.97072 0
M  V30 1090 O 96.7485 -0.141246 2.52105 0
M  V30 1091 C 98.0615 2.78375 1.13701 0
M  V30 1092 C 99.6095 2.87213 1.2441 0
M  V30 1093 C 100.084 4.29161 1.59954 0
M  V30 1094 N 101.575 4.32061 1.66967 0
M  V30 1095 C 102.31 5.38879 1.95952 0
M  V30 1096 N 101.806 6.55918 2.23031 0
M  V30 1097 N 103.599 5.26312 1.97363 0
M  V30 1098 H 95.7505 2.10546 -0.28005 0
M  V30 1099 H 98.0135 0.945921 -0.0627454 0
M  V30 1100 H 97.7195 3.49845 0.360787 0
M  V30 1101 H 97.5935 3.14941 2.07586 0
M  V30 1102 H 99.9805 2.15969 2.01101 0
M  V30 1103 H 100.061 2.54204 0.285299 0
M  V30 1104 H 99.7055 5.00938 0.838067 0
M  V30 1105 H 99.6355 4.59648 2.56966 0
M  V30 1106 H 102.126 3.47661 1.48123 0
M  V30 1107 H 102.439 7.33139 2.44391 0
M  V30 1108 H 100.784 6.59112 2.20447 0
M  V30 1109 H 103.975 4.33876 1.75697 0
M  V30 1110 H 104.148 6.09649 2.19618 0
M  V30 1111 N 97.5546 -0.734337 1.39446 0
M  V30 1112 C 98.4866 -1.85861 1.34121 0
M  V30 1113 C 99.4996 -1.60871 0.249864 0
M  V30 1114 O 100.689 -1.71093 0.508865 0
M  V30 1115 C 97.7886 -3.21899 1.05991 0
M  V30 1116 C 96.9616 -3.74239 2.26415 0
M  V30 1117 C 96.0206 -4.88841 1.94733 0
M  V30 1118 O 95.0466 -5.02468 2.67422 0
M  V30 1119 N 96.2486 -5.73261 0.913884 0
M  V30 1120 H 99.0136 -1.90934 2.31007 0
M  V30 1121 H 96.5746 -0.915102 1.33557 0
M  V30 1122 H 98.5666 -3.96136 0.828147 0
M  V30 1123 H 97.1366 -3.12091 0.178361 0
M  V30 1124 H 96.3566 -2.91347 2.65539 0
M  V30 1125 H 97.6446 -4.05942 3.06738 0
M  V30 1126 H 97.0426 -5.64842 0.311476 0
M  V30 1127 H 95.5996 -6.47563 0.742015 0
M  V30 1128 N 99.0327 -1.24633 -0.964593 0
M  V30 1129 C 100.282 -1.08188 -1.7023 0
M  V30 1130 C 100.595 0.37873 -1.91898 0
M  V30 1131 O 101.801 0.663427 -2.6327 0
M  V30 1132 C 100.257 -1.88773 -3.06419 0
M  V30 1133 C 99.8647 -3.39263 -2.92582 0
M  V30 1134 C 101.609 -1.80867 -3.84041 0
M  V30 1135 C 99.5157 -4.1218 -4.24101 0
M  V30 1136 H 98.4457 -0.401245 -0.638372 0
M  V30 1137 H 101.097 -1.48742 -1.07462 0
M  V30 1138 H 99.4787 -1.41035 -3.70034 0
M  V30 1139 H 100.653 -3.94603 -2.37961 0
M  V30 1140 H 98.9677 -3.48154 -2.28424 0
M  V30 1141 H 101.565 -2.32646 -4.81435 0
M  V30 1142 H 101.908 -0.774543 -4.09031 0
M  V30 1143 H 102.441 -2.26301 -3.27159 0
M  V30 1144 H 99.1797 -5.15965 -4.04303 0
M  V30 1145 H 98.6997 -3.61626 -4.78526 0
M  V30 1146 H 100.379 -4.19349 -4.92702 0
M  V30 1147 N 100.511 1.16574 -1.06058 0
M  V30 1148 C 101.741 1.90675 -0.795397 0
M  V30 1149 C 102.149 1.77547 0.653735 0
M  V30 1150 O 101.492 1.11611 1.45907 0
M  V30 1151 C 101.554 3.42011 -1.10764 0
M  V30 1152 C 101.218 3.78924 -2.55471 0
M  V30 1153 C 102.215 3.81042 -3.53699 0
M  V30 1154 C 99.8998 4.09626 -2.90708 0
M  V30 1155 C 101.894 4.13346 -4.85205 0
M  V30 1156 C 99.5808 4.41597 -4.22416 0
M  V30 1157 C 100.579 4.43436 -5.19474 0
M  V30 1158 O 100.267 4.74649 -6.48817 0
M  V30 1159 H 99.9988 0.611554 -0.288058 0
M  V30 1160 H 102.553 1.48711 -1.41683 0
M  V30 1161 H 100.783 3.84312 -0.429128 0
M  V30 1162 H 102.472 3.97384 -0.827077 0
M  V30 1163 H 103.238 3.57437 -3.27817 0
M  V30 1164 H 99.1168 4.07361 -2.15819 0
M  V30 1165 H 102.661 4.14696 -5.60957 0
M  V30 1166 H 98.5578 4.64667 -4.48056 0
M  V30 1167 H 99.3258 4.9247 -6.5377 0
M  V30 1168 N 101.989 0.842826 1.3317 0
M  V30 1169 C 103.4 0.496651 1.79973 0
M  V30 1170 C 103.751 -0.984641 1.69703 0
M  V30 1171 O 102.876 -1.76743 1.24863 0
M  V30 1172 C 103.471 0.894727 3.26772 0
M  V30 1173 C 102.03 0.600629 3.71577 0
M  V30 1174 C 101.177 1.10091 2.5451 0
M  V30 1175 H 104.128 1.03116 1.20635 0
M  V30 1176 H 104.149 0.206347 3.7994 0
M  V30 1177 H 103.661 1.97287 3.34215 0
M  V30 1178 H 101.762 -0.467284 3.69658 0
M  V30 1179 H 101.875 1.15863 4.64879 0
M  V30 1180 H 100.239 0.52162 2.49301 0
M  V30 1181 H 101.022 2.18591 2.64713 0
M  V30 1182 N 103.467 -1.45747 0.599634 0
M  V30 1183 C 104.399 -2.28628 -0.161879 0
M  V30 1184 C 105.412 -1.39494 -0.839367 0
M  V30 1185 O 106.601 -1.63941 -0.706089 0
M  V30 1186 C 103.701 -3.15014 -1.24976 0
M  V30 1187 C 102.874 -4.32378 -0.660935 0
M  V30 1188 C 101.933 -5.00033 -1.63869 0
M  V30 1189 O 100.959 -5.57085 -1.1681 0
M  V30 1190 N 102.161 -4.98589 -2.97303 0
M  V30 1191 H 104.926 -2.94624 0.549265 0
M  V30 1192 H 102.487 -1.55847 0.438565 0
M  V30 1193 H 104.479 -3.5714 -1.9035 0
M  V30 1194 H 103.049 -2.5098 -1.86354 0
M  V30 1195 H 102.269 -3.9383 0.170688 0
M  V30 1196 H 103.557 -5.08197 -0.247619 0
M  V30 1197 H 102.955 -4.53514 -3.38145 0
M  V30 1198 H 101.512 -5.44603 -3.58121 0
M  V30 1199 N 104.945 -0.338344 -1.53925 0
M  V30 1200 C 105.875 0.51328 -2.27789 0
M  V30 1201 C 106.856 1.107 -1.29149 0
M  V30 1202 O 108.041 1.12937 -1.57984 0
M  V30 1203 C 105.171 1.66697 -3.04679 0
M  V30 1204 C 104.125 1.20183 -4.1078 0
M  V30 1205 C 103.451 2.44363 -4.75595 0
M  V30 1206 C 104.751 0.30605 -5.21403 0
M  V30 1207 H 106.445 -0.102883 -2.99223 0
M  V30 1208 H 103.991 -0.0509219 -1.4391 0
M  V30 1209 H 105.944 2.26915 -3.55088 0
M  V30 1210 H 104.668 2.30995 -2.30887 0
M  V30 1211 H 103.327 0.622499 -3.61276 0
M  V30 1212 H 102.975 3.07057 -3.98403 0
M  V30 1213 H 102.675 2.13925 -5.47275 0
M  V30 1214 H 104.199 3.05317 -5.28786 0
M  V30 1215 H 105.613 0.814929 -5.67478 0
M  V30 1216 H 104.01 0.0937929 -6.00027 0
M  V30 1217 H 105.08 -0.65921 -4.80398 0
M  V30 1218 N 106.423 1.57458 -0.0668435 0
M  V30 1219 C 107.37 2.12439 0.902122 0
M  V30 1220 C 108.34 1.03565 1.2986 0
M  V30 1221 O 109.525 1.312 1.38532 0
M  V30 1222 C 106.665 2.6865 2.16614 0
M  V30 1223 C 105.778 3.91663 1.82274 0
M  V30 1224 C 104.913 4.36134 3.0325 0
M  V30 1225 C 103.952 5.51808 2.64904 0
M  V30 1226 N 103.089 5.9126 3.78624 0
M  V30 1227 H 107.929 2.94934 0.426382 0
M  V30 1228 H 105.466 1.4575 0.198819 0
M  V30 1229 H 107.424 2.99346 2.90599 0
M  V30 1230 H 106.054 1.88928 2.61737 0
M  V30 1231 H 105.106 3.6746 0.983719 0
M  V30 1232 H 106.418 4.75693 1.50059 0
M  V30 1233 H 105.572 4.68465 3.85519 0
M  V30 1234 H 104.311 3.50948 3.38655 0
M  V30 1235 H 103.316 5.19133 1.81055 0
M  V30 1236 H 104.541 6.38722 2.30675 0
M  V30 1237 H 102.487 5.09024 4.138 0
M  V30 1238 H 102.404 6.70018 3.5016 0
M  V30 1239 H 103.672 6.28212 4.61486 0
M  V30 1240 N 107.901 -0.206675 1.56239 0
M  V30 1241 C 108.848 -1.25617 1.93621 0
M  V30 1242 C 109.818 -1.45824 0.795274 0
M  V30 1243 O 111.003 -1.59148 1.05245 0
M  V30 1244 C 108.143 -2.59839 2.27107 0
M  V30 1245 C 107.256 -2.47308 3.54207 0
M  V30 1246 C 106.391 -3.74155 3.7707 0
M  V30 1247 C 105.43 -3.56407 4.97635 0
M  V30 1248 N 104.567 -4.75238 5.1681 0
M  V30 1249 H 109.407 -0.930383 2.83104 0
M  V30 1250 H 106.944 -0.448065 1.4011 0
M  V30 1251 H 108.902 -3.38021 2.44535 0
M  V30 1252 H 107.532 -2.90485 1.40778 0
M  V30 1253 H 106.584 -1.60483 3.4489 0
M  V30 1254 H 107.896 -2.30122 4.42544 0
M  V30 1255 H 107.05 -4.60778 3.94675 0
M  V30 1256 H 105.789 -3.94282 2.87042 0
M  V30 1257 H 104.794 -2.68168 4.79964 0
M  V30 1258 H 106.019 -3.37736 5.89161 0
M  V30 1259 H 103.965 -4.95651 4.29728 0
M  V30 1260 H 103.882 -4.60835 5.99306 0
M  V30 1261 H 105.15 -5.63246 5.38864 0
M  V30 1262 N 109.379 -1.50304 -0.473955 0
M  V30 1263 C 110.625 -1.62358 -1.22521 0
M  V30 1264 C 110.98 -0.318555 -1.89745 0
M  V30 1265 O 110.273 0.683315 -1.79001 0
M  V30 1266 C 110.467 -2.73938 -2.29549 0
M  V30 1267 C 110.296 -4.15165 -1.72825 0
M  V30 1268 C 109.066 -4.81604 -1.52924 0
M  V30 1269 C 111.264 -4.99503 -1.22481 0
M  V30 1270 N 109.246 -6.07056 -0.91413 0
M  V30 1271 C 110.617 -6.15655 -0.732743 0
M  V30 1272 C 112.672 -4.85299 -1.11308 0
M  V30 1273 C 111.375 -7.19164 -0.139976 0
M  V30 1274 C 113.401 -5.88982 -0.534258 0
M  V30 1275 C 112.763 -7.0438 -0.0525562 0
M  V30 1276 H 108.862 -0.648286 -0.437321 0
M  V30 1277 H 111.446 -1.87413 -0.527692 0
M  V30 1278 H 109.617 -2.50611 -2.9673 0
M  V30 1279 H 111.349 -2.75366 -2.96573 0
M  V30 1280 H 108.104 -4.3885 -1.78067 0
M  V30 1281 H 108.528 -6.74108 -0.625071 0
M  V30 1282 H 113.17 -3.96369 -1.47144 0
M  V30 1283 H 110.888 -8.07771 0.230591 0
M  V30 1284 H 114.474 -5.80055 -0.450219 0
M  V30 1285 H 113.354 -7.83238 0.388324 0
M  V30 1286 N 110.857 0.726932 -1.39834 0
M  V30 1287 C 111.767 1.87131 -1.41489 0
M  V30 1288 C 112.783 1.71239 -0.308757 0
M  V30 1289 O 113.959 1.93701 -0.551529 0
M  V30 1290 C 111.024 3.22811 -1.26468 0
M  V30 1291 C 110.085 3.51039 -2.47124 0
M  V30 1292 C 109.318 4.80245 -2.3281 0
M  V30 1293 O 109.541 5.54537 -1.33585 0
M  V30 1294 O 108.475 5.08554 -3.21957 0
M  V30 1295 H 112.301 1.8869 -2.3797 0
M  V30 1296 H 109.886 0.875837 -1.21035 0
M  V30 1297 H 111.768 4.03877 -1.20255 0
M  V30 1298 H 110.443 3.22005 -0.330862 0
M  V30 1299 H 109.35 2.70027 -2.58914 0
M  V30 1300 H 110.683 3.56632 -3.39227 0
M  V30 1301 N 112.336 1.25143 0.95797 0
M  V30 1302 C 113.268 1.01023 2.05735 0
M  V30 1303 C 114.281 -0.0236902 1.62783 0
M  V30 1304 O 115.47 0.21448 1.77207 0
M  V30 1305 C 112.57 0.504595 3.35122 0
M  V30 1306 C 111.743 1.6039 4.06932 0
M  V30 1307 C 110.802 1.09922 5.14591 0
M  V30 1308 O 109.828 1.79293 5.40225 0
M  V30 1309 N 111.03 -0.0612545 5.80468 0
M  V30 1310 H 113.795 1.95683 2.26998 0
M  V30 1311 H 111.356 1.16303 1.12629 0
M  V30 1312 H 113.348 0.151516 4.04416 0
M  V30 1313 H 111.918 -0.347989 3.10657 0
M  V30 1314 H 111.138 2.12872 3.31782 0
M  V30 1315 H 112.426 2.34252 4.51667 0
M  V30 1316 H 111.824 -0.640985 5.62057 0
M  V30 1317 H 110.381 -0.355395 6.5083 0
M  V30 1318 N 113.814 -1.1601 1.06675 0
M  V30 1319 C 115.091 -1.82679 0.699114 0
M  V30 1320 C 115.471 -1.94559 -0.819137 0
M  V30 1321 O 114.819 -1.49169 -1.73092 0
M  V30 1322 C 115.029 -3.19445 1.40555 0
M  V30 1323 C 116.377 -3.95171 1.55323 0
M  V30 1324 O 117.401 -3.28976 1.36577 0
M  V30 1325 O 116.26 -5.13833 1.86112 0
M  V30 1326 H 113.354 -0.788954 0.247951 0
M  V30 1327 H 115.9 -1.23179 1.16726 0
M  V30 1328 H 114.672 -3.05856 2.44065 0
M  V30 1329 H 114.295 -3.86625 0.927733 0
M  V30 1330 N 115.292 -0.849877 -1.32721 0
M  V30 1331 C 116.703 -0.506188 -1.79707 0
M  V30 1332 C 117.054 0.975627 -1.70223 0
M  V30 1333 O 116.179 1.76078 -1.25799 0
M  V30 1334 C 116.774 -0.912044 -3.26293 0
M  V30 1335 C 115.333 -0.620326 -3.71253 0
M  V30 1336 C 114.48 -1.11439 -2.53922 0
M  V30 1337 H 117.431 -1.03754 -1.20087 0
M  V30 1338 H 117.452 -0.226493 -3.79825 0
M  V30 1339 H 116.964 -1.99057 -3.33164 0
M  V30 1340 H 115.065 0.447674 -3.69901 0
M  V30 1341 H 115.178 -1.18327 -4.64258 0
M  V30 1342 H 113.542 -0.534834 -2.49021 0
M  V30 1343 H 114.325 -2.19992 -2.6355 0
M  V30 1344 N 116.77 1.45427 -0.607355 0
M  V30 1345 C 117.68 2.34325 0.113463 0
M  V30 1346 C 118.696 1.51226 0.860617 0
M  V30 1347 O 119.872 1.84029 0.818255 0
M  V30 1348 C 116.937 3.28839 1.09844 0
M  V30 1349 C 115.998 4.27844 0.353271 0
M  V30 1350 C 115.231 5.17842 1.29133 0
M  V30 1351 O 115.454 5.11264 2.52913 0
M  V30 1352 O 114.388 5.96713 0.788523 0
M  V30 1353 H 118.214 2.97364 -0.617094 0
M  V30 1354 H 115.799 1.44807 -0.367619 0
M  V30 1355 H 117.681 3.8708 1.66575 0
M  V30 1356 H 116.356 2.68365 1.81003 0
M  V30 1357 H 115.263 3.7322 -0.256494 0
M  V30 1358 H 116.596 4.91173 -0.317822 0
M  V30 1359 N 118.248 0.346503 1.53744 0
M  V30 1360 C 119.476 -0.25041 2.05379 0
M  V30 1361 C 119.891 -1.43979 1.22129 0
M  V30 1362 O 119.248 -1.80677 0.257321 0
M  V30 1363 C 119.299 -0.662575 3.55376 0
M  V30 1364 O 119.02 0.479515 4.35468 0
M  V30 1365 C 120.521 -1.31989 4.23195 0
M  V30 1366 H 117.741 -0.0478198 0.669294 0
M  V30 1367 H 120.285 0.499346 1.9831 0
M  V30 1368 H 118.44 -1.36227 3.62658 0
M  V30 1369 H 118.854 0.15037 5.24284 0
M  V30 1370 H 120.328 -1.55902 5.29527 0
M  V30 1371 H 120.805 -2.27436 3.75725 0
M  V30 1372 H 121.411 -0.662154 4.20114 0
M  V30 1373 N 119.726 -1.57421 0.075193 0
M  V30 1374 C 120.973 -1.93618 -0.593146 0
M  V30 1375 C 121.301 -0.955484 -1.69413 0
M  V30 1376 O 120.556 0.0283251 -1.9568 0
M  V30 1377 C 120.855 -3.36428 -1.20626 0
M  V30 1378 C 120.521 -4.50307 -0.231078 0
M  V30 1379 C 119.183 -4.81186 0.0371936 0
M  V30 1380 C 121.535 -5.19374 0.435888 0
M  V30 1381 C 118.863 -5.78466 0.979461 0
M  V30 1382 C 121.215 -6.17665 1.3665 0
M  V30 1383 C 119.879 -6.46958 1.6432 0
M  V30 1384 H 119.149 -0.708499 -0.217047 0
M  V30 1385 H 121.796 -1.90937 0.146793 0
M  V30 1386 H 120.101 -3.35592 -2.02201 0
M  V30 1387 H 121.798 -3.61727 -1.73073 0
M  V30 1388 H 118.388 -4.26227 -0.450357 0
M  V30 1389 H 122.572 -4.95711 0.241748 0
M  V30 1390 H 117.828 -5.99487 1.20106 0
M  V30 1391 H 122.002 -6.70284 1.88924 0
M  V30 1392 H 119.629 -7.2215 2.37494 0
M  V30 1393 N 121.204 0.198386 -1.56346 0
M  V30 1394 C 122.134 1.24865 -1.9731 0
M  V30 1395 C 123.115 1.47651 -0.844576 0
M  V30 1396 O 124.3 1.59444 -1.10866 0
M  V30 1397 C 121.43 2.59358 -2.30977 0
M  V30 1398 C 120.384 2.5119 -3.46537 0
M  V30 1399 C 119.71 3.89926 -3.65871 0
M  V30 1400 C 121.01 2.03977 -4.80823 0
M  V30 1401 H 122.704 0.908252 -2.85291 0
M  V30 1402 H 120.25 0.435462 -1.37258 0
M  V30 1403 H 122.203 3.33011 -2.58228 0
M  V30 1404 H 120.927 2.95132 -1.39874 0
M  V30 1405 H 119.586 1.79993 -3.19371 0
M  V30 1406 H 119.234 4.23046 -2.72105 0
M  V30 1407 H 118.934 3.85336 -4.4361 0
M  V30 1408 H 120.458 4.65205 -3.95495 0
M  V30 1409 H 121.872 2.67386 -5.07127 0
M  V30 1410 H 120.269 2.10397 -5.62008 0
M  V30 1411 H 121.339 0.992861 -4.74626 0
M  V30 1412 N 122.682 1.50554 0.465978 0
M  V30 1413 C 123.931 1.61038 1.21448 0
M  V30 1414 C 124.244 0.31865 1.92987 0
M  V30 1415 O 125.45 0.302469 2.6981 0
M  V30 1416 C 123.906 2.84283 2.20706 0
M  V30 1417 C 123.514 4.20352 1.54946 0
M  V30 1418 C 125.258 3.04115 2.96166 0
M  V30 1419 C 123.165 5.34778 2.5252 0
M  V30 1420 H 122.095 0.599718 0.457005 0
M  V30 1421 H 124.746 1.7699 0.484424 0
M  V30 1422 H 123.128 2.61901 2.97025 0
M  V30 1423 H 124.302 4.53008 0.843811 0
M  V30 1424 H 122.617 4.06167 0.917475 0
M  V30 1425 H 125.214 3.86774 3.69202 0
M  V30 1426 H 125.557 2.16045 3.55852 0
M  V30 1427 H 126.09 3.26702 2.26959 0
M  V30 1428 H 122.829 6.25018 1.97566 0
M  V30 1429 H 122.349 5.06534 3.21222 0
M  V30 1430 H 124.028 5.65561 3.14245 0
M  V30 1431 N 124.16 -0.719506 1.40217 0
M  V30 1432 C 125.409 -1.47486 1.37589 0
M  V30 1433 C 125.722 -1.9559 -0.0201568 0
M  V30 1434 O 126.928 -2.70973 -0.169049 0
M  V30 1435 C 125.384 -2.66575 2.41796 0
M  V30 1436 C 124.992 -2.25358 3.87192 0
M  V30 1437 C 126.736 -3.4433 2.48269 0
M  V30 1438 C 124.643 -3.41262 4.83005 0
M  V30 1439 H 123.573 -0.553901 0.511576 0
M  V30 1440 H 126.224 -0.783427 1.65936 0
M  V30 1441 H 124.606 -3.3787 2.06543 0
M  V30 1442 H 125.78 -1.61509 4.31569 0
M  V30 1443 H 124.095 -1.60657 3.84159 0
M  V30 1444 H 126.692 -4.30569 3.17041 0
M  V30 1445 H 127.035 -3.87872 1.51198 0
M  V30 1446 H 127.568 -2.80076 2.82493 0
M  V30 1447 H 124.307 -3.02755 5.81394 0
M  V30 1448 H 123.827 -4.0404 4.43297 0
M  V30 1449 H 125.506 -4.07383 5.02641 0
M  V30 1450 N 125.638 -1.25649 -0.95132 0
M  V30 1451 C 126.887 -1.09988 -1.69073 0
M  V30 1452 C 127.2 0.358355 -1.92289 0
M  V30 1453 O 128.406 0.635466 -2.63958 0
M  V30 1454 C 126.862 -1.92012 -3.044 0
M  V30 1455 C 126.47 -3.42347 -2.88968 0
M  V30 1456 C 128.214 -1.8493 -3.82101 0
M  V30 1457 C 126.121 -4.16655 -4.19705 0
M  V30 1458 H 125.051 -0.407993 -0.63408 0
M  V30 1459 H 127.702 -1.49873 -1.05879 0
M  V30 1460 H 126.084 -1.44952 -3.68517 0
M  V30 1461 H 127.258 -3.97104 -2.33762 0
M  V30 1462 H 125.573 -3.50557 -2.24719 0
M  V30 1463 H 128.17 -2.37739 -4.78941 0
M  V30 1464 H 128.513 -0.817883 -4.08187 0
M  V30 1465 H 129.046 -2.29758 -3.2474 0
M  V30 1466 H 125.785 -5.20224 -3.98807 0
M  V30 1467 H 125.305 -3.66681 -4.74663 0
M  V30 1468 H 126.984 -4.24551 -4.88227 0
M  V30 1469 N 127.117 1.15442 -1.07289 0
M  V30 1470 C 128.064 2.20161 -0.692653 0
M  V30 1471 C 129.034 1.63073 0.31564 0
M  V30 1472 O 130.219 1.89725 0.202235 0
M  V30 1473 C 127.359 3.44967 -0.0959509 0
M  V30 1474 C 126.472 4.16256 -1.15564 0
M  V30 1475 C 125.607 5.28609 -0.524011 0
M  V30 1476 C 124.646 5.91715 -1.56653 0
M  V30 1477 N 123.783 6.9554 -0.957531 0
M  V30 1478 H 128.623 2.52037 -1.59002 0
M  V30 1479 H 126.16 1.2378 -0.794798 0
M  V30 1480 H 128.118 4.16341 0.267628 0
M  V30 1481 H 126.748 3.1361 0.764772 0
M  V30 1482 H 125.8 3.43385 -1.6368 0
M  V30 1483 H 127.112 4.59268 -1.94613 0
M  V30 1484 H 126.266 6.06604 -0.108032 0
M  V30 1485 H 125.005 4.86787 0.29825 0
M  V30 1486 H 124.01 5.12433 -1.9923 0
M  V30 1487 H 125.235 6.35614 -2.39107 0
M  V30 1488 H 123.181 6.55814 -0.156162 0
M  V30 1489 H 123.098 7.36977 -1.68526 0
M  V30 1490 H 124.366 7.77435 -0.567032 0
M  V30 1491 N 128.595 0.856903 1.32268 0
M  V30 1492 C 129.843 0.460474 1.96784 0
M  V30 1493 C 130.164 -0.987701 1.68135 0
M  V30 1494 O 129.434 -1.69058 0.989765 0
M  V30 1495 H 128.014 0.167289 0.728027 0
M  V30 1496 H 130.676 1.09383 1.61312 0
M  V30 1497 H 129.772 0.60739 3.06133 0
M  V30 1498 N 130.073 -1.45103 0.615059 0
M  V30 1499 C 131.036 -2.29025 -0.0895485 0
M  V30 1500 C 132.036 -1.40174 -0.787906 0
M  V30 1501 O 133.226 -1.62217 -0.634933 0
M  V30 1502 C 130.358 -3.21376 -1.13711 0
M  V30 1503 H 131.551 -2.92807 0.648382 0
M  V30 1504 H 129.104 -1.51749 0.374444 0
M  V30 1505 H 129.839 -2.6241 -1.90556 0
M  V30 1506 H 129.624 -3.86834 -0.640475 0
M  V30 1507 H 131.114 -3.84459 -1.63036 0
M  V30 1508 N 131.551 -0.354651 -1.53558 0
M  V30 1509 C 132.799 0.237972 -2.00694 0
M  V30 1510 C 133.12 1.50173 -1.24391 0
M  V30 1511 O 132.39 1.92673 -0.354135 0
M  V30 1512 H 130.97 0.0909256 -0.741446 0
M  V30 1513 H 133.632 -0.478368 -1.88938 0
M  V30 1514 H 132.728 0.47264 -3.085 0
M  V30 1515 N 133.029 1.57378 -0.0835403 0
M  V30 1516 C 134.277 1.93547 0.581718 0
M  V30 1517 C 134.598 0.96524 1.69435 0
M  V30 1518 O 133.868 0.0153369 1.95894 0
M  V30 1519 H 132.448 0.714521 0.217874 0
M  V30 1520 H 135.11 1.94366 -0.144158 0
M  V30 1521 H 134.206 2.95665 0.999423 0
M  V30 1522 N 134.507 -0.190092 1.56449 0
M  V30 1523 C 135.454 -1.23557 1.94942 0
M  V30 1524 C 136.424 -1.44972 0.810696 0
M  V30 1525 O 137.609 -1.58023 1.06927 0
M  V30 1526 C 134.749 -2.57416 2.2985 0
M  V30 1527 C 133.862 -2.43537 3.5681 0
M  V30 1528 C 132.997 -3.70134 3.81017 0
M  V30 1529 C 132.036 -3.51109 5.01387 0
M  V30 1530 N 131.173 -4.6973 5.21822 0
M  V30 1531 H 136.013 -0.900304 2.84075 0
M  V30 1532 H 133.55 -0.43318 1.40577 0
M  V30 1533 H 135.508 -3.35409 2.48106 0
M  V30 1534 H 134.138 -2.88975 1.43852 0
M  V30 1535 H 133.19 -1.56816 3.46573 0
M  V30 1536 H 134.502 -2.25415 4.4496 0
M  V30 1537 H 133.656 -4.56566 3.9954 0
M  V30 1538 H 132.395 -3.91215 2.91207 0
M  V30 1539 H 131.4 -2.63063 4.82782 0
M  V30 1540 H 132.625 -3.31468 5.9271 0
M  V30 1541 H 130.571 -4.91065 4.34961 0
M  V30 1542 H 130.488 -4.54452 6.0416 0
M  V30 1543 H 131.756 -5.57499 5.44808 0
M  V30 1544 N 135.985 -1.50799 -0.457987 0
M  V30 1545 C 136.948 -1.7005 -1.53674 0
M  V30 1546 C 137.948 -0.570881 -1.50325 0
M  V30 1547 O 139.138 -0.838126 -1.52712 0
M  V30 1548 C 136.27 -1.73788 -2.93276 0
M  V30 1549 H 137.463 -2.66306 -1.37917 0
M  V30 1550 H 135.016 -1.40477 -0.685271 0
M  V30 1551 H 135.751 -0.792717 -3.14462 0
M  V30 1552 H 135.536 -2.55864 -2.97113 0
M  V30 1553 H 137.026 -1.90591 -3.71571 0
M  V30 1554 N 137.463 0.71206 -1.40597 0
M  V30 1555 C 138.71 1.47197 -1.39065 0
M  V30 1556 C 139.038 1.94499 0.00583891 0
M  V30 1557 O 138.293 1.68752 0.99102 0
M  V30 1558 C 138.592 2.71039 -2.32965 0
M  V30 1559 C 138.258 2.42484 -3.80148 0
M  V30 1560 C 136.92 2.34406 -4.20247 0
M  V30 1561 C 139.272 2.18598 -4.73143 0
M  V30 1562 C 136.6 2.00516 -5.51371 0
M  V30 1563 C 138.952 1.8622 -6.0457 0
M  V30 1564 C 137.616 1.76626 -6.43708 0
M  V30 1565 H 136.886 0.538634 -0.508876 0
M  V30 1566 H 139.533 0.815325 -1.73276 0
M  V30 1567 H 137.838 3.41558 -1.91951 0
M  V30 1568 H 139.535 3.29138 -2.29061 0
M  V30 1569 H 136.125 2.49659 -3.4838 0
M  V30 1570 H 140.309 2.23793 -4.42979 0
M  V30 1571 H 135.565 1.91628 -5.80593 0
M  V30 1572 H 139.739 1.66752 -6.76141 0
M  V30 1573 H 137.366 1.50133 -7.45228 0
M  V30 1574 N 138.941 1.26152 0.944643 0
M  V30 1575 C 140.181 1.12708 1.70517 0
M  V30 1576 C 140.545 -0.324727 1.89234 0
M  V30 1577 O 141.746 -0.581211 2.62441 0
M  V30 1578 C 140.017 1.8713 3.04495 0
M  V30 1579 S 141.576 1.89698 3.95677 0
M  V30 1580 H 138.394 0.402665 0.585988 0
M  V30 1581 H 140.996 1.59821 1.12594 0
M  V30 1582 H 139.7 2.91833 2.88551 0
M  V30 1583 H 139.231 1.40444 3.67477 0
M  V30 1584 H 141.246 0.981198 4.86402 0
M  V30 1585 N 140.419 -1.14872 1.07899 0
M  V30 1586 C 141.382 -2.17986 0.708161 0
M  V30 1587 C 142.382 -1.58775 -0.25442 0
M  V30 1588 O 143.572 -1.74166 -0.034645 0
M  V30 1589 C 140.704 -3.40871 0.0446929 0
M  V30 1590 H 141.897 -2.52306 1.62116 0
M  V30 1591 H 139.45 -1.2943 0.876218 0
M  V30 1592 H 140.185 -3.12124 -0.880281 0
M  V30 1593 H 139.97 -3.8511 0.737091 0
M  V30 1594 H 141.46 -4.17121 -0.19991 0
M  V30 1595 N 141.898 -0.863906 -1.31812 0
M  V30 1596 C 143.146 -0.470904 -1.96537 0
M  V30 1597 C 143.467 0.978771 -1.68657 0
M  V30 1598 O 142.737 1.6853 -0.998717 0
M  V30 1599 H 141.317 -0.171148 -0.72713 0
M  V30 1600 H 143.979 -1.10236 -1.60729 0
M  V30 1601 H 143.075 -0.623616 -3.05806 0
M  V30 1602 N 143.376 1.44774 -0.622745 0
M  V30 1603 C 144.624 2.01721 -0.123655 0
M  V30 1604 C 144.945 1.49172 1.25589 0
M  V30 1605 O 144.215 0.691974 1.83272 0
M  V30 1606 H 142.795 0.745777 -0.0427225 0
M  V30 1607 H 145.457 1.77382 -0.807559 0
M  V30 1608 H 144.553 3.11984 -0.0849534 0
M  V30 1609 N 144.854 0.36279 1.53368 0
M  V30 1610 C 146.131 -0.284021 1.93527 0
M  V30 1611 C 146.511 -1.66628 1.29608 0
M  V30 1612 O 145.859 -2.23942 0.45413 0
M  V30 1613 C 146.069 -0.337028 3.47369 0
M  V30 1614 C 147.417 -0.578708 4.20638 0
M  V30 1615 O 148.441 -0.418352 3.53735 0
M  V30 1616 O 147.3 -0.89074 5.39192 0
M  V30 1617 H 144.394 -0.169743 0.809393 0
M  V30 1618 H 146.94 0.41537 1.64538 0
M  V30 1619 H 145.712 0.632217 3.86159 0
M  V30 1620 H 145.335 -1.08243 3.82582 0
M  V30 1621 N 146.332 -1.57332 0.0918853 0
M  V30 1622 C 147.581 -1.93412 -0.572249 0
M  V30 1623 C 147.894 -0.975515 -1.69538 0
M  V30 1624 O 149.1 -1.22991 -2.42045 0
M  V30 1625 C 147.556 -3.43648 -1.0693 0
M  V30 1626 C 147.164 -4.47994 0.0239049 0
M  V30 1627 C 148.908 -3.88695 -1.70635 0
M  V30 1628 C 146.815 -5.89381 -0.488319 0
M  V30 1629 H 145.745 -0.721939 -0.217532 0
M  V30 1630 H 148.396 -1.82735 0.167369 0
M  V30 1631 H 146.778 -3.49466 -1.8625 0
M  V30 1632 H 147.952 -4.53815 0.799277 0
M  V30 1633 H 146.267 -4.12536 0.565946 0
M  V30 1634 H 148.864 -4.91725 -2.10025 0
M  V30 1635 H 149.207 -3.27166 -2.57426 0
M  V30 1636 H 149.74 -3.85564 -0.979023 0
M  V30 1637 H 146.479 -6.54602 0.342906 0
M  V30 1638 H 145.999 -5.87037 -1.23077 0
M  V30 1639 H 147.678 -6.39863 -0.958317 0
M  V30 1640 N 147.81 0.181792 -1.56548 0
M  V30 1641 C 149.226 0.53316 -1.50431 0
M  V30 1642 C 149.426 1.85184 -0.794297 0
M  V30 1643 O 148.482 2.50058 -0.350318 0
M  V30 1644 C 149.795 0.575597 -2.9514 0
M  V30 1645 C 151.343 0.663519 -3.05886 0
M  V30 1646 C 151.818 0.736946 -4.52032 0
M  V30 1647 N 153.309 0.800118 -4.56237 0
M  V30 1648 C 154.044 0.877327 -5.66649 0
M  V30 1649 N 153.54 0.916016 -6.86718 0
M  V30 1650 N 155.333 0.915542 -5.54594 0
M  V30 1651 H 147.484 -0.683025 -2.01118 0
M  V30 1652 H 149.747 -0.244988 -0.915797 0
M  V30 1653 H 149.453 -0.324482 -3.502 0
M  V30 1654 H 149.327 1.42572 -3.49218 0
M  V30 1655 H 151.714 1.55403 -2.50867 0
M  V30 1656 H 151.795 -0.21307 -2.54911 0
M  V30 1657 H 151.439 -0.149262 -5.07681 0
M  V30 1658 H 151.369 1.62953 -5.00753 0
M  V30 1659 H 153.86 0.778926 -3.69785 0
M  V30 1660 H 154.173 0.975813 -7.66614 0
M  V30 1661 H 152.518 0.884469 -6.89349 0
M  V30 1662 H 155.709 0.882245 -4.59711 0
M  V30 1663 H 155.882 0.972253 -6.40665 0
M  V30 1664 N 149.288 1.51039 0.449983 0
M  V30 1665 C 150.534 1.63322 1.20223 0
M  V30 1666 C 150.867 0.34241 1.91158 0
M  V30 1667 O 150.142 -0.657344 1.83055 0
M  V30 1668 C 150.425 2.82801 2.22925 0
M  V30 1669 C 150.278 4.21823 1.56157 0
M  V30 1670 C 151.597 2.97807 3.24035 0
M  V30 1671 H 148.716 0.594407 0.435718 0
M  V30 1672 H 151.358 1.83489 0.493136 0
M  V30 1673 H 149.508 2.65738 2.834 0
M  V30 1674 H 151.18 4.50526 0.991162 0
M  V30 1675 H 149.423 4.25105 0.864172 0
M  V30 1676 H 150.094 5.01391 2.30891 0
M  V30 1677 H 152.57 3.13497 2.73603 0
M  V30 1678 H 151.446 3.82992 3.93202 0
M  V30 1679 H 151.707 2.09328 3.89402 0
M  V30 1680 N 150.766 -0.704594 1.40972 0
M  V30 1681 C 152.015 -1.46018 1.39146 0
M  V30 1682 C 152.328 -1.956 0.000589254 0
M  V30 1683 O 153.534 -2.71137 -0.1403 0
M  V30 1684 C 151.99 -2.63996 2.4461 0
M  V30 1685 C 151.598 -2.21238 3.89561 0
M  V30 1686 C 153.342 -3.41677 2.51907 0
M  V30 1687 C 151.249 -3.3612 4.86598 0
M  V30 1688 H 150.179 -0.548444 0.517422 0
M  V30 1689 H 152.83 -0.765784 1.66757 0
M  V30 1690 H 151.212 -3.3566 2.10115 0
M  V30 1691 H 152.386 -1.56923 4.33257 0
M  V30 1692 H 150.701 -1.56574 3.85841 0
M  V30 1693 H 153.298 -4.27182 3.2159 0
M  V30 1694 H 153.641 -3.86247 1.55303 0
M  V30 1695 H 154.174 -2.77064 2.85448 0
M  V30 1696 H 150.913 -2.96572 5.84573 0
M  V30 1697 H 150.433 -3.99315 4.47557 0
M  V30 1698 H 152.112 -4.02029 5.06934 0
M  V30 1699 N 152.244 -1.26651 -0.937939 0
M  V30 1700 C 153.469 -1.15279 -1.72411 0
M  V30 1701 C 153.894 0.287866 -1.85884 0
M  V30 1702 O 153.252 1.20855 -1.35143 0
M  V30 1703 C 153.3 -1.83028 -3.10698 0
M  V30 1704 O 152.404 -1.12128 -3.96864 0
M  V30 1705 H 151.745 -0.401504 -0.528858 0
M  V30 1706 H 154.275 -1.67531 -1.1745 0
M  V30 1707 H 154.285 -1.89981 -3.6107 0
M  V30 1708 H 152.96 -2.87833 -3.00208 0
M  V30 1709 H 151.537 -1.13173 -3.55312 0
M  V30 1710 N 153.722 1.14298 -1.08507 0
M  V30 1711 C 154.632 2.23027 -0.727753 0
M  V30 1712 C 155.648 1.71952 0.26619 0
M  V30 1713 O 156.824 2.011 0.109882 0
M  V30 1714 C 153.889 3.46403 -0.143541 0
M  V30 1715 C 152.95 4.12413 -1.19223 0
M  V30 1716 C 152.183 5.29899 -0.635798 0
M  V30 1717 O 152.406 5.67796 0.544393 0
M  V30 1718 O 151.34 5.85717 -1.38634 0
M  V30 1719 H 155.166 2.55945 -1.63481 0
M  V30 1720 H 152.751 1.22248 -0.858817 0
M  V30 1721 H 154.633 4.21018 0.179404 0
M  V30 1722 H 153.308 3.15206 0.736659 0
M  V30 1723 H 152.215 3.39667 -1.56772 0
M  V30 1724 H 153.548 4.47718 -2.04474 0
M  V30 1725 N 155.201 0.870884 1.31352 0
M  V30 1726 C 156.164 0.332243 2.26779 0
M  V30 1727 C 157.164 -0.517302 1.52252 0
M  V30 1728 O 158.354 -0.326477 1.71113 0
M  V30 1729 C 155.486 -0.528066 3.36785 0
M  V30 1730 H 156.679 1.17469 2.75937 0
M  V30 1731 H 154.232 0.64655 1.423 0
M  V30 1732 H 154.967 -1.39167 2.92922 0
M  V30 1733 H 154.752 0.0802582 3.92018 0
M  V30 1734 H 156.242 -0.897179 4.07849 0
M  V30 1735 N 156.679 -1.44442 0.630414 0
M  V30 1736 C 157.589 -2.34476 -0.0761693 0
M  V30 1737 C 158.605 -1.52576 -0.836449 0
M  V30 1738 O 159.781 -1.85307 -0.788874 0
M  V30 1739 C 156.846 -3.30545 -1.04599 0
M  V30 1740 C 155.907 -4.28352 -0.28516 0
M  V30 1741 C 155.14 -5.19831 -1.20878 0
M  V30 1742 O 155.363 -5.15223 -2.44747 0
M  V30 1743 O 154.297 -5.97892 -0.693491 0
M  V30 1744 H 158.123 -2.96345 0.664324 0
M  V30 1745 H 155.708 -1.44203 0.39061 0
M  V30 1746 H 157.59 -3.89681 -1.60396 0
M  V30 1747 H 156.265 -2.7121 -1.76711 0
M  V30 1748 H 155.172 -3.72764 0.315837 0
M  V30 1749 H 156.505 -4.90605 0.395924 0
M  V30 1750 N 158.157 -0.370918 -1.53173 0
M  V30 1751 C 159.104 0.473035 -2.259 0
M  V30 1752 C 160.074 1.07311 -1.26781 0
M  V30 1753 O 161.259 1.1046 -1.55574 0
M  V30 1754 C 158.399 1.60405 -3.05556 0
M  V30 1755 C 157.512 1.02863 -4.19575 0
M  V30 1756 C 156.647 2.12918 -4.86661 0
M  V30 1757 C 155.686 1.52869 -5.92704 0
M  V30 1758 N 154.823 2.56779 -6.53459 0
M  V30 1759 H 159.663 -0.153649 -2.97604 0
M  V30 1760 H 157.2 -0.0875946 -1.46839 0
M  V30 1761 H 159.158 2.27034 -3.50016 0
M  V30 1762 H 157.788 2.20131 -2.36097 0
M  V30 1763 H 156.84 0.252465 -3.79561 0
M  V30 1764 H 158.152 0.549642 -4.95762 0
M  V30 1765 H 157.306 2.87356 -5.34333 0
M  V30 1766 H 156.045 2.6417 -4.09958 0
M  V30 1767 H 155.05 0.769479 -5.44389 0
M  V30 1768 H 156.275 1.02435 -6.7133 0
M  V30 1769 H 154.221 3.07235 -5.79606 0
M  V30 1770 H 154.138 2.13583 -7.25202 0
M  V30 1771 H 155.406 3.30903 -7.05779 0
M  V30 1772 N 159.635 1.57281 -0.100228 0
M  V30 1773 C 160.598 2.13158 0.842398 0
M  V30 1774 C 161.598 1.06202 1.20738 0
M  V30 1775 O 162.788 1.32066 1.13597 0
M  V30 1776 C 159.92 2.65639 2.13655 0
M  V30 1777 H 161.113 2.97766 0.357114 0
M  V30 1778 H 158.666 1.5559 0.148823 0
M  V30 1779 H 159.401 1.84566 2.66657 0
M  V30 1780 H 159.186 3.43844 1.88451 0
M  V30 1781 H 160.676 3.08846 2.81077 0
M  V30 1782 N 161.113 -0.173488 1.56642 0
M  V30 1783 C 162.06 -1.21482 1.96242 0
M  V30 1784 C 163.03 -1.44104 0.826027 0
M  V30 1785 O 164.215 -1.5688 1.08597 0
M  V30 1786 C 161.355 -2.54964 2.32567 0
M  V30 1787 C 160.468 -2.39739 3.59373 0
M  V30 1788 C 159.603 -3.66072 3.84921 0
M  V30 1789 C 158.642 -3.45771 5.05083 0
M  V30 1790 N 157.779 -4.64169 5.26775 0
M  V30 1791 H 162.619 -0.870123 2.85014 0
M  V30 1792 H 160.156 -0.418245 1.41029 0
M  V30 1793 H 162.114 -3.32758 2.5165 0
M  V30 1794 H 160.744 -2.87433 1.46908 0
M  V30 1795 H 159.796 -1.53131 3.48217 0
M  V30 1796 H 161.108 -2.20683 4.47326 0
M  V30 1797 H 160.262 -4.52303 4.0436 0
M  V30 1798 H 159.001 -3.88105 2.9534 0
M  V30 1799 H 158.006 -2.57927 4.85545 0
M  V30 1800 H 159.231 -3.25163 5.96193 0
M  V30 1801 H 157.177 -4.86425 4.40144 0
M  V30 1802 H 157.094 -4.48019 6.08946 0
M  V30 1803 H 158.362 -5.51689 5.5069 0
M  V30 1804 N 162.591 -1.51276 -0.441967 0
M  V30 1805 C 163.523 -1.68444 -1.55433 0
M  V30 1806 C 164.536 -0.565187 -1.52674 0
M  V30 1807 O 165.725 -0.839356 -1.57534 0
M  V30 1808 C 162.825 -1.67966 -2.94348 0
M  V30 1809 C 161.998 -2.964 -3.21661 0
M  V30 1810 C 161.057 -2.88171 -4.40277 0
M  V30 1811 O 160.083 -3.62119 -4.39157 0
M  V30 1812 N 161.285 -2.03706 -5.43584 0
M  V30 1813 H 164.05 -2.644 -1.41112 0
M  V30 1814 H 161.611 -1.49104 -0.630838 0
M  V30 1815 H 163.603 -1.60035 -3.71713 0
M  V30 1816 H 162.173 -0.796225 -3.0229 0
M  V30 1817 H 161.393 -3.18234 -2.32638 0
M  V30 1818 H 162.681 -3.81427 -3.36736 0
M  V30 1819 H 162.079 -1.42995 -5.47329 0
M  V30 1820 H 160.636 -2.01658 -6.1982 0
M  V30 1821 N 164.069 0.697108 -1.41344 0
M  V30 1822 C 165.016 1.81106 -1.43071 0
M  V30 1823 C 165.986 1.63632 -0.285275 0
M  V30 1824 O 167.171 1.84504 -0.486091 0
M  V30 1825 C 164.311 3.18975 -1.31715 0
M  V30 1826 C 163.424 3.47892 -2.56115 0
M  V30 1827 C 162.559 4.75367 -2.37064 0
M  V30 1828 C 161.598 4.97247 -3.56948 0
M  V30 1829 N 160.735 6.15947 -3.36977 0
M  V30 1830 H 165.575 1.78965 -2.38276 0
M  V30 1831 H 163.112 0.873975 -1.18322 0
M  V30 1832 H 165.07 3.98615 -1.23133 0
M  V30 1833 H 163.7 3.20297 -0.401183 0
M  V30 1834 H 162.752 2.62669 -2.75153 0
M  V30 1835 H 164.064 3.59962 -3.45295 0
M  V30 1836 H 163.218 5.63059 -2.25941 0
M  V30 1837 H 161.957 4.65541 -1.45338 0
M  V30 1838 H 160.962 4.08004 -3.68527 0
M  V30 1839 H 162.187 5.08934 -4.49626 0
M  V30 1840 H 160.133 6.07336 -2.47949 0
M  V30 1841 H 160.05 6.28777 -4.19732 0
M  V30 1842 H 161.318 7.06377 -3.29623 0
M  V30 1843 N 165.547 1.27147 0.931209 0
M  V30 1844 C 166.796 1.12664 1.67302 0
M  V30 1845 C 167.109 -0.327718 1.92835 0
M  V30 1846 O 168.315 -0.593392 2.64936 0
M  V30 1847 C 166.771 1.9683 3.01307 0
M  V30 1848 C 166.379 3.46901 2.83485 0
M  V30 1849 C 168.123 1.90985 3.79111 0
M  V30 1850 C 166.03 4.23279 4.13024 0
M  V30 1851 H 164.96 0.41803 0.627509 0
M  V30 1852 H 167.611 1.51539 1.03481 0
M  V30 1853 H 165.993 1.50797 3.66164 0
M  V30 1854 H 167.167 4.00773 2.27415 0
M  V30 1855 H 165.482 3.54088 2.19113 0
M  V30 1856 H 168.079 2.45328 4.75098 0
M  V30 1857 H 168.422 0.882718 4.06834 0
M  V30 1858 H 168.955 2.34895 3.21044 0
M  V30 1859 H 165.694 5.26503 3.90481 0
M  V30 1860 H 165.214 3.74186 4.6877 0
M  V30 1861 H 166.893 4.32265 4.81411 0
M  V30 1862 N 167.025 -1.13721 1.09112 0
M  V30 1863 C 167.988 -2.17222 0.731241 0
M  V30 1864 C 168.988 -1.59035 -0.237566 0
M  V30 1865 O 170.178 -1.74192 -0.0161704 0
M  V30 1866 C 167.31 -3.40804 0.0808443 0
M  V30 1867 H 168.503 -2.50573 1.64783 0
M  V30 1868 H 166.056 -1.28493 0.889897 0
M  V30 1869 H 166.791 -3.1304 -0.847127 0
M  V30 1870 H 166.576 -3.84306 0.777896 0
M  V30 1871 H 168.066 -4.1731 -0.155657 0
M  V30 1872 N 168.503 -0.877838 -1.30888 0
M  V30 1873 C 169.914 -0.544193 -1.78593 0
M  V30 1874 C 170.265 0.939301 -1.72254 0
M  V30 1875 O 169.39 1.7337 -1.29505 0
M  V30 1876 C 169.985 -0.98105 -3.24285 0
M  V30 1877 C 168.544 -0.698935 -3.69854 0
M  V30 1878 C 167.691 -1.168 -2.51502 0
M  V30 1879 H 170.642 -1.06278 -1.17859 0
M  V30 1880 H 170.663 -0.307009 -3.79259 0
M  V30 1881 H 170.175 -2.06079 -3.28866 0
M  V30 1882 H 168.276 0.369112 -3.70767 0
M  V30 1883 H 168.389 -1.28148 -4.61644 0
M  V30 1884 H 166.753 -0.587535 -2.47831 0
M  V30 1885 H 167.536 -2.25533 -2.58824 0
M  V30 1886 N 169.982 1.44106 -0.638065 0
M  V30 1887 C 171.228 2.02277 -0.145546 0
M  V30 1888 C 171.561 1.50125 1.23191 0
M  V30 1889 O 170.836 0.688133 1.8192 0
M  V30 1890 C 171.119 3.59829 -0.139791 0
M  V30 1891 C 170.972 4.22247 -1.55008 0
M  V30 1892 C 172.291 4.36873 0.531966 0
M  V30 1893 H 169.41 0.734992 -0.0543632 0
M  V30 1894 H 172.052 1.71592 -0.815863 0
M  V30 1895 H 170.202 3.86102 0.431007 0
M  V30 1896 H 171.874 4.07057 -2.1703 0
M  V30 1897 H 170.117 3.79476 -2.10191 0
M  V30 1898 H 170.788 5.31284 -1.49804 0
M  V30 1899 H 173.264 4.16074 0.0464781 0
M  V30 1900 H 172.14 5.4657 0.505206 0
M  V30 1901 H 172.401 4.11995 1.60352 0
M  V30 1902 N 171.46 0.379036 1.52974 0
M  V30 1903 C 172.707 -0.206421 2.01445 0
M  V30 1904 C 173.035 -1.47668 1.26587 0
M  V30 1905 O 172.29 -1.92514 0.351675 0
M  V30 1906 C 172.589 -0.53096 3.53434 0
M  V30 1907 C 172.255 0.646546 4.46241 0
M  V30 1908 C 170.917 0.969604 4.7133 0
M  V30 1909 C 173.269 1.43479 5.01062 0
M  V30 1910 C 170.597 2.08263 5.48492 0
M  V30 1911 C 172.949 2.53834 5.7944 0
M  V30 1912 C 171.613 2.86659 6.02812 0
M  V30 1913 H 170.883 -0.0755349 0.73714 0
M  V30 1914 H 173.53 0.514271 1.84465 0
M  V30 1915 H 171.835 -1.33285 3.68432 0
M  V30 1916 H 173.532 -0.996417 3.88423 0
M  V30 1917 H 170.122 0.384734 4.2687 0
M  V30 1918 H 174.306 1.19844 4.81613 0
M  V30 1919 H 169.562 2.34078 5.64816 0
M  V30 1920 H 173.736 3.15319 6.20924 0
M  V30 1921 H 171.363 3.73026 6.62387 0
M  V30 1922 N 172.938 -1.57226 0.108567 0
M  V30 1923 C 174.185 -1.94833 -0.551943 0
M  V30 1924 C 174.513 -0.991204 -1.67348 0
M  V30 1925 O 173.768 -0.0131878 -1.95696 0
M  V30 1926 C 174.067 -3.38911 -1.13463 0
M  V30 1927 C 173.733 -4.50696 -0.135509 0
M  V30 1928 C 172.395 -4.80998 0.139252 0
M  V30 1929 C 174.747 -5.18333 0.545957 0
M  V30 1930 C 172.075 -5.76259 1.10194 0
M  V30 1931 C 174.427 -6.14627 1.49721 0
M  V30 1932 C 173.091 -6.43327 1.78006 0
M  V30 1933 H 172.361 -0.712944 -0.20197 0
M  V30 1934 H 175.008 -1.90582 0.18726 0
M  V30 1935 H 173.313 -3.39805 -1.95037 0
M  V30 1936 H 175.01 -3.65317 -1.65362 0
M  V30 1937 H 171.6 -4.27087 -0.359846 0
M  V30 1938 H 175.784 -4.95087 0.346842 0
M  V30 1939 H 171.04 -5.96804 1.32795 0
M  V30 1940 H 175.214 -6.66126 2.03099 0
M  V30 1941 H 172.841 -7.1695 2.52759 0
M  V30 1942 N 174.416 0.165178 -1.56732 0
M  V30 1943 C 175.832 0.517174 -1.50988 0
M  V30 1944 C 176.032 1.84331 -0.813894 0
M  V30 1945 O 175.088 2.49672 -0.37682 0
M  V30 1946 C 176.401 0.544261 -2.95733 0
M  V30 1947 C 177.949 0.631039 -3.06573 0
M  V30 1948 C 178.424 0.68896 -4.52788 0
M  V30 1949 N 179.915 0.751683 -4.5706 0
M  V30 1950 C 180.65 0.817177 -5.67547 0
M  V30 1951 N 180.146 0.843129 -6.8765 0
M  V30 1952 N 181.939 0.856668 -5.55534 0
M  V30 1953 H 174.09 -0.704318 -2.00382 0
M  V30 1954 H 176.353 -0.254687 -0.913148 0
M  V30 1955 H 176.059 -0.361607 -3.49836 0
M  V30 1956 H 175.933 1.3886 -3.5071 0
M  V30 1957 H 178.32 1.52733 -2.52501 0
M  V30 1958 H 178.401 -0.240095 -2.54671 0
M  V30 1959 H 178.045 -0.2031 -5.07494 0
M  V30 1960 H 177.975 1.57633 -5.02454 0
M  V30 1961 H 180.466 0.739661 -3.70591 0
M  V30 1962 H 180.779 0.894448 -7.67606 0
M  V30 1963 H 179.124 0.811304 -6.90248 0
M  V30 1964 H 182.315 0.833437 -4.60621 0
M  V30 1965 H 182.488 0.904247 -6.4166 0
M  V30 1966 N 175.894 1.51508 0.433938 0
M  V30 1967 C 176.804 1.75917 1.5521 0
M  V30 1968 C 177.82 0.643545 1.61662 0
M  V30 1969 O 178.996 0.926183 1.7884 0
M  V30 1970 C 176.061 1.88213 2.91164 0
M  V30 1971 C 175.122 3.12074 2.94802 0
M  V30 1972 C 174.355 3.23774 4.24271 0
M  V30 1973 O 174.578 2.4133 5.16833 0
M  V30 1974 O 173.512 4.16774 4.34262 0
M  V30 1975 H 177.338 2.70777 1.37527 0
M  V30 1976 H 174.923 1.36051 0.617293 0
M  V30 1977 H 176.805 1.98267 3.71845 0
M  V30 1978 H 175.48 0.965413 3.08968 0
M  V30 1979 H 174.387 3.07497 2.13065 0
M  V30 1980 H 175.72 4.03446 2.81943 0
M  V30 1981 N 177.372 -0.689602 1.41712 0
M  V30 1982 C 178.282 -1.83314 1.46401 0
M  V30 1983 C 179.298 -1.7036 0.35405 0
M  V30 1984 O 180.474 -1.92171 0.602692 0
M  V30 1985 C 177.539 -3.19344 1.34982 0
M  V30 1986 C 176.6 -3.44363 2.56344 0
M  V30 1987 C 175.833 -4.73904 2.45461 0
M  V30 1988 O 176.056 -5.508 1.48241 0
M  V30 1989 O 174.99 -4.99839 3.35328 0
M  V30 1990 H 178.816 -1.82314 2.42889 0
M  V30 1991 H 176.401 -0.843438 1.23315 0
M  V30 1992 H 178.283 -4.00547 1.3092 0
M  V30 1993 H 176.958 -3.21014 0.41612 0
M  V30 1994 H 175.865 -2.63067 2.65982 0
M  V30 1995 H 177.198 -3.47512 3.48563 0
M  V30 1996 N 178.85 -1.27639 -0.924453 0
M  V30 1997 C 180.08 -1.16819 -1.70402 0
M  V30 1998 C 180.488 0.277191 -1.87158 0
M  V30 1999 O 179.831 1.20025 -1.39067 0
M  V30 2000 C 179.893 -1.78305 -3.12166 0
M  V30 2001 C 179.557 -3.27502 -3.18734 0
M  V30 2002 C 180.554 -4.2409 -3.00738 0
M  V30 2003 C 178.239 -3.68269 -3.4159 0
M  V30 2004 C 180.233 -5.59422 -3.05492 0
M  V30 2005 C 177.92 -5.0373 -3.45977 0
M  V30 2006 C 178.918 -5.99116 -3.27946 0
M  V30 2007 O 178.606 -7.32108 -3.32074 0
M  V30 2008 H 178.338 -0.406931 -0.539799 0
M  V30 2009 H 180.892 -1.69078 -1.16626 0
M  V30 2010 H 179.122 -1.20528 -3.67437 0
M  V30 2011 H 180.811 -1.62154 -3.72103 0
M  V30 2012 H 181.577 -3.93931 -2.82919 0
M  V30 2013 H 177.456 -2.94496 -3.54673 0
M  V30 2014 H 181 -6.33852 -2.91337 0
M  V30 2015 H 176.897 -5.33543 -3.63321 0
M  V30 2016 H 177.665 -7.40598 -3.48507 0
M  V30 2017 N 180.328 1.1314 -1.09713 0
M  V30 2018 C 181.261 2.17735 -0.683137 0
M  V30 2019 C 182.239 1.59582 0.311841 0
M  V30 2020 O 183.423 1.87298 0.212514 0
M  V30 2021 C 180.55 3.38699 -0.00684324 0
M  V30 2022 C 179.596 4.1546 -0.964102 0
M  V30 2023 S 180.429 4.74733 -2.47767 0
M  V30 2024 C 181.585 5.9904 -1.81387 0
M  V30 2025 H 181.818 2.52515 -1.56918 0
M  V30 2026 H 179.351 1.24484 -0.913404 0
M  V30 2027 H 181.309 4.08765 0.377044 0
M  V30 2028 H 179.97 3.02214 0.85589 0
M  V30 2029 H 179.163 5.02093 -0.43803 0
M  V30 2030 H 178.765 3.51066 -1.28953 0
M  V30 2031 H 181.057 6.67846 -1.13967 0
M  V30 2032 H 182 6.56261 -2.65947 0
M  V30 2033 H 182.408 5.4976 -1.28155 0
M  V30 2034 N 181.806 0.884767 1.30421 0
M  V30 2035 C 182.736 0.367574 2.30589 0
M  V30 2036 C 183.717 -0.549464 1.60981 0
M  V30 2037 O 184.902 -0.46336 1.88591 0
M  V30 2038 C 182.032 -0.418944 3.44764 0
M  V30 2039 C 180.986 0.406316 4.26067 0
M  V30 2040 C 180.312 -0.506793 5.32293 0
M  V30 2041 C 181.612 1.64832 4.95608 0
M  V30 2042 H 183.306 1.20462 2.74097 0
M  V30 2043 H 180.852 0.580695 1.31772 0
M  V30 2044 H 182.805 -0.791395 4.13902 0
M  V30 2045 H 181.529 -1.28964 3.0006 0
M  V30 2046 H 180.188 0.760903 3.58617 0
M  V30 2047 H 179.836 -1.37519 4.83836 0
M  V30 2048 H 179.536 0.0415828 5.87585 0
M  V30 2049 H 181.06 -0.875764 6.04287 0
M  V30 2050 H 182.474 1.34646 5.57264 0
M  V30 2051 H 180.871 2.13688 5.60765 0
M  V30 2052 H 181.941 2.39284 4.21748 0
M  V30 2053 N 183.284 -1.43765 0.645699 0
M  V30 2054 C 184.232 -2.32516 -0.0624849 0
M  V30 2055 C 185.226 -1.48183 -0.820855 0
M  V30 2056 O 186.432 -1.64439 -0.732106 0
M  V30 2057 H 182.807 -0.750989 -0.0389864 0
M  V30 2058 H 184.778 -2.89979 0.703892 0
M  V30 2059 C 183.527 -3.32389 -1.02044 0
M  V30 2060 H 182.85 -3.97301 -0.446312 0
M  V30 2061 H 184.29 -3.97138 -1.48517 0
M  V30 2062 C 182.749 -2.62416 -2.11281 0
M  V30 2063 O 183.279 -2.434 -3.19561 0
M  V30 2064 N 181.485 -2.21913 -1.87624 0
M  V30 2065 H 181.032 -2.37578 -0.995703 0
M  V30 2066 H 180.99 -1.75424 -2.6091 0
M  V30 2067 N 184.763 -0.387143 -1.52771 0
M  V30 2068 C 185.711 0.463953 -2.27926 0
M  V30 2069 C 186.705 1.06493 -1.31741 0
M  V30 2070 O 187.911 1.00565 -1.49287 0
M  V30 2071 H 184.286 0.16837 -0.732909 0
M  V30 2072 H 186.257 -0.19141 -2.97785 0
M  V30 2073 C 185.006 1.5803 -3.09713 0
M  V30 2074 H 184.329 1.12718 -3.83581 0
M  V30 2075 H 185.769 2.15008 -3.65442 0
M  V30 2076 C 184.228 2.53509 -2.2189 0
M  V30 2077 O 184.758 3.56863 -1.84422 0
M  V30 2078 N 182.964 2.23199 -1.86093 0
M  V30 2079 H 182.511 1.39185 -2.16761 0
M  V30 2080 H 182.469 2.87333 -1.27621 0
M  V30 2081 N 186.241 1.57166 -0.116904 0
M  V30 2082 C 187.204 2.14039 0.819742 0
M  V30 2083 C 188.204 1.07477 1.19605 0
M  V30 2084 O 189.394 1.33263 1.1219 0
M  V30 2085 C 186.526 2.67891 2.10826 0
M  V30 2086 H 187.719 2.98128 0.325511 0
M  V30 2087 H 185.272 1.55739 0.132312 0
M  V30 2088 H 186.007 1.87384 2.64685 0
M  V30 2089 H 185.792 3.45823 1.84793 0
M  V30 2090 H 187.282 3.11809 2.77785 0
M  V30 2091 N 187.719 -0.156864 1.56817 0
M  V30 2092 C 188.965 -0.872416 1.83076 0
M  V30 2093 C 189.298 -1.81261 0.697001 0
M  V30 2094 O 188.573 -1.92171 -0.30008 0
M  V30 2095 C 188.856 -1.65551 3.19789 0
M  V30 2096 C 188.709 -0.737467 4.43713 0
M  V30 2097 C 190.028 -2.62012 3.53606 0
M  V30 2098 H 187.147 -0.315715 0.665953 0
M  V30 2099 H 189.789 -0.138004 1.89498 0
M  V30 2100 H 187.939 -2.28159 3.14445 0
M  V30 2101 H 189.611 -0.123143 4.61136 0
M  V30 2102 H 187.854 -0.0464067 4.33775 0
M  V30 2103 H 188.525 -1.32122 5.35955 0
M  V30 2104 H 191.001 -2.09525 3.59497 0
M  V30 2105 H 189.877 -3.13861 4.50314 0
M  V30 2106 H 190.138 -3.42902 2.79053 0
M  V30 2107 N 189.197 -1.51736 -0.425897 0
M  V30 2108 C 190.445 -1.64644 -1.17204 0
M  V30 2109 C 190.766 -0.370486 -1.91448 0
M  V30 2110 O 190.036 0.614088 -1.86026 0
M  V30 2111 H 188.616 -0.606819 -0.435638 0
M  V30 2112 H 191.278 -1.88713 -0.487177 0
M  V30 2113 H 190.374 -2.47958 -1.89534 0
M  V30 2114 N 190.675 0.682077 -1.42076 0
M  V30 2115 C 191.9 1.47558 -1.45744 0
M  V30 2116 C 192.325 1.87977 -0.0680981 0
M  V30 2117 O 191.683 1.55522 0.9318 0
M  V30 2118 C 191.731 2.70575 -2.38373 0
M  V30 2119 O 190.835 3.68573 -1.85007 0
M  V30 2120 H 190.176 0.443585 -0.494093 0
M  V30 2121 H 192.706 0.837238 -1.86686 0
M  V30 2122 H 192.716 3.18729 -2.54707 0
M  V30 2123 H 191.391 2.40495 -3.39315 0
M  V30 2124 H 189.968 3.2757 -1.78192 0
M  V30 2125 N 192.153 1.28127 0.917671 0
M  V30 2126 C 193.393 1.163 1.68088 0
M  V30 2127 C 193.757 -0.284515 1.8988 0
M  V30 2128 O 194.958 -0.525413 2.63615 0
M  V30 2129 C 193.229 1.93546 3.00457 0
M  V30 2130 S 194.788 1.98048 3.91564 0
M  V30 2131 H 191.606 0.415005 0.577315 0
M  V30 2132 H 194.208 1.62173 1.09179 0
M  V30 2133 H 192.912 2.97888 2.82295 0
M  V30 2134 H 192.443 1.48207 3.64415 0
M  V30 2135 H 194.458 1.08415 4.84211 0
M  V30 2136 N 193.631 -1.12557 1.10312 0
M  V30 2137 C 194.563 -2.17971 0.708625 0
M  V30 2138 C 195.576 -1.60806 -0.254027 0
M  V30 2139 O 196.765 -1.78458 -0.0386891 0
M  V30 2140 C 193.865 -3.38891 0.0248198 0
M  V30 2141 C 193.038 -4.25548 1.01132 0
M  V30 2142 C 192.097 -5.24972 0.35924 0
M  V30 2143 O 191.123 -5.60174 1.00965 0
M  V30 2144 N 192.325 -5.73747 -0.882847 0
M  V30 2145 H 195.09 -2.52427 1.61557 0
M  V30 2146 H 192.651 -1.27967 0.991771 0
M  V30 2147 H 194.643 -4.02485 -0.422852 0
M  V30 2148 H 193.213 -3.02596 -0.784514 0
M  V30 2149 H 192.433 -3.58589 1.6373 0
M  V30 2150 H 193.721 -4.80294 1.67914 0
M  V30 2151 H 193.119 -5.4731 -1.43065 0
M  V30 2152 H 191.676 -6.39234 -1.27369 0
M  V30 2153 N 195.109 -0.891671 -1.2995 0
M  V30 2154 C 196.056 -0.361736 -2.27948 0
M  V30 2155 C 197.026 0.551761 -1.56668 0
M  V30 2156 O 198.211 0.478736 -1.84696 0
M  V30 2157 C 195.351 0.411825 -3.42634 0
M  V30 2158 C 194.464 -0.531651 -4.28716 0
M  V30 2159 C 193.599 0.258167 -5.30572 0
M  V30 2160 C 192.638 -0.680349 -6.08307 0
M  V30 2161 N 191.775 0.0745613 -7.0206 0
M  V30 2162 H 196.615 -1.20254 -2.72659 0
M  V30 2163 H 194.152 -0.604352 -1.34112 0
M  V30 2164 H 196.11 0.876304 -4.07893 0
M  V30 2165 H 194.74 1.21715 -2.98974 0
M  V30 2166 H 193.792 -1.11463 -3.63703 0
M  V30 2167 H 195.104 -1.25038 -4.82874 0
M  V30 2168 H 194.258 0.784204 -6.0161 0
M  V30 2169 H 192.997 1.01008 -4.77126 0
M  V30 2170 H 192.002 -1.21796 -5.3614 0
M  V30 2171 H 193.227 -1.43145 -6.63842 0
M  V30 2172 H 191.173 0.808883 -6.50994 0
M  V30 2173 H 191.09 -0.584409 -7.53738 0
M  V30 2174 H 192.358 0.581123 -7.77331 0
M  V30 2175 N 196.587 1.43421 -0.653314 0
M  V30 2176 C 197.998 1.85065 -0.246537 0
M  V30 2177 C 198.349 1.54688 1.2069 0
M  V30 2178 O 197.474 0.995896 1.92122 0
M  V30 2179 C 198.069 3.35922 -0.440666 0
M  V30 2180 C 196.628 3.76297 -0.0882064 0
M  V30 2181 C 195.775 2.67147 -0.743484 0
M  V30 2182 H 198.726 1.33572 -0.856979 0
M  V30 2183 H 198.747 3.79204 0.313798 0
M  V30 2184 H 198.259 3.58 -1.49858 0
M  V30 2185 H 196.36 3.5983 0.96711 0
M  V30 2186 H 196.473 4.76338 -0.513738 0
M  V30 2187 H 194.837 2.54086 -0.176712 0
M  V30 2188 H 195.62 2.92053 -1.80443 0
M  V30 2189 N 198.065 0.39524 1.52563 0
M  V30 2190 C 199.295 -0.184675 2.05773 0
M  V30 2191 C 199.703 -1.40571 1.26635 0
M  V30 2192 O 199.046 -1.81105 0.30769 0
M  V30 2193 C 199.108 -0.613551 3.54226 0
M  V30 2194 C 198.772 0.49484 4.54313 0
M  V30 2195 C 199.769 1.3541 5.01956 0
M  V30 2196 C 197.454 0.663565 4.97898 0
M  V30 2197 C 199.448 2.36716 5.91814 0
M  V30 2198 C 197.135 1.67996 5.87555 0
M  V30 2199 C 198.133 2.53017 6.34406 0
M  V30 2200 O 197.821 3.52917 7.22291 0
M  V30 2201 H 197.553 -0.030077 0.675331 0
M  V30 2202 H 200.107 0.560708 1.97599 0
M  V30 2203 H 198.337 -1.411 3.60038 0
M  V30 2204 H 200.026 -1.11981 3.90148 0
M  V30 2205 H 200.792 1.23509 4.6901 0
M  V30 2206 H 196.671 0.0114913 4.60999 0
M  V30 2207 H 200.215 3.03113 6.28306 0
M  V30 2208 H 196.112 1.79933 6.19915 0
M  V30 2209 H 196.88 3.48996 7.40367 0
M  V30 2210 N 199.544 -1.57102 0.125237 0
M  V30 2211 C 200.79 -1.95697 -0.532035 0
M  V30 2212 C 201.123 -1.009 -1.6593 0
M  V30 2213 O 200.398 -0.047347 -1.94442 0
M  V30 2214 C 200.681 -3.44181 -1.05884 0
M  V30 2215 C 200.534 -4.49752 0.0654392 0
M  V30 2216 C 201.853 -3.94655 -1.9477 0
M  V30 2217 H 198.972 -0.711571 -0.191925 0
M  V30 2218 H 201.614 -1.88923 0.20206 0
M  V30 2219 H 199.764 -3.50085 -1.68442 0
M  V30 2220 H 201.436 -4.55943 0.700982 0
M  V30 2221 H 199.679 -4.27653 0.727709 0
M  V30 2222 H 200.35 -5.50924 -0.344505 0
M  V30 2223 H 202.826 -3.91094 -1.42074 0
M  V30 2224 H 201.702 -4.99057 -2.28546 0
M  V30 2225 H 201.963 -3.35718 -2.87656 0
M  V30 2226 N 201.022 0.148545 -1.56898 0
M  V30 2227 C 201.985 1.16736 -1.97244 0
M  V30 2228 C 202.985 1.35947 -0.858777 0
M  V30 2229 O 204.175 1.32966 -1.12542 0
M  V30 2230 C 201.307 2.52798 -2.28705 0
M  V30 2231 H 202.5 0.821279 -2.88435 0
M  V30 2232 H 200.053 0.391831 -1.51309 0
M  V30 2233 H 200.788 2.92381 -1.403 0
M  V30 2234 H 200.573 2.40216 -3.09901 0
M  V30 2235 H 202.063 3.26179 -2.60762 0
M  V30 2236 N 202.5 1.5196 0.417844 0
M  V30 2237 C 203.43 1.77634 1.51554 0
M  V30 2238 C 204.411 0.626918 1.58126 0
M  V30 2239 O 205.596 0.871632 1.7354 0
M  V30 2240 C 202.726 1.91911 2.8946 0
M  V30 2241 C 201.68 3.07463 2.97743 0
M  V30 2242 C 201.006 3.06951 4.37819 0
M  V30 2243 C 202.306 4.47082 2.70027 0
M  V30 2244 H 204 2.6955 1.3032 0
M  V30 2245 H 201.546 1.29706 0.625492 0
M  V30 2246 H 203.499 2.08455 3.6623 0
M  V30 2247 H 202.223 0.966598 3.11969 0
M  V30 2248 H 200.882 2.90656 2.23416 0
M  V30 2249 H 200.53 2.09438 4.57323 0
M  V30 2250 H 200.23 3.84556 4.44286 0
M  V30 2251 H 201.754 3.25613 5.16535 0
M  V30 2252 H 203.168 4.6414 3.36522 0
M  V30 2253 H 201.565 5.2654 2.87881 0
M  V30 2254 H 202.635 4.55777 1.65514 0
M  V30 2255 N 203.978 -0.674533 1.42435 0
M  V30 2256 C 205.227 -1.43034 1.42212 0
M  V30 2257 C 205.54 -1.95555 0.0420788 0
M  V30 2258 O 206.746 -2.71374 -0.0827558 0
M  V30 2259 C 205.202 -2.58748 2.50155 0
M  V30 2260 C 204.81 -2.12925 3.94166 0
M  V30 2261 C 206.554 -3.36257 2.59098 0
M  V30 2262 C 204.461 -3.25723 4.93618 0
M  V30 2263 H 203.391 -0.537345 0.528939 0
M  V30 2264 H 206.042 -0.73024 1.68344 0
M  V30 2265 H 204.424 -3.31128 2.17188 0
M  V30 2266 H 205.598 -1.47697 4.36488 0
M  V30 2267 H 203.913 -1.48354 3.89076 0
M  V30 2268 H 206.51 -4.20264 3.30578 0
M  V30 2269 H 206.853 -3.82866 1.63461 0
M  V30 2270 H 207.386 -2.70947 2.9126 0
M  V30 2271 H 204.125 -2.84105 5.90732 0
M  V30 2272 H 203.645 -3.89732 4.55926 0
M  V30 2273 H 205.324 -3.91186 5.15347 0
M  V30 2274 N 205.456 -1.28612 -0.910864 0
M  V30 2275 C 206.406 -1.09423 -2.00026 0
M  V30 2276 C 207.39 -0.0170079 -1.60891 0
M  V30 2277 O 208.582 -0.237472 -1.754 0
M  V30 2278 C 205.711 -0.76114 -3.34756 0
M  V30 2279 C 204.797 -1.87735 -3.80285 0
M  V30 2280 N 205.188 -3.11938 -3.98156 0
M  V30 2281 C 203.486 -1.76786 -4.09467 0
M  V30 2282 C 204.187 -3.84687 -4.36338 0
M  V30 2283 N 203.163 -3.12555 -4.44759 0
M  V30 2284 H 206.965 -2.03658 -2.11898 0
M  V30 2285 H 204.479 -1.19573 -1.09891 0
M  V30 2286 H 206.476 -0.604743 -4.12491 0
M  V30 2287 H 205.136 0.173403 -3.24237 0
M  V30 2288 H 206.147 -3.47516 -3.83996 0
M  V30 2289 H 202.824 -0.905284 -4.07567 0
M  V30 2290 H 204.214 -4.91518 -4.58104 0
M  V30 2291 N 206.934 1.1197 -1.10907 0
M  V30 2292 C 208.182 1.83225 -0.852819 0
M  V30 2293 C 208.503 1.84769 0.623341 0
M  V30 2294 O 207.773 1.3143 1.45269 0
M  V30 2295 H 206.353 0.67849 -0.312507 0
M  V30 2296 H 209.015 1.3556 -1.40033 0
M  V30 2297 H 208.111 2.87265 -1.22005 0
M  V30 2298 N 208.412 0.89855 1.29475 0
M  V30 2299 C 209.661 0.519863 1.94885 0
M  V30 2300 C 209.974 -0.9383 1.71625 0
M  V30 2301 O 211.18 -1.42445 2.31131 0
M  V30 2302 C 209.636 0.878836 3.49005 0
M  V30 2303 C 209.244 2.35569 3.81066 0
M  V30 2304 C 210.988 0.570004 4.20656 0
M  V30 2305 C 208.895 2.65558 5.28425 0
M  V30 2306 H 207.825 0.190692 0.729488 0
M  V30 2307 H 210.476 1.09539 1.47219 0
M  V30 2308 H 208.858 0.232253 3.95318 0
M  V30 2309 H 210.032 3.04773 3.45616 0
M  V30 2310 H 208.347 2.63343 3.22552 0
M  V30 2311 H 210.944 0.770925 5.29113 0
M  V30 2312 H 211.287 -0.491404 4.1339 0
M  V30 2313 H 211.82 1.17438 3.8007 0
M  V30 2314 H 208.559 3.70493 5.40754 0
M  V30 2315 H 208.079 2.00977 5.65127 0
M  V30 2316 H 209.758 2.51765 5.96006 0
M  V30 2317 N 209.89 -1.43072 0.660911 0
M  V30 2318 C 211.118 -2.06067 0.185422 0
M  V30 2319 C 211.533 -1.49582 -1.15198 0
M  V30 2320 O 210.89 -0.630134 -1.71276 0
M  V30 2321 C 210.941 -3.61371 0.0966523 0
M  V30 2322 O 210.662 -4.15758 1.38119 0
M  V30 2323 C 212.163 -4.41455 -0.403996 0
M  V30 2324 H 209.383 -0.664459 0.0934604 0
M  V30 2325 H 211.927 -1.83447 0.90373 0
M  V30 2326 H 210.082 -3.8315 -0.572259 0
M  V30 2327 H 210.496 -5.09499 1.24542 0
M  V30 2328 H 211.97 -5.50437 -0.415045 0
M  V30 2329 H 212.447 -4.15036 -1.43674 0
M  V30 2330 H 213.053 -4.24663 0.232691 0
M  V30 2331 N 211.368 -0.403325 -1.52352 0
M  V30 2332 C 212.301 0.469463 -2.23319 0
M  V30 2333 C 213.279 1.05272 -1.23922 0
M  V30 2334 O 214.463 1.10169 -1.52954 0
M  V30 2335 C 211.59 1.6511 -2.9573 0
M  V30 2336 C 210.636 1.19178 -4.0951 0
M  V30 2337 S 211.469 0.161718 -5.35256 0
M  V30 2338 C 212.625 1.34882 -6.11194 0
M  V30 2339 H 212.858 -0.133134 -2.97002 0
M  V30 2340 H 210.391 -0.187588 -1.53256 0
M  V30 2341 H 212.349 2.3287 -3.38056 0
M  V30 2342 H 211.01 2.22503 -2.21701 0
M  V30 2343 H 210.203 2.07444 -4.59329 0
M  V30 2344 H 209.805 0.592911 -3.6927 0
M  V30 2345 H 212.097 2.27345 -6.38217 0
M  V30 2346 H 213.04 0.89128 -7.02468 0
M  V30 2347 H 213.448 1.57198 -5.42171 0
M  V30 2348 N 212.846 1.57033 -0.133567 0
M  V30 2349 C 214.094 1.953 0.519848 0
M  V30 2350 C 214.415 1.01866 1.66278 0
M  V30 2351 O 213.685 0.0776513 1.95746 0
M  V30 2352 H 212.265 0.721091 0.195032 0
M  V30 2353 H 214.927 1.93809 -0.205921 0
M  V30 2354 H 214.023 2.98695 0.904854 0
M  V30 2355 N 214.325 -0.140222 1.56975 0
M  V30 2356 C 215.573 -0.850005 1.83356 0
M  V30 2357 C 215.894 -1.81399 0.71551 0
M  V30 2358 O 215.164 -1.94136 -0.262294 0
M  V30 2359 H 213.744 -0.316886 0.676456 0
M  V30 2360 H 216.406 -0.132608 1.94448 0
M  V30 2361 H 215.502 -1.40814 2.78528 0
M  V30 2362 N 215.803 -1.52179 -0.40978 0
M  V30 2363 C 217.051 -1.65878 -1.15451 0
M  V30 2364 C 217.372 -0.390771 -1.91044 0
M  V30 2365 O 216.642 0.594323 -1.86667 0
M  V30 2366 H 215.222 -0.611405 -0.429177 0
M  V30 2367 H 217.884 -1.89219 -0.467134 0
M  V30 2368 H 216.98 -2.49954 -1.86894 0
M  V30 2369 N 217.281 0.66697 -1.42791 0
M  V30 2370 C 218.527 1.4291 -1.43891 0
M  V30 2371 C 218.86 1.94114 -0.0578972 0
M  V30 2372 O 218.135 1.71414 0.91911 0
M  V30 2373 C 218.418 2.62049 -2.46987 0
M  V30 2374 C 218.271 2.16426 -3.94309 0
M  V30 2375 C 219.59 3.64266 -2.46978 0
M  V30 2376 H 216.709 0.518306 -0.523954 0
M  V30 2377 H 219.351 0.757321 -1.74255 0
M  V30 2378 H 217.501 3.19361 -2.21225 0
M  V30 2379 H 219.173 1.64221 -4.31079 0
M  V30 2380 H 217.416 1.47925 -4.078 0
M  V30 2381 H 218.087 3.02038 -4.62036 0
M  V30 2382 H 220.563 3.16686 -2.69906 0
M  V30 2383 H 219.439 4.45196 -3.21079 0
M  V30 2384 H 219.7 4.15927 -1.49857 0
M  V30 2385 N 218.759 1.29093 0.90403 0
M  V30 2386 C 220.007 1.16583 1.65085 0
M  V30 2387 C 220.328 -0.283933 1.92922 0
M  V30 2388 O 219.598 -1.19509 1.55224 0
M  V30 2389 H 218.178 0.428467 0.611903 0
M  V30 2390 H 220.84 1.61959 1.08422 0
M  V30 2391 H 219.936 1.71266 2.6091 0
M  V30 2392 N 220.237 -1.11381 1.11499 0
M  V30 2393 C 221.167 -2.19509 0.796125 0
M  V30 2394 C 222.148 -1.68458 -0.235796 0
M  V30 2395 O 223.333 -1.93947 -0.0991344 0
M  V30 2396 C 220.463 -3.46475 0.239205 0
M  V30 2397 C 219.417 -4.10744 1.20307 0
M  V30 2398 C 218.743 -5.32293 0.50683 0
M  V30 2399 C 220.043 -4.55597 2.55399 0
M  V30 2400 H 221.737 -2.46439 1.70024 0
M  V30 2401 H 219.283 -1.18446 0.818935 0
M  V30 2402 H 221.236 -4.214 0.00392006 0
M  V30 2403 H 219.96 -3.19006 -0.700206 0
M  V30 2404 H 218.619 -3.37813 1.42399 0
M  V30 2405 H 218.267 -5.01095 -0.437408 0
M  V30 2406 H 217.967 -5.76243 1.1497 0
M  V30 2407 H 219.491 -6.09956 0.280351 0
M  V30 2408 H 220.905 -5.21841 2.37391 0
M  V30 2409 H 219.302 -5.10363 3.15673 0
M  V30 2410 H 220.372 -3.69013 3.14575 0
M  V30 2411 N 221.715 -0.905404 -1.28997 0
M  V30 2412 C 222.94 -0.549175 -1.99997 0
M  V30 2413 C 223.365 0.860276 -1.67275 0
M  V30 2414 O 222.723 1.57355 -0.900502 0
M  V30 2415 C 222.771 -0.755185 -3.52604 0
M  V30 2416 O 221.875 0.189692 -4.11964 0
M  V30 2417 H 221.216 -0.213899 -0.628604 0
M  V30 2418 H 223.746 -1.21856 -1.64354 0
M  V30 2419 H 223.756 -0.662045 -4.02593 0
M  V30 2420 H 222.431 -1.78271 -3.75755 0
M  V30 2421 H 221.008 0.0485257 -3.72868 0
M  V30 2422 N 223.193 1.4272 -0.668489 0
M  V30 2423 C 224.439 2.01923 -0.188419 0
M  V30 2424 C 224.772 1.52704 1.19979 0
M  V30 2425 O 224.047 0.726566 1.8042 0
M  V30 2426 C 224.33 3.59451 -0.216085 0
M  V30 2427 C 224.183 4.18864 -1.6393 0
M  V30 2428 C 225.502 4.37903 0.439179 0
M  V30 2429 H 222.621 0.733674 -0.0699412 0
M  V30 2430 H 225.263 1.69822 -0.852076 0
M  V30 2431 H 223.413 3.86929 0.349012 0
M  V30 2432 H 225.085 4.02362 -2.25616 0
M  V30 2433 H 223.328 3.74933 -2.18193 0
M  V30 2434 H 223.999 5.27987 -1.61039 0
M  V30 2435 H 226.475 4.16079 -0.0417878 0
M  V30 2436 H 225.351 5.47519 0.389157 0
M  V30 2437 H 225.612 4.15303 1.51577 0
M  V30 2438 N 224.671 0.411399 1.52136 0
M  V30 2439 C 225.621 -0.430376 2.23901 0
M  V30 2440 C 226.605 -1.0116 1.25121 0
M  V30 2441 O 227.797 -0.934044 1.50348 0
M  V30 2442 C 224.926 -1.54527 3.06556 0
M  V30 2443 C 224.012 -0.9747 4.12747 0
M  V30 2444 N 224.403 -0.130991 5.0563 0
M  V30 2445 C 222.701 -1.24497 4.28271 0
M  V30 2446 C 223.402 0.186689 5.814 0
M  V30 2447 N 222.378 -0.42304 5.41951 0
M  V30 2448 H 226.18 0.220509 2.93072 0
M  V30 2449 H 223.694 0.221952 1.60876 0
M  V30 2450 H 225.691 -2.16093 3.56524 0
M  V30 2451 H 224.351 -2.19875 2.38925 0
M  V30 2452 H 225.362 0.23349 5.17373 0
M  V30 2453 H 222.039 -1.89787 3.7187 0
M  V30 2454 H 223.429 0.871673 6.66222 0
M  V30 2455 N 226.149 -1.5696 0.141893 0
M  V30 2456 C 227.397 -1.95573 -0.509484 0
M  V30 2457 C 227.718 -1.02746 -1.65736 0
M  V30 2458 O 226.988 -0.0880311 -1.95702 0
M  V30 2459 H 225.568 -0.722115 -0.191205 0
M  V30 2460 H 228.23 -1.93697 0.216196 0
M  V30 2461 H 227.326 -2.99171 -0.889 0
M  V30 2462 N 227.627 0.131896 -1.57047 0
M  V30 2463 C 228.559 1.1878 -1.9602 0
M  V30 2464 C 229.572 1.38363 -0.857875 0
M  V30 2465 O 230.761 1.37666 -1.13623 0
M  V30 2466 C 227.861 2.55008 -2.23213 0
M  V30 2467 C 227.034 2.56201 -3.54513 0
M  V30 2468 C 226.093 3.7408 -3.70069 0
M  V30 2469 O 225.119 3.58258 -4.42312 0
M  V30 2470 N 226.321 4.92137 -3.07866 0
M  V30 2471 H 229.086 0.85639 -2.87204 0
M  V30 2472 H 226.647 0.321309 -1.5868 0
M  V30 2473 H 228.639 3.32404 -2.30846 0
M  V30 2474 H 227.209 2.80382 -1.3822 0
M  V30 2475 H 226.429 1.64613 -3.58185 0
M  V30 2476 H 227.717 2.54043 -4.4084 0
M  V30 2477 H 227.115 5.07895 -2.49116 0
M  V30 2478 H 225.672 5.67254 -3.21039 0
M  V30 2479 N 229.106 1.52395 0.401703 0
M  V30 2480 C 230.353 1.66817 1.14796 0
M  V30 2481 C 230.681 0.401772 1.90305 0
M  V30 2482 O 229.936 -0.615487 1.85769 0
M  V30 2483 C 230.235 2.84578 2.16217 0
M  V30 2484 C 229.901 4.22513 1.5746 0
M  V30 2485 C 228.563 4.60029 1.41161 0
M  V30 2486 C 230.915 5.0844 1.14622 0
M  V30 2487 C 228.243 5.81144 0.80552 0
M  V30 2488 C 230.595 6.30167 0.55428 0
M  V30 2489 C 229.259 6.66426 0.378482 0
M  V30 2490 H 228.529 0.610428 0.420069 0
M  V30 2491 H 231.176 1.86512 0.434212 0
M  V30 2492 H 229.481 2.59248 2.93764 0
M  V30 2493 H 231.178 2.92933 2.73845 0
M  V30 2494 H 227.768 3.92953 1.71132 0
M  V30 2495 H 231.952 4.80034 1.26021 0
M  V30 2496 H 227.208 6.07855 0.657399 0
M  V30 2497 H 231.382 6.96071 0.213983 0
M  V30 2498 H 229.009 7.60143 -0.0932606 0
M  V30 2499 N 230.584 -0.659388 1.43143 0
M  V30 2500 C 232 -0.974337 1.26407 0
M  V30 2501 C 232.2 -2.007 0.179341 0
M  V30 2502 O 231.256 -2.4856 -0.444295 0
M  V30 2503 C 232.569 -1.46447 2.62628 0
M  V30 2504 C 234.117 -1.58144 2.7011 0
M  V30 2505 C 234.592 -2.1055 4.06734 0
M  V30 2506 N 236.083 -2.17861 4.08767 0
M  V30 2507 C 236.818 -2.59519 5.1131 0
M  V30 2508 N 236.314 -3.00518 6.24228 0
M  V30 2509 N 238.107 -2.59404 4.98664 0
M  V30 2510 H 230.258 0.0240528 2.12386 0
M  V30 2511 H 232.521 -0.0518065 0.946583 0
M  V30 2512 H 232.227 -0.780123 3.42939 0
M  V30 2513 H 232.101 -2.44058 2.87603 0
M  V30 2514 H 234.488 -2.25682 1.90136 0
M  V30 2515 H 234.569 -0.589828 2.48907 0
M  V30 2516 H 234.213 -1.43616 4.87172 0
M  V30 2517 H 234.143 -3.10531 4.25298 0
M  V30 2518 H 236.634 -1.88975 3.27257 0
M  V30 2519 H 236.947 -3.31036 6.98309 0
M  V30 2520 H 235.292 -2.98337 6.2771 0
M  V30 2521 H 238.483 -2.26747 4.09516 0
M  V30 2522 H 238.656 -2.91548 5.78709 0
M  V30 2523 N 232.062 -1.29571 -0.897171 0
M  V30 2524 C 233.308 -1.17863 -1.65034 0
M  V30 2525 C 233.641 0.268729 -1.92332 0
M  V30 2526 O 232.916 1.19378 -1.53555 0
M  V30 2527 C 233.199 -1.995 -2.99786 0
M  V30 2528 C 233.052 -3.5239 -2.79538 0
M  V30 2529 C 234.371 -1.82335 -4.00552 0
M  V30 2530 H 231.49 -0.429528 -0.598895 0
M  V30 2531 H 234.132 -1.59072 -1.03905 0
M  V30 2532 H 232.282 -1.64485 -3.51962 0
M  V30 2533 H 233.954 -3.97401 -2.34244 0
M  V30 2534 H 232.197 -3.77187 -2.14273 0
M  V30 2535 H 232.868 -4.04787 -3.75302 0
M  V30 2536 H 235.344 -2.12924 -3.57495 0
M  V30 2537 H 234.22 -2.41801 -4.92771 0
M  V30 2538 H 234.481 -0.779209 -4.35179 0
M  V30 2539 N 233.54 1.10788 -1.12088 0
M  V30 2540 C 234.503 2.15207 -0.788577 0
M  V30 2541 C 235.503 1.59609 0.195317 0
M  V30 2542 O 236.693 1.74174 -0.0300193 0
M  V30 2543 C 233.825 3.4047 -0.171174 0
M  V30 2544 H 235.018 2.46116 -1.71368 0
M  V30 2545 H 232.571 1.26089 -0.923652 0
M  V30 2546 H 233.306 3.15176 0.763832 0
M  V30 2547 H 233.091 3.82109 -0.879514 0
M  V30 2548 H 234.581 4.17576 0.04496 0
M  V30 2549 N 235.018 0.912232 1.28515 0
M  V30 2550 C 236.246 0.560416 1.99166 0
M  V30 2551 C 236.661 -0.857927 1.68182 0
M  V30 2552 O 236.018 -1.56805 0.933733 0
M  V30 2553 C 236.069 0.758142 3.53461 0
M  V30 2554 O 235.79 2.12067 3.83352 0
M  V30 2555 C 237.291 0.412954 4.41372 0
M  V30 2556 H 234.511 0.213805 0.636026 0
M  V30 2557 H 237.055 1.22502 1.63749 0
M  V30 2558 H 235.21 0.140556 3.87145 0
M  V30 2559 H 235.624 2.15923 4.77993 0
M  V30 2560 H 237.098 0.60208 5.48707 0
M  V30 2561 H 237.575 -0.65073 4.34353 0
M  V30 2562 H 238.181 1.00802 4.13182 0
M  V30 2563 N 236.496 -1.42363 0.676048 0
M  V30 2564 C 237.406 -2.346 -0.00153389 0
M  V30 2565 C 238.422 -1.5516 -0.787485 0
M  V30 2566 O 239.598 -1.87723 -0.729521 0
M  V30 2567 C 236.663 -3.33705 -0.940298 0
M  V30 2568 C 235.724 -4.29042 -0.148739 0
M  V30 2569 C 234.957 -5.23413 -1.04279 0
M  V30 2570 O 235.18 -5.22749 -2.28232 0
M  V30 2571 O 234.114 -5.99795 -0.502925 0
M  V30 2572 H 237.94 -2.94082 0.758268 0
M  V30 2573 H 235.525 -1.42888 0.436289 0
M  V30 2574 H 237.407 -3.94586 -1.47917 0
M  V30 2575 H 236.082 -2.76695 -1.67993 0
M  V30 2576 H 234.989 -3.71571 0.43427 0
M  V30 2577 H 236.322 -4.89097 0.551805 0
M  V30 2578 N 237.974 -0.419461 -1.51915 0
M  V30 2579 C 238.921 0.400927 -2.27291 0
M  V30 2580 C 239.891 1.03224 -1.30131 0
M  V30 2581 O 241.076 1.05455 -1.59009 0
M  V30 2582 C 238.216 1.50603 -3.10504 0
M  V30 2583 C 237.329 0.89462 -4.22635 0
M  V30 2584 C 236.464 1.97328 -4.93189 0
M  V30 2585 C 235.503 1.33935 -5.97267 0
M  V30 2586 N 234.64 2.3586 -6.61298 0
M  V30 2587 H 239.48 -0.248251 -2.96964 0
M  V30 2588 H 237.017 -0.134266 -1.46486 0
M  V30 2589 H 238.975 2.15783 -3.57062 0
M  V30 2590 H 237.605 2.12509 -2.42981 0
M  V30 2591 H 236.657 0.131583 -3.80172 0
M  V30 2592 H 237.969 0.391641 -4.9726 0
M  V30 2593 H 237.123 2.70211 -5.43204 0
M  V30 2594 H 235.862 2.50994 -4.18155 0
M  V30 2595 H 234.867 0.595896 -5.46561 0
M  V30 2596 H 236.092 0.810252 -6.74249 0
M  V30 2597 H 234.038 2.88639 -5.89087 0
M  V30 2598 H 233.955 1.90403 -7.3163 0
M  V30 2599 H 235.223 3.08282 -7.15949 0
M  V30 2600 N 239.452 1.56882 -0.150215 0
M  V30 2601 C 240.692 1.98119 0.502804 0
M  V30 2602 C 241.056 1.03327 1.61826 0
M  V30 2603 O 242.257 1.33621 2.33236 0
M  V30 2604 C 240.528 3.43329 0.992988 0
M  V30 2605 S 242.087 4.0659 1.65015 0
M  V30 2606 H 238.905 0.692189 0.162467 0
M  V30 2607 H 241.507 1.93988 -0.242689 0
M  V30 2608 H 240.211 4.10046 0.170436 0
M  V30 2609 H 239.742 3.5118 1.77303 0
M  V30 2610 H 241.757 3.99906 2.93752 0
M  V30 2611 N 240.93 -0.123565 1.57115 0
M  V30 2612 C 241.86 -1.15309 2.03042 0
M  V30 2613 C 242.841 -1.43454 0.914061 0
M  V30 2614 O 244.026 -1.53973 1.18347 0
M  V30 2615 C 241.156 -2.48043 2.43089 0
M  V30 2616 C 240.11 -2.3437 3.58127 0
M  V30 2617 C 239.436 -3.72026 3.84059 0
M  V30 2618 C 240.736 -1.80804 4.90007 0
M  V30 2619 H 242.43 -0.771102 2.893 0
M  V30 2620 H 239.976 -0.369479 1.39179 0
M  V30 2621 H 241.929 -3.20311 2.73823 0
M  V30 2622 H 240.653 -2.88122 1.53796 0
M  V30 2623 H 239.312 -1.64551 3.27595 0
M  V30 2624 H 238.96 -4.09582 2.91979 0
M  V30 2625 H 238.66 -3.63732 4.6149 0
M  V30 2626 H 240.184 -4.45806 4.1724 0
M  V30 2627 H 241.598 -2.42886 5.19307 0
M  V30 2628 H 239.995 -1.83343 5.71407 0
M  V30 2629 H 241.065 -0.76528 4.78823 0
M  V30 2630 N 242.408 -1.52605 -0.393616 0
M  V30 2631 C 243.655 -1.67424 -1.1391 0
M  V30 2632 C 243.983 -0.411859 -1.90089 0
M  V30 2633 O 243.238 0.605626 -1.86093 0
M  V30 2634 C 243.537 -2.85721 -2.14705 0
M  V30 2635 C 243.203 -4.23342 -1.55218 0
M  V30 2636 C 241.865 -4.60771 -1.3872 0
M  V30 2637 C 244.217 -5.09041 -1.11924 0
M  V30 2638 C 241.545 -5.81563 -0.774689 0
M  V30 2639 C 243.897 -6.30452 -0.520853 0
M  V30 2640 C 242.561 -6.66617 -0.343134 0
M  V30 2641 H 241.831 -0.612648 -0.416826 0
M  V30 2642 H 244.478 -1.8674 -0.424315 0
M  V30 2643 H 242.783 -2.60803 -2.92385 0
M  V30 2644 H 244.48 -2.94382 -2.72288 0
M  V30 2645 H 241.07 -3.93855 -1.69045 0
M  V30 2646 H 245.254 -4.80695 -1.23473 0
M  V30 2647 H 240.51 -6.08196 -0.625154 0
M  V30 2648 H 244.684 -6.96175 -0.177065 0
M  V30 2649 H 242.311 -7.60083 0.133571 0
M  V30 2650 N 243.887 0.651787 -1.4349 0
M  V30 2651 C 244.85 1.74647 -1.48429 0
M  V30 2652 C 245.85 1.56513 -0.368817 0
M  V30 2653 O 247.04 1.62385 -0.630623 0
M  V30 2654 C 244.172 3.13533 -1.33827 0
M  V30 2655 H 245.365 1.71649 -2.4592 0
M  V30 2656 H 242.918 0.863573 -1.30277 0
M  V30 2657 H 243.653 3.22142 -0.37349 0
M  V30 2658 H 243.438 3.28101 -2.14691 0
M  V30 2659 H 244.928 3.93356 -1.40218 0
M  V30 2660 N 245.365 1.30045 0.890287 0
M  V30 2661 C 246.298 1.10301 1.99772 0
M  V30 2662 C 247.276 0.0121631 1.62595 0
M  V30 2663 O 248.46 0.16469 1.87779 0
M  V30 2664 C 245.587 0.681125 3.31781 0
M  V30 2665 C 244.633 1.77206 3.87944 0
M  V30 2666 S 245.466 3.37335 4.15891 0
M  V30 2667 C 246.622 2.97036 5.50927 0
M  V30 2668 H 246.855 2.04057 2.16213 0
M  V30 2669 H 244.388 1.14299 1.03804 0
M  V30 2670 H 246.346 0.444439 4.08087 0
M  V30 2671 H 245.007 -0.236981 3.13205 0
M  V30 2672 H 244.2 1.42903 4.83316 0
M  V30 2673 H 243.802 1.96275 3.18358 0
M  V30 2674 H 246.094 2.44666 6.31779 0
M  V30 2675 H 247.037 3.91296 5.90164 0
M  V30 2676 H 247.445 2.35057 5.13233 0
M  V30 2677 N 246.843 -1.10192 1.12674 0
M  V30 2678 C 248.254 -1.63707 0.897604 0
M  V30 2679 C 248.605 -1.87812 -0.567546 0
M  V30 2680 O 247.73 -1.62196 -1.43253 0
M  V30 2681 C 248.325 -2.974 1.62292 0
M  V30 2682 C 246.884 -3.47772 1.43986 0
M  V30 2683 C 246.031 -2.22332 1.65722 0
M  V30 2684 H 248.982 -0.936587 1.28116 0
M  V30 2685 H 249.003 -3.64986 1.07541 0
M  V30 2686 H 248.515 -2.79824 2.68924 0
M  V30 2687 H 246.616 -3.70487 0.396206 0
M  V30 2688 H 246.729 -4.25723 2.19765 0
M  V30 2689 H 245.093 -2.30599 1.08149 0
M  V30 2690 H 245.876 -2.07285 2.73657 0
M  V30 2691 N 248.321 -0.919034 -1.28029 0
M  V30 2692 C 249.231 -0.416756 -2.30869 0
M  V30 2693 C 250.247 0.498235 -1.66714 0
M  V30 2694 O 251.423 0.383144 -1.97722 0
M  V30 2695 C 248.488 0.330274 -3.45123 0
M  V30 2696 C 247.549 -0.618578 -4.2482 0
M  V30 2697 C 246.782 0.0928959 -5.33619 0
M  V30 2698 O 247.005 1.31375 -5.55065 0
M  V30 2699 O 245.939 -0.574499 -5.99152 0
M  V30 2700 H 249.765 -1.27043 -2.75851 0
M  V30 2701 H 247.35 -0.684052 -1.3282 0
M  V30 2702 H 249.232 0.751972 -4.14636 0
M  V30 2703 H 247.907 1.1597 -3.02213 0
M  V30 2704 H 246.814 -1.08978 -3.57875 0
M  V30 2705 H 248.147 -1.41497 -4.71423 0
M  V30 2706 N 249.799 1.42003 -0.683588 0
M  V30 2707 C 251.027 2.05746 -0.218182 0
M  V30 2708 C 251.442 1.51396 1.12804 0
M  V30 2709 O 250.799 0.657303 1.70252 0
M  V30 2710 C 250.85 3.61171 -0.154131 0
M  V30 2711 O 250.571 4.13508 -1.44716 0
M  V30 2712 C 252.072 4.42042 0.333713 0
M  V30 2713 H 249.292 0.662888 -0.10402 0
M  V30 2714 H 251.836 1.81987 -0.9328 0
M  V30 2715 H 249.991 3.84012 0.511231 0
M  V30 2716 H 250.405 5.07453 -1.32632 0
M  V30 2717 H 251.879 5.51028 0.327423 0
M  V30 2718 H 252.356 4.17269 1.37053 0
M  V30 2719 H 252.962 4.24239 -0.300222 0
M  V30 2720 N 251.277 0.427512 1.51691 0
M  V30 2721 C 252.24 -0.377132 2.26076 0
M  V30 2722 C 253.24 -0.958089 1.29141 0
M  V30 2723 O 254.43 -0.83408 1.52934 0
M  V30 2724 C 251.562 -1.53262 3.04506 0
M  V30 2725 H 252.755 0.27464 2.9864 0
M  V30 2726 H 250.308 0.180445 1.55255 0
M  V30 2727 H 251.043 -2.22072 2.36335 0
M  V30 2728 H 250.828 -1.12232 3.75694 0
M  V30 2729 H 252.318 -2.10135 3.60878 0
M  V30 2730 N 252.755 -1.56801 0.158532 0
M  V30 2731 C 254.004 -1.95665 -0.489702 0
M  V30 2732 C 254.317 -1.04654 -1.65248 0
M  V30 2733 O 255.523 -1.33146 -2.3661 0
M  V30 2734 C 253.979 -3.47874 -0.922582 0
M  V30 2735 C 253.587 -4.47489 0.213893 0
M  V30 2736 C 255.331 -3.95583 -1.53996 0
M  V30 2737 C 253.238 -5.90921 -0.237903 0
M  V30 2738 H 252.168 -0.730516 -0.186716 0
M  V30 2739 H 254.819 -1.81861 0.244722 0
M  V30 2740 H 253.201 -3.57051 -1.71261 0
M  V30 2741 H 254.375 -4.50017 0.991036 0
M  V30 2742 H 252.69 -4.09764 0.740407 0
M  V30 2743 H 255.287 -5.0019 -1.8898 0
M  V30 2744 H 255.63 -3.37789 -2.43319 0
M  V30 2745 H 256.163 -3.8937 -0.814611 0
M  V30 2746 H 252.902 -6.52559 0.620236 0
M  V30 2747 H 252.422 -5.91729 -0.980676 0
M  V30 2748 H 254.101 -6.43352 -0.686067 0
M  V30 2749 N 254.233 0.115231 -1.57178 0
M  V30 2750 C 255.481 0.820727 -1.84685 0
M  V30 2751 C 255.802 1.80237 -0.744279 0
M  V30 2752 O 255.072 1.94529 0.231375 0
M  V30 2753 H 253.652 0.306084 -0.681411 0
M  V30 2754 H 256.314 0.101656 -1.94635 0
M  V30 2755 H 255.41 1.36366 -2.80733 0
M  V30 2756 N 255.711 1.52812 0.385517 0
M  V30 2757 C 256.641 1.80808 1.47752 0
M  V30 2758 C 257.622 0.660318 1.5676 0
M  V30 2759 O 258.807 0.908246 1.71652 0
M  V30 2760 C 255.937 1.98008 2.85324 0
M  V30 2761 C 254.891 3.13709 2.91154 0
M  V30 2762 C 254.217 3.16169 4.31209 0
M  V30 2763 C 255.517 4.52709 2.60483 0
M  V30 2764 H 257.211 2.72253 1.24573 0
M  V30 2765 H 254.757 1.31003 0.597839 0
M  V30 2766 H 256.71 2.16176 3.61726 0
M  V30 2767 H 255.434 1.03255 3.09848 0
M  V30 2768 H 254.093 2.95329 2.17201 0
M  V30 2769 H 253.741 2.19092 4.52778 0
M  V30 2770 H 253.441 3.93894 4.36029 0
M  V30 2771 H 254.965 3.36496 5.09512 0
M  V30 2772 H 256.379 4.71173 3.26602 0
M  V30 2773 H 254.776 5.32528 2.76648 0
M  V30 2774 H 255.846 4.59186 1.55809 0
M  V30 2775 N 257.189 -0.644168 1.43834 0
M  V30 2776 C 258.436 -1.40395 1.4593 0
M  V30 2777 C 258.764 -1.94305 0.0869658 0
M  V30 2778 O 258.019 -1.73288 -0.909378 0
M  V30 2779 C 258.318 -2.59615 2.45631 0
M  V30 2780 C 257.984 -2.2407 3.91284 0
M  V30 2781 C 256.646 -2.14089 4.30952 0
M  V30 2782 C 258.998 -1.95775 4.83034 0
M  V30 2783 C 256.326 -1.73981 5.6031 0
M  V30 2784 C 258.678 -1.57163 6.12766 0
M  V30 2785 C 257.342 -1.45713 6.51402 0
M  V30 2786 H 256.612 -0.513741 0.533995 0
M  V30 2787 H 259.259 -0.731724 1.76969 0
M  V30 2788 H 257.564 -3.32011 2.08028 0
M  V30 2789 H 259.261 -3.17834 2.44504 0
M  V30 2790 H 255.851 -2.32753 3.59895 0
M  V30 2791 H 260.035 -2.02403 4.53152 0
M  V30 2792 H 255.291 -1.63709 5.89075 0
M  V30 2793 H 259.465 -1.34303 6.83327 0
M  V30 2794 H 257.092 -1.14406 7.51542 0
M  V30 2795 N 258.668 -1.30515 -0.883378 0
M  V30 2796 C 260.079 -1.17509 -1.45081 0
M  V30 2797 C 260.43 0.223605 -1.94922 0
M  V30 2798 O 259.555 1.12041 -1.85137 0
M  V30 2799 C 260.15 -2.12715 -2.63701 0
M  V30 2800 C 258.709 -2.03682 -3.16529 0
M  V30 2801 C 257.856 -2.02706 -1.89224 0
M  V30 2802 H 260.807 -1.42762 -0.693165 0
M  V30 2803 H 260.828 -1.70891 -3.39965 0
M  V30 2804 H 260.34 -3.14505 -2.27395 0
M  V30 2805 H 258.441 -1.05039 -3.57488 0
M  V30 2806 H 258.554 -2.92146 -3.7972 0
M  V30 2807 H 256.918 -1.4753 -2.07622 0
M  V30 2808 H 257.701 -3.06229 -1.55174 0
M  V30 2809 N 260.146 1.09593 -1.13257 0
M  V30 2810 C 261.423 1.78293 -0.804432 0
M  V30 2811 C 261.803 1.99004 0.70431 0
M  V30 2812 O 261.151 1.59007 1.641 0
M  V30 2813 C 261.361 3.10707 -1.5894 0
M  V30 2814 C 262.709 3.85443 -1.78099 0
M  V30 2815 O 263.733 3.20454 -1.55525 0
M  V30 2816 O 262.592 5.02108 -2.15753 0
M  V30 2817 H 259.686 0.773156 -0.293528 0
M  V30 2818 H 262.232 1.16164 -1.23709 0
M  V30 2819 H 261.004 2.91106 -2.61482 0
M  V30 2820 H 260.627 3.80558 -1.15157 0
M  V30 2821 N 261.624 0.925811 1.2754 0
M  V30 2822 C 262.87 0.566092 1.94739 0
M  V30 2823 C 263.203 -0.890057 1.72603 0
M  V30 2824 O 262.478 -1.63467 1.05399 0
M  V30 2825 C 262.761 0.89054 3.48915 0
M  V30 2826 C 262.614 2.4003 3.80402 0
M  V30 2827 C 263.933 0.395101 4.38323 0
M  V30 2828 H 261.052 0.20714 0.707292 0
M  V30 2829 H 263.694 1.15725 1.50691 0
M  V30 2830 H 261.844 0.387452 3.86563 0
M  V30 2831 H 263.516 2.97494 3.52555 0
M  V30 2832 H 261.759 2.85028 3.2702 0
M  V30 2833 H 262.43 2.57785 4.8811 0
M  V30 2834 H 264.906 0.826241 4.07814 0
M  V30 2835 H 263.782 0.651086 5.45025 0
M  V30 2836 H 264.043 -0.704798 4.36446 0
M  V30 2837 N 263.102 -1.41638 0.69111 0
M  V30 2838 C 264.35 -2.00902 0.219758 0
M  V30 2839 C 264.671 -1.54994 -1.18329 0
M  V30 2840 O 263.941 -0.778628 -1.79762 0
M  V30 2841 H 262.521 -0.74289 0.0782558 0
M  V30 2842 H 265.183 -1.73327 0.891271 0
M  V30 2843 H 264.279 -3.11224 0.233708 0
M  V30 2844 N 264.58 -0.43555 -1.51462 0
M  V30 2845 C 265.828 0.131254 -2.01673 0
M  V30 2846 C 266.149 1.43368 -1.32177 0
M  V30 2847 O 265.419 1.90524 -0.455769 0
M  V30 2848 H 263.999 0.0514954 -0.745223 0
M  V30 2849 H 266.661 -0.577847 -1.86137 0
M  V30 2850 H 265.757 0.308446 -3.10572 0
M  V30 2851 N 266.058 1.56714 -0.166846 0
M  V30 2852 C 267.306 1.96358 0.478305 0
M  V30 2853 C 267.627 1.0537 1.6408 0
M  V30 2854 O 266.897 0.119154 1.95537 0
M  V30 2855 H 265.477 0.725065 0.179692 0
M  V30 2856 H 268.139 1.93329 -0.246985 0
M  V30 2857 H 267.235 3.00547 0.841292 0
M  V30 2858 N 267.536 -0.106894 1.57237 0
M  V30 2859 C 268.766 -0.825191 1.89405 0
M  V30 2860 C 269.174 -1.73374 0.757496 0
M  V30 2861 O 268.517 -1.81552 -0.280115 0
M  V30 2862 C 268.579 -1.70102 3.1671 0
M  V30 2863 C 268.243 -0.965523 4.46684 0
M  V30 2864 C 269.24 -0.300741 5.19029 0
M  V30 2865 C 266.925 -0.943105 4.93367 0
M  V30 2866 C 268.919 0.376622 6.36286 0
M  V30 2867 C 266.606 -0.261949 6.10538 0
M  V30 2868 C 267.604 0.396748 6.81847 0
M  V30 2869 O 267.292 1.06701 7.96787 0
M  V30 2870 H 267.024 -0.241852 0.631255 0
M  V30 2871 H 269.578 -0.0921491 2.05193 0
M  V30 2872 H 267.808 -2.47601 2.97036 0
M  V30 2873 H 269.497 -2.29483 3.34802 0
M  V30 2874 H 270.263 -0.309599 4.84011 0
M  V30 2875 H 266.142 -1.44524 4.3776 0
M  V30 2876 H 269.686 0.891334 6.91882 0
M  V30 2877 H 265.583 -0.250896 6.45012 0
M  V30 2878 H 266.351 0.972707 8.127 0
M  V30 2879 N 269.014 -1.53014 -0.377408 0
M  V30 2880 C 270.261 -1.68623 -1.12128 0
M  V30 2881 C 270.589 -0.431997 -1.89642 0
M  V30 2882 O 269.844 0.585855 -1.86725 0
M  V30 2883 C 270.143 -2.87982 -2.11663 0
M  V30 2884 C 269.809 -4.24964 -1.50719 0
M  V30 2885 C 268.471 -4.62217 -1.33825 0
M  V30 2886 C 270.823 -5.10199 -1.06519 0
M  V30 2887 C 268.151 -5.82352 -0.712963 0
M  V30 2888 C 270.503 -6.30969 -0.453955 0
M  V30 2889 C 269.167 -6.66944 -0.272411 0
M  V30 2890 H 268.437 -0.617034 -0.410305 0
M  V30 2891 H 271.084 -1.8718 -0.404484 0
M  V30 2892 H 269.389 -2.63889 -2.89603 0
M  V30 2893 H 271.086 -2.97253 -2.6915 0
M  V30 2894 H 267.676 -3.95626 -1.64858 0
M  V30 2895 H 271.86 -4.81978 -1.18368 0
M  V30 2896 H 267.116 -6.08824 -0.560611 0
M  V30 2897 H 271.29 -6.96324 -0.103217 0
M  V30 2898 H 268.917 -7.59898 0.214181 0
M  V30 2899 N 270.492 0.636531 -1.44174 0
M  V30 2900 C 271.422 1.76003 -1.53444 0
M  V30 2901 C 272.403 1.65619 -0.387841 0
M  V30 2902 O 273.588 1.84461 -0.607257 0
M  V30 2903 C 270.718 3.14511 -1.4731 0
M  V30 2904 C 269.672 3.39677 -2.60391 0
M  V30 2905 C 268.998 4.78159 -2.39308 0
M  V30 2906 C 270.298 3.32772 -4.02567 0
M  V30 2907 H 271.992 1.68501 -2.47483 0
M  V30 2908 H 269.538 0.809237 -1.19111 0
M  V30 2909 H 271.491 3.92878 -1.52397 0
M  V30 2910 H 270.215 3.22783 -0.49785 0
M  V30 2911 H 268.874 2.63688 -2.54684 0
M  V30 2912 H 268.522 4.83128 -1.39988 0
M  V30 2913 H 268.222 4.95956 -3.15122 0
M  V30 2914 H 269.746 5.58762 -2.46205 0
M  V30 2915 H 271.16 4.01051 -4.09672 0
M  V30 2916 H 269.557 3.62104 -4.7854 0
M  V30 2917 H 270.627 2.30669 -4.2652 0
M  V30 2918 N 271.97 1.30982 0.876444 0
M  V30 2919 C 273.381 1.18277 1.44456 0
M  V30 2920 C 273.732 -0.213265 1.95037 0
M  V30 2921 O 272.857 -1.11057 1.85729 0
M  V30 2922 C 273.452 2.1411 2.62569 0
M  V30 2923 C 272.011 2.05358 3.15444 0
M  V30 2924 C 271.158 2.03706 1.88146 0
M  V30 2925 H 274.109 1.43127 0.685584 0
M  V30 2926 H 274.13 1.72692 3.39054 0
M  V30 2927 H 273.642 3.15706 2.25724 0
M  V30 2928 H 271.743 1.06934 3.56926 0
M  V30 2929 H 271.856 2.94156 3.78166 0
M  V30 2930 H 270.22 1.48629 2.06837 0
M  V30 2931 H 271.003 3.07047 1.53547 0
M  V30 2932 N 273.449 -1.08991 1.13837 0
M  V30 2933 C 274.865 -1.33312 0.877506 0
M  V30 2934 C 275.065 -1.95587 -0.48456 0
M  V30 2935 O 274.121 -2.20509 -1.23013 0
M  V30 2936 C 275.434 -2.24045 2.0056 0
M  V30 2937 C 276.982 -2.37542 2.03821 0
M  V30 2938 C 277.457 -3.31614 3.15905 0
M  V30 2939 N 278.948 -3.39189 3.15445 0
M  V30 2940 C 279.683 -4.11992 3.98811 0
M  V30 2941 N 279.179 -4.87553 4.92203 0
M  V30 2942 N 280.972 -4.07762 3.86894 0
M  V30 2943 H 273.123 -0.669456 2.01574 0
M  V30 2944 H 275.386 -0.357482 0.878015 0
M  V30 2945 H 275.092 -1.85521 2.98789 0
M  V30 2946 H 274.966 -3.24466 1.92359 0
M  V30 2947 H 277.353 -2.75327 1.06202 0
M  V30 2948 H 277.434 -1.36884 2.16093 0
M  V30 2949 H 277.078 -2.94551 4.13766 0
M  V30 2950 H 277.008 -4.32186 3.0087 0
M  V30 2951 H 279.499 -2.85314 2.47799 0
M  V30 2952 H 279.812 -5.40549 5.52292 0
M  V30 2953 H 278.157 -4.86627 4.96205 0
M  V30 2954 H 281.348 -3.47833 3.13257 0
M  V30 2955 H 281.521 -4.64238 4.52092 0
M  V30 2956 N 274.927 -0.932562 -1.27047 0
M  V30 2957 C 275.857 -0.452902 -2.29066 0
M  V30 2958 C 276.838 0.489338 -1.62909 0
M  V30 2959 O 278.023 0.393046 -1.90181 0
M  V30 2960 C 275.153 0.290698 -3.46081 0
M  V30 2961 C 274.107 -0.564168 -4.24265 0
M  V30 2962 C 273.433 0.308886 -5.33807 0
M  V30 2963 C 274.733 -1.83112 -4.89149 0
M  V30 2964 H 276.427 -1.30552 -2.69437 0
M  V30 2965 H 273.973 -0.629201 -1.29526 0
M  V30 2966 H 275.926 0.637233 -4.16554 0
M  V30 2967 H 274.65 1.17738 -3.0464 0
M  V30 2968 H 273.309 -0.893477 -3.55545 0
M  V30 2969 H 272.957 1.19467 -4.88607 0
M  V30 2970 H 272.657 -0.259633 -5.87026 0
M  V30 2971 H 274.181 0.650884 -6.07121 0
M  V30 2972 H 275.595 -1.55236 -5.51883 0
M  V30 2973 H 273.992 -2.34353 -5.52448 0
M  V30 2974 H 275.062 -2.54772 -4.12576 0
M  V30 2975 N 276.405 1.4127 -0.698611 0
M  V30 2976 C 277.337 2.292 0.00399731 0
M  V30 2977 C 278.35 1.44944 0.741279 0
M  V30 2978 O 279.539 1.68416 0.591477 0
M  V30 2979 C 276.639 3.22875 1.02979 0
M  V30 2980 C 275.812 4.35904 0.36151 0
M  V30 2981 C 274.871 5.10134 1.29033 0
M  V30 2982 O 273.897 5.63809 0.781562 0
M  V30 2983 N 275.099 5.17885 2.6225 0
M  V30 2984 H 277.864 2.9014 -0.750921 0
M  V30 2985 H 275.425 1.52455 -0.544882 0
M  V30 2986 H 277.417 3.69404 1.65296 0
M  V30 2987 H 275.987 2.63221 1.68622 0
M  V30 2988 H 275.207 3.91719 -0.441584 0
M  V30 2989 H 276.495 5.08696 -0.103055 0
M  V30 2990 H 275.893 4.7573 3.061 0
M  V30 2991 H 274.45 5.6798 3.19754 0
M  V30 2992 N 277.883 0.443576 1.51229 0
M  V30 2993 C 279.131 -0.120557 2.0174 0
M  V30 2994 C 279.452 -1.42665 1.32935 0
M  V30 2995 O 278.722 -1.9028 0.465866 0
M  V30 2996 H 277.302 -0.0475426 0.745486 0
M  V30 2997 H 279.964 0.587711 1.85828 0
M  V30 2998 H 279.06 -0.291972 3.10731 0
M  V30 2999 N 279.361 -1.56624 0.175154 0
M  V30 3000 C 280.308 -2.18149 -0.753634 0
M  V30 3001 C 281.278 -1.12265 -1.22417 0
M  V30 3002 O 282.463 -1.40432 -1.29165 0
M  V30 3003 C 279.603 -2.82933 -1.97592 0
M  V30 3004 C 278.716 -4.03289 -1.5486 0
M  V30 3005 C 277.851 -4.55988 -2.72485 0
M  V30 3006 C 276.89 -5.68746 -2.26262 0
M  V30 3007 N 276.027 -6.15938 -3.36994 0
M  V30 3008 H 280.867 -2.9717 -0.222195 0
M  V30 3009 H 278.404 -1.46774 -0.0979422 0
M  V30 3010 H 280.362 -3.18653 -2.69288 0
M  V30 3011 H 278.992 -2.06509 -2.481 0
M  V30 3012 H 278.044 -3.73364 -0.728246 0
M  V30 3013 H 279.356 -4.849 -1.16933 0
M  V30 3014 H 278.51 -4.9391 -3.52332 0
M  V30 3015 H 277.249 -3.73443 -3.13674 0
M  V30 3016 H 276.254 -5.30372 -1.44863 0
M  V30 3017 H 277.479 -6.53095 -1.86127 0
M  V30 3018 H 275.425 -5.36321 -3.77751 0
M  V30 3019 H 275.342 -6.92548 -3.03172 0
M  V30 3020 H 276.61 -6.58511 -4.17114 0
M  V30 3021 N 280.839 0.0985539 -1.57292 0
M  V30 3022 C 281.769 1.12064 -2.04851 0
M  V30 3023 C 282.75 1.41981 -0.936767 0
M  V30 3024 O 283.935 1.52071 -1.20781 0
M  V30 3025 C 281.065 2.44144 -2.47004 0
M  V30 3026 C 280.019 2.28643 -3.6181 0
M  V30 3027 C 279.345 3.65869 -3.89929 0
M  V30 3028 C 280.645 1.72986 -4.92822 0
M  V30 3029 H 282.339 0.724979 -2.9049 0
M  V30 3030 H 279.885 0.34729 -1.39749 0
M  V30 3031 H 281.838 3.15914 -2.78884 0
M  V30 3032 H 280.562 2.85639 -1.5836 0
M  V30 3033 H 279.221 1.59318 -3.30172 0
M  V30 3034 H 278.869 4.04885 -2.98458 0
M  V30 3035 H 278.569 3.56344 -4.67218 0
M  V30 3036 H 280.093 4.39112 -4.2428 0
M  V30 3037 H 281.507 2.34593 -5.23105 0
M  V30 3038 H 279.904 1.74229 -5.74251 0
M  V30 3039 H 280.974 0.689007 -4.7998 0
M  V30 3040 N 282.317 1.53212 0.369288 0
M  V30 3041 C 283.565 1.68881 1.11012 0
M  V30 3042 C 283.886 0.441285 1.89941 0
M  V30 3043 O 283.156 -0.544623 1.88177 0
M  V30 3044 H 281.736 0.622569 0.412816 0
M  V30 3045 H 284.398 1.90391 0.416802 0
M  V30 3046 H 283.494 2.54822 1.80201 0
M  V30 3047 N 283.795 -0.628877 1.44509 0
M  V30 3048 C 285.025 -1.41349 1.50678 0
M  V30 3049 C 285.433 -1.88745 0.131075 0
M  V30 3050 O 284.776 -1.61592 -0.87371 0
M  V30 3051 C 284.838 -2.66608 2.41165 0
M  V30 3052 C 284.502 -2.40993 3.88293 0
M  V30 3053 C 285.499 -2.0268 4.78766 0
M  V30 3054 C 283.184 -2.54563 4.33016 0
M  V30 3055 C 285.178 -1.78269 6.11963 0
M  V30 3056 C 282.865 -2.29766 5.6626 0
M  V30 3057 C 283.863 -1.91678 6.55552 0
M  V30 3058 O 283.551 -1.67158 7.86329 0
M  V30 3059 H 283.283 -0.439851 0.51333 0
M  V30 3060 H 285.837 -0.776084 1.90174 0
M  V30 3061 H 284.067 -3.32994 1.96601 0
M  V30 3062 H 285.756 -3.28615 2.38259 0
M  V30 3063 H 286.522 -1.91751 4.45485 0
M  V30 3064 H 282.401 -2.83179 3.63773 0
M  V30 3065 H 285.945 -1.48465 6.81619 0
M  V30 3066 H 281.842 -2.40306 5.99102 0
M  V30 3067 H 282.61 -1.81386 7.98149 0
M  V30 3068 N 285.273 -1.31445 -0.869486 0
M  V30 3069 C 286.52 -1.21158 -1.62256 0
M  V30 3070 C 286.848 0.230155 -1.93133 0
M  V30 3071 O 286.103 1.17906 -1.56194 0
M  V30 3072 C 286.402 -2.00145 -2.96102 0
M  V30 3073 C 286.068 -3.4964 -2.84715 0
M  V30 3074 C 284.73 -3.90403 -2.81317 0
M  V30 3075 C 287.082 -4.44769 -2.71716 0
M  V30 3076 C 284.41 -5.24561 -2.62778 0
M  V30 3077 C 286.762 -5.79054 -2.54714 0
M  V30 3078 C 285.426 -6.19037 -2.49699 0
M  V30 3079 H 284.696 -0.443348 -0.593737 0
M  V30 3080 H 287.343 -1.62715 -1.00976 0
M  V30 3081 H 285.648 -1.5127 -3.6142 0
M  V30 3082 H 287.345 -1.89566 -3.53363 0
M  V30 3083 H 283.935 -3.17256 -2.88178 0
M  V30 3084 H 288.119 -4.14208 -2.73397 0
M  V30 3085 H 283.375 -5.54613 -2.57321 0
M  V30 3086 H 287.549 -6.52393 -2.43632 0
M  V30 3087 H 285.176 -7.22935 -2.35093 0
M  V30 3088 N 286.751 1.08385 -1.14413 0
M  V30 3089 C 287.681 2.17321 -0.854044 0
M  V30 3090 C 288.662 1.69024 0.191049 0
M  V30 3091 O 289.847 1.94141 0.0476779 0
M  V30 3092 C 286.977 3.45719 -0.330983 0
M  V30 3093 C 285.931 4.07409 -1.31155 0
M  V30 3094 C 285.257 5.30762 -0.64778 0
M  V30 3095 C 286.557 4.48665 -2.67388 0
M  V30 3096 H 288.251 2.41845 -1.76498 0
M  V30 3097 H 285.797 1.16233 -0.850051 0
M  V30 3098 H 287.75 4.21241 -0.115645 0
M  V30 3099 H 286.474 3.2075 0.615381 0
M  V30 3100 H 285.133 3.33919 -1.51306 0
M  V30 3101 H 284.781 5.02078 0.304398 0
M  V30 3102 H 284.481 5.72992 -1.30207 0
M  V30 3103 H 286.005 6.08998 -0.441972 0
M  V30 3104 H 287.419 5.15364 -2.51143 0
M  V30 3105 H 285.816 5.01814 -3.29093 0
M  V30 3106 H 286.886 3.60543 -3.24248 0
M  V30 3107 N 288.23 0.939286 1.26551 0
M  V30 3108 C 289.193 0.451987 2.24699 0
M  V30 3109 C 290.193 -0.435869 1.5478 0
M  V30 3110 O 291.383 -0.235314 1.72603 0
M  V30 3111 C 288.515 -0.348801 3.39111 0
M  V30 3112 H 289.708 1.3193 2.69322 0
M  V30 3113 H 287.261 0.721072 1.38673 0
M  V30 3114 H 287.996 -1.23444 2.99887 0
M  V30 3115 H 287.781 0.287945 3.91041 0
M  V30 3116 H 289.271 -0.679726 4.12031 0
M  V30 3117 N 289.708 -1.40897 0.706093 0
M  V30 3118 C 290.638 -2.33418 0.0620085 0
M  V30 3119 C 291.619 -1.52385 -0.755827 0
M  V30 3120 O 292.804 -1.80886 -0.706674 0
M  V30 3121 C 289.934 -3.36293 -0.867445 0
M  V30 3122 C 288.888 -4.27716 -0.155932 0
M  V30 3123 C 288.214 -5.2105 -1.20046 0
M  V30 3124 C 289.514 -5.12944 0.984149 0
M  V30 3125 H 291.208 -2.87527 0.83477 0
M  V30 3126 H 288.754 -1.38249 0.402875 0
M  V30 3127 H 290.707 -3.99949 -1.32735 0
M  V30 3128 H 289.431 -2.80556 -1.67199 0
M  V30 3129 H 288.09 -3.65498 0.284047 0
M  V30 3130 H 287.738 -4.61624 -1.99781 0
M  V30 3131 H 287.438 -5.83056 -0.729328 0
M  V30 3132 H 288.962 -5.87584 -1.66066 0
M  V30 3133 H 290.376 -5.70109 0.604048 0
M  V30 3134 H 288.773 -5.83945 1.38304 0
M  V30 3135 H 289.843 -4.49485 1.81911 0
M  V30 3136 N 291.186 -0.45159 -1.50991 0
M  V30 3137 C 292.414 0.108334 -2.06616 0
M  V30 3138 C 292.829 1.35224 -1.31757 0
M  V30 3139 O 292.186 1.78475 -0.381174 0
M  V30 3140 C 292.237 0.41619 -3.59096 0
M  V30 3141 O 291.958 -0.778361 -4.3113 0
M  V30 3142 C 293.459 1.02523 -4.31282 0
M  V30 3143 H 290.679 0.00159995 -0.670998 0
M  V30 3144 H 293.223 -0.634771 -1.94399 0
M  V30 3145 H 291.378 1.10921 -3.71181 0
M  V30 3146 H 291.792 -0.511181 -5.22003 0
M  V30 3147 H 293.266 1.19053 -5.39009 0
M  V30 3148 H 293.743 2.01013 -3.905 0
M  V30 3149 H 294.349 0.371173 -4.23677 0
M  V30 3150 N 292.664 1.56529 -0.183458 0
M  V30 3151 C 293.912 1.96855 0.457452 0
M  V30 3152 C 294.233 1.07104 1.62953 0
M  V30 3153 O 293.503 0.139887 1.954 0
M  V30 3154 H 292.083 0.72693 0.171992 0
M  V30 3155 H 294.745 1.93056 -0.267476 0
M  V30 3156 H 293.841 3.01423 0.809368 0
M  V30 3157 N 294.142 -0.090211 1.57342 0
M  V30 3158 C 295.389 -0.792807 1.86335 0
M  V30 3159 C 295.717 -1.78494 0.772662 0
M  V30 3160 O 294.972 -1.94305 -0.233258 0
M  V30 3161 C 295.271 -1.55222 3.21933 0
M  V30 3162 C 294.937 -0.701765 4.45406 0
M  V30 3163 C 293.599 -0.467334 4.78925 0
M  V30 3164 C 295.951 -0.11086 5.21082 0
M  V30 3165 C 293.279 0.367785 5.85546 0
M  V30 3166 C 295.631 0.711609 6.28585 0
M  V30 3167 C 294.295 0.956086 6.60617 0
M  V30 3168 H 293.565 -0.290109 0.681849 0
M  V30 3169 H 296.212 -0.0541332 1.91423 0
M  V30 3170 H 294.517 -2.3626 3.12551 0
M  V30 3171 H 296.214 -2.10032 3.41595 0
M  V30 3172 H 292.804 -0.894598 4.1916 0
M  V30 3173 H 296.988 -0.279129 4.95514 0
M  V30 3174 H 292.244 0.566128 6.08773 0
M  V30 3175 H 296.418 1.17632 6.86393 0
M  V30 3176 H 294.045 1.60499 7.43064 0
M  V30 3177 N 295.62 -1.53406 -0.361157 0
M  V30 3178 C 297.036 -1.43277 -0.703124 0
M  V30 3179 C 297.236 -0.575384 -1.9311 0
M  V30 3180 O 296.292 -0.0595362 -2.5243 0
M  V30 3181 C 297.605 -2.8653 -0.9122 0
M  V30 3182 C 299.153 -2.96191 -1.01193 0
M  V30 3183 C 299.628 -4.40514 -1.25345 0
M  V30 3184 N 301.119 -4.43962 -1.32105 0
M  V30 3185 C 301.854 -5.52746 -1.5251 0
M  V30 3186 N 301.35 -6.71567 -1.70203 0
M  V30 3187 N 303.143 -5.40331 -1.54916 0
M  V30 3188 H 295.294 -2.07654 0.446475 0
M  V30 3189 H 297.557 -0.937944 0.137715 0
M  V30 3190 H 297.263 -3.51605 -0.0816414 0
M  V30 3191 H 297.137 -3.30441 -1.81903 0
M  V30 3192 H 299.524 -2.31266 -1.83303 0
M  V30 3193 H 299.605 -2.55667 -0.0823929 0
M  V30 3194 H 299.249 -5.06014 -0.437346 0
M  V30 3195 H 299.179 -4.78614 -2.19627 0
M  V30 3196 H 301.67 -3.58332 -1.20028 0
M  V30 3197 H 301.983 -7.50241 -1.85359 0
M  V30 3198 H 300.328 -6.74545 -1.67373 0
M  V30 3199 H 303.519 -4.46465 -1.40663 0
M  V30 3200 H 303.692 -6.25173 -1.70477 0
M  V30 3201 N 297.098 0.621204 -1.44841 0
M  V30 3202 C 298.028 1.74366 -1.55303 0
M  V30 3203 C 299.009 1.65199 -0.405385 0
M  V30 3204 O 300.194 1.83807 -0.626787 0
M  V30 3205 C 297.324 3.12931 -1.50637 0
M  V30 3206 C 296.278 3.36896 -2.63979 0
M  V30 3207 C 295.604 4.75594 -2.44366 0
M  V30 3208 C 296.904 3.28483 -4.06074 0
M  V30 3209 H 298.598 1.65867 -2.49256 0
M  V30 3210 H 296.144 0.796558 -1.19962 0
M  V30 3211 H 298.097 3.9124 -1.56555 0
M  V30 3212 H 296.821 3.22237 -0.532057 0
M  V30 3213 H 295.48 2.60972 -2.57467 0
M  V30 3214 H 295.128 4.81616 -1.45105 0
M  V30 3215 H 294.828 4.92586 -3.20364 0
M  V30 3216 H 296.352 5.5612 -2.52117 0
M  V30 3217 H 297.766 3.96684 -4.13902 0
M  V30 3218 H 296.163 3.57008 -4.82354 0
M  V30 3219 H 297.233 2.26133 -4.28943 0
M  V30 3220 N 298.576 1.31904 0.862503 0
M  V30 3221 C 299.523 1.20182 1.9704 0
M  V30 3222 C 300.493 0.0858247 1.65878 0
M  V30 3223 O 301.678 0.26 1.8902 0
M  V30 3224 C 298.818 0.922797 3.32533 0
M  V30 3225 C 297.931 2.12284 3.76244 0
M  V30 3226 C 297.066 1.77996 5.00491 0
M  V30 3227 C 296.105 2.94366 5.36671 0
M  V30 3228 N 295.242 2.60223 6.52095 0
M  V30 3229 H 300.082 2.14951 2.06398 0
M  V30 3230 H 297.619 1.06917 1.01031 0
M  V30 3231 H 299.577 0.741548 4.10557 0
M  V30 3232 H 298.207 0.0119227 3.22798 0
M  V30 3233 H 297.259 2.41461 2.9394 0
M  V30 3234 H 298.571 2.99357 3.98982 0
M  V30 3235 H 297.725 1.56377 5.862 0
M  V30 3236 H 296.464 0.881252 4.79672 0
M  V30 3237 H 295.469 3.16625 4.49476 0
M  V30 3238 H 296.694 3.84957 5.59451 0
M  V30 3239 H 294.64 1.72884 6.32809 0
M  V30 3240 H 294.557 3.40827 6.74814 0
M  V30 3241 H 295.825 2.42016 7.40978 0
M  V30 3242 N 300.054 -1.07777 1.14986 0
M  V30 3243 C 301.302 -1.79934 0.920235 0
M  V30 3244 C 301.623 -1.86955 -0.554336 0
M  V30 3245 O 300.893 -1.36731 -1.40291 0
M  V30 3246 H 299.473 -0.666424 0.337473 0
M  V30 3247 H 302.135 -1.3027 1.44968 0
M  V30 3248 H 301.231 -2.82539 1.32583 0
M  V30 3249 N 301.532 -0.945985 -1.26051 0
M  V30 3250 C 302.948 -0.649045 -1.45807 0
M  V30 3251 C 303.148 0.796158 -1.85104 0
M  V30 3252 O 302.204 1.57233 -1.97571 0
M  V30 3253 C 303.517 -1.61458 -2.53677 0
M  V30 3254 C 305.065 -1.62481 -2.67524 0
M  V30 3255 C 305.54 -2.57776 -3.7857 0
M  V30 3256 N 307.031 -2.5609 -3.85969 0
M  V30 3257 C 307.766 -3.26508 -4.7136 0
M  V30 3258 N 307.262 -4.0637 -5.61102 0
M  V30 3259 N 309.055 -3.15437 -4.65248 0
M  V30 3260 H 301.206 -1.88005 -0.988328 0
M  V30 3261 H 303.469 -0.808198 -0.4955 0
M  V30 3262 H 303.175 -2.64644 -2.31638 0
M  V30 3263 H 303.049 -1.37036 -3.51427 0
M  V30 3264 H 305.436 -0.600167 -2.88933 0
M  V30 3265 H 305.517 -1.90958 -1.70202 0
M  V30 3266 H 305.161 -3.60361 -3.57913 0
M  V30 3267 H 305.091 -2.26587 -4.75359 0
M  V30 3268 H 307.582 -1.98105 -3.21812 0
M  V30 3269 H 307.895 -4.57042 -6.23164 0
M  V30 3270 H 306.24 -4.10469 -5.60839 0
M  V30 3271 H 309.431 -2.52525 -3.94143 0
M  V30 3272 H 309.604 -3.70584 -5.31575 0
M  V30 3273 N 303.011 1.40521 -0.713556 0
M  V30 3274 C 304.288 1.94775 -0.17943 0
M  V30 3275 C 304.668 1.65184 1.31444 0
M  V30 3276 O 304.016 0.968429 2.06963 0
M  V30 3277 C 304.226 3.45543 -0.489986 0
M  V30 3278 C 305.574 4.22442 -0.427536 0
M  V30 3279 O 306.598 3.53644 -0.425929 0
M  V30 3280 O 305.457 5.4501 -0.403292 0
M  V30 3281 H 302.551 0.826606 -0.0255192 0
M  V30 3282 H 305.097 1.5014 -0.790949 0
M  V30 3283 H 303.869 3.60432 -1.5233 0
M  V30 3284 H 303.492 3.97311 0.151598 0
M  V30 3285 N 304.489 0.459591 1.5075 0
M  V30 3286 C 305.735 -0.0994966 2.02556 0
M  V30 3287 C 306.068 -1.40399 1.3417 0
M  V30 3288 O 305.343 -1.88892 0.463683 0
M  V30 3289 C 305.626 -0.295242 3.58888 0
M  V30 3290 C 305.479 1.02947 4.37861 0
M  V30 3291 C 306.798 -1.05502 4.27267 0
M  V30 3292 H 303.917 -0.034686 0.736183 0
M  V30 3293 H 306.559 0.602938 1.8018 0
M  V30 3294 H 304.709 -0.893563 3.78084 0
M  V30 3295 H 306.381 1.66348 4.30263 0
M  V30 3296 H 304.624 1.62885 4.02058 0
M  V30 3297 H 305.295 0.846281 5.45474 0
M  V30 3298 H 307.771 -0.547993 4.12476 0
M  V30 3299 H 306.647 -1.16077 5.36486 0
M  V30 3300 H 306.908 -2.08875 3.89645 0
M  V30 3301 N 305.967 -1.56429 0.191757 0
M  V30 3302 C 307.197 -2.01574 -0.452928 0
M  V30 3303 C 307.605 -1.07107 -1.55964 0
M  V30 3304 O 306.948 -0.067534 -1.83576 0
M  V30 3305 C 307.01 -3.43121 -1.07278 0
M  V30 3306 C 306.674 -4.56879 -0.105214 0
M  V30 3307 C 307.671 -5.15379 0.684149 0
M  V30 3308 C 305.356 -5.023 0.00489824 0
M  V30 3309 C 307.35 -6.17746 1.57062 0
M  V30 3310 C 305.037 -6.04511 0.894935 0
M  V30 3311 C 306.035 -6.62108 1.67637 0
M  V30 3312 O 305.723 -7.62335 2.55149 0
M  V30 3313 H 305.455 -0.665554 -0.118379 0
M  V30 3314 H 308.009 -2.03245 0.296737 0
M  V30 3315 H 306.239 -3.38425 -1.87097 0
M  V30 3316 H 307.928 -3.72093 -1.62177 0
M  V30 3317 H 308.694 -4.81157 0.609365 0
M  V30 3318 H 304.573 -4.57168 -0.593156 0
M  V30 3319 H 308.117 -6.6263 2.181 0
M  V30 3320 H 304.014 -6.38157 0.970847 0
M  V30 3321 H 304.782 -7.79741 2.48892 0
M  V30 3322 N 307.445 0.0818655 -1.57387 0
M  V30 3323 C 308.861 0.436412 -1.53517 0
M  V30 3324 C 309.061 1.79758 -0.910459 0
M  V30 3325 O 308.117 2.47324 -0.508636 0
M  V30 3326 C 309.43 0.386734 -2.98203 0
M  V30 3327 C 310.978 0.467644 -3.09487 0
M  V30 3328 C 311.453 0.447978 -4.55804 0
M  V30 3329 N 312.944 0.508348 -4.60402 0
M  V30 3330 C 313.679 0.515184 -5.71081 0
M  V30 3331 N 313.175 0.477435 -6.91153 0
M  V30 3332 N 314.968 0.560988 -5.59294 0
M  V30 3333 H 307.119 -0.809546 -1.96367 0
M  V30 3334 H 309.382 -0.302733 -0.898363 0
M  V30 3335 H 309.088 -0.546539 -3.47427 0
M  V30 3336 H 308.962 1.20075 -3.57578 0
M  V30 3337 H 311.349 1.39134 -2.60242 0
M  V30 3338 H 311.43 -0.374753 -2.5304 0
M  V30 3339 H 311.074 -0.471826 -5.05704 0
M  V30 3340 H 311.004 1.30777 -5.10103 0
M  V30 3341 H 313.495 0.54218 -3.7399 0
M  V30 3342 H 313.808 0.486299 -7.71268 0
M  V30 3343 H 312.153 0.444278 -6.93579 0
M  V30 3344 H 315.344 0.5881 -4.64391 0
M  V30 3345 H 315.517 0.562846 -6.45551 0
M  V30 3346 N 308.923 1.53595 0.353017 0
M  V30 3347 C 309.886 1.80232 1.41594 0
M  V30 3348 C 310.886 0.673081 1.46035 0
M  V30 3349 O 312.076 0.941335 1.46576 0
M  V30 3350 C 309.208 1.93578 2.80607 0
M  V30 3351 H 310.401 2.75174 1.19244 0
M  V30 3352 H 307.954 1.44864 0.586872 0
M  V30 3353 H 308.689 1.00746 3.08254 0
M  V30 3354 H 308.474 2.75724 2.78781 0
M  V30 3355 H 309.964 2.15735 3.57558 0
M  V30 3356 N 310.401 -0.613514 1.45168 0
M  V30 3357 C 311.649 -1.36997 1.48581 0
M  V30 3358 C 311.97 -1.94589 0.126545 0
M  V30 3359 O 311.24 -1.76816 -0.843372 0
M  V30 3360 H 309.82 -0.508558 0.547154 0
M  V30 3361 H 312.482 -0.720853 1.81079 0
M  V30 3362 H 311.578 -2.1924 2.22127 0
M  V30 3363 N 311.879 -1.3236 -0.855495 0
M  V30 3364 C 313.128 -1.22226 -1.60448 0
M  V30 3365 C 313.441 0.214733 -1.94418 0
M  V30 3366 O 314.647 0.437917 -2.67945 0
M  V30 3367 C 313.103 -2.14063 -2.89318 0
M  V30 3368 C 312.711 -3.62839 -2.62777 0
M  V30 3369 C 314.455 -2.12764 -3.67331 0
M  V30 3370 C 312.362 -4.4664 -3.87643 0
M  V30 3371 H 311.292 -0.453904 -0.602069 0
M  V30 3372 H 313.943 -1.57314 -0.944698 0
M  V30 3373 H 312.325 -1.71889 -3.5675 0
M  V30 3374 H 313.499 -4.1335 -2.03662 0
M  V30 3375 H 311.814 -3.66261 -1.98096 0
M  V30 3376 H 314.411 -2.72611 -4.59987 0
M  V30 3377 H 314.754 -1.11841 -4.00995 0
M  V30 3378 H 315.287 -2.53214 -3.06802 0
M  V30 3379 H 312.026 -5.48373 -3.5912 0
M  V30 3380 H 311.546 -4.0088 -4.46156 0
M  V30 3381 H 313.225 -4.59597 -4.55389 0
M  V30 3382 N 313.357 1.07166 -1.15556 0
M  V30 3383 C 314.32 2.12589 -0.856644 0
M  V30 3384 C 315.32 1.6015 0.14444 0
M  V30 3385 O 316.51 1.7399 -0.0854163 0
M  V30 3386 C 313.642 3.39753 -0.279405 0
M  V30 3387 H 314.835 2.40539 -1.79112 0
M  V30 3388 H 312.388 1.23086 -0.963298 0
M  V30 3389 H 313.123 3.17447 0.663174 0
M  V30 3390 H 312.908 3.79117 -1.00063 0
M  V30 3391 H 314.398 4.17507 -0.0879113 0
M  V30 3392 N 314.835 0.952656 1.25548 0
M  V30 3393 C 316.063 0.623496 1.97282 0
M  V30 3394 C 316.478 -0.803987 1.70826 0
M  V30 3395 O 315.835 -1.53755 0.983147 0
M  V30 3396 C 315.886 0.870209 3.5087 0
M  V30 3397 O 315.607 2.24156 3.76412 0
M  V30 3398 C 317.108 0.553164 4.39835 0
M  V30 3399 H 314.328 0.233931 0.628902 0
M  V30 3400 H 316.872 1.27649 1.59768 0
M  V30 3401 H 315.027 0.263652 3.86502 0
M  V30 3402 H 315.441 2.31021 4.70882 0
M  V30 3403 H 316.915 0.776342 5.46513 0
M  V30 3404 H 317.392 -0.512215 4.36203 0
M  V30 3405 H 317.998 1.13896 4.09766 0
M  V30 3406 N 316.313 -1.40141 0.720998 0
M  V30 3407 C 317.263 -2.27949 0.0482544 0
M  V30 3408 C 318.247 -1.43538 -0.727021 0
M  V30 3409 O 319.439 -1.6658 -0.598332 0
M  V30 3410 C 316.568 -3.32126 -0.868729 0
M  V30 3411 C 315.654 -4.24008 -0.0883515 0
M  V30 3412 N 316.045 -4.97154 0.931226 0
M  V30 3413 C 314.343 -4.4485 -0.320105 0
M  V30 3414 C 315.044 -5.64587 1.4006 0
M  V30 3415 N 314.02 -5.38787 0.721752 0
M  V30 3416 H 317.822 -2.81948 0.829609 0
M  V30 3417 H 315.336 -1.52656 0.554067 0
M  V30 3418 H 317.333 -3.93884 -1.36605 0
M  V30 3419 H 315.993 -2.79687 -1.6494 0
M  V30 3420 H 317.004 -5.01 1.31222 0
M  V30 3421 H 313.681 -4.03378 -1.07668 0
M  V30 3422 H 315.071 -6.33175 2.24808 0
M  V30 3423 N 317.792 -0.46758 -1.50504 0
M  V30 3424 C 319.039 0.0886219 -2.02306 0
M  V30 3425 C 319.367 1.40037 -1.34981 0
M  V30 3426 O 318.622 1.90136 -0.463318 0
M  V30 3427 C 318.921 0.323995 -3.55928 0
M  V30 3428 C 318.587 -0.905618 -4.41712 0
M  V30 3429 C 317.249 -1.24275 -4.64875 0
M  V30 3430 C 319.601 -1.72448 -4.91845 0
M  V30 3431 C 316.929 -2.39888 -5.35417 0
M  V30 3432 C 319.281 -2.87185 -5.63656 0
M  V30 3433 C 317.945 -3.21317 -5.85074 0
M  V30 3434 H 317.215 0.0324291 -0.74029 0
M  V30 3435 H 319.862 -0.620945 -1.81153 0
M  V30 3436 H 318.167 1.11577 -3.75577 0
M  V30 3437 H 319.864 0.76826 -3.93572 0
M  V30 3438 H 316.454 -0.632956 -4.239 0
M  V30 3439 H 320.638 -1.4772 -4.73806 0
M  V30 3440 H 315.894 -2.66611 -5.50208 0
M  V30 3441 H 320.068 -3.50985 -6.01484 0
M  V30 3442 H 317.695 -4.1101 -6.39511 0
M  V30 3443 N 319.27 1.56325 -0.20005 0
M  V30 3444 C 320.516 1.98012 0.438059 0
M  V30 3445 C 320.849 1.08702 1.60927 0
M  V30 3446 O 320.124 0.140064 1.93995 0
M  V30 3447 C 320.407 3.48841 0.893419 0
M  V30 3448 C 320.26 4.48928 -0.279947 0
M  V30 3449 C 321.579 4.03498 1.75719 0
M  V30 3450 H 318.698 0.719918 0.157757 0
M  V30 3451 H 321.34 1.87743 -0.291968 0
M  V30 3452 H 319.49 3.57723 1.51547 0
M  V30 3453 H 321.162 4.52079 -0.91772 0
M  V30 3454 H 319.405 4.23694 -0.930919 0
M  V30 3455 H 320.076 5.5194 0.0812601 0
M  V30 3456 H 322.552 3.97427 1.23253 0
M  V30 3457 H 321.428 5.09393 2.04476 0
M  V30 3458 H 321.689 3.4906 2.71311 0
M  V30 3459 N 320.748 -0.0735177 1.57428 0
M  V30 3460 C 322.025 -0.805903 1.78226 0
M  V30 3461 C 322.405 -1.95874 0.787189 0
M  V30 3462 O 321.753 -2.2779 -0.180029 0
M  V30 3463 C 321.963 -1.28045 3.24662 0
M  V30 3464 C 323.311 -1.71453 3.88444 0
M  V30 3465 O 324.335 -1.37616 3.28543 0
M  V30 3466 O 323.194 -2.34093 4.93825 0
M  V30 3467 H 320.288 -0.386041 0.73137 0
M  V30 3468 H 322.834 -0.0537269 1.69615 0
M  V30 3469 H 321.606 -0.455476 3.8864 0
M  V30 3470 H 321.229 -2.094 3.37991 0
M  V30 3471 N 322.226 -1.5378 -0.344866 0
M  V30 3472 C 323.451 -1.75211 -1.10977 0
M  V30 3473 C 323.876 -0.48936 -1.81623 0
M  V30 3474 O 323.234 0.557925 -1.72502 0
M  V30 3475 C 323.282 -2.93147 -2.09993 0
M  V30 3476 O 322.386 -2.63203 -3.17487 0
M  V30 3477 H 321.727 -0.581241 -0.321021 0
M  V30 3478 H 324.257 -2.00738 -0.395661 0
M  V30 3479 H 324.267 -3.19898 -2.53237 0
M  V30 3480 H 322.942 -3.84731 -1.5797 0
M  V30 3481 H 321.519 -2.47336 -2.79069 0
M  V30 3482 N 323.704 0.605807 -1.45491 0
M  V30 3483 C 324.614 1.74466 -1.56839 0
M  V30 3484 C 325.63 1.68006 -0.452772 0
M  V30 3485 O 326.806 1.8833 -0.713708 0
M  V30 3486 C 323.871 3.10931 -1.53371 0
M  V30 3487 C 322.932 3.28832 -2.75986 0
M  V30 3488 C 322.165 4.58787 -2.72673 0
M  V30 3489 O 322.388 5.4122 -1.80102 0
M  V30 3490 O 321.322 4.79438 -3.63899 0
M  V30 3491 H 325.148 1.67843 -2.53106 0
M  V30 3492 H 322.733 0.770108 -1.28022 0
M  V30 3493 H 324.615 3.92233 -1.54051 0
M  V30 3494 H 323.29 3.18042 -0.602572 0
M  V30 3495 H 322.197 2.47112 -2.80867 0
M  V30 3496 H 323.53 3.26599 -3.68231 0
M  V30 3497 N 325.182 1.32811 0.848464 0
M  V30 3498 C 326.129 1.22265 1.95755 0
M  V30 3499 C 327.099 0.103413 1.65778 0
M  V30 3500 O 328.284 0.280033 1.88734 0
M  V30 3501 C 325.424 0.958014 3.31536 0
M  V30 3502 C 324.537 2.16262 3.73971 0
M  V30 3503 C 323.672 1.83295 4.98575 0
M  V30 3504 C 322.711 3.00041 5.33518 0
M  V30 3505 N 321.848 2.67125 6.49299 0
M  V30 3506 H 326.688 2.17128 2.04107 0
M  V30 3507 H 324.225 1.07982 0.998913 0
M  V30 3508 H 326.183 0.785052 4.09747 0
M  V30 3509 H 324.813 0.046159 3.22767 0
M  V30 3510 H 323.865 2.44565 2.91362 0
M  V30 3511 H 325.177 3.03572 3.95785 0
M  V30 3512 H 324.331 1.62586 5.84509 0
M  V30 3513 H 323.07 0.932078 4.7871 0
M  V30 3514 H 322.075 3.21374 4.46093 0
M  V30 3515 H 323.3 3.90869 5.55336 0
M  V30 3516 H 321.246 1.79586 6.3094 0
M  V30 3517 H 321.163 3.47965 6.71161 0
M  V30 3518 H 322.431 2.49861 7.3837 0
M  V30 3519 N 326.66 -1.06551 1.16123 0
M  V30 3520 C 327.59 -2.15935 0.88851 0
M  V30 3521 C 328.571 -1.69306 -0.164135 0
M  V30 3522 O 329.756 -1.94193 -0.0167857 0
M  V30 3523 C 326.886 -3.45149 0.385942 0
M  V30 3524 C 325.84 -4.05271 1.3762 0
M  V30 3525 C 325.166 -5.29664 0.732137 0
M  V30 3526 C 326.466 -4.44355 2.74493 0
M  V30 3527 H 328.16 -2.39006 1.80323 0
M  V30 3528 H 325.706 -1.14866 0.868435 0
M  V30 3529 H 327.659 -4.21004 0.182647 0
M  V30 3530 H 326.383 -3.21689 -0.564274 0
M  V30 3531 H 325.042 -3.3147 1.56599 0
M  V30 3532 H 324.69 -5.02499 -0.224483 0
M  V30 3533 H 324.39 -5.70848 1.39307 0
M  V30 3534 H 325.914 -6.08218 0.538802 0
M  V30 3535 H 327.328 -5.11303 2.59311 0
M  V30 3536 H 325.725 -4.96515 3.37035 0
M  V30 3537 H 326.795 -3.55339 3.29943 0
M  V30 3538 N 328.138 -0.959301 -1.25041 0
M  V30 3539 C 329.101 -0.487677 -2.23952 0
M  V30 3540 C 330.101 0.41119 -1.55454 0
M  V30 3541 O 331.291 0.207825 -1.72956 0
M  V30 3542 C 328.423 0.294807 -3.39623 0
M  V30 3543 H 329.616 -1.36198 -2.67189 0
M  V30 3544 H 327.169 -0.743042 -1.37508 0
M  V30 3545 H 327.904 1.18658 -3.01813 0
M  V30 3546 H 327.689 -0.35012 -3.90534 0
M  V30 3547 H 329.179 0.614089 -4.1306 0
M  V30 3548 N 329.616 1.39756 -0.72842 0
M  V30 3549 C 330.549 2.28176 -0.0330172 0
M  V30 3550 C 331.527 1.44035 0.754501 0
M  V30 3551 O 332.711 1.73434 0.738445 0
M  V30 3552 C 329.838 3.24795 0.960504 0
M  V30 3553 C 328.884 4.25693 0.262264 0
M  V30 3554 S 329.717 5.25714 -1.01906 0
M  V30 3555 C 330.873 6.25894 -0.0279717 0
M  V30 3556 H 331.106 2.86807 -0.78287 0
M  V30 3557 H 328.639 1.45382 -0.519951 0
M  V30 3558 H 330.597 3.80983 1.52846 0
M  V30 3559 H 329.258 2.65196 1.68315 0
M  V30 3560 H 328.451 4.93699 1.01379 0
M  V30 3561 H 328.053 3.7327 -0.233482 0
M  V30 3562 H 330.345 6.72585 0.814621 0
M  V30 3563 H 331.288 7.04876 -0.67499 0
M  V30 3564 H 331.696 5.63466 0.341489 0
M  V30 3565 N 331.094 0.475555 1.50254 0
M  V30 3566 C 332.024 -0.30611 2.31485 0
M  V30 3567 C 333.005 -0.986228 1.38591 0
M  V30 3568 O 334.19 -0.982541 1.67511 0
M  V30 3569 C 331.32 -1.38588 3.1845 0
M  V30 3570 C 330.274 -0.827115 4.19932 0
M  V30 3571 C 329.6 -2.00551 4.95665 0
M  V30 3572 C 330.9 0.16463 5.2204 0
M  V30 3573 H 332.594 0.371866 2.97082 0
M  V30 3574 H 330.14 0.180282 1.42867 0
M  V30 3575 H 332.093 -1.94023 3.74076 0
M  V30 3576 H 330.817 -2.09269 2.50747 0
M  V30 3577 H 329.476 -0.294702 3.65414 0
M  V30 3578 H 329.124 -2.6994 4.2443 0
M  V30 3579 H 328.824 -1.63784 5.64313 0
M  V30 3580 H 330.348 -2.56468 5.54127 0
M  V30 3581 H 331.762 -0.300699 5.72511 0
M  V30 3582 H 330.159 0.446813 5.98434 0
M  V30 3583 H 331.229 1.08905 4.72512 0
M  V30 3584 N 332.573 -1.56217 0.208337 0
M  V30 3585 C 333.483 -2.23316 -0.718836 0
M  V30 3586 C 334.499 -1.23648 -1.22422 0
M  V30 3587 O 335.675 -1.56423 -1.26861 0
M  V30 3588 C 332.74 -2.88968 -1.91568 0
M  V30 3589 C 331.801 -4.03943 -1.45357 0
M  V30 3590 C 331.034 -4.66455 -2.59337 0
M  V30 3591 O 331.257 -4.27919 -3.77149 0
M  V30 3592 O 330.191 -5.55686 -2.31293 0
M  V30 3593 H 334.017 -3.03182 -0.177315 0
M  V30 3594 H 331.602 -1.49384 -0.0215402 0
M  V30 3595 H 333.484 -3.30455 -2.61491 0
M  V30 3596 H 332.159 -2.12071 -2.44556 0
M  V30 3597 H 331.066 -3.67052 -0.722746 0
M  V30 3598 H 332.399 -4.82543 -0.970219 0
M  V30 3599 N 334.051 0.0651679 -1.57465 0
M  V30 3600 C 334.961 1.09448 -2.07505 0
M  V30 3601 C 335.977 1.41974 -1.00595 0
M  V30 3602 O 337.153 1.52018 -1.32107 0
M  V30 3603 C 334.218 2.38689 -2.51453 0
M  V30 3604 C 333.279 2.13073 -3.72691 0
M  V30 3605 C 332.512 3.36152 -4.14533 0
M  V30 3606 O 332.735 4.45517 -3.56189 0
M  V30 3607 O 331.669 3.23974 -5.07272 0
M  V30 3608 H 335.495 0.69935 -2.95538 0
M  V30 3609 H 333.08 0.279752 -1.46757 0
M  V30 3610 H 334.962 3.14736 -2.80212 0
M  V30 3611 H 333.637 2.77568 -1.66546 0
M  V30 3612 H 332.544 1.34709 -3.49005 0
M  V30 3613 H 333.877 1.79071 -4.5847 0
M  V30 3614 N 335.529 1.53961 0.336706 0
M  V30 3615 C 336.806 1.62171 1.09361 0
M  V30 3616 C 337.186 0.447263 2.06307 0
M  V30 3617 O 336.534 -0.559802 2.21537 0
M  V30 3618 C 336.744 2.98565 1.80721 0
M  V30 3619 C 338.092 3.54157 2.34218 0
M  V30 3620 O 339.116 3.00784 1.90807 0
M  V30 3621 O 337.975 4.47528 3.13657 0
M  V30 3622 H 335.069 0.6562 0.503319 0
M  V30 3623 H 337.615 1.66307 0.33765 0
M  V30 3624 H 336.387 3.75482 1.10132 0
M  V30 3625 H 336.01 2.9805 2.63158 0
M  V30 3626 N 337.007 -0.598083 1.45811 0
M  V30 3627 C 337.937 -1.71873 1.58057 0
M  V30 3628 C 338.918 -1.64533 0.431615 0
M  V30 3629 O 340.103 -1.82787 0.65595 0
M  V30 3630 C 337.233 -3.10495 1.55597 0
M  V30 3631 C 336.187 -3.32654 2.69305 0
M  V30 3632 C 335.513 -4.71646 2.51902 0
M  V30 3633 C 336.813 -3.21981 4.11248 0
M  V30 3634 H 338.507 -1.61881 2.51863 0
M  V30 3635 H 336.053 -0.777372 1.21214 0
M  V30 3636 H 338.006 -3.88699 1.6276 0
M  V30 3637 H 336.73 -3.2135 0.583255 0
M  V30 3638 H 335.389 -2.56843 2.61586 0
M  V30 3639 H 335.037 -4.79246 1.52748 0
M  V30 3640 H 334.737 -4.87426 3.2816 0
M  V30 3641 H 336.261 -5.52038 2.60933 0
M  V30 3642 H 337.675 -3.90049 4.20161 0
M  V30 3643 H 336.072 -3.49289 4.87972 0
M  V30 3644 H 337.142 -2.1928 4.32486 0
M  V30 3645 N 338.485 -1.33259 -0.841409 0
M  V30 3646 C 339.415 -1.25926 -1.96634 0
M  V30 3647 C 340.396 -0.140349 -1.6952 0
M  V30 3648 O 341.581 -0.329707 -1.91381 0
M  V30 3649 C 338.711 -0.99512 -3.32738 0
M  V30 3650 C 337.665 -2.0767 -3.74242 0
M  V30 3651 C 336.991 -1.66474 -5.08125 0
M  V30 3652 C 338.291 -3.49318 -3.88297 0
M  V30 3653 H 339.985 -2.20046 -2.03027 0
M  V30 3654 H 337.531 -1.05931 -0.975425 0
M  V30 3655 H 339.484 -0.930323 -4.11002 0
M  V30 3656 H 338.208 -0.0183004 -3.26595 0
M  V30 3657 H 336.867 -2.13187 -2.98239 0
M  V30 3658 H 336.515 -0.675012 -4.9845 0
M  V30 3659 H 336.215 -2.3885 -5.36865 0
M  V30 3660 H 337.739 -1.61455 -5.88867 0
M  V30 3661 H 339.153 -3.46316 -4.56879 0
M  V30 3662 H 337.55 -4.20158 -4.28471 0
M  V30 3663 H 338.62 -3.8801 -2.9082 0
M  V30 3664 N 339.963 1.05934 -1.16686 0
M  V30 3665 C 340.926 2.11669 -0.879144 0
M  V30 3666 C 341.926 1.60294 0.127445 0
M  V30 3667 O 343.116 1.7389 -0.103865 0
M  V30 3668 C 340.248 3.39438 -0.315425 0
M  V30 3669 H 341.441 2.38626 -1.81653 0
M  V30 3670 H 338.994 1.22058 -0.976299 0
M  V30 3671 H 339.729 3.18132 0.629468 0
M  V30 3672 H 339.514 3.78034 -1.04079 0
M  V30 3673 H 341.004 4.17391 -0.132189 0
M  V30 3674 N 341.441 0.965919 1.2453 0
M  V30 3675 C 342.371 0.513476 2.27784 0
M  V30 3676 C 343.352 -0.445974 1.6415 0
M  V30 3677 O 344.537 -0.342485 1.91156 0
M  V30 3678 C 341.667 -0.198839 3.4673 0
M  V30 3679 C 340.621 0.676456 4.2262 0
M  V30 3680 C 339.947 -0.167248 5.34438 0
M  V30 3681 C 341.247 1.96017 4.84123 0
M  V30 3682 H 342.941 1.3765 2.65881 0
M  V30 3683 H 340.487 0.663321 1.27813 0
M  V30 3684 H 342.44 -0.526567 4.18097 0
M  V30 3685 H 341.164 -1.0962 3.07654 0
M  V30 3686 H 339.823 0.98743 3.53052 0
M  V30 3687 H 339.471 -1.0647 4.91603 0
M  V30 3688 H 339.171 0.415181 5.86131 0
M  V30 3689 H 340.695 -0.489688 6.08633 0
M  V30 3690 H 342.109 1.69814 5.47573 0
M  V30 3691 H 340.506 2.48918 5.4604 0
M  V30 3692 H 341.576 2.65622 4.05676 0
M  V30 3693 N 342.919 -1.39368 0.735821 0
M  V30 3694 C 343.866 -2.30599 0.0963825 0
M  V30 3695 C 344.836 -1.49257 -0.728794 0
M  V30 3696 O 346.021 -1.77941 -0.688588 0
M  V30 3697 C 343.161 -3.35596 -0.804305 0
M  V30 3698 C 342.274 -4.31987 0.0335761 0
M  V30 3699 C 341.409 -5.24053 -0.868461 0
M  V30 3700 C 340.448 -6.12095 -0.0258776 0
M  V30 3701 N 339.585 -6.96514 -0.883893 0
M  V30 3702 H 344.425 -2.8471 0.880002 0
M  V30 3703 H 341.962 -1.40188 0.445619 0
M  V30 3704 H 343.92 -3.95062 -1.34096 0
M  V30 3705 H 342.55 -2.82938 -1.55389 0
M  V30 3706 H 341.602 -3.74133 0.68766 0
M  V30 3707 H 342.914 -4.94074 0.685036 0
M  V30 3708 H 342.068 -5.88549 -1.47293 0
M  V30 3709 H 340.807 -4.62289 -1.5537 0
M  V30 3710 H 339.812 -5.4661 0.591386 0
M  V30 3711 H 341.037 -6.75923 0.656156 0
M  V30 3712 H 338.983 -6.37318 -1.55441 0
M  V30 3713 H 338.9 -7.55448 -0.288931 0
M  V30 3714 H 340.168 -7.65439 -1.4739 0
M  V30 3715 N 344.397 -0.483516 -1.5 0
M  V30 3716 C 345.622 0.0667119 -2.07293 0
M  V30 3717 C 346.047 1.3164 -1.3436 0
M  V30 3718 O 345.405 1.76945 -0.394987 0
M  V30 3719 C 345.453 0.321126 -3.59167 0
M  V30 3720 O 344.557 1.39927 -3.87936 0
M  V30 3721 H 343.898 -0.0184758 -0.663743 0
M  V30 3722 H 346.428 -0.678125 -1.93035 0
M  V30 3723 H 346.438 0.557906 -4.04168 0
M  V30 3724 H 345.113 -0.592007 -4.11665 0
M  V30 3725 H 343.69 1.14882 -3.54763 0
M  V30 3726 N 345.875 1.56104 -0.216619 0
M  V30 3727 C 347.286 1.844 0.292128 0
M  V30 3728 C 347.637 1.13788 1.59833 0
M  V30 3729 O 346.762 0.405888 2.12559 0
M  V30 3730 C 347.357 3.3452 0.53681 0
M  V30 3731 C 345.916 3.63151 0.989876 0
M  V30 3732 C 345.063 2.77255 0.0502302 0
M  V30 3733 H 348.014 1.52481 -0.439926 0
M  V30 3734 H 348.035 3.54459 1.38345 0
M  V30 3735 H 347.547 3.85885 -0.414031 0
M  V30 3736 H 345.648 3.17238 1.95425 0
M  V30 3737 H 345.761 4.71177 0.867698 0
M  V30 3738 H 344.125 2.48555 0.556117 0
M  V30 3739 H 344.908 3.31416 -0.89544 0
M  V30 3740 N 347.353 -0.0568162 1.57498 0
M  V30 3741 C 348.578 -0.769402 1.92601 0
M  V30 3742 C 349.003 -1.69559 0.814336 0
M  V30 3743 O 348.361 -1.79811 -0.231903 0
M  V30 3744 C 348.409 -1.52634 3.26704 0
M  V30 3745 O 347.513 -2.63797 3.16994 0
M  V30 3746 H 346.854 -0.208909 0.63028 0
M  V30 3747 H 349.384 -0.0205798 2.0459 0
M  V30 3748 H 349.394 -1.90234 3.60936 0
M  V30 3749 H 348.069 -0.846875 4.07186 0
M  V30 3750 H 346.646 -2.28943 2.94346 0
M  V30 3751 N 348.832 -1.54138 -0.328536 0
M  V30 3752 C 349.779 -1.83176 -1.40411 0
M  V30 3753 C 350.749 -0.678494 -1.5161 0
M  V30 3754 O 351.934 -0.92443 -1.6691 0
M  V30 3755 C 349.074 -2.06035 -2.76846 0
M  V30 3756 C 348.187 -3.33727 -2.74318 0
M  V30 3757 C 347.322 -3.46574 -4.02567 0
M  V30 3758 C 346.361 -4.68159 -3.94327 0
M  V30 3759 N 345.498 -4.77959 -5.14296 0
M  V30 3760 H 350.338 -2.74938 -1.14948 0
M  V30 3761 H 347.875 -1.36166 -0.556538 0
M  V30 3762 H 349.833 -2.1728 -3.56153 0
M  V30 3763 H 348.463 -1.1757 -3.00628 0
M  V30 3764 H 347.515 -3.31246 -1.8703 0
M  V30 3765 H 348.827 -4.23139 -2.64111 0
M  V30 3766 H 347.981 -3.57333 -4.90304 0
M  V30 3767 H 346.72 -2.55245 -4.15574 0
M  V30 3768 H 345.725 -4.57461 -3.04974 0
M  V30 3769 H 346.95 -5.60868 -3.82889 0
M  V30 3770 H 344.896 -3.89544 -5.27818 0
M  V30 3771 H 344.813 -5.6133 -5.06404 0
M  V30 3772 H 346.081 -4.93044 -6.03761 0
M  V30 3773 N 350.31 0.590341 -1.46126 0
M  V30 3774 C 351.22 1.72793 -1.58681 0
M  V30 3775 C 352.236 1.67516 -0.470566 0
M  V30 3776 O 353.412 1.87562 -0.733642 0
M  V30 3777 C 350.477 3.09287 -1.5666 0
M  V30 3778 C 349.538 3.25886 -2.79458 0
M  V30 3779 C 348.771 4.55869 -2.77524 0
M  V30 3780 O 348.994 5.3928 -1.85832 0
M  V30 3781 O 347.928 4.75552 -3.68964 0
M  V30 3782 H 351.754 1.65149 -2.54872 0
M  V30 3783 H 349.339 0.756486 -1.28832 0
M  V30 3784 H 351.221 3.90577 -1.58202 0
M  V30 3785 H 349.896 3.17385 -0.636271 0
M  V30 3786 H 348.803 2.44119 -2.83472 0
M  V30 3787 H 350.136 3.22675 -3.71674 0
M  V30 3788 N 351.788 1.33704 0.83433 0
M  V30 3789 C 352.736 1.24323 1.96587 0
M  V30 3790 C 353.73 0.143659 1.6879 0
M  V30 3791 O 354.936 0.30791 1.77347 0
M  V30 3792 H 351.311 0.385925 0.645419 0
M  V30 3793 H 353.282 2.19978 2.01624 0
M  V30 3794 C 352.031 1.00394 3.32891 0
M  V30 3795 H 351.354 1.84231 3.54822 0
M  V30 3796 H 352.794 0.97862 4.12552 0
M  V30 3797 C 351.253 -0.293047 3.35623 0
M  V30 3798 O 351.783 -1.29823 3.80143 0
M  V30 3799 N 349.989 -0.322174 2.88809 0
M  V30 3800 H 349.536 0.496379 2.52772 0
M  V30 3801 H 349.494 -1.18977 2.91019 0
M  V30 3802 N 353.266 -1.05314 1.17247 0
M  V30 3803 C 354.515 -1.77685 0.954521 0
M  V30 3804 C 354.828 -1.88616 -0.518025 0
M  V30 3805 O 356.034 -2.57714 -0.854144 0
M  V30 3806 C 354.49 -3.19402 1.65863 0
M  V30 3807 C 354.098 -3.16605 3.16963 0
M  V30 3808 C 355.842 -3.96237 1.52303 0
M  V30 3809 C 353.749 -4.53103 3.80068 0
M  V30 3810 H 352.679 -0.666 0.353496 0
M  V30 3811 H 355.33 -1.1805 1.40486 0
M  V30 3812 H 353.712 -3.79355 1.13602 0
M  V30 3813 H 354.886 -2.66176 3.76148 0
M  V30 3814 H 353.201 -2.53268 3.30521 0
M  V30 3815 H 355.798 -4.97157 1.96822 0
M  V30 3816 H 356.141 -4.136 0.473401 0
M  V30 3817 H 356.674 -3.42829 2.01775 0
M  V30 3818 H 353.413 -4.40946 4.85023 0
M  V30 3819 H 352.933 -5.03686 3.2567 0
M  V30 3820 H 354.612 -5.22045 3.82202 0
M  V30 3821 N 354.744 -0.972509 -1.24016 0
M  V30 3822 C 355.707 -0.511403 -2.23422 0
M  V30 3823 C 356.707 0.394679 -1.55881 0
M  V30 3824 O 357.897 0.189469 -1.73167 0
M  V30 3825 C 355.029 0.258769 -3.39916 0
M  V30 3826 H 356.222 -1.39024 -2.6573 0
M  V30 3827 H 353.775 -0.757585 -1.36713 0
M  V30 3828 H 354.51 1.1545 -3.03054 0
M  V30 3829 H 354.295 -0.391522 -3.9014 0
M  V30 3830 H 355.785 0.570244 -4.13688 0
M  V30 3831 N 356.222 1.38976 -0.743202 0
M  V30 3832 C 357.447 2.05161 -0.303936 0
M  V30 3833 C 357.872 1.55677 1.05576 0
M  V30 3834 O 357.23 0.704131 1.67068 0
M  V30 3835 C 357.278 3.59138 -0.324373 0
M  V30 3836 O 356.382 4.06668 0.685204 0
M  V30 3837 H 355.723 0.649815 -0.136518 0
M  V30 3838 H 358.253 1.77852 -1.01142 0
M  V30 3839 H 358.263 4.07639 -0.171618 0
M  V30 3840 H 356.938 3.94515 -1.31647 0
M  V30 3841 H 355.515 3.69561 0.497913 0
M  V30 3842 N 357.7 0.491464 1.49741 0
M  V30 3843 C 358.946 -0.0565092 2.02721 0
M  V30 3844 C 359.279 -1.37522 1.37118 0
M  V30 3845 O 358.554 -1.87866 0.503645 0
M  V30 3846 C 358.837 -0.219051 3.59433 0
M  V30 3847 C 358.69 1.12211 4.35579 0
M  V30 3848 C 360.009 -0.964157 4.29409 0
M  V30 3849 H 357.128 -0.0190627 0.736753 0
M  V30 3850 H 359.77 0.641021 1.7886 0
M  V30 3851 H 357.92 -0.813165 3.79895 0
M  V30 3852 H 359.592 1.75437 4.26637 0
M  V30 3853 H 357.835 1.71377 3.98513 0
M  V30 3854 H 358.506 0.961794 5.43556 0
M  V30 3855 H 360.982 -0.460378 4.13545 0
M  V30 3856 H 359.858 -1.04671 5.38828 0
M  V30 3857 H 360.119 -2.00563 3.93988 0
M  V30 3858 N 359.178 -1.55987 0.224894 0
M  V30 3859 C 360.108 -2.23426 -0.678457 0
M  V30 3860 C 361.089 -1.20709 -1.19847 0
M  V30 3861 O 362.274 -1.49304 -1.24186 0
M  V30 3862 C 359.404 -2.91676 -1.88527 0
M  V30 3863 C 358.358 -4.00893 -1.49896 0
M  V30 3864 C 357.684 -4.56455 -2.78483 0
M  V30 3865 C 358.984 -5.17769 -0.686461 0
M  V30 3866 H 360.678 -2.99175 -0.116173 0
M  V30 3867 H 358.224 -1.43897 -0.054436 0
M  V30 3868 H 360.177 -3.37547 -2.5227 0
M  V30 3869 H 358.901 -2.1338 -2.47258 0
M  V30 3870 H 357.56 -3.55758 -0.884985 0
M  V30 3871 H 357.208 -3.74886 -3.35365 0
M  V30 3872 H 356.908 -5.30169 -2.53368 0
M  V30 3873 H 358.432 -5.05047 -3.43162 0
M  V30 3874 H 359.846 -5.60001 -1.22767 0
M  V30 3875 H 358.243 -5.97735 -0.532259 0
M  V30 3876 H 359.313 -4.83932 0.306196 0
M  V30 3877 N 360.656 0.0484629 -1.57525 0
M  V30 3878 C 361.566 1.07241 -2.08654 0
M  V30 3879 C 362.582 1.409 -1.02095 0
M  V30 3880 O 363.758 1.50609 -1.33712 0
M  V30 3881 C 360.823 2.36008 -2.5397 0
M  V30 3882 C 359.884 2.09108 -3.7493 0
M  V30 3883 C 359.117 3.31736 -4.18075 0
M  V30 3884 O 359.34 4.41714 -3.60895 0
M  V30 3885 O 358.274 3.18576 -5.10679 0
M  V30 3886 H 362.1 0.667965 -2.96263 0
M  V30 3887 H 359.685 0.26417 -1.47046 0
M  V30 3888 H 361.567 3.11747 -2.83535 0
M  V30 3889 H 360.242 2.75786 -1.69481 0
M  V30 3890 H 359.149 1.31 -3.50414 0
M  V30 3891 H 360.482 1.74198 -4.60343 0
M  V30 3892 N 362.134 1.5431 0.320358 0
M  V30 3893 C 363.082 1.84647 1.4145 0
M  V30 3894 C 364.076 0.718624 1.53402 0
M  V30 3895 O 365.282 0.902335 1.5575 0
M  V30 3896 H 361.657 0.585349 0.472091 0
M  V30 3897 H 363.628 2.7614 1.13089 0
M  V30 3898 C 362.377 2.09341 2.77617 0
M  V30 3899 H 361.7 2.9559 2.69196 0
M  V30 3900 H 363.14 2.3452 3.53237 0
M  V30 3901 C 361.599 0.885939 3.25043 0
M  V30 3902 O 362.129 0.0967891 4.01583 0
M  V30 3903 N 360.335 0.696682 2.82125 0
M  V30 3904 H 359.882 1.34006 2.2 0
M  V30 3905 H 359.84 -0.109712 3.14209 0
M  V30 3906 N 363.613 -0.582584 1.46437 0
M  V30 3907 C 364.843 -1.36484 1.55099 0
M  V30 3908 C 365.251 -1.88233 0.191056 0
M  V30 3909 O 364.594 -1.6429 -0.821858 0
M  V30 3910 C 364.656 -2.588 2.49525 0
M  V30 3911 C 364.32 -2.28517 3.95764 0
M  V30 3912 C 365.317 -1.87346 4.84972 0
M  V30 3913 C 363.002 -2.40658 4.40896 0
M  V30 3914 C 364.996 -1.5871 6.17325 0
M  V30 3915 C 362.683 -2.11635 5.73284 0
M  V30 3916 C 363.681 -1.70725 6.61318 0
M  V30 3917 O 363.369 -1.42057 7.91249 0
M  V30 3918 H 363.101 -0.423297 0.527063 0
M  V30 3919 H 365.655 -0.715188 1.92547 0
M  V30 3920 H 363.885 -3.26571 2.07095 0
M  V30 3921 H 365.574 -3.20868 2.48593 0
M  V30 3922 H 366.34 -1.77481 4.5136 0
M  V30 3923 H 362.219 -2.71463 3.72598 0
M  V30 3924 H 365.763 -1.26704 6.85997 0
M  V30 3925 H 361.66 -2.21124 6.06444 0
M  V30 3926 H 362.428 -1.55901 8.03515 0
M  V30 3927 N 365.091 -1.34144 -0.827227 0
M  V30 3928 C 366.041 -1.21923 -1.92663 0
M  V30 3929 C 367.025 -0.119294 -1.60457 0
M  V30 3930 O 368.217 -0.348539 -1.73534 0
M  V30 3931 C 365.346 -0.972492 -3.29238 0
M  V30 3932 C 364.432 -2.1154 -3.67576 0
M  V30 3933 N 364.823 -3.36627 -3.77512 0
M  V30 3934 C 363.121 -2.02468 -3.97395 0
M  V30 3935 C 363.822 -4.11658 -4.1099 0
M  V30 3936 N 362.798 -3.40207 -4.23981 0
M  V30 3937 H 366.6 -2.16721 -1.98517 0
M  V30 3938 H 364.114 -1.2632 -1.02064 0
M  V30 3939 H 366.111 -0.865847 -4.0781 0
M  V30 3940 H 364.771 -0.0331509 -3.24683 0
M  V30 3941 H 365.782 -3.71234 -3.61118 0
M  V30 3942 H 362.459 -1.16265 -4.00985 0
M  V30 3943 H 363.849 -5.19657 -4.25918 0
M  V30 3944 N 366.569 1.04691 -1.17803 0
M  V30 3945 C 367.797 1.81446 -0.99423 0
M  V30 3946 C 368.212 1.83174 0.457459 0
M  V30 3947 O 367.569 1.26265 1.31771 0
M  V30 3948 C 367.62 3.27334 -1.5341 0
M  V30 3949 O 367.341 3.25798 -2.92895 0
M  V30 3950 C 368.842 4.20759 -1.39559 0
M  V30 3951 H 366.062 0.571599 -0.351447 0
M  V30 3952 H 368.606 1.31982 -1.56208 0
M  V30 3953 H 366.761 3.74052 -1.00815 0
M  V30 3954 H 367.175 4.17144 -3.17949 0
M  V30 3955 H 368.649 5.21084 -1.82141 0
M  V30 3956 H 369.126 4.37856 -0.343394 0
M  V30 3957 H 369.732 3.79901 -1.91195 0
M  V30 3958 N 368.047 0.979072 1.23499 0
M  V30 3959 C 368.957 0.526431 2.28617 0
M  V30 3960 C 369.973 -0.418126 1.68901 0
M  V30 3961 O 371.149 -0.288372 1.99325 0
M  V30 3962 C 368.214 -0.165235 3.46306 0
M  V30 3963 C 367.275 0.82056 4.21385 0
M  V30 3964 C 366.508 0.161807 5.33455 0
M  V30 3965 O 366.731 -1.04742 5.60701 0
M  V30 3966 O 365.665 0.859708 5.95729 0
M  V30 3967 H 369.491 1.4006 2.69475 0
M  V30 3968 H 367.076 0.746643 1.29405 0
M  V30 3969 H 368.958 -0.553287 4.17752 0
M  V30 3970 H 367.633 -1.01419 3.07402 0
M  V30 3971 H 366.54 1.25929 3.52268 0
M  V30 3972 H 367.873 1.63828 4.64135 0
M  V30 3973 N 369.525 -1.3858 0.750561 0
M  V30 3974 C 370.75 -2.04997 0.314812 0
M  V30 3975 C 371.175 -1.56235 -1.04749 0
M  V30 3976 O 370.533 -0.712981 -1.66692 0
M  V30 3977 C 370.581 -3.58961 0.343415 0
M  V30 3978 O 369.685 -4.07025 -0.663628 0
M  V30 3979 H 369.026 -0.649081 0.139962 0
M  V30 3980 H 371.556 -1.77313 1.02084 0
M  V30 3981 H 371.566 -4.07542 0.193233 0
M  V30 3982 H 370.241 -3.93811 1.33738 0
M  V30 3983 H 368.818 -3.6982 -0.478307 0
M  V30 3984 N 371.003 -0.499398 -1.49478 0
M  V30 3985 C 371.95 0.279881 -2.29097 0
M  V30 3986 C 372.92 0.961805 -1.3542 0
M  V30 3987 O 374.105 0.968777 -1.64376 0
M  V30 3988 C 371.245 1.33932 -3.18051 0
M  V30 3989 C 370.358 0.669333 -4.26783 0
M  V30 3990 C 369.493 1.70907 -5.02955 0
M  V30 3991 C 368.532 1.02087 -6.03527 0
M  V30 3992 N 367.669 2.00474 -6.7287 0
M  V30 3993 H 372.509 -0.405317 -2.95231 0
M  V30 3994 H 370.046 -0.211726 -1.45568 0
M  V30 3995 H 372.004 1.96553 -3.67998 0
M  V30 3996 H 370.634 1.9933 -2.53904 0
M  V30 3997 H 369.686 -0.0701234 -3.80335 0
M  V30 3998 H 370.998 0.127503 -4.98637 0
M  V30 3999 H 370.152 2.41037 -5.56764 0
M  V30 4000 H 368.891 2.28476 -4.30871 0
M  V30 4001 H 367.896 0.305338 -5.48951 0
M  V30 4002 H 369.121 0.451708 -6.77596 0
M  V30 4003 H 367.067 2.57007 -6.03559 0
M  V30 4004 H 366.984 1.51353 -7.40694 0
M  V30 4005 H 368.252 2.69897 -7.31284 0
M  V30 4006 N 372.481 1.55866 -0.233164 0
M  V30 4007 C 373.73 1.97779 0.39579 0
M  V30 4008 C 374.043 1.12419 1.60066 0
M  V30 4009 O 375.249 1.44283 2.29988 0
M  V30 4010 C 373.705 3.5188 0.755556 0
M  V30 4011 C 373.313 4.45959 -0.427152 0
M  V30 4012 C 375.057 4.02479 1.34946 0
M  V30 4013 C 372.964 5.91383 -0.0443043 0
M  V30 4014 H 371.894 0.738592 0.15165 0
M  V30 4015 H 374.545 1.80486 -0.331212 0
M  V30 4016 H 372.927 3.64816 1.5403 0
M  V30 4017 H 374.101 4.44776 -1.20462 0
M  V30 4018 H 372.416 4.05765 -0.935068 0
M  V30 4019 H 375.013 5.08637 1.649 0
M  V30 4020 H 375.356 3.49014 2.26925 0
M  V30 4021 H 375.889 3.92813 0.62791 0
M  V30 4022 H 372.628 6.48857 -0.930874 0
M  V30 4023 H 372.148 5.95734 0.697238 0
M  V30 4024 H 373.827 6.45893 0.378334 0
M  V30 4025 N 373.959 -0.0401083 1.57549 0
M  V30 4026 C 375.236 -0.767917 1.79896 0
M  V30 4027 C 375.616 -1.9416 0.82856 0
M  V30 4028 O 374.964 -2.2812 -0.131671 0
M  V30 4029 C 375.174 -1.2113 3.27305 0
M  V30 4030 C 376.522 -1.63175 3.91994 0
M  V30 4031 O 377.546 -1.30616 3.31388 0
M  V30 4032 O 376.405 -2.23565 4.98679 0
M  V30 4033 H 373.499 -0.370441 0.739393 0
M  V30 4034 H 376.045 -0.017737 1.69691 0
M  V30 4035 H 374.817 -0.372937 3.89519 0
M  V30 4036 H 374.44 -2.02183 3.42356 0
M  V30 4037 N 375.437 -1.54477 -0.31217 0
M  V30 4038 C 376.853 -1.45442 -0.657185 0
M  V30 4039 C 377.053 -0.63653 -1.91182 0
M  V30 4040 O 376.109 -0.139815 -2.52113 0
M  V30 4041 C 377.422 -2.89287 -0.82058 0
M  V30 4042 C 378.97 -2.9926 -0.917188 0
M  V30 4043 C 379.445 -4.44279 -1.11267 0
M  V30 4044 N 380.936 -4.4794 -1.17914 0
M  V30 4045 C 381.671 -5.57318 -1.34848 0
M  V30 4046 N 381.167 -6.76642 -1.48752 0
M  V30 4047 N 382.96 -5.44986 -1.37647 0
M  V30 4048 H 375.111 -2.06129 0.512313 0
M  V30 4049 H 377.374 -0.933088 0.167485 0
M  V30 4050 H 377.08 -3.51687 0.0302604 0
M  V30 4051 H 376.954 -3.36061 -1.71298 0
M  V30 4052 H 379.341 -2.36981 -1.75852 0
M  V30 4053 H 379.422 -2.558 -0.00101257 0
M  V30 4054 H 379.066 -5.07149 -0.27614 0
M  V30 4055 H 378.996 -4.85359 -2.04289 0
M  V30 4056 H 381.487 -3.61969 -1.08567 0
M  V30 4057 H 381.8 -7.55758 -1.61397 0
M  V30 4058 H 380.145 -6.79529 -1.45828 0
M  V30 4059 H 383.336 -4.50715 -1.26388 0
M  V30 4060 H 383.509 -6.3028 -1.50501 0
M  V30 4061 N 376.915 0.57481 -1.46744 0
M  V30 4062 C 378.192 1.3352 -1.4294 0
M  V30 4063 C 378.572 2.10775 -0.117009 0
M  V30 4064 O 377.92 2.09966 0.901474 0
M  V30 4065 C 378.13 2.25456 -2.66403 0
M  V30 4066 C 379.478 2.87035 -3.12883 0
M  V30 4067 O 380.502 2.35766 -2.67007 0
M  V30 4068 O 379.361 3.80179 -3.92589 0
M  V30 4069 H 376.455 0.600318 -0.568812 0
M  V30 4070 H 379.001 0.595171 -1.58921 0
M  V30 4071 H 377.773 1.67851 -3.53471 0
M  V30 4072 H 377.396 3.06785 -2.52921 0
M  V30 4073 N 378.394 1.34581 0.820102 0
M  V30 4074 C 379.341 1.2639 1.93117 0
M  V30 4075 C 380.311 0.138554 1.65521 0
M  V30 4076 O 381.496 0.320004 1.88097 0
M  V30 4077 C 378.636 1.02812 3.29429 0
M  V30 4078 C 377.749 2.24146 3.693 0
M  V30 4079 C 376.884 1.93829 4.94574 0
M  V30 4080 C 375.923 3.1129 5.27034 0
M  V30 4081 N 375.06 2.80838 6.43486 0
M  V30 4082 H 379.9 2.21408 1.99455 0
M  V30 4083 H 377.437 1.10077 0.975784 0
M  V30 4084 H 379.395 0.871788 4.0799 0
M  V30 4085 H 378.025 0.114612 3.22596 0
M  V30 4086 H 377.077 2.50691 2.86109 0
M  V30 4087 H 378.389 3.11899 3.89257 0
M  V30 4088 H 377.543 1.74948 5.80929 0
M  V30 4089 H 376.282 1.03341 4.76626 0
M  V30 4090 H 375.287 3.30764 4.39175 0
M  V30 4091 H 376.512 4.02561 5.4692 0
M  V30 4092 H 374.458 1.92929 6.26988 0
M  V30 4093 H 374.375 3.62123 6.63629 0
M  V30 4094 H 375.643 2.65467 7.32903 0
M  V30 4095 N 379.872 -1.04064 1.18357 0
M  V30 4096 C 381.097 -1.81454 1.00445 0
M  V30 4097 C 381.522 -1.82823 -0.442423 0
M  V30 4098 O 380.88 -1.24555 -1.31741 0
M  V30 4099 C 380.928 -3.24925 1.56384 0
M  V30 4100 O 380.032 -4.04856 0.785209 0
M  V30 4101 H 379.373 -0.560604 0.355835 0
M  V30 4102 H 381.903 -1.31059 1.57114 0
M  V30 4103 H 381.913 -3.75702 1.59097 0
M  V30 4104 H 380.588 -3.23244 2.61699 0
M  V30 4105 H 379.165 -3.63537 0.830399 0
M  V30 4106 N 381.35 -0.985608 -1.22978 0
M  V30 4107 C 382.597 -0.657386 -1.91532 0
M  V30 4108 C 382.925 0.809707 -1.76845 0
M  V30 4109 O 382.18 1.60021 -1.12658 0
M  V30 4110 C 382.479 -1.00014 -3.43121 0
M  V30 4111 C 382.145 -2.4583 -3.77993 0
M  V30 4112 C 380.807 -2.85679 -3.87222 0
M  V30 4113 C 383.159 -3.40378 -3.94705 0
M  V30 4114 C 380.487 -4.19081 -4.10595 0
M  V30 4115 C 382.839 -4.73429 -4.1958 0
M  V30 4116 C 381.503 -5.1303 -4.27032 0
M  V30 4117 H 380.773 -0.240555 -0.700867 0
M  V30 4118 H 383.42 -1.24044 -1.45895 0
M  V30 4119 H 381.725 -0.335072 -3.90365 0
M  V30 4120 H 383.422 -0.724322 -3.94404 0
M  V30 4121 H 380.012 -2.13939 -3.71387 0
M  V30 4122 H 384.196 -3.10766 -3.8696 0
M  V30 4123 H 379.452 -4.49362 -4.14589 0
M  V30 4124 H 383.626 -5.46644 -4.31455 0
M  V30 4125 H 381.253 -6.16418 -4.44896 0
M  V30 4126 N 382.828 1.3818 -0.7579 0
M  V30 4127 C 384.077 1.99261 -0.312744 0
M  V30 4128 C 384.39 1.60846 1.11301 0
M  V30 4129 O 385.596 2.14929 1.65885 0
M  V30 4130 C 384.052 3.56294 -0.50821 0
M  V30 4131 C 383.66 4.03657 -1.94333 0
M  V30 4132 C 385.404 4.24313 -0.125982 0
M  V30 4133 C 383.311 5.53347 -2.08712 0
M  V30 4134 H 382.241 0.745456 -0.113185 0
M  V30 4135 H 384.892 1.57889 -0.935056 0
M  V30 4136 H 383.274 3.95575 0.183353 0
M  V30 4137 H 384.448 3.75655 -2.66871 0
M  V30 4138 H 382.763 3.48376 -2.28086 0
M  V30 4139 H 385.36 5.34279 -0.212125 0
M  V30 4140 H 385.703 4.05962 0.921964 0
M  V30 4141 H 386.236 3.90285 -0.769563 0
M  V30 4142 H 382.975 5.76607 -3.11777 0
M  V30 4143 H 382.495 5.83078 -1.4064 0
M  V30 4144 H 384.174 6.19111 -1.87912 0
M  V30 4145 N 384.306 0.507319 1.49211 0
M  V30 4146 C 385.236 -0.256939 2.32082 0
M  V30 4147 C 386.217 -0.956609 1.40652 0
M  V30 4148 O 387.402 -0.946788 1.69557 0
M  V30 4149 C 384.532 -1.31802 3.21318 0
M  V30 4150 C 383.486 -0.737855 4.21592 0
M  V30 4151 C 382.812 -1.89992 4.99807 0
M  V30 4152 C 384.112 0.275325 5.21574 0
M  V30 4153 H 385.806 0.434798 2.96226 0
M  V30 4154 H 383.352 0.210546 1.42452 0
M  V30 4155 H 385.305 -1.86045 3.78107 0
M  V30 4156 H 384.029 -2.03903 2.5513 0
M  V30 4157 H 382.688 -0.217126 3.65956 0
M  V30 4158 H 382.336 -2.60877 4.30061 0
M  V30 4159 H 382.036 -1.51777 5.6766 0
M  V30 4160 H 383.56 -2.44657 5.59442 0
M  V30 4161 H 384.974 -0.179193 5.7302 0
M  V30 4162 H 383.371 0.573649 5.97352 0
M  V30 4163 H 384.441 1.18903 4.70096 0
M  V30 4164 N 385.784 -1.5574 0.241426 0
M  V30 4165 C 386.694 -2.2479 -0.671305 0
M  V30 4166 C 387.71 -1.26217 -1.19772 0
M  V30 4167 O 388.886 -1.59079 -1.23514 0
M  V30 4168 C 385.951 -2.92966 -1.85396 0
M  V30 4169 C 385.012 -4.06935 -1.36756 0
M  V30 4170 C 384.245 -4.71851 -2.49384 0
M  V30 4171 O 384.468 -4.35823 -3.67987 0
M  V30 4172 O 383.402 -5.60467 -2.19454 0
M  V30 4173 H 387.228 -3.0349 -0.112966 0
M  V30 4174 H 384.813 -1.49397 0.0101513 0
M  V30 4175 H 386.695 -3.35927 -2.54423 0
M  V30 4176 H 385.37 -2.17211 -2.40002 0
M  V30 4177 H 384.277 -3.68503 -0.644726 0
M  V30 4178 H 385.61 -4.84492 -0.867647 0
M  V30 4179 N 387.262 0.0317525 -1.57568 0
M  V30 4180 C 388.172 1.05021 -2.0978 0
M  V30 4181 C 389.188 1.39809 -1.03583 0
M  V30 4182 O 390.364 1.49182 -1.35302 0
M  V30 4183 C 387.429 2.33301 -2.56459 0
M  V30 4184 C 386.49 2.0512 -3.77127 0
M  V30 4185 C 385.723 3.27283 -4.2157 0
M  V30 4186 O 385.946 4.37861 -3.65559 0
M  V30 4187 O 384.88 3.13141 -5.14029 0
M  V30 4188 H 388.706 0.636505 -2.96955 0
M  V30 4189 H 386.291 0.248559 -1.47318 0
M  V30 4190 H 388.173 3.08722 -2.86825 0
M  V30 4191 H 386.848 2.73973 -1.72397 0
M  V30 4192 H 385.755 1.27276 -3.51784 0
M  V30 4193 H 387.088 1.69305 -4.62165 0
M  V30 4194 N 388.74 1.54641 0.303973 0
M  V30 4195 C 389.69 1.8177 1.37636 0
M  V30 4196 C 390.674 0.674697 1.46071 0
M  V30 4197 O 391.866 0.935251 1.50273 0
M  V30 4198 C 388.995 2.06584 2.74186 0
M  V30 4199 C 388.081 3.2706 2.69986 0
M  V30 4200 N 388.472 4.47682 2.35402 0
M  V30 4201 C 386.77 3.29028 3.01092 0
M  V30 4202 C 387.471 5.29689 2.40426 0
M  V30 4203 N 386.447 4.67339 2.7766 0
M  V30 4204 H 390.249 2.72596 1.09857 0
M  V30 4205 H 387.763 1.541 0.51254 0
M  V30 4206 H 389.76 2.24166 3.51504 0
M  V30 4207 H 388.42 1.17024 3.02879 0
M  V30 4208 H 389.431 4.74336 2.07908 0
M  V30 4209 H 386.108 2.49565 3.34699 0
M  V30 4210 H 387.498 6.3606 2.16512 0
M  V30 4211 N 390.218 -0.567019 1.47046 0
M  V30 4212 C 391.151 -1.69016 1.53326 0
M  V30 4213 C 392.129 -1.57949 0.386126 0
M  V30 4214 O 393.313 -1.78945 0.592529 0
M  V30 4215 C 390.44 -3.07191 1.42658 0
M  V30 4216 C 389.486 -3.36733 2.6175 0
M  V30 4217 S 390.319 -3.27069 4.24012 0
M  V30 4218 C 391.475 -4.67755 4.1588 0
M  V30 4219 H 391.708 -1.63434 2.48348 0
M  V30 4220 H 389.241 -0.747048 1.35124 0
M  V30 4221 H 391.199 -3.86897 1.37191 0
M  V30 4222 H 389.86 -3.10249 0.490369 0
M  V30 4223 H 389.053 -4.37441 2.50323 0
M  V30 4224 H 388.655 -2.64627 2.64289 0
M  V30 4225 H 390.947 -5.58491 3.83529 0
M  V30 4226 H 391.89 -4.84239 5.16641 0
M  V30 4227 H 392.298 -4.45341 3.46889 0
M  V30 4228 N 391.696 -1.35014 -0.812953 0
M  V30 4229 C 392.973 -1.18502 -1.55617 0
M  V30 4230 C 393.353 0.238421 -2.09749 0
M  V30 4231 O 392.701 1.2411 -1.91857 0
M  V30 4232 C 392.911 -2.24783 -2.66971 0
M  V30 4233 C 394.259 -2.60268 -3.35478 0
M  V30 4234 O 395.283 -2.23648 -2.77236 0
M  V30 4235 O 394.142 -3.2321 -4.40678 0
M  V30 4236 H 391.236 -0.459984 -0.687272 0
M  V30 4237 H 393.782 -1.46677 -0.853464 0
M  V30 4238 H 392.554 -3.20284 -2.24798 0
M  V30 4239 H 392.177 -1.97841 -3.44884 0
M  V30 4240 N 393.175 1.03435 -1.18907 0
M  V30 4241 C 394.122 2.11591 -0.921837 0
M  V30 4242 C 395.092 1.65499 0.141226 0
M  V30 4243 O 396.277 1.908 0.000242829 0
M  V30 4244 C 393.417 3.42012 -0.460616 0
M  V30 4245 C 392.53 4.01682 -1.58982 0
M  V30 4246 C 391.665 5.20091 -1.08069 0
M  V30 4247 C 390.704 5.71805 -2.18416 0
M  V30 4248 N 389.841 6.81494 -1.68849 0
M  V30 4249 H 394.681 2.33787 -1.8479 0
M  V30 4250 H 392.218 1.1467 -0.921373 0
M  V30 4251 H 394.176 4.16834 -0.174642 0
M  V30 4252 H 392.806 3.19944 0.428467 0
M  V30 4253 H 391.858 3.24127 -1.99113 0
M  V30 4254 H 393.17 4.36084 -2.4214 0
M  V30 4255 H 392.324 6.02051 -0.749615 0
M  V30 4256 H 391.063 4.87209 -0.218771 0
M  V30 4257 H 390.068 4.88461 -2.5236 0
M  V30 4258 H 391.293 6.06728 -3.05054 0
M  V30 4259 H 389.239 6.50475 -0.849572 0
M  V30 4260 H 389.156 7.14994 -2.45601 0
M  V30 4261 H 390.424 7.67063 -1.38689 0
M  V30 4262 N 394.653 0.992116 1.22453 0
M  V30 4263 C 395.902 0.662992 1.90492 0
M  V30 4264 C 396.215 -0.808407 1.78113 0
M  V30 4265 O 397.421 -1.24908 2.41061 0
M  V30 4266 C 395.877 1.1353 3.41524 0
M  V30 4267 C 395.485 2.63187 3.62542 0
M  V30 4268 C 397.229 0.880465 4.15269 0
M  V30 4269 C 395.136 3.04024 5.0727 0
M  V30 4270 H 394.066 0.244278 0.713333 0
M  V30 4271 H 396.717 1.20157 1.38688 0
M  V30 4272 H 395.099 0.52485 3.92506 0
M  V30 4273 H 396.273 3.2957 3.22056 0
M  V30 4274 H 394.588 2.86543 3.02129 0
M  V30 4275 H 397.185 1.16128 5.21937 0
M  V30 4276 H 397.528 -0.183408 4.15896 0
M  V30 4277 H 398.061 1.45307 3.70312 0
M  V30 4278 H 394.8 4.09584 5.11782 0
M  V30 4279 H 394.32 2.42343 5.48662 0
M  V30 4280 H 395.999 2.95282 5.75689 0
M  V30 4281 N 396.131 -1.37776 0.765217 0
M  V30 4282 C 397.079 -2.32209 0.134798 0
M  V30 4283 C 398.073 -1.54607 -0.692315 0
M  V30 4284 O 399.279 -1.70052 -0.590109 0
M  V30 4285 H 395.654 -0.751591 0.0248005 0
M  V30 4286 H 397.625 -2.8297 0.947119 0
M  V30 4287 C 396.374 -3.39841 -0.735063 0
M  V30 4288 H 395.697 -3.99654 -0.107991 0
M  V30 4289 H 397.137 -4.08296 -1.14326 0
M  V30 4290 C 395.596 -2.79378 -1.88281 0
M  V30 4291 O 396.126 -2.69608 -2.97783 0
M  V30 4292 N 394.332 -2.37016 -1.68142 0
M  V30 4293 H 393.879 -2.45162 -0.790772 0
M  V30 4294 H 393.837 -1.96905 -2.45104 0
M  V30 4295 N 397.609 -0.515225 -1.4894 0
M  V30 4296 C 398.834 0.022727 -2.07388 0
M  V30 4297 C 399.259 1.2876 -1.37122 0
M  V30 4298 O 398.617 1.76067 -0.432431 0
M  V30 4299 C 398.665 0.244869 -3.59768 0
M  V30 4300 O 397.769 1.31667 -3.90817 0
M  V30 4301 H 397.11 -0.0325506 -0.663202 0
M  V30 4302 H 399.64 -0.718918 -1.91553 0
M  V30 4303 H 399.65 0.47205 -4.0526 0
M  V30 4304 H 398.325 -0.679194 -4.10317 0
M  V30 4305 H 396.902 1.07331 -3.5712 0
M  V30 4306 N 399.087 1.5561 -0.249682 0
M  V30 4307 C 400.327 2.00916 0.37579 0
M  V30 4308 C 400.691 1.13409 1.54927 0
M  V30 4309 O 401.892 1.48183 2.24266 0
M  V30 4310 C 400.163 3.48949 0.772633 0
M  V30 4311 S 401.722 4.16261 1.38824 0
M  V30 4312 H 398.54 0.70112 0.118117 0
M  V30 4313 H 401.142 1.92052 -0.365567 0
M  V30 4314 H 399.846 4.103 -0.090683 0
M  V30 4315 H 399.377 3.61745 1.5461 0
M  V30 4316 H 401.392 4.17778 2.67724 0
M  V30 4317 N 400.565 -0.0233959 1.57583 0
M  V30 4318 C 401.812 -0.713063 1.8953 0
M  V30 4319 C 402.14 -1.75056 0.847673 0
M  V30 4320 O 401.395 -1.95119 -0.150636 0
M  V30 4321 C 401.694 -1.41428 3.28227 0
M  V30 4322 C 401.36 -0.512222 4.47981 0
M  V30 4323 C 400.022 -0.263785 4.80476 0
M  V30 4324 C 402.374 0.110248 5.21083 0
M  V30 4325 C 399.702 0.615804 5.83459 0
M  V30 4326 C 402.054 0.977573 6.25001 0
M  V30 4327 C 400.718 1.23542 6.55968 0
M  V30 4328 H 399.988 -0.260928 0.69354 0
M  V30 4329 H 402.635 0.0271047 1.91481 0
M  V30 4330 H 400.94 -2.22791 3.22291 0
M  V30 4331 H 402.637 -1.95355 3.50196 0
M  V30 4332 H 399.227 -0.716013 4.22577 0
M  V30 4333 H 403.411 -0.0687137 4.96252 0
M  V30 4334 H 398.667 0.82382 6.05824 0
M  V30 4335 H 402.841 1.46638 6.80786 0
M  V30 4336 H 400.468 1.91871 7.35588 0
M  V30 4337 N 402.043 -1.548 -0.295768 0
M  V30 4338 C 403.268 -1.78653 -1.05346 0
M  V30 4339 C 403.693 -0.546894 -1.79974 0
M  V30 4340 O 403.051 0.502763 -1.7419 0
M  V30 4341 C 403.099 -2.99679 -2.00561 0
M  V30 4342 O 402.203 -2.7317 -3.08953 0
M  V30 4343 H 401.544 -0.59116 -0.302367 0
M  V30 4344 H 404.074 -2.01895 -0.331598 0
M  V30 4345 H 404.084 -3.27793 -2.42932 0
M  V30 4346 H 402.759 -3.89562 -1.4565 0
M  V30 4347 H 401.336 -2.56089 -2.71059 0
M  V30 4348 N 403.521 0.559213 -1.47345 0
M  V30 4349 C 404.484 1.64854 -1.59235 0
M  V30 4350 C 405.484 1.53851 -0.467607 0
M  V30 4351 O 406.674 1.58045 -0.732617 0
M  V30 4352 C 403.806 3.04388 -1.53496 0
M  V30 4353 H 404.999 1.55662 -2.56339 0
M  V30 4354 H 402.552 0.778973 -1.35505 0
M  V30 4355 H 403.287 3.19115 -0.577604 0
M  V30 4356 H 403.072 3.13783 -2.35123 0
M  V30 4357 H 404.562 3.83642 -1.6495 0
M  V30 4358 N 404.999 1.35443 0.805782 0
M  V30 4359 C 405.947 1.28465 1.93906 0
M  V30 4360 C 406.941 0.17943 1.68447 0
M  V30 4361 O 408.147 0.345459 1.76654 0
M  V30 4362 H 404.522 0.399528 0.637088 0
M  V30 4363 H 406.493 2.24206 1.96912 0
M  V30 4364 C 405.242 1.07432 3.30687 0
M  V30 4365 H 404.565 1.91716 3.50835 0
M  V30 4366 H 406.005 1.06591 4.10383 0
M  V30 4367 C 404.464 -0.22179 3.36169 0
M  V30 4368 O 404.994 -1.21731 3.82811 0
M  V30 4369 N 403.2 -0.260841 2.89427 0
M  V30 4370 H 402.747 0.549884 2.51663 0
M  V30 4371 H 402.705 -1.12777 2.93477 0
M  V30 4372 N 406.477 -1.02803 1.19454 0
M  V30 4373 C 407.705 -1.79841 1.02297 0
M  V30 4374 C 408.12 -1.83879 -0.428259 0
M  V30 4375 O 407.477 -1.28345 -1.29745 0
M  V30 4376 C 407.528 -3.24852 1.58598 0
M  V30 4377 O 407.249 -3.21097 2.98041 0
M  V30 4378 C 408.75 -4.18485 1.46236 0
M  V30 4379 H 405.97 -0.565936 0.360496 0
M  V30 4380 H 408.514 -1.2948 1.58288 0
M  V30 4381 H 406.669 -3.72401 1.06753 0
M  V30 4382 H 407.083 -4.12033 3.24545 0
M  V30 4383 H 408.557 -5.18121 1.90407 0
M  V30 4384 H 409.034 -4.37254 0.41301 0
M  V30 4385 H 409.64 -3.76811 1.97215 0
M  V30 4386 N 407.956 -0.998596 -1.21925 0
M  V30 4387 C 409.202 -0.678667 -1.91107 0
M  V30 4388 C 409.535 0.78791 -1.77498 0
M  V30 4389 O 408.81 1.57043 -1.1475 0
M  V30 4390 C 409.093 -1.09245 -3.43129 0
M  V30 4391 C 408.946 -2.61801 -3.6576 0
M  V30 4392 C 410.265 -0.649984 -4.35274 0
M  V30 4393 H 407.384 -0.248025 -0.694012 0
M  V30 4394 H 410.026 -1.24314 -1.43688 0
M  V30 4395 H 408.176 -0.612171 -3.83647 0
M  V30 4396 H 409.848 -3.17543 -3.34611 0
M  V30 4397 H 408.091 -3.03609 -3.09845 0
M  V30 4398 H 408.762 -2.85804 -4.7225 0
M  V30 4399 H 411.238 -1.0626 -4.02303 0
M  V30 4400 H 410.114 -0.967743 -5.40302 0
M  V30 4401 H 410.375 0.449139 -4.39813 0
M  V30 4402 N 409.434 1.37368 -0.772513 0
M  V30 4403 C 410.344 2.34053 -0.160081 0
M  V30 4404 C 411.36 1.60216 0.678728 0
M  V30 4405 O 412.536 1.92303 0.59847 0
M  V30 4406 C 409.601 3.3939 0.708182 0
M  V30 4407 C 408.662 4.29048 -0.147172 0
M  V30 4408 C 407.895 5.29354 0.679744 0
M  V30 4409 O 408.118 5.3723 1.91678 0
M  V30 4410 O 407.052 6.01835 0.0885444 0
M  V30 4411 H 410.878 2.88159 -0.959053 0
M  V30 4412 H 408.463 1.39543 -0.533685 0
M  V30 4413 H 410.345 4.03839 1.20384 0
M  V30 4414 H 409.02 2.8761 1.48533 0
M  V30 4415 H 407.927 3.67697 -0.689205 0
M  V30 4416 H 409.26 4.84134 -0.887423 0
M  V30 4417 N 410.912 0.523116 1.48665 0
M  V30 4418 C 411.822 -0.247406 2.33292 0
M  V30 4419 C 412.838 -0.945769 1.46052 0
M  V30 4420 O 414.014 -0.922253 1.79043 0
M  V30 4421 C 411.079 -1.28487 3.22012 0
M  V30 4422 C 410.14 -0.597592 4.2512 0
M  V30 4423 C 409.373 -1.58563 5.09601 0
M  V30 4424 O 409.596 -2.81763 4.95949 0
M  V30 4425 O 408.53 -1.12879 5.91221 0
M  V30 4426 H 412.356 0.445869 3.00409 0
M  V30 4427 H 409.941 0.284128 1.46673 0
M  V30 4428 H 411.823 -1.88459 3.7691 0
M  V30 4429 H 410.498 -1.96068 2.57564 0
M  V30 4430 H 409.405 0.0424407 3.74076 0
M  V30 4431 H 410.738 0.0361517 4.92187 0
M  V30 4432 N 412.39 -1.55475 0.257931 0
M  V30 4433 C 413.639 -1.98383 -0.364275 0
M  V30 4434 C 413.952 -1.14952 -1.58258 0
M  V30 4435 O 415.158 -1.47924 -2.27664 0
M  V30 4436 C 413.614 -3.53037 -0.699479 0
M  V30 4437 C 413.222 -4.45223 0.498046 0
M  V30 4438 C 414.966 -4.04575 -1.28526 0
M  V30 4439 C 412.873 -5.91238 0.138383 0
M  V30 4440 H 411.803 -0.740911 -0.13988 0
M  V30 4441 H 414.454 -1.79936 0.359883 0
M  V30 4442 H 412.836 -3.6722 -1.48207 0
M  V30 4443 H 414.01 -4.42803 1.27522 0
M  V30 4444 H 412.325 -4.04226 0.999503 0
M  V30 4445 H 414.922 -5.11196 -1.56788 0
M  V30 4446 H 415.265 -3.5258 -2.21344 0
M  V30 4447 H 415.798 -3.93762 -0.565337 0
M  V30 4448 H 412.537 -6.47294 1.03398 0
M  V30 4449 H 412.057 -5.96768 -0.602374 0
M  V30 4450 H 413.736 -6.46413 -0.27553 0
M  V30 4451 N 413.868 0.0150385 -1.57593 0
M  V30 4452 C 415.117 0.702115 -1.89085 0
M  V30 4453 C 415.43 1.75764 -0.858277 0
M  V30 4454 O 416.636 2.49829 -1.0629 0
M  V30 4455 C 415.092 1.29992 -3.35604 0
M  V30 4456 C 414.7 0.280007 -4.47124 0
M  V30 4457 C 416.444 1.96606 -3.76227 0
M  V30 4458 C 414.351 0.886949 -5.84711 0
M  V30 4459 H 413.281 0.265997 -0.705522 0
M  V30 4460 H 415.932 -0.0430408 -1.8345 0
M  V30 4461 H 414.314 2.09525 -3.36029 0
M  V30 4462 H 415.488 -0.489631 -4.58191 0
M  V30 4463 H 413.803 -0.284835 -4.15425 0
M  V30 4464 H 416.4 2.42893 -4.76347 0
M  V30 4465 H 416.743 2.79024 -3.08952 0
M  V30 4466 H 417.276 1.23828 -3.78036 0
M  V30 4467 H 414.015 0.101876 -6.55421 0
M  V30 4468 H 413.535 1.6261 -5.77337 0
M  V30 4469 H 415.214 1.39011 -6.3189 0
M  V30 4470 N 415.346 1.54954 0.287554 0
M  V30 4471 C 416.256 1.8991 1.37736 0
M  V30 4472 C 417.272 0.794701 1.54792 0
M  V30 4473 O 418.448 1.09243 1.69198 0
M  V30 4474 C 415.513 2.15108 2.71899 0
M  V30 4475 C 414.574 3.38752 2.63715 0
M  V30 4476 C 413.807 3.62739 3.91479 0
M  V30 4477 O 414.03 2.89492 4.91478 0
M  V30 4478 O 412.964 4.56267 3.92561 0
M  V30 4479 H 416.79 2.82652 1.11092 0
M  V30 4480 H 414.375 1.41315 0.484807 0
M  V30 4481 H 416.257 2.32806 3.51254 0
M  V30 4482 H 414.932 1.25551 2.9836 0
M  V30 4483 H 413.839 3.26405 1.82786 0
M  V30 4484 H 415.172 4.28483 2.42205 0
M  V30 4485 N 416.824 -0.551391 1.4764 0
M  V30 4486 C 417.772 -1.67896 1.60978 0
M  V30 4487 C 418.766 -1.62549 0.476877 0
M  V30 4488 O 419.972 -1.67664 0.654878 0
M  V30 4489 H 416.347 -0.555649 0.506713 0
M  V30 4490 H 418.318 -1.53784 2.55721 0
M  V30 4491 C 417.067 -3.06234 1.64669 0
M  V30 4492 H 416.39 -3.11033 2.51194 0
M  V30 4493 H 417.83 -3.84804 1.7805 0
M  V30 4494 C 416.289 -3.34737 0.381115 0
M  V30 4495 O 416.819 -3.98381 -0.515297 0
M  V30 4496 N 415.025 -2.8944 0.259354 0
M  V30 4497 H 414.572 -2.37827 0.98976 0
M  V30 4498 H 414.53 -3.08882 -0.586464 0
M  V30 4499 N 418.302 -1.35869 -0.798587 0
M  V30 4500 C 419.232 -1.32118 -1.92528 0
M  V30 4501 C 420.213 -0.194209 -1.68988 0
M  V30 4502 O 421.398 -0.390426 -1.90235 0
M  V30 4503 C 418.528 -1.10047 -3.29404 0
M  V30 4504 C 417.482 -2.19471 -3.67446 0
M  V30 4505 C 416.808 -1.82555 -5.02571 0
M  V30 4506 C 418.108 -3.61495 -3.76987 0
M  V30 4507 H 419.802 -2.26394 -1.95924 0
M  V30 4508 H 417.348 -1.08981 -0.94123 0
M  V30 4509 H 419.301 -1.06061 -4.07835 0
M  V30 4510 H 418.025 -0.122195 -3.26371 0
M  V30 4511 H 416.684 -2.22568 -2.91306 0
M  V30 4512 H 416.332 -0.833249 -4.9605 0
M  V30 4513 H 416.032 -2.5581 -5.28995 0
M  V30 4514 H 417.556 -1.80108 -5.83432 0
M  V30 4515 H 418.97 -3.60676 -4.4563 0
M  V30 4516 H 417.367 -4.33577 -4.14887 0
M  V30 4517 H 418.437 -3.97065 -2.78329 0
M  V30 4518 N 419.78 1.02168 -1.19998 0
M  V30 4519 C 420.712 2.10705 -0.901994 0
M  V30 4520 C 421.725 1.6244 0.108216 0
M  V30 4521 O 422.914 1.78082 -0.12214 0
M  V30 4522 C 420.014 3.37291 -0.329834 0
M  V30 4523 C 419.187 4.14714 -1.39035 0
M  V30 4524 C 418.246 5.19606 -0.830432 0
M  V30 4525 O 417.272 5.48809 -1.50989 0
M  V30 4526 N 418.474 5.79366 0.362696 0
M  V30 4527 H 421.239 2.36856 -1.83628 0
M  V30 4528 H 418.8 1.18518 -1.10296 0
M  V30 4529 H 420.792 4.04657 0.0587633 0
M  V30 4530 H 419.362 3.0843 0.508891 0
M  V30 4531 H 418.582 3.42392 -1.9535 0
M  V30 4532 H 419.87 4.63226 -2.10474 0
M  V30 4533 H 419.268 5.57968 0.932081 0
M  V30 4534 H 417.825 6.48106 0.69299 0
M  V30 4535 N 421.258 1.00505 1.21394 0
M  V30 4536 C 422.19 0.52372 2.23136 0
M  V30 4537 C 423.203 -0.387714 1.58116 0
M  V30 4538 O 424.392 -0.187905 1.77508 0
M  V30 4539 C 421.492 -0.258885 3.3791 0
M  V30 4540 C 420.665 0.651634 4.32519 0
M  V30 4541 C 419.724 -0.0813705 5.26137 0
M  V30 4542 O 418.75 0.537295 5.66658 0
M  V30 4543 N 419.952 -1.35992 5.64346 0
M  V30 4544 H 422.717 1.39865 2.65062 0
M  V30 4545 H 420.278 0.881196 1.35818 0
M  V30 4546 H 422.27 -0.758208 3.97534 0
M  V30 4547 H 420.84 -1.035 2.94968 0
M  V30 4548 H 420.06 1.33145 3.71034 0
M  V30 4549 H 421.348 1.27129 4.92662 0
M  V30 4550 H 420.746 -1.88368 5.33417 0
M  V30 4551 H 419.303 -1.8042 6.26332 0
M  V30 4552 N 422.737 -1.36956 0.779787 0
M  V30 4553 C 424.014 -1.93697 0.272156 0
M  V30 4554 C 424.394 -1.71267 -1.23413 0
M  V30 4555 O 423.742 -1.06607 -2.02107 0
M  V30 4556 C 423.952 -3.42812 0.654291 0
M  V30 4557 C 425.3 -4.19921 0.628602 0
M  V30 4558 O 426.324 -3.51209 0.594172 0
M  V30 4559 O 425.183 -5.42465 0.662864 0
M  V30 4560 H 422.277 -0.824447 0.0649286 0
M  V30 4561 H 424.823 -1.46196 0.861682 0
M  V30 4562 H 423.595 -3.52754 1.69353 0
M  V30 4563 H 423.218 -3.97582 0.0381369 0
M  V30 4564 N 424.215 -0.530993 -1.48385 0
M  V30 4565 C 425.463 0.00273189 -2.021 0
M  V30 4566 C 425.784 1.34672 -1.41027 0
M  V30 4567 O 425.054 1.8724 -0.576012 0
M  V30 4568 H 423.634 0.00399774 -0.746989 0
M  V30 4569 H 426.296 -0.695054 -1.82085 0
M  V30 4570 H 425.392 0.11031 -3.11905 0
M  V30 4571 N 425.693 1.55336 -0.266172 0
M  V30 4572 C 426.918 2.04258 0.359661 0
M  V30 4573 C 427.343 1.14359 1.49344 0
M  V30 4574 O 426.701 0.140369 1.80756 0
M  V30 4575 C 426.749 3.50997 0.826635 0
M  V30 4576 O 425.853 3.64204 1.93466 0
M  V30 4577 H 425.194 0.659668 0.075727 0
M  V30 4578 H 427.724 2.00694 -0.39786 0
M  V30 4579 H 427.734 3.9219 1.12477 0
M  V30 4580 H 426.409 4.159 -0.00293032 0
M  V30 4581 H 424.986 3.34913 1.63974 0
M  V30 4582 N 427.171 -0.0066808 1.57599 0
M  V30 4583 C 428.396 -0.707738 1.94951 0
M  V30 4584 C 428.821 -1.66882 0.867868 0
M  V30 4585 O 428.179 -1.80457 -0.17458 0
M  V30 4586 C 428.227 -1.42162 3.31394 0
M  V30 4587 O 427.331 -2.53578 3.25226 0
M  V30 4588 H 426.672 -0.188752 0.636607 0
M  V30 4589 H 429.202 0.0445193 2.04552 0
M  V30 4590 H 429.212 -1.78655 3.66806 0
M  V30 4591 H 427.887 -0.716903 4.09675 0
M  V30 4592 H 426.464 -2.19463 3.01481 0
M  V30 4593 N 428.649 -1.55105 -0.279332 0
M  V30 4594 C 429.896 -1.75412 -1.01177 0
M  V30 4595 C 430.224 -0.551728 -1.86511 0
M  V30 4596 O 429.479 0.465919 -1.90073 0
M  V30 4597 C 429.778 -3.0086 -1.92919 0
M  V30 4598 C 429.444 -4.33689 -1.23387 0
M  V30 4599 C 428.106 -4.69792 -1.04159 0
M  V30 4600 C 430.458 -5.15941 -0.738562 0
M  V30 4601 C 427.786 -5.85707 -0.341166 0
M  V30 4602 C 430.138 -6.32579 -0.0517636 0
M  V30 4603 C 428.802 -6.67326 0.152292 0
M  V30 4604 H 428.072 -0.641879 -0.370233 0
M  V30 4605 H 430.719 -1.89373 -0.284627 0
M  V30 4606 H 429.024 -2.81773 -2.72234 0
M  V30 4607 H 430.721 -3.13768 -2.49701 0
M  V30 4608 H 427.311 -4.05309 -1.39364 0
M  V30 4609 H 431.495 -4.8853 -0.874764 0
M  V30 4610 H 426.751 -6.11157 -0.172287 0
M  V30 4611 H 430.925 -6.9557 0.339828 0
M  V30 4612 H 428.552 -7.56998 0.697014 0
M  V30 4613 N 430.127 0.543554 -1.4793 0
M  V30 4614 C 431.09 1.63156 -1.60975 0
M  V30 4615 C 432.09 1.53346 -0.483899 0
M  V30 4616 O 433.28 1.5726 -0.749339 0
M  V30 4617 C 430.412 3.02743 -1.56716 0
M  V30 4618 H 431.605 1.52934 -2.57975 0
M  V30 4619 H 429.158 0.764557 -1.36324 0
M  V30 4620 H 429.893 3.18484 -0.611418 0
M  V30 4621 H 429.678 3.11272 -2.38438 0
M  V30 4622 H 431.168 3.81871 -1.6901 0
M  V30 4623 N 431.605 1.3629 0.791371 0
M  V30 4624 C 432.535 1.33137 1.91825 0
M  V30 4625 C 433.516 0.203168 1.68882 0
M  V30 4626 O 434.701 0.400509 1.90025 0
M  V30 4627 C 431.831 1.11793 3.28816 0
M  V30 4628 C 430.785 2.21417 3.66277 0
M  V30 4629 C 430.111 1.85218 5.01596 0
M  V30 4630 C 431.411 3.63489 3.75064 0
M  V30 4631 H 433.105 2.2743 1.9472 0
M  V30 4632 H 430.651 1.09479 0.935437 0
M  V30 4633 H 432.604 1.08222 4.07266 0
M  V30 4634 H 431.328 0.139501 3.26302 0
M  V30 4635 H 429.987 2.2411 2.90121 0
M  V30 4636 H 429.635 0.859544 4.95602 0
M  V30 4637 H 429.335 2.58611 5.27631 0
M  V30 4638 H 430.859 1.832 5.82469 0
M  V30 4639 H 432.273 3.63034 4.43711 0
M  V30 4640 H 430.67 4.35771 4.12582 0
M  V30 4641 H 431.74 3.98536 2.76219 0
M  V30 4642 N 433.083 -1.0153 1.20538 0
M  V30 4643 C 433.993 -2.13557 0.971113 0
M  V30 4644 C 435.009 -1.73845 -0.0734366 0
M  V30 4645 O 436.185 -2.01075 0.114299 0
M  V30 4646 C 433.25 -3.42661 0.527639 0
M  V30 4647 C 432.311 -3.96608 1.64319 0
M  V30 4648 C 431.544 -5.1955 1.22078 0
M  V30 4649 O 431.767 -5.70329 0.0900198 0
M  V30 4650 O 430.701 -5.66681 2.02871 0
M  V30 4651 H 434.527 -2.3619 1.90913 0
M  V30 4652 H 432.112 -1.11946 0.989362 0
M  V30 4653 H 433.994 -4.20404 0.289621 0
M  V30 4654 H 432.669 -3.21441 -0.381779 0
M  V30 4655 H 431.576 -3.20139 1.93551 0
M  V30 4656 H 432.909 -4.22219 2.52966 0
M  V30 4657 N 434.561 -1.01147 -1.20859 0
M  V30 4658 C 435.493 -0.535546 -2.22855 0
M  V30 4659 C 436.506 0.379323 -1.58319 0
M  V30 4660 O 437.695 0.178489 -1.77605 0
M  V30 4661 C 434.795 0.240962 -3.38042 0
M  V30 4662 C 433.968 -0.674562 -4.32167 0
M  V30 4663 C 433.027 0.053467 -5.26173 0
M  V30 4664 O 432.053 -0.567339 -5.66366 0
M  V30 4665 N 433.255 1.32997 -5.65059 0
M  V30 4666 H 436.02 -1.41268 -2.64317 0
M  V30 4667 H 433.581 -0.888386 -1.35349 0
M  V30 4668 H 435.573 0.737115 -3.97931 0
M  V30 4669 H 434.143 1.01935 -2.95513 0
M  V30 4670 H 433.363 -1.35111 -3.70322 0
M  V30 4671 H 434.651 -1.2974 -4.91981 0
M  V30 4672 H 434.049 1.85536 -5.34409 0
M  V30 4673 H 432.606 1.77095 -6.2728 0
M  V30 4674 N 436.039 1.36541 -0.78704 0
M  V30 4675 C 436.969 2.32659 -0.197992 0
M  V30 4676 C 437.95 1.56533 0.665697 0
M  V30 4677 O 439.135 1.84698 0.60001 0
M  V30 4678 C 436.265 3.40778 0.669901 0
M  V30 4679 C 435.219 4.27897 -0.0937039 0
M  V30 4680 C 434.545 5.27163 0.894629 0
M  V30 4681 C 435.845 5.06334 -1.28154 0
M  V30 4682 H 437.539 2.82171 -1.00099 0
M  V30 4683 H 435.085 1.35665 -0.482793 0
M  V30 4684 H 437.038 4.07008 1.09191 0
M  V30 4685 H 435.762 2.89827 1.50558 0
M  V30 4686 H 434.421 3.6322 -0.49666 0
M  V30 4687 H 434.069 4.72486 1.72527 0
M  V30 4688 H 433.769 5.86317 0.388149 0
M  V30 4689 H 435.293 5.96266 1.31525 0
M  V30 4690 H 436.707 5.65617 -0.93541 0
M  V30 4691 H 435.104 5.74888 -1.72115 0
M  V30 4692 H 436.174 4.38114 -2.07807 0
M  V30 4693 N 437.518 0.538854 1.48102 0
M  V30 4694 C 438.465 -0.219042 2.29758 0
M  V30 4695 C 439.435 -0.925562 1.37922 0
M  V30 4696 O 440.62 -0.924855 1.66886 0
M  V30 4697 C 437.76 -1.25452 3.2149 0
M  V30 4698 C 436.873 -0.555943 4.28408 0
M  V30 4699 C 436.008 -1.57512 5.0731 0
M  V30 4700 C 435.047 -0.860498 6.06021 0
M  V30 4701 N 434.184 -1.82564 6.77949 0
M  V30 4702 H 439.024 0.483449 2.94052 0
M  V30 4703 H 436.561 0.250247 1.44956 0
M  V30 4704 H 438.519 -1.86727 3.7308 0
M  V30 4705 H 437.149 -1.92528 2.591 0
M  V30 4706 H 436.201 0.170938 3.80016 0
M  V30 4707 H 437.513 0.00474616 4.988 0
M  V30 4708 H 436.667 -2.26191 5.62959 0
M  V30 4709 H 435.406 -2.16972 4.36778 0
M  V30 4710 H 434.411 -0.159686 5.49568 0
M  V30 4711 H 435.636 -0.271897 6.78555 0
M  V30 4712 H 433.582 -2.40915 6.10161 0
M  V30 4713 H 433.499 -1.31662 7.44447 0
M  V30 4714 H 434.767 -2.50414 7.38182 0
M  V30 4715 N 438.996 -1.55193 0.274407 0
M  V30 4716 C 440.242 -1.99877 -0.343086 0
M  V30 4717 C 440.575 -1.16256 -1.55558 0
M  V30 4718 O 439.85 -0.232462 -1.93106 0
M  V30 4719 C 440.133 -3.52706 -0.725965 0
M  V30 4720 C 439.986 -4.47081 0.493818 0
M  V30 4721 C 441.305 -4.11422 -1.56268 0
M  V30 4722 H 438.424 -0.726625 -0.123229 0
M  V30 4723 H 441.066 -1.86136 0.38121 0
M  V30 4724 H 439.216 -3.64546 -1.34307 0
M  V30 4725 H 440.888 -4.47186 1.13237 0
M  V30 4726 H 439.131 -4.1877 1.13201 0
M  V30 4727 H 439.802 -5.51699 0.18217 0
M  V30 4728 H 442.278 -4.02855 -1.04151 0
M  V30 4729 H 441.154 -5.18568 -1.79939 0
M  V30 4730 H 441.415 -3.61607 -2.54348 0
M  V30 4731 N 440.474 -0.00167713 -1.576 0
M  V30 4732 C 441.723 0.682021 -1.89819 0
M  V30 4733 C 442.036 1.74844 -0.876871 0
M  V30 4734 O 443.242 2.48688 -1.08934 0
M  V30 4735 C 441.698 1.26425 -3.36964 0
M  V30 4736 C 441.306 0.232568 -4.47396 0
M  V30 4737 C 443.05 1.92604 -3.78291 0
M  V30 4738 C 440.957 0.824882 -5.85619 0
M  V30 4739 H 439.887 0.258499 -0.708304 0
M  V30 4740 H 442.538 -0.0624957 -1.83394 0
M  V30 4741 H 440.92 2.05949 -3.38232 0
M  V30 4742 H 442.094 -0.5382 -4.57646 0
M  V30 4743 H 440.409 -0.32888 -4.15099 0
M  V30 4744 H 443.006 2.37827 -4.78897 0
M  V30 4745 H 443.349 2.75732 -3.11894 0
M  V30 4746 H 443.882 1.19812 -3.79328 0
M  V30 4747 H 440.621 0.0323542 -6.55492 0
M  V30 4748 H 440.141 1.56477 -5.79029 0
M  V30 4749 H 441.82 1.32301 -6.33329 0
M  V30 4750 N 441.952 1.55251 0.271103 0
M  V30 4751 C 442.9 1.89054 1.35504 0
M  V30 4752 C 443.894 0.767064 1.51038 0
M  V30 4753 O 445.1 0.951429 1.528 0
M  V30 4754 H 441.475 0.600072 0.45323 0
M  V30 4755 H 443.446 2.79598 1.04247 0
M  V30 4756 C 442.195 2.18068 2.70817 0
M  V30 4757 H 441.518 3.04005 2.59656 0
M  V30 4758 H 442.958 2.4564 3.45597 0
M  V30 4759 C 441.417 0.988901 3.2206 0
M  V30 4760 O 441.947 0.224501 4.01072 0
M  V30 4761 N 440.153 0.786085 2.79766 0
M  V30 4762 H 439.7 1.40937 2.15626 0
M  V30 4763 H 439.658 -0.00969349 3.14399 0
M  V30 4764 N 443.43 -0.535701 1.48216 0
M  V30 4765 C 444.377 -1.64083 1.62312 0
M  V30 4766 C 445.347 -1.59448 0.465365 0
M  V30 4767 O 446.532 -1.77959 0.688135 0
M  V30 4768 C 443.672 -3.0236 1.66349 0
M  V30 4769 C 442.785 -3.17273 2.93193 0
M  V30 4770 C 441.92 -4.46075 2.88427 0
M  V30 4771 C 440.959 -4.54496 4.1 0
M  V30 4772 N 440.096 -5.7468 4.03345 0
M  V30 4773 H 444.936 -1.51374 2.5669 0
M  V30 4774 H 442.473 -0.737059 1.27302 0
M  V30 4775 H 444.431 -3.82461 1.66672 0
M  V30 4776 H 443.061 -3.13854 0.754672 0
M  V30 4777 H 442.113 -2.30462 3.02641 0
M  V30 4778 H 443.425 -3.19357 3.83162 0
M  V30 4779 H 442.579 -5.3446 2.87119 0
M  V30 4780 H 441.318 -4.46504 1.96177 0
M  V30 4781 H 440.323 -3.64519 4.11589 0
M  V30 4782 H 441.548 -4.5581 5.03402 0
M  V30 4783 H 439.494 -5.76017 3.13912 0
M  V30 4784 H 439.411 -5.78234 4.87013 0
M  V30 4785 H 440.679 -6.65367 4.06087 0
M  V30 4786 N 444.908 -1.36708 -0.784132 0
M  V30 4787 C 445.841 -1.25827 -1.90375 0
M  V30 4788 C 446.819 -0.141331 -1.61985 0
M  V30 4789 O 448.003 -0.313389 -1.85877 0
M  V30 4790 C 445.13 -0.942621 -3.25319 0
M  V30 4791 C 444.176 -2.07474 -3.72635 0
M  V30 4792 S 445.009 -3.69317 -3.8777 0
M  V30 4793 C 446.165 -3.39876 -5.25581 0
M  V30 4794 H 446.398 -2.20593 -1.99314 0
M  V30 4795 H 443.931 -1.22186 -0.943926 0
M  V30 4796 H 445.889 -0.767321 -4.03265 0
M  V30 4797 H 444.55 -0.0126566 -3.14097 0
M  V30 4798 H 443.743 -1.80858 -4.70432 0
M  V30 4799 H 443.345 -2.20953 -3.01754 0
M  V30 4800 H 445.637 -2.94097 -6.10339 0
M  V30 4801 H 446.58 -4.36956 -5.57203 0
M  V30 4802 H 446.988 -2.75098 -4.92931 0
M  V30 4803 N 446.386 1.0089 -1.21074 0
M  V30 4804 C 447.611 1.78727 -1.05221 0
M  V30 4805 C 448.036 1.83932 0.393795 0
M  V30 4806 O 447.394 1.28004 1.28393 0
M  V30 4807 C 447.442 3.20665 -1.64944 0
M  V30 4808 O 446.546 4.02632 -0.892273 0
M  V30 4809 H 445.887 0.550973 -0.370574 0
M  V30 4810 H 448.417 1.26847 -1.60534 0
M  V30 4811 H 448.427 3.71352 -1.69002 0
M  V30 4812 H 447.102 3.16191 -2.70177 0
M  V30 4813 H 445.679 3.61207 -0.926492 0
M  V30 4814 N 447.864 1.01787 1.20321 0
M  V30 4815 C 449.275 0.739307 1.71438 0
M  V30 4816 C 449.626 -0.742041 1.81627 0
M  V30 4817 O 448.751 -1.57903 1.47971 0
M  V30 4818 C 449.346 1.33538 3.11373 0
M  V30 4819 C 447.905 1.10566 3.59795 0
M  V30 4820 C 447.052 1.44028 2.36962 0
M  V30 4821 H 450.003 1.18718 1.05317 0
M  V30 4822 H 450.024 0.726611 3.73498 0
M  V30 4823 H 449.536 2.41352 3.03926 0
M  V30 4824 H 447.637 0.0452405 3.72573 0
M  V30 4825 H 447.75 1.78661 4.44542 0
M  V30 4826 H 446.114 0.85933 2.39766 0
M  V30 4827 H 446.897 2.52901 2.32155 0
M  V30 4828 N 449.342 -1.36122 0.79427 0
M  V30 4829 C 450.57 -2.03362 0.380989 0
M  V30 4830 C 450.985 -1.59881 -1.00416 0
M  V30 4831 O 450.342 -0.790515 -1.6449 0
M  V30 4832 C 450.393 -3.58804 0.440649 0
M  V30 4833 O 450.114 -4.007 1.77118 0
M  V30 4834 C 451.615 -4.43296 0.0186117 0
M  V30 4835 H 448.835 -0.652526 0.156367 0
M  V30 4836 H 451.379 -1.73998 1.07447 0
M  V30 4837 H 449.534 -3.8686 -0.204458 0
M  V30 4838 H 449.948 -4.95309 1.72538 0
M  V30 4839 H 451.422 -5.51887 0.111488 0
M  V30 4840 H 451.899 -4.2684 -1.03461 0
M  V30 4841 H 452.505 -4.20512 0.636395 0
M  V30 4842 N 450.82 -0.546701 -1.47814 0
M  V30 4843 C 452.045 -0.021268 -2.07389 0
M  V30 4844 C 452.47 1.25822 -1.39822 0
M  V30 4845 O 451.828 1.75111 -0.46968 0
M  V30 4846 C 451.876 0.168502 -3.60206 0
M  V30 4847 O 450.98 1.23347 -3.93522 0
M  V30 4848 H 450.321 -0.0466108 -0.662362 0
M  V30 4849 H 452.851 -0.759387 -1.89985 0
M  V30 4850 H 452.861 0.385982 -4.0617 0
M  V30 4851 H 451.536 -0.766075 -4.08784 0
M  V30 4852 H 450.113 0.997319 -3.59316 0
M  V30 4853 N 452.299 1.55045 -0.282633 0
M  V30 4854 C 453.229 2.2579 0.595066 0
M  V30 4855 C 454.21 1.25074 1.15284 0
M  V30 4856 O 455.395 1.5381 1.18559 0
M  V30 4857 C 452.525 2.98472 1.77572 0
M  V30 4858 C 451.479 4.0618 1.34914 0
M  V30 4859 C 450.805 4.66477 2.6135 0
M  V30 4860 C 452.105 5.1996 0.493821 0
M  V30 4861 H 453.799 2.994 0.00505653 0
M  V30 4862 H 451.345 1.44 0.000992001 0
M  V30 4863 H 453.298 3.46677 2.39568 0
M  V30 4864 H 452.022 2.2241 2.39168 0
M  V30 4865 H 450.681 3.58797 0.752338 0
M  V30 4866 H 450.329 3.87074 3.2122 0
M  V30 4867 H 450.029 5.39207 2.33516 0
M  V30 4868 H 451.553 5.17435 3.24181 0
M  V30 4869 H 452.967 5.64172 1.01898 0
M  V30 4870 H 451.364 5.99299 0.310047 0
M  V30 4871 H 452.434 4.82462 -0.485593 0
M  V30 4872 N 453.777 0.010035 1.57597 0
M  V30 4873 C 454.724 -0.978122 2.09049 0
M  V30 4874 C 455.694 -1.33509 0.988159 0
M  V30 4875 O 456.879 -1.43172 1.26121 0
M  V30 4876 C 454.019 -2.26158 2.60666 0
M  V30 4877 C 453.132 -1.96275 3.84838 0
M  V30 4878 C 452.267 -3.18776 4.24918 0
M  V30 4879 C 451.306 -2.84625 5.41899 0
M  V30 4880 N 450.443 -3.99693 5.77226 0
M  V30 4881 H 455.283 -0.532431 2.93205 0
M  V30 4882 H 452.82 -0.251234 1.44939 0
M  V30 4883 H 454.778 -3.01202 2.88675 0
M  V30 4884 H 453.408 -2.68378 1.79369 0
M  V30 4885 H 452.46 -1.11555 3.63675 0
M  V30 4886 H 453.772 -1.67111 4.69974 0
M  V30 4887 H 452.926 -4.02157 4.54262 0
M  V30 4888 H 451.665 -3.51087 3.38511 0
M  V30 4889 H 450.67 -1.99653 5.12268 0
M  V30 4890 H 451.895 -2.53551 6.29991 0
M  V30 4891 H 449.841 -4.31882 4.93776 0
M  V30 4892 H 449.758 -3.74087 6.56959 0
M  V30 4893 H 451.026 -4.83834 6.11167 0
M  V30 4894 N 455.255 -1.55392 -0.262866 0
M  V30 4895 C 456.504 -1.75679 -0.990943 0
M  V30 4896 C 456.817 -0.57097 -1.87081 0
M  V30 4897 O 458.023 -0.656486 -2.63444 0
M  V30 4898 C 456.479 -3.10964 -1.81188 0
M  V30 4899 C 456.087 -4.37146 -0.980188 0
M  V30 4900 C 457.831 -3.40597 -2.53365 0
M  V30 4901 C 455.738 -5.63466 -1.7961 0
M  V30 4902 H 454.668 -0.654868 -0.373716 0
M  V30 4903 H 457.319 -1.81841 -0.246203 0
M  V30 4904 H 455.701 -2.98867 -2.59797 0
M  V30 4905 H 456.875 -4.60187 -0.237558 0
M  V30 4906 H 455.19 -4.14731 -0.372497 0
M  V30 4907 H 457.787 -4.32186 -3.14833 0
M  V30 4908 H 458.13 -2.6119 -3.24169 0
M  V30 4909 H 458.663 -3.53838 -1.81779 0
M  V30 4910 H 455.402 -6.4565 -1.13209 0
M  V30 4911 H 454.922 -5.44552 -2.51443 0
M  V30 4912 H 456.601 -6.02139 -2.36723 0
M  V30 4913 N 456.733 0.527833 -1.48498 0
M  V30 4914 C 457.961 1.30823 -1.6029 0
M  V30 4915 C 458.376 1.86945 -0.263974 0
M  V30 4916 O 457.733 1.6651 0.747034 0
M  V30 4917 C 457.784 2.45756 -2.65116 0
M  V30 4918 O 457.505 1.91946 -3.93813 0
M  V30 4919 C 459.006 3.37543 -2.87367 0
M  V30 4920 H 456.226 0.397763 -0.540394 0
M  V30 4921 H 458.77 0.636529 -1.94341 0
M  V30 4922 H 456.925 3.08806 -2.33917 0
M  V30 4923 H 457.339 2.67195 -4.51339 0
M  V30 4924 H 458.813 4.14532 -3.6451 0
M  V30 4925 H 459.29 3.92905 -1.9627 0
M  V30 4926 H 459.896 2.80283 -3.19878 0
M  V30 4927 N 458.211 1.37122 0.776871 0
M  V30 4928 C 459.141 1.35164 1.90402 0
M  V30 4929 C 460.122 0.221069 1.68657 0
M  V30 4930 O 461.307 0.420642 1.8959 0
M  V30 4931 C 458.437 1.15274 3.27611 0
M  V30 4932 C 457.391 2.25289 3.63908 0
M  V30 4933 C 456.717 1.90527 4.99603 0
M  V30 4934 C 458.017 3.67446 3.71188 0
M  V30 4935 H 459.711 2.29482 1.92297 0
M  V30 4936 H 457.257 1.10465 0.923773 0
M  V30 4937 H 459.21 1.12536 4.06096 0
M  V30 4938 H 457.934 0.174102 3.26136 0
M  V30 4939 H 456.593 2.27174 2.87728 0
M  V30 4940 H 456.241 0.91206 4.94662 0
M  V30 4941 H 455.941 2.64193 5.24858 0
M  V30 4942 H 457.465 1.89367 5.80493 0
M  V30 4943 H 458.879 3.67719 4.39836 0
M  V30 4944 H 457.276 4.40123 4.07936 0
M  V30 4945 H 458.346 4.01443 2.71977 0
M  V30 4946 N 459.689 -1.00246 1.21608 0
M  V30 4947 C 461.105 -1.26435 0.973975 0
M  V30 4948 C 461.305 -1.98642 -0.338143 0
M  V30 4949 O 460.361 -2.29026 -1.06317 0
M  V30 4950 C 461.674 -2.08551 2.16626 0
M  V30 4951 C 463.222 -2.21769 2.20879 0
M  V30 4952 C 463.697 -3.07267 3.39633 0
M  V30 4953 N 465.188 -3.14855 3.39736 0
M  V30 4954 C 465.923 -3.81274 4.28273 0
M  V30 4955 N 465.419 -4.497 5.27012 0
M  V30 4956 N 467.212 -3.7794 4.16074 0
M  V30 4957 H 459.363 -0.518089 2.05984 0
M  V30 4958 H 461.626 -0.291368 0.902113 0
M  V30 4959 H 461.332 -1.62847 3.11727 0
M  V30 4960 H 461.206 -3.09303 2.15897 0
M  V30 4961 H 463.593 -2.66691 1.26332 0
M  V30 4962 H 463.674 -1.20478 2.25652 0
M  V30 4963 H 463.318 -2.63047 4.34475 0
M  V30 4964 H 463.248 -4.08678 3.321 0
M  V30 4965 H 465.739 -2.66147 2.6828 0
M  V30 4966 H 466.052 -4.98092 5.90867 0
M  V30 4967 H 464.397 -4.48479 5.30935 0
M  V30 4968 H 467.588 -3.23638 3.38195 0
M  V30 4969 H 467.761 -4.29424 4.85282 0
M  V30 4970 N 461.167 -1.02423 -1.1978 0
M  V30 4971 C 462.099 -0.559152 -2.22275 0
M  V30 4972 C 463.112 0.36251 -1.58713 0
M  V30 4973 O 464.301 0.159641 -1.77785 0
M  V30 4974 C 461.401 0.205094 -3.38279 0
M  V30 4975 C 460.574 -0.720361 -4.31427 0
M  V30 4976 C 459.633 -0.00234368 -5.262 0
M  V30 4977 O 458.659 -0.627378 -5.65732 0
M  V30 4978 N 459.861 1.26996 -5.66438 0
M  V30 4979 H 462.626 -1.44064 -2.62804 0
M  V30 4980 H 460.187 -0.902692 -1.34399 0
M  V30 4981 H 462.179 0.694868 -3.9869 0
M  V30 4982 H 460.749 0.987947 -2.96578 0
M  V30 4983 H 459.969 -1.39031 -3.68869 0
M  V30 4984 H 461.257 -1.3495 -4.90577 0
M  V30 4985 H 460.655 1.79858 -5.36347 0
M  V30 4986 H 459.212 1.70432 -6.29123 0
M  V30 4987 N 462.645 1.35699 -0.801477 0
M  V30 4988 C 463.575 2.32436 -0.222658 0
M  V30 4989 C 464.556 1.5723 0.649057 0
M  V30 4990 O 465.741 1.85324 0.580387 0
M  V30 4991 C 462.871 3.41469 0.633719 0
M  V30 4992 C 461.825 4.27774 -0.139083 0
M  V30 4993 C 461.151 5.28082 0.838666 0
M  V30 4994 C 462.451 5.04946 -1.33517 0
M  V30 4995 H 464.145 2.81094 -1.03086 0
M  V30 4996 H 461.691 1.35146 -0.497155 0
M  V30 4997 H 463.644 4.08143 1.04868 0
M  V30 4998 H 462.368 2.91408 1.47475 0
M  V30 4999 H 461.027 3.62673 -0.535156 0
M  V30 5000 H 460.675 4.7429 1.67506 0
M  V30 5001 H 460.375 5.86695 0.32594 0
M  V30 5002 H 461.899 5.97628 1.25194 0
M  V30 5003 H 463.313 5.64593 -0.995349 0
M  V30 5004 H 461.71 5.7303 -1.78202 0
M  V30 5005 H 462.78 4.35886 -2.12442 0
M  V30 5006 N 464.123 0.554532 1.47522 0
M  V30 5007 C 465.056 -0.242442 2.26908 0
M  V30 5008 C 466.034 -0.922722 1.33883 0
M  V30 5009 O 467.218 -0.942244 1.63261 0
M  V30 5010 C 464.345 -1.34525 3.10839 0
M  V30 5011 C 463.391 -0.773805 4.19422 0
M  V30 5012 S 464.224 0.377525 5.34168 0
M  V30 5013 C 465.38 -0.727164 6.21662 0
M  V30 5014 H 465.613 0.431218 2.94156 0
M  V30 5015 H 463.146 0.3408 1.50592 0
M  V30 5016 H 465.104 -1.97683 3.59766 0
M  V30 5017 H 463.765 -1.99073 2.42958 0
M  V30 5018 H 462.958 -1.60187 4.77866 0
M  V30 5019 H 462.56 -0.218448 3.73361 0
M  V30 5020 H 464.852 -1.61992 6.57849 0
M  V30 5021 H 465.795 -0.180135 7.07871 0
M  V30 5022 H 466.203 -1.01863 5.55233 0
M  V30 5023 N 465.601 -1.54893 0.290851 0
M  V30 5024 C 466.511 -2.26812 -0.59945 0
M  V30 5025 C 467.527 -1.29963 -1.15696 0
M  V30 5026 O 468.703 -1.62928 -1.18391 0
M  V30 5027 C 465.768 -2.98716 -1.75982 0
M  V30 5028 C 464.829 -4.1108 -1.2374 0
M  V30 5029 C 464.062 -4.79546 -2.34246 0
M  V30 5030 O 464.285 -4.47309 -3.53936 0
M  V30 5031 O 463.219 -5.67165 -2.01512 0
M  V30 5032 H 467.045 -3.03696 -0.0163561 0
M  V30 5033 H 464.63 -1.49289 0.0576755 0
M  V30 5034 H 466.512 -3.43851 -2.43607 0
M  V30 5035 H 465.187 -2.24737 -2.3297 0
M  V30 5036 H 464.094 -3.70367 -0.527163 0
M  V30 5037 H 465.427 -4.87007 -0.71307 0
M  V30 5038 N 467.08 -0.0183926 -1.57589 0
M  V30 5039 C 468.328 0.661253 -1.90976 0
M  V30 5040 C 468.649 1.73281 -0.894353 0
M  V30 5041 O 467.919 1.9579 0.0656788 0
M  V30 5042 H 466.499 0.247233 -0.704901 0
M  V30 5043 H 469.161 -0.0636639 -1.94796 0
M  V30 5044 H 468.257 1.12083 -2.9128 0
M  V30 5045 N 468.558 1.5553 0.254621 0
M  V30 5046 C 469.783 1.81383 1.00573 0
M  V30 5047 C 470.208 0.594419 1.78461 0
M  V30 5048 O 469.566 -0.456403 1.75461 0
M  V30 5049 C 469.614 3.04892 1.92545 0
M  V30 5050 O 468.718 2.81266 3.01601 0
M  V30 5051 H 468.059 0.598969 0.286587 0
M  V30 5052 H 470.589 2.02703 0.277952 0
M  V30 5053 H 470.599 3.34119 2.34155 0
M  V30 5054 H 469.274 3.93287 1.3527 0
M  V30 5055 H 467.851 2.63185 2.64174 0
M  V30 5056 N 470.036 -0.519951 1.48776 0
M  V30 5057 C 471.261 -1.30447 1.6124 0
M  V30 5058 C 471.686 -1.86055 0.276591 0
M  V30 5059 O 471.044 -1.64915 -0.753183 0
M  V30 5060 C 471.092 -2.42406 2.66967 0
M  V30 5061 O 470.196 -3.45728 2.24824 0
M  V30 5062 H 469.537 -0.385924 0.540332 0
M  V30 5063 H 472.067 -0.624572 1.94834 0
M  V30 5064 H 472.077 -2.88447 2.88552 0
M  V30 5065 H 470.752 -2.01294 3.63941 0
M  V30 5066 H 469.329 -3.05737 2.13494 0
M  V30 5067 N 471.514 -1.37532 -0.769588 0
M  V30 5068 C 472.461 -1.3347 -1.88293 0
M  V30 5069 C 473.431 -0.199891 -1.64893 0
M  V30 5070 O 474.616 -0.389594 -1.8678 0
M  V30 5071 C 471.756 -1.14968 -3.25387 0
M  V30 5072 C 470.869 -2.37698 -3.60727 0
M  V30 5073 C 470.004 -2.12051 -4.8704 0
M  V30 5074 C 469.043 -3.30636 -5.15117 0
M  V30 5075 N 468.18 -3.04527 -6.3262 0
M  V30 5076 H 473.02 -2.28658 -1.911 0
M  V30 5077 H 470.557 -1.13622 -0.934257 0
M  V30 5078 H 472.515 -1.02261 -4.04473 0
M  V30 5079 H 471.145 -0.234263 -3.21949 0
M  V30 5080 H 470.197 -2.61137 -2.76608 0
M  V30 5081 H 471.509 -3.26131 -3.77413 0
M  V30 5082 H 470.663 -1.96388 -5.74035 0
M  V30 5083 H 469.402 -1.20959 -4.72462 0
M  V30 5084 H 468.407 -3.46836 -4.26597 0
M  V30 5085 H 469.632 -4.22582 -5.31603 0
M  V30 5086 H 467.578 -2.16067 -6.19396 0
M  V30 5087 H 467.495 -3.86503 -6.49732 0
M  V30 5088 H 468.763 -2.92485 -7.22546 0
M  V30 5089 N 472.992 0.995999 -1.22138 0
M  V30 5090 C 474.22 1.77066 -1.07029 0
M  V30 5091 C 474.635 1.8495 0.379357 0
M  V30 5092 O 473.992 1.3174 1.26297 0
M  V30 5093 C 474.043 3.20533 -1.67155 0
M  V30 5094 O 473.764 3.13082 -3.06449 0
M  V30 5095 C 475.265 4.14461 -1.5728 0
M  V30 5096 H 472.485 0.556179 -0.375374 0
M  V30 5097 H 475.029 1.25238 -1.61666 0
M  V30 5098 H 473.184 3.6944 -1.16589 0
M  V30 5099 H 473.598 4.03283 -3.35355 0
M  V30 5100 H 475.072 5.1289 -2.04078 0
M  V30 5101 H 475.549 4.36005 -0.528795 0
M  V30 5102 H 476.155 3.71449 -2.07136 0
M  V30 5103 N 474.47 1.03057 1.19235 0
M  V30 5104 C 475.4 0.633497 2.24742 0
M  V30 5105 C 476.381 -0.358335 1.66283 0
M  V30 5106 O 477.566 -0.240676 1.92703 0
M  V30 5107 C 474.696 -0.0147648 3.47297 0
M  V30 5108 C 473.65 0.899527 4.18441 0
M  V30 5109 C 472.976 0.116281 5.34574 0
M  V30 5110 C 474.276 2.21404 4.73051 0
M  V30 5111 H 475.97 1.5155 2.58211 0
M  V30 5112 H 473.516 0.73014 1.24117 0
M  V30 5113 H 475.469 -0.304202 4.20301 0
M  V30 5114 H 474.193 -0.931577 3.13032 0
M  V30 5115 H 472.852 1.17319 3.47321 0
M  V30 5116 H 472.5 -0.802619 4.96555 0
M  V30 5117 H 472.2 0.725293 5.83107 0
M  V30 5118 H 473.724 -0.166376 6.10373 0
M  V30 5119 H 475.138 1.98601 5.37802 0
M  V30 5120 H 473.535 2.77512 5.32078 0
M  V30 5121 H 474.605 2.86752 3.91026 0
M  V30 5122 N 475.948 -1.35272 0.808662 0
M  V30 5123 C 476.88 -2.28507 0.178149 0
M  V30 5124 C 477.893 -1.50377 -0.623754 0
M  V30 5125 O 479.082 -1.72583 -0.455774 0
M  V30 5126 C 476.182 -3.30038 -0.769959 0
M  V30 5127 C 475.355 -4.37398 -0.0139749 0
M  V30 5128 C 474.414 -5.18775 -0.880875 0
M  V30 5129 O 473.44 -5.68236 -0.331059 0
M  V30 5130 N 474.642 -5.37087 -2.20267 0
M  V30 5131 H 477.407 -2.83255 0.979106 0
M  V30 5132 H 474.968 -1.47643 0.664308 0
M  V30 5133 H 476.96 -3.81371 -1.35418 0
M  V30 5134 H 475.53 -2.75789 -1.47171 0
M  V30 5135 H 474.75 -3.86971 0.751468 0
M  V30 5136 H 476.038 -5.06268 0.506965 0
M  V30 5137 H 475.436 -4.9855 -2.67328 0
M  V30 5138 H 473.993 -5.91593 -2.73608 0
M  V30 5139 N 477.426 -0.562348 -1.47226 0
M  V30 5140 C 478.336 0.185466 -2.33866 0
M  V30 5141 C 479.352 0.906713 -1.48508 0
M  V30 5142 O 480.528 0.874458 -1.81425 0
M  V30 5143 C 477.593 1.19904 -3.25306 0
M  V30 5144 C 476.654 0.484669 -4.26555 0
M  V30 5145 C 475.887 1.44996 -5.13626 0
M  V30 5146 O 476.11 2.68515 -5.03245 0
M  V30 5147 O 475.044 0.971642 -5.94006 0
M  V30 5148 H 478.87 -0.525361 -2.99121 0
M  V30 5149 H 476.455 -0.322916 -1.45868 0
M  V30 5150 H 478.337 1.78399 -3.81774 0
M  V30 5151 H 477.012 1.8917 -2.62672 0
M  V30 5152 H 475.919 -0.141605 -3.73832 0
M  V30 5153 H 477.252 -0.166634 -4.91918 0
M  V30 5154 N 478.904 1.54736 -0.299062 0
M  V30 5155 C 480.15 2.00397 0.311244 0
M  V30 5156 C 480.483 1.18716 1.53688 0
M  V30 5157 O 479.758 0.263154 1.92712 0
M  V30 5158 C 480.041 3.53817 0.669761 0
M  V30 5159 C 479.894 4.46239 -0.564882 0
M  V30 5160 C 481.213 4.13856 1.49702 0
M  V30 5161 H 478.332 0.728493 0.111653 0
M  V30 5162 H 480.974 1.85506 -0.410774 0
M  V30 5163 H 479.124 3.66637 1.28491 0
M  V30 5164 H 480.796 4.45328 -1.20337 0
M  V30 5165 H 479.039 4.16916 -1.19849 0
M  V30 5166 H 479.71 5.5134 -0.269918 0
M  V30 5167 H 482.186 4.04461 0.977284 0
M  V30 5168 H 481.062 5.21365 1.71666 0
M  V30 5169 H 481.323 3.65608 2.48563 0
M  V30 5170 N 480.382 0.0267497 1.57577 0
M  V30 5171 C 481.312 -0.954308 2.13108 0
M  V30 5172 C 482.293 -1.34088 1.04663 0
M  V30 5173 O 483.478 -1.41992 1.32484 0
M  V30 5174 C 480.608 -2.23744 2.65624 0
M  V30 5175 C 479.562 -1.99168 3.78835 0
M  V30 5176 C 478.888 -3.33726 4.17769 0
M  V30 5177 C 480.188 -1.33277 5.0501 0
M  V30 5178 H 481.882 -0.491848 2.95332 0
M  V30 5179 H 479.428 -0.23514 1.42067 0
M  V30 5180 H 481.381 -2.92754 3.03106 0
M  V30 5181 H 480.105 -2.72151 1.80558 0
M  V30 5182 H 478.764 -1.32577 3.41788 0
M  V30 5183 H 478.412 -3.79888 3.29688 0
M  V30 5184 H 478.112 -3.18089 4.94058 0
M  V30 5185 H 479.636 -4.04008 4.57832 0
M  V30 5186 H 481.05 -1.92283 5.40093 0
M  V30 5187 H 479.447 -1.28045 5.8628 0
M  V30 5188 H 480.517 -0.305411 4.83937 0
M  V30 5189 N 481.861 -1.55662 -0.24637 0
M  V30 5190 C 483.089 -1.81575 -0.991876 0
M  V30 5191 C 483.504 -0.602545 -1.78927 0
M  V30 5192 O 482.861 0.428795 -1.77391 0
M  V30 5193 C 482.912 -3.05711 -1.92933 0
M  V30 5194 O 482.633 -4.22348 -1.1642 0
M  V30 5195 C 484.134 -3.44428 -2.79078 0
M  V30 5196 H 481.354 -0.604209 -0.291844 0
M  V30 5197 H 483.898 -2.02722 -0.269095 0
M  V30 5198 H 482.053 -2.86612 -2.60638 0
M  V30 5199 H 482.467 -4.92706 -1.79835 0
M  V30 5200 H 483.941 -4.34388 -3.40603 0
M  V30 5201 H 484.418 -2.65037 -3.50217 0
M  V30 5202 H 485.024 -3.65879 -2.16824 0
M  V30 5203 N 483.339 0.512053 -1.4905 0
M  V30 5204 C 484.272 1.63209 -1.59493 0
M  V30 5205 C 485.25 1.56407 -0.444481 0
M  V30 5206 O 486.434 1.76623 -0.658535 0
M  V30 5207 C 483.561 3.01685 -1.53961 0
M  V30 5208 C 482.607 3.26786 -2.74068 0
M  V30 5209 S 483.44 3.11107 -4.35859 0
M  V30 5210 C 484.596 4.51997 -4.32954 0
M  V30 5211 H 484.829 1.54104 -2.54243 0
M  V30 5212 H 482.362 0.696382 -1.37804 0
M  V30 5213 H 484.32 3.81538 -1.51455 0
M  V30 5214 H 482.981 3.08215 -0.605178 0
M  V30 5215 H 482.174 4.27849 -2.66386 0
M  V30 5216 H 481.776 2.54635 -2.73928 0
M  V30 5217 H 484.068 5.43871 -4.03993 0
M  V30 5218 H 485.011 4.64731 -5.34257 0
M  V30 5219 H 485.419 4.32159 -3.63178 0
M  V30 5220 N 484.817 1.37938 0.762283 0
M  V30 5221 C 485.727 1.36681 1.90671 0
M  V30 5222 C 486.743 0.265078 1.71969 0
M  V30 5223 O 487.919 0.502055 1.95042 0
M  V30 5224 C 484.984 1.18211 3.25925 0
M  V30 5225 C 484.045 2.3811 3.57214 0
M  V30 5226 C 483.278 2.20512 4.86014 0
M  V30 5227 O 483.501 1.19429 5.57757 0
M  V30 5228 O 482.435 3.08911 5.16583 0
M  V30 5229 H 486.261 2.33091 1.94685 0
M  V30 5230 H 483.846 1.18767 0.906356 0
M  V30 5231 H 485.728 1.09937 4.06807 0
M  V30 5232 H 484.403 0.248807 3.22742 0
M  V30 5233 H 483.31 2.51958 2.76529 0
M  V30 5234 H 484.643 3.30041 3.65149 0
M  V30 5235 N 486.295 -0.989507 1.22664 0
M  V30 5236 C 487.525 -1.7624 1.0781 0
M  V30 5237 C 487.933 -1.85466 -0.374036 0
M  V30 5238 O 487.276 -1.32645 -1.27087 0
M  V30 5239 C 487.338 -3.21007 1.61849 0
M  V30 5240 C 487.002 -3.35316 3.10503 0
M  V30 5241 C 487.999 -3.22362 4.07896 0
M  V30 5242 C 485.684 -3.60258 3.50028 0
M  V30 5243 C 487.678 -3.34139 5.42798 0
M  V30 5244 C 485.365 -3.71676 4.85078 0
M  V30 5245 C 486.363 -3.58625 5.81272 0
M  V30 5246 O 486.051 -3.69655 7.1387 0
M  V30 5247 H 485.783 -0.560209 0.378341 0
M  V30 5248 H 488.337 -1.25252 1.62792 0
M  V30 5249 H 486.567 -3.73202 1.01279 0
M  V30 5250 H 488.256 -3.80024 1.42606 0
M  V30 5251 H 489.022 -3.03 3.78703 0
M  V30 5252 H 484.901 -3.69492 2.75675 0
M  V30 5253 H 488.445 -3.23869 6.17863 0
M  V30 5254 H 484.342 -3.90545 5.1395 0
M  V30 5255 H 485.11 -3.86507 7.21495 0
M  V30 5256 N 487.773 -1.03688 -1.18687 0
M  V30 5257 C 489.189 -0.755413 -1.4059 0
M  V30 5258 C 489.389 0.656659 -1.905 0
M  V30 5259 O 488.445 1.42144 -2.08689 0
M  V30 5260 C 489.758 -1.7983 -2.41001 0
M  V30 5261 C 491.306 -1.81877 -2.54735 0
M  V30 5262 C 491.781 -2.85148 -3.58406 0
M  V30 5263 N 493.272 -2.84015 -3.6591 0
M  V30 5264 C 494.007 -3.60573 -4.45841 0
M  V30 5265 N 493.503 -4.46871 -5.29413 0
M  V30 5266 N 495.296 -3.49079 -4.40568 0
M  V30 5267 H 487.447 -1.94818 -0.846148 0
M  V30 5268 H 489.71 -0.842727 -0.434184 0
M  V30 5269 H 489.416 -2.81097 -2.1137 0
M  V30 5270 H 489.29 -1.62727 -3.40294 0
M  V30 5271 H 491.677 -0.812836 -2.83685 0
M  V30 5272 H 491.758 -2.03057 -1.55568 0
M  V30 5273 H 491.402 -3.85918 -3.30197 0
M  V30 5274 H 491.332 -2.61224 -4.57241 0
M  V30 5275 H 493.823 -2.21431 -3.0623 0
M  V30 5276 H 494.136 -5.02007 -5.87545 0
M  V30 5277 H 492.481 -4.5094 -5.28846 0
M  V30 5278 H 495.672 -2.81066 -3.74325 0
M  V30 5279 H 495.845 -4.08994 -5.02621 0
M  V30 5280 N 489.251 1.34841 -0.815825 0
M  V30 5281 C 490.181 2.32187 -0.247298 0
M  V30 5282 C 491.162 1.5791 0.632344 0
M  V30 5283 O 492.347 1.8593 0.560698 0
M  V30 5284 C 489.477 3.42122 0.597466 0
M  V30 5285 C 488.431 4.27602 -0.184446 0
M  V30 5286 C 487.757 5.28942 0.782609 0
M  V30 5287 C 489.057 5.03502 -1.38865 0
M  V30 5288 H 490.751 2.79985 -1.06061 0
M  V30 5289 H 488.297 1.34611 -0.511461 0
M  V30 5290 H 490.25 4.09232 1.00533 0
M  V30 5291 H 488.974 2.92956 1.44376 0
M  V30 5292 H 487.633 3.62085 -0.573592 0
M  V30 5293 H 487.281 4.7604 1.62466 0
M  V30 5294 H 486.981 5.87008 0.263695 0
M  V30 5295 H 488.505 5.98922 1.18848 0
M  V30 5296 H 489.919 5.63506 -1.05518 0
M  V30 5297 H 488.316 5.71108 -1.8427 0
M  V30 5298 H 489.386 4.33608 -2.17054 0
M  V30 5299 N 490.729 0.570148 1.46925 0
M  V30 5300 C 491.954 0.0542592 2.07329 0
M  V30 5301 C 492.379 -1.23582 1.41806 0
M  V30 5302 O 491.737 -1.74341 0.497479 0
M  V30 5303 C 491.785 -0.111175 3.60429 0
M  V30 5304 O 490.889 -1.17071 3.95434 0
M  V30 5305 H 490.23 0.0571425 0.661537 0
M  V30 5306 H 492.76 0.789516 1.88753 0
M  V30 5307 H 492.77 -0.321315 4.06733 0
M  V30 5308 H 491.445 0.831012 4.07513 0
M  V30 5309 H 490.022 -0.940029 3.60857 0
M  V30 5310 N 492.207 -1.54576 0.307264 0
M  V30 5311 C 493.139 -2.21212 -0.599807 0
M  V30 5312 C 494.152 -1.20685 -1.09266 0
M  V30 5313 O 495.341 -1.47244 -1.00903 0
M  V30 5314 C 492.441 -2.84994 -1.83389 0
M  V30 5315 C 491.614 -4.11511 -1.48248 0
M  V30 5316 C 490.673 -4.59038 -2.57237 0
M  V30 5317 O 489.699 -5.24095 -2.22065 0
M  V30 5318 N 490.901 -4.31884 -3.87887 0
M  V30 5319 H 493.666 -2.99686 -0.0293075 0
M  V30 5320 H 491.227 -1.61379 0.129738 0
M  V30 5321 H 493.219 -3.1372 -2.5566 0
M  V30 5322 H 491.789 -2.10324 -2.31263 0
M  V30 5323 H 491.009 -3.89728 -0.592122 0
M  V30 5324 H 492.297 -4.93879 -1.22316 0
M  V30 5325 H 491.695 -3.79778 -4.19268 0
M  V30 5326 H 490.252 -4.65304 -4.56438 0
M  V30 5327 N 493.685 -0.035106 -1.57561 0
M  V30 5328 C 494.648 0.929819 -2.09492 0
M  V30 5329 C 495.648 1.25026 -1.01119 0
M  V30 5330 O 496.838 1.18961 -1.27255 0
M  V30 5331 C 493.97 2.24457 -2.56577 0
M  V30 5332 H 495.163 0.479935 -2.96035 0
M  V30 5333 H 492.716 0.213033 -1.54841 0
M  V30 5334 H 493.451 2.74061 -1.73382 0
M  V30 5335 H 493.236 2.02508 -3.35757 0
M  V30 5336 H 494.726 2.93607 -2.96959 0
M  V30 5337 N 495.163 1.55791 0.238111 0
M  V30 5338 C 496.403 1.79801 0.972163 0
M  V30 5339 C 496.767 0.606027 1.82185 0
M  V30 5340 O 497.968 0.725079 2.58836 0
M  V30 5341 C 496.239 3.08608 1.80266 0
M  V30 5342 S 497.798 3.53872 2.59461 0
M  V30 5343 H 494.616 0.631418 0.326852 0
M  V30 5344 H 497.218 1.94031 0.239212 0
M  V30 5345 H 495.922 3.93419 1.1683 0
M  V30 5346 H 495.453 2.9714 2.57821 0
M  V30 5347 H 497.468 3.15899 3.82651 0
M  V30 5348 N 496.642 -0.504142 1.49319 0
M  V30 5349 C 497.575 -1.62361 1.60356 0
M  V30 5350 C 498.553 -1.56169 0.45277 0
M  V30 5351 O 499.737 -1.76271 0.667892 0
M  V30 5352 C 496.864 -3.00864 1.55559 0
M  V30 5353 C 495.91 -3.25328 2.75797 0
M  V30 5354 S 496.743 -3.08791 4.37503 0
M  V30 5355 C 497.899 -4.49695 4.35345 0
M  V30 5356 H 498.132 -1.52753 2.55056 0
M  V30 5357 H 495.665 -0.689065 1.38171 0
M  V30 5358 H 497.623 -3.8073 1.53477 0
M  V30 5359 H 496.284 -3.0789 0.621515 0
M  V30 5360 H 495.477 -4.2643 2.68651 0
M  V30 5361 H 495.079 -2.53179 2.75275 0
M  V30 5362 H 497.371 -5.41721 4.06871 0
M  V30 5363 H 498.314 -4.61891 5.36714 0
M  V30 5364 H 498.722 -4.30227 3.65465 0
M  V30 5365 N 498.12 -1.38341 -0.754957 0
M  V30 5366 C 499.536 -1.19508 -1.05783 0
M  V30 5367 C 499.736 -0.0428005 -2.01455 0
M  V30 5368 O 498.792 0.611861 -2.44975 0
M  V30 5369 C 500.105 -2.52091 -1.63923 0
M  V30 5370 C 501.653 -2.58762 -1.76101 0
M  V30 5371 C 502.128 -3.91517 -2.37652 0
M  V30 5372 N 503.619 -3.93049 -2.45085 0
M  V30 5373 C 504.354 -4.9253 -2.93602 0
M  V30 5374 N 503.85 -6.02408 -3.42165 0
M  V30 5375 N 505.643 -4.79921 -2.92629 0
M  V30 5376 H 497.794 -2.1206 -0.120056 0
M  V30 5377 H 500.057 -0.94089 -0.11589 0
M  V30 5378 H 499.763 -3.36858 -1.01093 0
M  V30 5379 H 499.637 -2.70388 -2.63003 0
M  V30 5380 H 502.024 -1.74391 -2.38058 0
M  V30 5381 H 502.105 -2.44333 -0.757294 0
M  V30 5382 H 501.749 -4.76309 -1.76329 0
M  V30 5383 H 501.679 -4.03256 -3.38662 0
M  V30 5384 H 504.17 -3.13685 -2.10736 0
M  V30 5385 H 504.483 -6.74248 -3.77637 0
M  V30 5386 H 502.828 -6.0603 -3.40225 0
M  V30 5387 H 506.019 -3.93194 -2.54001 0
M  V30 5388 H 506.192 -5.57601 -3.30128 0
M  V30 5389 N 499.598 0.982988 -1.23187 0
M  V30 5390 C 500.846 1.72052 -1.06031 0
M  V30 5391 C 501.167 1.90769 0.404019 0
M  V30 5392 O 500.437 1.47446 1.28982 0
M  V30 5393 H 499.017 0.637499 -0.389363 0
M  V30 5394 H 501.679 1.18338 -1.54862 0
M  V30 5395 H 500.775 2.7111 -1.54615 0
M  V30 5396 N 501.076 1.04316 1.18135 0
M  V30 5397 C 502.026 0.606731 2.19779 0
M  V30 5398 C 503.01 -0.352144 1.56999 0
M  V30 5399 O 504.202 -0.170795 1.76174 0
M  V30 5400 C 501.331 -0.0262443 3.4329 0
M  V30 5401 C 500.417 0.955928 4.13186 0
M  V30 5402 N 500.808 2.12395 4.59045 0
M  V30 5403 C 499.106 0.782473 4.39082 0
M  V30 5404 C 499.807 2.74458 5.12882 0
M  V30 5405 N 498.783 2.02316 5.04548 0
M  V30 5406 H 502.585 1.49679 2.5293 0
M  V30 5407 H 500.099 0.912088 1.34368 0
M  V30 5408 H 502.096 -0.356617 4.15372 0
M  V30 5409 H 500.756 -0.911811 3.11635 0
M  V30 5410 H 501.767 2.50272 4.53414 0
M  V30 5411 H 498.444 -0.0527906 4.17467 0
M  V30 5412 H 499.834 3.73459 5.5855 0
M  V30 5413 N 502.554 -1.34406 0.822964 0
M  V30 5414 C 503.831 -1.92733 0.333641 0
M  V30 5415 C 504.211 -1.75107 -1.17901 0
M  V30 5416 O 503.559 -1.12983 -1.98613 0
M  V30 5417 C 503.769 -3.40557 0.763023 0
M  V30 5418 C 505.117 -4.17709 0.761879 0
M  V30 5419 O 506.141 -3.49141 0.705606 0
M  V30 5420 O 505 -5.40082 0.835109 0
M  V30 5421 H 502.094 -0.821964 0.0911249 0
M  V30 5422 H 504.64 -1.4338 0.907757 0
M  V30 5423 H 503.412 -3.47187 1.8049 0
M  V30 5424 H 503.035 -3.97259 0.164605 0
M  V30 5425 N 504.032 -0.577932 -1.46621 0
M  V30 5426 C 505.279 -0.0616879 -2.02406 0
M  V30 5427 C 505.607 1.29638 -1.44997 0
M  V30 5428 O 504.862 1.86176 -0.60308 0
M  V30 5429 C 505.161 0.0590832 -3.57351 0
M  V30 5430 C 504.827 -1.23077 -4.33777 0
M  V30 5431 C 503.489 -1.58416 -4.54376 0
M  V30 5432 C 505.841 -2.08457 -4.77698 0
M  V30 5433 C 503.169 -2.78943 -5.16147 0
M  V30 5434 C 505.521 -3.28204 -5.408 0
M  V30 5435 C 504.185 -3.63832 -5.59627 0
M  V30 5436 H 503.455 -0.0225732 -0.740656 0
M  V30 5437 H 506.102 -0.753609 -1.76048 0
M  V30 5438 H 504.407 0.834104 -3.82818 0
M  V30 5439 H 506.104 0.474202 -3.98186 0
M  V30 5440 H 502.694 -0.945652 -4.18038 0
M  V30 5441 H 506.878 -1.82459 -4.61544 0
M  V30 5442 H 502.134 -3.06689 -5.28916 0
M  V30 5443 H 506.308 -3.94634 -5.73792 0
M  V30 5444 H 503.935 -4.57315 -6.07262 0
M  V30 5445 N 505.51 1.54411 -0.315457 0
M  V30 5446 C 506.46 2.20772 0.569549 0
M  V30 5447 C 507.444 1.18551 1.08787 0
M  V30 5448 O 508.636 1.44213 1.02624 0
M  V30 5449 C 505.765 2.96293 1.73394 0
M  V30 5450 C 504.851 4.05844 1.2309 0
M  V30 5451 N 505.242 5.03822 0.446927 0
M  V30 5452 C 503.54 4.19648 1.51035 0
M  V30 5453 C 504.241 5.8143 0.17725 0
M  V30 5454 N 503.217 5.38245 0.761118 0
M  V30 5455 H 507.019 2.93877 -0.0368076 0
M  V30 5456 H 504.533 1.61949 -0.120915 0
M  V30 5457 H 506.53 3.42313 2.37965 0
M  V30 5458 H 505.19 2.24708 2.34386 0
M  V30 5459 H 506.201 5.17821 0.0905027 0
M  V30 5460 H 502.878 3.59274 2.1267 0
M  V30 5461 H 504.268 6.70369 -0.45335 0
M  V30 5462 N 506.988 0.0434614 1.5754 0
M  V30 5463 C 507.898 -0.94893 2.14552 0
M  V30 5464 C 508.914 -1.34707 1.10136 0
M  V30 5465 O 510.09 -1.42557 1.42266 0
M  V30 5466 C 507.155 -2.208 2.67298 0
M  V30 5467 C 506.216 -1.86893 3.86484 0
M  V30 5468 C 505.449 -3.06797 4.36705 0
M  V30 5469 O 505.672 -4.19921 3.86034 0
M  V30 5470 O 504.606 -2.8826 5.28384 0
M  V30 5471 H 508.432 -0.494099 2.99654 0
M  V30 5472 H 506.017 -0.177989 1.48336 0
M  V30 5473 H 507.899 -2.94686 3.01228 0
M  V30 5474 H 506.574 -2.65436 1.85272 0
M  V30 5475 H 505.481 -1.10347 3.57455 0
M  V30 5476 H 506.814 -1.47062 4.69716 0
M  V30 5477 N 508.466 -1.55915 -0.229846 0
M  V30 5478 C 509.714 -1.7819 -0.953565 0
M  V30 5479 C 510.035 -0.610504 -1.85197 0
M  V30 5480 O 509.305 0.372988 -1.92316 0
M  V30 5481 H 507.885 -0.657208 -0.355087 0
M  V30 5482 H 510.547 -1.9337 -0.243693 0
M  V30 5483 H 509.643 -2.70011 -1.56527 0
M  V30 5484 N 509.944 0.496216 -1.49584 0
M  V30 5485 C 511.19 1.25189 -1.59548 0
M  V30 5486 C 511.523 1.9212 -0.283466 0
M  V30 5487 O 510.798 1.80947 0.713324 0
M  V30 5488 C 511.081 2.31516 -2.75812 0
M  V30 5489 C 510.934 1.69054 -4.16822 0
M  V30 5490 C 512.253 3.3304 -2.87702 0
M  V30 5491 H 509.372 0.45379 -0.580727 0
M  V30 5492 H 512.014 0.549327 -1.81886 0
M  V30 5493 H 510.164 2.91438 -2.56897 0
M  V30 5494 H 511.836 1.12923 -4.47265 0
M  V30 5495 H 510.079 0.994485 -4.22247 0
M  V30 5496 H 510.75 2.462 -4.94054 0
M  V30 5497 H 513.226 2.83114 -3.04936 0
M  V30 5498 H 512.102 4.04794 -3.7072 0
M  V30 5499 H 512.363 3.95655 -1.97255 0
M  V30 5500 N 511.423 1.38739 0.74761 0
M  V30 5501 C 512.839 1.20067 1.05148 0
M  V30 5502 C 513.039 0.0534835 2.01429 0
M  V30 5503 O 512.095 -0.59886 2.45296 0
M  V30 5504 C 513.408 2.52957 1.62584 0
M  V30 5505 C 514.956 2.59692 1.74726 0
M  V30 5506 C 515.431 3.92772 2.35573 0
M  V30 5507 N 516.922 3.94343 2.42997 0
M  V30 5508 C 517.657 4.9408 2.90985 0
M  V30 5509 N 517.153 6.04214 3.38965 0
M  V30 5510 N 518.946 4.81466 2.9008 0
M  V30 5511 H 511.097 2.12121 0.108808 0
M  V30 5512 H 513.36 0.941491 0.110899 0
M  V30 5513 H 513.066 3.37389 0.993051 0
M  V30 5514 H 512.94 2.71779 2.61565 0
M  V30 5515 H 515.327 1.75651 2.3713 0
M  V30 5516 H 515.408 2.44731 0.744326 0
M  V30 5517 H 515.052 4.77238 1.738 0
M  V30 5518 H 514.982 4.05046 3.36519 0
M  V30 5519 H 517.473 3.14799 2.0907 0
M  V30 5520 H 517.786 6.76241 3.74056 0
M  V30 5521 H 516.131 6.07825 3.37007 0
M  V30 5522 H 519.322 3.94535 2.51912 0
M  V30 5523 H 519.495 5.59344 3.27166 0
M  V30 5524 N 512.901 -0.976442 1.23707 0
M  V30 5525 C 513.864 -2.0511 1.02287 0
M  V30 5526 C 514.864 -1.60791 -0.0167195 0
M  V30 5527 O 516.054 -1.72761 0.223408 0
M  V30 5528 C 513.186 -3.36458 0.548507 0
M  V30 5529 H 514.379 -2.25545 1.9766 0
M  V30 5530 H 511.932 -1.15042 1.05806 0
M  V30 5531 H 512.667 -3.21713 -0.408818 0
M  V30 5532 H 512.452 -3.69967 1.29874 0
M  V30 5533 H 513.942 -4.15489 0.419406 0
M  V30 5534 N 514.379 -1.04941 -1.1758 0
M  V30 5535 C 515.625 -0.759112 -1.88057 0
M  V30 5536 C 515.958 0.711918 -1.8068 0
M  V30 5537 O 515.233 1.52035 -1.21308 0
M  V30 5538 C 515.516 -1.237 -3.38187 0
M  V30 5539 C 515.369 -2.77078 -3.54327 0
M  V30 5540 C 516.688 -0.834014 -4.32125 0
M  V30 5541 H 513.807 -0.277237 -0.682868 0
M  V30 5542 H 516.449 -1.30296 -1.38286 0
M  V30 5543 H 514.599 -0.774337 -3.80705 0
M  V30 5544 H 516.271 -3.31449 -3.20842 0
M  V30 5545 H 514.514 -3.16477 -2.96689 0
M  V30 5546 H 515.185 -3.05577 -4.59703 0
M  V30 5547 H 517.661 -1.23228 -3.97434 0
M  V30 5548 H 516.537 -1.19603 -5.35711 0
M  V30 5549 H 516.798 0.262195 -4.41322 0
M  V30 5550 N 515.857 1.33968 -0.830081 0
M  V30 5551 C 516.787 2.31911 -0.271911 0
M  V30 5552 C 517.768 1.58571 0.61556 0
M  V30 5553 O 518.953 1.86514 0.540946 0
M  V30 5554 C 516.083 3.42737 0.561146 0
M  V30 5555 C 515.037 4.27383 -0.229789 0
M  V30 5556 C 514.363 5.29742 0.726463 0
M  V30 5557 C 515.663 5.02 -1.44197 0
M  V30 5558 H 517.357 2.78844 -1.09025 0
M  V30 5559 H 514.903 1.34061 -0.52571 0
M  V30 5560 H 516.856 4.10276 0.961867 0
M  V30 5561 H 515.58 2.94471 1.41261 0
M  V30 5562 H 514.239 3.61456 -0.611964 0
M  V30 5563 H 513.887 4.77736 1.57408 0
M  V30 5564 H 513.587 5.87255 0.20142 0
M  V30 5565 H 515.111 6.00149 1.12489 0
M  V30 5566 H 516.525 5.62355 -1.11488 0
M  V30 5567 H 514.922 5.69122 -1.90317 0
M  V30 5568 H 515.992 4.31281 -2.2164 0
M  V30 5569 N 517.335 0.585699 1.46312 0
M  V30 5570 C 518.584 0.0701192 2.01578 0
M  V30 5571 C 518.897 -1.29889 1.46247 0
M  V30 5572 O 520.103 -1.90598 1.93351 0
M  V30 5573 C 518.559 0.0747499 3.59822 0
M  V30 5574 C 518.167 1.44226 4.24149 0
M  V30 5575 C 519.911 -0.38673 4.22735 0
M  V30 5576 C 517.818 1.40446 5.74481 0
M  V30 5577 H 516.748 0.0224441 0.753666 0
M  V30 5578 H 519.399 0.737789 1.68015 0
M  V30 5579 H 517.781 -0.659144 3.90476 0
M  V30 5580 H 518.955 2.19612 4.05101 0
M  V30 5581 H 517.27 1.84401 3.73343 0
M  V30 5582 H 519.867 -0.433853 5.32937 0
M  V30 5583 H 520.21 -1.40489 3.91878 0
M  V30 5584 H 520.743 0.293195 3.96718 0
M  V30 5585 H 517.482 2.39952 6.10003 0
M  V30 5586 H 517.002 0.692845 5.95785 0
M  V30 5587 H 518.681 1.11865 6.37256 0
M  V30 5588 N 518.813 -1.54241 0.323641 0
M  V30 5589 C 520.09 -1.92741 -0.333181 0
M  V30 5590 C 520.47 -1.25326 -1.69872 0
M  V30 5591 O 519.818 -0.396991 -2.25025 0
M  V30 5592 C 520.028 -3.46399 -0.425322 0
M  V30 5593 C 521.376 -4.19029 -0.68557 0
M  V30 5594 O 522.4 -3.52555 -0.50824 0
M  V30 5595 O 521.259 -5.36751 -1.02767 0
M  V30 5596 H 518.353 -0.804811 -0.190286 0
M  V30 5597 H 520.899 -1.65542 0.373361 0
M  V30 5598 H 519.671 -3.87643 0.533737 0
M  V30 5599 H 519.294 -3.79704 -1.17944 0
M  V30 5600 N 520.291 -0.0518155 -1.57515 0
M  V30 5601 C 521.238 0.922352 -2.11569 0
M  V30 5602 C 522.208 1.30842 -1.02321 0
M  V30 5603 O 523.393 1.39778 -1.29872 0
M  V30 5604 C 520.533 2.19167 -2.6657 0
M  V30 5605 C 519.646 1.86003 -3.89906 0
M  V30 5606 C 518.781 3.07398 -4.33221 0
M  V30 5607 C 517.82 2.70158 -5.49255 0
M  V30 5608 N 516.957 3.84248 -5.8762 0
M  V30 5609 H 521.797 0.454506 -2.94514 0
M  V30 5610 H 519.334 0.212718 -1.45554 0
M  V30 5611 H 521.292 2.93443 -2.96559 0
M  V30 5612 H 519.922 2.63528 -1.86421 0
M  V30 5613 H 518.974 1.01874 -3.66505 0
M  V30 5614 H 520.286 1.54592 -4.74239 0
M  V30 5615 H 519.44 3.89972 -4.64765 0
M  V30 5616 H 518.179 3.41988 -3.477 0
M  V30 5617 H 517.184 1.86001 -5.17382 0
M  V30 5618 H 518.409 2.36759 -6.36492 0
M  V30 5619 H 516.355 4.18638 -5.05053 0
M  V30 5620 H 516.272 3.56538 -6.66646 0
M  V30 5621 H 517.54 4.6746 -6.2378 0
M  V30 5622 N 521.769 1.56035 0.221574 0
M  V30 5623 C 523.046 1.69837 0.970301 0
M  V30 5624 C 523.426 0.599065 2.02421 0
M  V30 5625 O 522.774 -0.393929 2.25079 0
M  V30 5626 C 522.984 3.11148 1.58076 0
M  V30 5627 C 524.332 3.70555 2.07302 0
M  V30 5628 O 525.356 3.14109 1.6797 0
M  V30 5629 O 524.215 4.69562 2.79596 0
M  V30 5630 H 521.309 0.691727 0.453257 0
M  V30 5631 H 523.855 1.68353 0.213358 0
M  V30 5632 H 522.627 3.82617 0.819759 0
M  V30 5633 H 522.25 3.16749 2.40324 0
M  V30 5634 N 523.247 -0.488276 1.49845 0
M  V30 5635 C 524.179 -1.60539 1.63584 0
M  V30 5636 C 525.192 -1.5434 0.517972 0
M  V30 5637 O 526.381 -1.60041 0.790516 0
M  V30 5638 C 523.481 -2.99374 1.58835 0
M  V30 5639 C 522.654 -3.30624 2.86368 0
M  V30 5640 C 521.713 -4.4893 2.74496 0
M  V30 5641 O 520.739 -4.50085 3.48443 0
M  V30 5642 N 521.941 -5.49591 1.86894 0
M  V30 5643 H 524.706 -1.49176 2.59936 0
M  V30 5644 H 522.267 -0.67639 1.47094 0
M  V30 5645 H 524.259 -3.76459 1.48529 0
M  V30 5646 H 522.829 -3.04595 0.702892 0
M  V30 5647 H 522.049 -2.42314 3.1093 0
M  V30 5648 H 523.337 -3.48305 3.70892 0
M  V30 5649 H 522.735 -5.51467 1.26097 0
M  V30 5650 H 521.292 -6.25728 1.82503 0
M  V30 5651 N 524.725 -1.39134 -0.740242 0
M  V30 5652 C 525.95 -1.39518 -1.53459 0
M  V30 5653 C 526.375 0.00968883 -1.88098 0
M  V30 5654 O 525.733 0.995312 -1.51536 0
M  V30 5655 C 525.781 -2.26981 -2.802 0
M  V30 5656 O 524.885 -1.69609 -3.75908 0
M  V30 5657 H 524.226 -0.475328 -0.463637 0
M  V30 5658 H 526.756 -1.83064 -0.913717 0
M  V30 5659 H 526.766 -2.41309 -3.28989 0
M  V30 5660 H 525.441 -3.29081 -2.5432 0
M  V30 5661 H 524.018 -1.64495 -3.34658 0
M  V30 5662 N 526.204 0.969867 -1.24223 0
M  V30 5663 C 527.615 1.52717 -1.07399 0
M  V30 5664 C 527.966 1.92956 0.355298 0
M  V30 5665 O 527.091 1.77112 1.2434 0
M  V30 5666 C 527.686 2.77521 -1.94339 0
M  V30 5667 C 526.245 3.29615 -1.81744 0
M  V30 5668 C 525.392 2.02537 -1.89405 0
M  V30 5669 H 528.343 0.788399 -1.37732 0
M  V30 5670 H 528.364 3.50773 -1.47439 0
M  V30 5671 H 527.876 2.48203 -2.98357 0
M  V30 5672 H 525.977 3.63789 -0.805505 0
M  V30 5673 H 526.09 3.98661 -2.65718 0
M  V30 5674 H 524.454 2.17151 -1.33108 0
M  V30 5675 H 525.237 1.75587 -2.94999 0
M  V30 5676 N 527.682 1.05563 1.17022 0
M  V30 5677 C 528.629 0.659893 2.21165 0
M  V30 5678 C 529.599 -0.339813 1.62587 0
M  V30 5679 O 530.784 -0.230378 1.89404 0
M  V30 5680 C 527.924 0.0447297 3.45071 0
M  V30 5681 C 527.037 1.09372 4.17926 0
M  V30 5682 C 526.172 0.445481 5.29329 0
M  V30 5683 C 525.211 1.47852 5.93975 0
M  V30 5684 N 524.348 0.854172 6.96885 0
M  V30 5685 H 529.188 1.55243 2.54369 0
M  V30 5686 H 526.725 0.776336 1.24946 0
M  V30 5687 H 528.683 -0.329404 4.15898 0
M  V30 5688 H 527.313 -0.811244 3.1244 0
M  V30 5689 H 526.365 1.58564 3.45777 0
M  V30 5690 H 527.677 1.87773 4.62107 0
M  V30 5691 H 526.831 0.0179688 6.06697 0
M  V30 5692 H 525.57 -0.370481 4.86291 0
M  V30 5693 H 524.575 1.91601 5.15334 0
M  V30 5694 H 525.8 2.29645 6.39093 0
M  V30 5695 H 523.746 0.0587882 6.55974 0
M  V30 5696 H 523.663 1.57567 7.39397 0
M  V30 5697 H 524.931 0.451559 7.78191 0
M  V30 5698 N 529.16 -1.33526 0.837174 0
M  V30 5699 C 530.406 -1.98541 0.44193 0
M  V30 5700 C 530.761 -1.65124 -0.987517 0
M  V30 5701 O 530.054 -0.919948 -1.6807 0
M  V30 5702 C 530.248 -3.52367 0.597675 0
M  V30 5703 C 530.077 -4.00731 2.04071 0
M  V30 5704 C 528.847 -4.28649 2.67559 0
M  V30 5705 C 531.045 -4.17073 3.00923 0
M  V30 5706 N 529.027 -4.63142 4.02955 0
M  V30 5707 C 530.398 -4.54905 4.21261 0
M  V30 5708 C 532.453 -3.99358 2.97351 0
M  V30 5709 C 531.156 -4.76874 5.38501 0
M  V30 5710 C 533.182 -4.22501 4.1382 0
M  V30 5711 C 532.544 -4.60634 5.32912 0
M  V30 5712 H 528.643 -0.753246 0.210105 0
M  V30 5713 H 531.227 -1.61674 1.08488 0
M  V30 5714 H 529.398 -3.88397 -0.0154658 0
M  V30 5715 H 531.13 -4.04326 0.17404 0
M  V30 5716 H 527.885 -4.20077 2.18706 0
M  V30 5717 H 528.309 -4.84601 4.72748 0
M  V30 5718 H 532.951 -3.68993 2.06408 0
M  V30 5719 H 530.669 -5.06101 6.2999 0
M  V30 5720 H 534.255 -4.10316 4.12471 0
M  V30 5721 H 533.135 -4.78187 6.21536 0
M  V30 5722 N 530.638 -0.59345 -1.46 0
M  V30 5723 C 531.585 0.133618 -2.30413 0
M  V30 5724 C 532.555 0.873736 -1.41262 0
M  V30 5725 O 533.74 0.862279 -1.70204 0
M  V30 5726 C 530.88 1.13434 -3.25924 0
M  V30 5727 C 529.993 0.39656 -4.30176 0
M  V30 5728 C 529.128 1.38575 -5.12806 0
M  V30 5729 C 528.167 0.634984 -6.08797 0
M  V30 5730 N 527.304 1.57276 -6.84258 0
M  V30 5731 H 532.144 -0.592252 -2.92055 0
M  V30 5732 H 529.681 -0.303874 -1.43927 0
M  V30 5733 H 531.639 1.72752 -3.79753 0
M  V30 5734 H 530.269 1.82779 -2.66067 0
M  V30 5735 H 529.321 -0.311861 -3.79119 0
M  V30 5736 H 530.633 -0.189869 -4.98438 0
M  V30 5737 H 529.787 2.05141 -5.70966 0
M  V30 5738 H 528.526 2.00611 -4.44529 0
M  V30 5739 H 527.531 -0.0443925 -5.49782 0
M  V30 5740 H 528.756 0.0198678 -6.79097 0
M  V30 5741 H 526.702 2.18103 -6.18682 0
M  V30 5742 H 526.619 1.03941 -7.48821 0
M  V30 5743 H 527.887 2.22844 -7.46968 0
M  V30 5744 N 532.116 1.54067 -0.331816 0
M  V30 5745 C 533.527 1.86059 0.15454 0
M  V30 5746 C 533.878 1.25331 1.50952 0
M  V30 5747 O 533.003 0.562441 2.08963 0
M  V30 5748 C 533.598 3.37581 0.287192 0
M  V30 5749 C 532.157 3.69493 0.717773 0
M  V30 5750 C 531.304 2.76863 -0.155569 0
M  V30 5751 H 534.255 1.48797 -0.55182 0
M  V30 5752 H 534.276 3.63744 1.11671 0
M  V30 5753 H 533.788 3.81751 -0.699131 0
M  V30 5754 H 531.889 3.3086 1.71354 0
M  V30 5755 H 532.002 4.76315 0.5158 0
M  V30 5756 H 530.366 2.51995 0.370213 0
M  V30 5757 H 531.149 3.23861 -1.13881 0
M  V30 5758 N 533.594 0.0601682 1.57485 0
M  V30 5759 C 534.557 -0.896373 2.10945 0
M  V30 5760 C 535.557 -1.23402 1.03095 0
M  V30 5761 O 536.747 -1.16921 1.29132 0
M  V30 5762 C 533.879 -2.20346 2.60116 0
M  V30 5763 H 535.072 -0.432778 2.96761 0
M  V30 5764 H 532.625 -0.188372 1.55161 0
M  V30 5765 H 533.36 -2.71268 1.7772 0
M  V30 5766 H 533.145 -1.9714 3.38937 0
M  V30 5767 H 534.635 -2.88846 3.01592 0
M  V30 5768 N 535.072 -1.5615 -0.213296 0
M  V30 5769 C 536.349 -1.70349 -0.961281 0
M  V30 5770 C 536.729 -0.609791 -2.02101 0
M  V30 5771 O 536.077 0.381987 -2.25285 0
M  V30 5772 C 536.287 -3.11982 -1.56424 0
M  V30 5773 C 537.635 -3.71649 -2.05334 0
M  V30 5774 O 538.659 -3.14995 -1.66302 0
M  V30 5775 O 537.518 -4.71038 -2.77102 0
M  V30 5776 H 534.612 -0.694121 -0.449582 0
M  V30 5777 H 537.158 -1.68464 -0.204426 0
M  V30 5778 H 535.93 -3.83046 -0.799457 0
M  V30 5779 H 535.553 -3.18019 -2.38641 0
M  V30 5780 N 536.55 0.480323 -1.50102 0
M  V30 5781 C 537.48 1.58769 -1.71215 0
M  V30 5782 C 538.461 1.60583 -0.560997 0
M  V30 5783 O 539.646 1.76996 -0.799127 0
M  V30 5784 C 536.776 2.97148 -1.79778 0
M  V30 5785 C 535.73 3.10201 -2.94888 0
M  V30 5786 C 535.056 4.50137 -2.88584 0
M  V30 5787 C 536.356 2.88283 -4.35534 0
M  V30 5788 H 538.05 1.41354 -2.6393 0
M  V30 5789 H 535.596 0.678591 -1.27008 0
M  V30 5790 H 537.549 3.74536 -1.93133 0
M  V30 5791 H 536.273 3.15699 -0.836772 0
M  V30 5792 H 534.932 2.35244 -2.81169 0
M  V30 5793 H 534.58 4.65593 -1.90349 0
M  V30 5794 H 534.28 4.59808 -3.65856 0
M  V30 5795 H 535.804 5.29558 -3.03976 0
M  V30 5796 H 537.218 3.55427 -4.49827 0
M  V30 5797 H 535.615 3.09408 -5.14186 0
M  V30 5798 H 536.685 1.84219 -4.48544 0
M  V30 5799 N 538.028 1.39524 0.732853 0
M  V30 5800 C 538.975 1.38416 1.84688 0
M  V30 5801 C 539.945 0.243539 1.64305 0
M  V30 5802 O 541.13 0.438979 1.85681 0
M  V30 5803 C 538.27 1.23555 3.22224 0
M  V30 5804 C 537.383 2.47179 3.54298 0
M  V30 5805 C 536.518 2.2489 4.81246 0
M  V30 5806 C 535.557 3.44178 5.0617 0
M  V30 5807 N 534.694 3.21192 6.24323 0
M  V30 5808 H 539.534 2.33645 1.84971 0
M  V30 5809 H 537.071 1.16059 0.903804 0
M  V30 5810 H 539.029 1.12949 4.0162 0
M  V30 5811 H 537.659 0.31954 3.21215 0
M  V30 5812 H 536.711 2.68379 2.69587 0
M  V30 5813 H 538.023 3.36022 3.68633 0
M  V30 5814 H 537.177 2.11538 5.68627 0
M  V30 5815 H 535.916 1.33443 4.69089 0
M  V30 5816 H 534.921 3.58025 4.17251 0
M  V30 5817 H 536.146 4.36528 5.20212 0
M  V30 5818 H 534.092 2.32413 6.1345 0
M  V30 5819 H 534.009 4.03594 6.39256 0
M  V30 5820 H 535.277 3.1154 7.14537 0
M  V30 5821 N 539.506 -0.963266 1.24736 0
M  V30 5822 C 540.416 -2.09246 1.06082 0
M  V30 5823 C 541.432 -1.74 0.000363101 0
M  V30 5824 O 542.608 -2.0041 0.199479 0
M  V30 5825 C 539.673 -3.40115 0.672498 0
M  V30 5826 C 538.734 -3.89282 1.80993 0
M  V30 5827 C 537.967 -5.13905 1.44004 0
M  V30 5828 O 538.19 -5.69434 0.331835 0
M  V30 5829 O 537.124 -5.57566 2.26723 0
M  V30 5830 H 540.95 -2.27881 2.00759 0
M  V30 5831 H 538.535 -1.07649 1.03595 0
M  V30 5832 H 540.417 -4.18797 0.467668 0
M  V30 5833 H 539.092 -3.22771 -0.245102 0
M  V30 5834 H 537.999 -3.11642 2.06955 0
M  V30 5835 H 539.332 -4.1111 2.70646 0
M  V30 5836 N 540.985 -1.06182 -1.16461 0
M  V30 5837 C 542.231 -0.779015 -1.87241 0
M  V30 5838 C 542.564 0.692715 -1.81425 0
M  V30 5839 O 541.839 1.5074 -1.22913 0
M  V30 5840 C 542.122 -1.2728 -3.36856 0
M  V30 5841 C 541.975 -2.80821 -3.51368 0
M  V30 5842 C 543.294 -0.879799 -4.31216 0
M  V30 5843 H 540.413 -0.284464 -0.679889 0
M  V30 5844 H 543.055 -1.31755 -1.36896 0
M  V30 5845 H 541.205 -0.814673 -3.79862 0
M  V30 5846 H 542.877 -3.34833 -3.17308 0
M  V30 5847 H 541.12 -3.19606 -2.93316 0
M  V30 5848 H 541.791 -3.10435 -4.56436 0
M  V30 5849 H 544.267 -1.27436 -3.96105 0
M  V30 5850 H 543.143 -1.25278 -5.34412 0
M  V30 5851 H 543.404 0.215372 -4.41575 0
M  V30 5852 N 542.463 1.3308 -0.844243 0
M  V30 5853 C 543.691 2.01808 -0.456203 0
M  V30 5854 C 544.106 1.63498 0.944131 0
M  V30 5855 O 543.463 0.85102 1.61443 0
M  V30 5856 C 543.514 3.56922 -0.573513 0
M  V30 5857 O 543.235 3.93851 -1.91868 0
M  V30 5858 C 544.736 4.42922 -0.183125 0
M  V30 5859 H 541.956 0.646273 -0.180477 0
M  V30 5860 H 544.5 1.69891 -1.1383 0
M  V30 5861 H 542.655 3.87352 0.0607367 0
M  V30 5862 H 543.069 4.88564 -1.90802 0
M  V30 5863 H 544.543 5.51093 -0.316241 0
M  V30 5864 H 545.02 4.30386 0.875477 0
M  V30 5865 H 545.626 4.1786 -0.792027 0
M  V30 5866 N 543.941 0.601185 1.45683 0
M  V30 5867 C 544.851 -0.123395 2.34275 0
M  V30 5868 C 545.867 -0.86702 1.5086 0
M  V30 5869 O 547.043 -0.826049 1.8368 0
M  V30 5870 C 544.108 -1.11237 3.2837 0
M  V30 5871 C 543.169 -0.371405 4.2769 0
M  V30 5872 C 542.402 -1.31327 5.1729 0
M  V30 5873 O 542.625 -2.55078 5.10188 0
M  V30 5874 O 541.559 -0.813811 5.96373 0
M  V30 5875 H 545.385 0.604483 2.97623 0
M  V30 5876 H 542.97 0.361477 1.44961 0
M  V30 5877 H 544.852 -1.68214 3.8637 0
M  V30 5878 H 543.527 -1.82139 2.67595 0
M  V30 5879 H 542.434 0.24067 3.73325 0
M  V30 5880 H 543.767 0.296998 4.91303 0
M  V30 5881 N 545.419 -1.53889 0.339982 0
M  V30 5882 C 546.329 -2.28604 -0.526988 0
M  V30 5883 C 547.345 -1.33578 -1.11503 0
M  V30 5884 O 548.521 -1.66612 -1.13148 0
M  V30 5885 C 545.586 -3.04164 -1.66389 0
M  V30 5886 C 544.647 -4.14809 -1.10599 0
M  V30 5887 C 543.88 -4.86756 -2.18871 0
M  V30 5888 O 544.103 -4.58343 -3.39526 0
M  V30 5889 O 543.037 -5.73289 -1.83366 0
M  V30 5890 H 546.863 -3.03594 0.0802707 0
M  V30 5891 H 544.448 -1.4903 0.105141 0
M  V30 5892 H 546.33 -3.51427 -2.32544 0
M  V30 5893 H 545.005 -2.32035 -2.25703 0
M  V30 5894 H 543.912 -3.71857 -0.409067 0
M  V30 5895 H 545.245 -4.89029 -0.557771 0
M  V30 5896 N 546.897 -0.0685191 -1.57451 0
M  V30 5897 C 548.174 0.642167 -1.84758 0
M  V30 5898 C 548.554 1.87991 -0.960344 0
M  V30 5899 O 547.902 2.28485 -0.0257894 0
M  V30 5900 C 548.112 0.982946 -3.34872 0
M  V30 5901 C 549.46 1.35784 -4.02303 0
M  V30 5902 O 550.484 1.07477 -3.39598 0
M  V30 5903 O 549.343 1.88681 -5.12895 0
M  V30 5904 H 546.437 0.318625 -0.763156 0
M  V30 5905 H 548.983 -0.0992015 -1.6941 0
M  V30 5906 H 547.755 0.10372 -3.91163 0
M  V30 5907 H 547.378 1.78119 -3.55471 0
M  V30 5908 N 548.375 1.56261 0.205012 0
M  V30 5909 C 549.305 1.96779 1.257 0
M  V30 5910 C 550.286 0.838309 1.48008 0
M  V30 5911 O 551.471 1.10189 1.59913 0
M  V30 5912 C 548.601 2.29876 2.60335 0
M  V30 5913 C 547.555 3.45469 2.52656 0
M  V30 5914 C 546.881 3.64215 3.91473 0
M  V30 5915 C 548.181 4.79954 2.06014 0
M  V30 5916 H 549.875 2.84904 0.920338 0
M  V30 5917 H 547.421 1.37072 0.441277 0
M  V30 5918 H 549.374 2.56814 3.34102 0
M  V30 5919 H 548.098 1.38622 2.95722 0
M  V30 5920 H 546.757 3.18605 1.81345 0
M  V30 5921 H 546.405 2.70309 4.24196 0
M  V30 5922 H 546.105 4.41973 3.87213 0
M  V30 5923 H 547.629 3.93519 4.66878 0
M  V30 5924 H 549.043 5.05989 2.69533 0
M  V30 5925 H 547.44 5.61111 2.12777 0
M  V30 5926 H 548.51 4.74201 1.01297 0
M  V30 5927 N 549.853 -0.472356 1.50355 0
M  V30 5928 C 550.801 -1.59126 1.69651 0
M  V30 5929 C 551.795 -1.59793 0.56237 0
M  V30 5930 O 553.001 -1.63957 0.742832 0
M  V30 5931 H 549.376 -0.528008 0.535454 0
M  V30 5932 H 551.347 -1.40013 2.63513 0
M  V30 5933 C 550.096 -2.97075 1.8067 0
M  V30 5934 H 549.419 -2.9728 2.67329 0
M  V30 5935 H 550.859 -3.74825 1.98197 0
M  V30 5936 C 549.318 -3.32247 0.558016 0
M  V30 5937 O 549.848 -4.00553 -0.303399 0
M  V30 5938 N 548.054 -2.87659 0.412415 0
M  V30 5939 H 547.601 -2.32246 1.11443 0
M  V30 5940 H 547.559 -3.11556 -0.421908 0
M  V30 5941 N 551.331 -1.39911 -0.725443 0
M  V30 5942 C 552.279 -1.39552 -1.86086 0
M  V30 5943 C 553.273 -0.277334 -1.67114 0
M  V30 5944 O 554.479 -0.447865 -1.74339 0
M  V30 5945 H 550.854 -0.435993 -0.612711 0
M  V30 5946 H 552.825 -2.35305 -1.83505 0
M  V30 5947 C 551.574 -1.26529 -3.2386 0
M  V30 5948 H 550.897 -2.11845 -3.3906 0
M  V30 5949 H 552.337 -1.30336 -4.03471 0
M  V30 5950 C 550.796 0.0254168 -3.3689 0
M  V30 5951 O 551.326 0.992048 -3.89257 0
M  V30 5952 N 549.532 0.0916528 -2.90455 0
M  V30 5953 H 549.079 -0.695675 -2.48028 0
M  V30 5954 H 549.037 0.954745 -2.99553 0
M  V30 5955 N 552.809 0.956637 -1.25245 0
M  V30 5956 C 553.759 2.03841 -1.02141 0
M  V30 5957 C 554.743 1.60848 0.0410058 0
M  V30 5958 O 555.935 1.76142 -0.174084 0
M  V30 5959 C 553.064 3.37282 -0.639963 0
M  V30 5960 C 552.15 3.86805 -1.73903 0
M  V30 5961 N 552.541 4.09143 -2.97381 0
M  V30 5962 C 550.839 4.15574 -1.61909 0
M  V30 5963 C 551.54 4.49923 -3.68707 0
M  V30 5964 N 550.516 4.55737 -2.96318 0
M  V30 5965 H 554.318 2.19102 -1.95886 0
M  V30 5966 H 551.832 1.1413 -1.15534 0
M  V30 5967 H 553.829 4.14403 -0.455643 0
M  V30 5968 H 552.489 3.23401 0.29018 0
M  V30 5969 H 553.5 3.96275 -3.33447 0
M  V30 5970 H 550.177 4.10566 -0.757764 0
M  V30 5971 H 551.567 4.75526 -4.74684 0
M  V30 5972 N 554.287 1.06798 1.15896 0
M  V30 5973 C 555.534 0.787767 1.86549 0
M  V30 5974 C 555.862 -0.685959 1.82002 0
M  V30 5975 O 555.117 -1.5188 1.23414 0
M  V30 5976 C 555.416 1.23414 3.35416 0
M  V30 5977 C 555.082 2.71285 3.6016 0
M  V30 5978 C 553.744 3.11676 3.66622 0
M  V30 5979 C 556.096 3.6676 3.7032 0
M  V30 5980 C 553.424 4.4637 3.8075 0
M  V30 5981 C 555.776 5.01209 3.8597 0
M  V30 5982 C 554.44 5.41229 3.90676 0
M  V30 5983 H 553.71 0.288264 0.682631 0
M  V30 5984 H 556.357 1.338 1.37003 0
M  V30 5985 H 554.662 0.60319 3.87129 0
M  V30 5986 H 556.359 0.994298 3.88477 0
M  V30 5987 H 552.949 2.39015 3.55767 0
M  V30 5988 H 557.133 3.36685 3.64633 0
M  V30 5989 H 552.389 4.76855 3.82648 0
M  V30 5990 H 556.563 5.75067 3.92773 0
M  V30 5991 H 554.19 6.45602 4.01375 0
M  V30 5992 N 555.766 -1.3263 0.851289 0
M  V30 5993 C 556.713 -2.28952 0.291469 0
M  V30 5994 C 557.683 -1.54897 -0.599676 0
M  V30 5995 O 558.868 -1.83137 -0.535305 0
M  V30 5996 C 556.008 -3.41206 -0.516992 0
M  V30 5997 C 555.121 -4.30148 0.399566 0
M  V30 5998 C 554.256 -5.29527 -0.4212 0
M  V30 5999 C 553.295 -6.10112 0.492969 0
M  V30 6000 N 552.432 -7.01499 -0.290414 0
M  V30 6001 H 557.272 -2.76228 1.11813 0
M  V30 6002 H 554.809 -1.35907 0.562826 0
M  V30 6003 H 556.767 -4.05005 -1.00132 0
M  V30 6004 H 555.397 -2.9509 -1.30851 0
M  V30 6005 H 554.449 -3.66959 1.00227 0
M  V30 6006 H 555.761 -4.8649 1.1013 0
M  V30 6007 H 554.915 -5.98914 -0.968832 0
M  V30 6008 H 553.654 -4.73794 -1.15632 0
M  V30 6009 H 552.659 -5.39632 1.05251 0
M  V30 6010 H 553.884 -6.6793 1.22664 0
M  V30 6011 H 551.83 -6.48199 -1.00868 0
M  V30 6012 H 551.747 -7.55178 0.352354 0
M  V30 6013 H 553.015 -7.75176 -0.819882 0
M  V30 6014 N 557.244 -0.608902 -1.45362 0
M  V30 6015 C 558.469 -0.10921 -2.07112 0
M  V30 6016 C 558.894 1.19779 -1.45033 0
M  V30 6017 O 558.252 1.72961 -0.543527 0
M  V30 6018 C 558.3 0.0155745 -3.60597 0
M  V30 6019 O 557.404 1.06546 -3.98399 0
M  V30 6020 H 556.745 -0.0746619 -0.659789 0
M  V30 6021 H 559.275 -0.839283 -1.86594 0
M  V30 6022 H 559.285 0.213364 -4.07442 0
M  V30 6023 H 557.96 -0.938765 -4.05167 0
M  V30 6024 H 556.537 0.844024 -3.63223 0
M  V30 6025 N 558.722 1.53707 -0.348139 0
M  V30 6026 C 559.652 2.28111 0.498766 0
M  V30 6027 C 560.633 1.29851 1.09876 0
M  V30 6028 O 561.818 1.587 1.11928 0
M  V30 6029 C 558.948 3.05735 1.64753 0
M  V30 6030 C 557.902 4.11537 1.17565 0
M  V30 6031 C 557.228 4.77142 2.4133 0
M  V30 6032 C 558.528 5.21587 0.272844 0
M  V30 6033 H 560.222 2.99152 -0.121934 0
M  V30 6034 H 557.768 1.43875 -0.0600842 0
M  V30 6035 H 559.721 3.56526 2.24649 0
M  V30 6036 H 558.445 2.32354 2.2952 0
M  V30 6037 H 557.104 3.61665 0.599483 0
M  V30 6038 H 556.752 4.0035 3.04514 0
M  V30 6039 H 556.452 5.48626 2.10436 0
M  V30 6040 H 557.976 5.30719 3.01943 0
M  V30 6041 H 559.39 5.67986 0.778779 0
M  V30 6042 H 557.787 6.00074 0.0555849 0
M  V30 6043 H 558.857 4.79969 -0.689785 0
M  V30 6044 N 560.2 0.0768682 1.57412 0
M  V30 6045 C 561.448 -0.589918 1.93299 0
M  V30 6046 C 561.769 -1.69842 0.958049 0
M  V30 6047 O 561.039 -1.95899 0.00703261 0
M  V30 6048 H 559.619 -0.220901 0.713591 0
M  V30 6049 H 562.281 0.135917 1.94425 0
M  V30 6050 H 561.377 -1.01195 2.95239 0
M  V30 6051 N 561.678 -1.56367 -0.196722 0
M  V30 6052 C 562.903 -1.84991 -0.937714 0
M  V30 6053 C 563.328 -0.660244 -1.76132 0
M  V30 6054 O 562.686 0.390967 -1.77034 0
M  V30 6055 C 562.734 -3.11828 -1.81096 0
M  V30 6056 O 561.838 -2.92266 -2.90955 0
M  V30 6057 H 561.179 -0.609193 -0.264159 0
M  V30 6058 H 563.709 -2.03595 -0.202529 0
M  V30 6059 H 563.719 -3.42579 -2.21594 0
M  V30 6060 H 562.394 -3.98037 -1.2058 0
M  V30 6061 H 560.971 -2.72809 -2.54224 0
M  V30 6062 N 563.156 0.464375 -1.50603 0
M  V30 6063 C 564.381 1.24372 -1.65971 0
M  V30 6064 C 564.806 1.84901 -0.345453 0
M  V30 6065 O 564.164 1.67596 0.691457 0
M  V30 6066 C 564.212 2.32331 -2.7578 0
M  V30 6067 O 563.316 3.37146 -2.375 0
M  V30 6068 H 562.657 0.365604 -0.554283 0
M  V30 6069 H 565.187 0.55183 -1.97018 0
M  V30 6070 H 565.197 2.77539 -2.99059 0
M  V30 6071 H 563.872 1.87648 -3.71162 0
M  V30 6072 H 562.449 2.97602 -2.24694 0
M  V30 6073 N 564.634 1.40294 0.718013 0
M  V30 6074 C 565.911 1.2894 1.47084 0
M  V30 6075 C 566.291 -0.0933625 2.10893 0
M  V30 6076 O 565.639 -1.10598 1.99951 0
M  V30 6077 C 565.849 2.4264 2.50852 0
M  V30 6078 C 567.197 2.8276 3.16752 0
M  V30 6079 O 568.221 2.42215 2.61171 0
M  V30 6080 O 567.08 3.528 4.17366 0
M  V30 6081 H 564.174 0.506236 0.653952 0
M  V30 6082 H 566.72 1.52208 0.750394 0
M  V30 6083 H 565.492 3.35009 2.022 0
M  V30 6084 H 565.115 2.21129 3.30435 0
M  V30 6085 N 566.112 -0.949982 1.2575 0
M  V30 6086 C 567.042 -2.06483 1.09028 0
M  V30 6087 C 568.023 -1.701 -0.00201532 0
M  V30 6088 O 569.208 -1.93469 0.168383 0
M  V30 6089 C 566.338 -3.39899 0.71316 0
M  V30 6090 C 565.292 -3.90309 1.75621 0
M  V30 6091 C 564.618 -5.20274 1.23365 0
M  V30 6092 C 565.918 -4.16169 3.15596 0
M  V30 6093 H 567.612 -2.20731 2.02283 0
M  V30 6094 H 565.158 -1.06066 0.973964 0
M  V30 6095 H 567.111 -4.17346 0.58309 0
M  V30 6096 H 565.835 -3.25602 -0.255091 0
M  V30 6097 H 564.494 -3.15035 1.8748 0
M  V30 6098 H 564.142 -5.02351 0.255491 0
M  V30 6099 H 563.842 -5.54971 1.93082 0
M  V30 6100 H 565.366 -6.00314 1.11607 0
M  V30 6101 H 566.78 -4.84259 3.06864 0
M  V30 6102 H 565.177 -4.62131 3.82825 0
M  V30 6103 H 566.247 -3.22273 3.6231 0
M  V30 6104 N 567.59 -1.07411 -1.15328 0
M  V30 6105 C 568.537 -0.694995 -2.20087 0
M  V30 6106 C 569.507 0.313904 -1.63107 0
M  V30 6107 O 570.692 0.200216 -1.89747 0
M  V30 6108 C 567.832 -0.0996218 -3.44956 0
M  V30 6109 C 566.945 -1.16007 -4.16133 0
M  V30 6110 C 566.08 -0.529636 -5.28553 0
M  V30 6111 C 565.119 -1.57283 -5.91548 0
M  V30 6112 N 564.256 -0.964932 -6.95438 0
M  V30 6113 H 569.096 -1.5927 -2.51867 0
M  V30 6114 H 566.633 -0.796115 -1.23695 0
M  V30 6115 H 568.591 0.263197 -4.16369 0
M  V30 6116 H 567.221 0.761435 -3.13691 0
M  V30 6117 H 566.273 -1.64045 -3.4321 0
M  V30 6118 H 567.585 -1.95101 -4.59061 0
M  V30 6119 H 566.739 -0.114487 -6.06592 0
M  V30 6120 H 565.478 0.29307 -4.86819 0
M  V30 6121 H 564.483 -1.99775 -5.12221 0
M  V30 6122 H 565.708 -2.39783 -6.35359 0
M  V30 6123 H 563.654 -0.16314 -6.55797 0
M  V30 6124 H 563.571 -1.69311 -7.36797 0
M  V30 6125 H 564.839 -0.575305 -7.77374 0
M  V30 6126 N 569.068 1.32177 -0.85831 0
M  V30 6127 C 570.315 1.97125 -0.463484 0
M  V30 6128 C 570.643 1.67907 0.981705 0
M  V30 6129 O 569.898 0.961717 1.70439 0
M  V30 6130 C 570.197 3.51372 -0.653658 0
M  V30 6131 C 569.863 4.00584 -2.06987 0
M  V30 6132 C 568.525 4.13733 -2.4572 0
M  V30 6133 C 570.877 4.26624 -2.99402 0
M  V30 6134 C 568.205 4.50268 -3.76132 0
M  V30 6135 C 570.557 4.64618 -4.29316 0
M  V30 6136 C 569.221 4.75975 -4.67979 0
M  V30 6137 H 568.491 0.72133 -0.169601 0
M  V30 6138 H 571.138 1.57517 -1.08907 0
M  V30 6139 H 569.443 3.91761 0.0551328 0
M  V30 6140 H 571.14 3.99655 -0.328163 0
M  V30 6141 H 567.73 3.90837 -1.75911 0
M  V30 6142 H 571.914 4.1597 -2.70708 0
M  V30 6143 H 567.17 4.57256 -4.05865 0
M  V30 6144 H 571.344 4.83722 -5.00985 0
M  V30 6145 H 568.971 5.04041 -5.69076 0
M  V30 6146 O 570.585 0.756816 1.42669 0
M  V30 6147 H 571.276 0.315719 1.9111 0
M  V30 END ATOM
M  V30 BEGIN BOND
M  V30 END BOND
M  V30 END CTAB
M  END
$$$$
