drugbank_target|Q6P093 Arylacetamide deacetylase-like 2 (DB07814; DB07815)
 OpenBabel12092120463D

  0  0  0     0  0            999 V3000
M  V30 BEGIN CTAB
M  V30 COUNTS 6505 6585 0 0 0
M  V30 BEGIN ATOM
M  V30 1 H -0.908 1.98254 -0.117106 0
M  V30 2 N 0 1.576 0 0
M  V30 3 C 0.933 2.03868 1.02534 0
M  V30 4 C 1.911 0.928543 1.3348 0
M  V30 5 O 3.095 1.19667 1.45644 0
M  V30 6 C 0.222 2.43627 2.35294 0
M  V30 7 C -0.732 3.65373 2.2001 0
M  V30 8 S 0.101 5.13292 1.52614 0
M  V30 9 C 1.257 5.56322 2.86805 0
M  V30 10 H 1.49 2.90518 0.631377 0
M  V30 11 H -0.977 1.52953 0.210867 0
M  V30 12 H 0.981 2.67203 3.11629 0
M  V30 13 H -0.358 1.57376 2.7183 0
M  V30 14 H -1.165 3.90944 3.18086 0
M  V30 15 H -1.563 3.418 1.51819 0
M  V30 16 H 0.729 5.58782 3.83104 0
M  V30 17 H 1.672 6.56266 2.65933 0
M  V30 18 H 2.08 4.83886 2.90714 0
M  V30 19 N 1.4781 -0.272755 1.55222 0
M  V30 20 C 2.7261 -1.00234 1.75492 0
M  V30 21 C 3.0471 -1.8681 0.5592 0
M  V30 22 O 2.3171 -1.91215 -0.425882 0
M  V30 23 H 0.8971 -0.373076 0.647166 0
M  V30 24 H 3.5591 -0.296926 1.92625 0
M  V30 25 H 2.6551 -1.63913 2.65592 0
M  V30 26 N 2.9562 -1.48159 -0.537278 0
M  V30 27 C 3.8862 -1.65029 -1.6519 0
M  V30 28 C 4.8672 -0.499281 -1.62607 0
M  V30 29 O 6.0522 -0.730972 -1.79918 0
M  V30 30 C 3.1822 -1.68303 -3.03795 0
M  V30 31 C 2.1362 -2.8283 -3.21234 0
M  V30 32 C 1.4622 -2.71189 -4.60826 0
M  V30 33 C 2.7622 -4.24211 -3.04701 0
M  V30 34 H 4.4562 -2.58341 -1.51328 0
M  V30 35 H 2.0022 -1.24325 -0.726585 0
M  V30 36 H 3.9552 -1.78693 -3.81637 0
M  V30 37 H 2.6792 -0.715635 -3.18663 0
M  V30 38 H 1.3382 -2.71983 -2.45807 0
M  V30 39 H 0.9862 -1.72435 -4.7252 0
M  V30 40 H 0.6862 -3.48035 -4.7344 0
M  V30 41 H 2.2102 -2.83537 -5.40777 0
M  V30 42 H 3.6242 -4.3593 -3.72341 0
M  V30 43 H 2.0212 -5.01998 -3.28813 0
M  V30 44 H 3.0912 -4.41184 -2.01209 0
M  V30 45 N 4.4343 0.785586 -1.36625 0
M  V30 46 C 5.3813 1.89838 -1.31264 0
M  V30 47 C 6.3513 1.65115 -0.180633 0
M  V30 48 O 7.5363 1.87222 -0.36777 0
M  V30 49 C 4.6763 3.26706 -1.11163 0
M  V30 50 C 3.7893 3.63476 -2.33472 0
M  V30 51 C 2.9243 4.89481 -2.06353 0
M  V30 52 C 1.9633 5.18941 -3.24602 0
M  V30 53 N 1.1003 6.36131 -2.97123 0
M  V30 54 H 5.9403 1.93756 -2.26413 0
M  V30 55 H 3.4773 0.947454 -1.12524 0
M  V30 56 H 5.4353 4.05639 -0.975337 0
M  V30 57 H 4.0653 3.222 -0.196674 0
M  V30 58 H 3.1173 2.79636 -2.57891 0
M  V30 59 H 4.4293 3.81193 -3.21704 0
M  V30 60 H 3.5833 5.76288 -1.89675 0
M  V30 61 H 2.3223 4.73841 -1.15437 0
M  V30 62 H 1.3273 4.30615 -3.41834 0
M  V30 63 H 2.5523 5.36498 -4.16349 0
M  V30 64 H 0.4983 6.21875 -2.08823 0
M  V30 65 H 0.4153 6.54198 -3.78894 0
M  V30 66 H 1.6833 7.2591 -2.84033 0
M  V30 67 N 5.9124 1.20967 1.01018 0
M  V30 68 C 6.8754 0.965918 2.07853 0
M  V30 69 C 7.8754 -0.0610545 1.60684 0
M  V30 70 O 9.0654 0.175681 1.73312 0
M  V30 71 C 6.1974 0.455513 3.37843 0
M  V30 72 H 7.3904 1.91365 2.3091 0
M  V30 73 H 4.9434 1.02594 1.17916 0
M  V30 74 H 5.6784 -0.497381 3.20463 0
M  V30 75 H 5.4634 1.19622 3.73407 0
M  V30 76 H 6.9534 0.304667 4.16487 0
M  V30 77 N 7.3905 -1.2043 1.01659 0
M  V30 78 C 8.3205 -2.25466 0.607226 0
M  V30 79 C 9.3015 -1.65853 -0.377716 0
M  V30 80 O 10.4865 -1.92409 -0.263149 0
M  V30 81 C 7.6165 -3.47256 -0.0552949 0
M  V30 82 C 6.5705 -4.19462 0.850632 0
M  V30 83 C 5.8965 -5.34673 0.0538859 0
M  V30 84 C 7.1965 -4.75603 2.15868 0
M  V30 85 H 8.8905 -2.59962 1.48526 0
M  V30 86 H 6.4365 -1.2496 0.715605 0
M  V30 87 H 8.3895 -4.19917 -0.353233 0
M  V30 88 H 7.1135 -3.11924 -0.968045 0
M  V30 89 H 5.7725 -3.48667 1.13257 0
M  V30 90 H 5.4205 -4.95585 -0.860514 0
M  V30 91 H 5.1205 -5.83913 0.657192 0
M  V30 92 H 6.6445 -6.10138 -0.237598 0
M  V30 93 H 8.0585 -5.40083 1.92311 0
M  V30 94 H 6.4555 -5.3528 2.71284 0
M  V30 95 H 7.5255 -3.94346 2.82169 0
M  V30 96 N 8.8686 -0.792821 -1.36206 0
M  V30 97 C 10.1086 -0.372238 -2.00982 0
M  V30 98 C 10.4726 1.03749 -1.61555 0
M  V30 99 O 11.6736 1.55934 -2.18948 0
M  V30 100 C 9.9446 -0.534566 -3.5338 0
M  V30 101 S 11.5036 -0.202365 -4.38333 0
M  V30 102 H 8.3216 -0.142044 -0.696667 0
M  V30 103 H 10.9236 -1.03206 -1.66039 0
M  V30 104 H 9.6276 -1.5608 -3.79562 0
M  V30 105 H 9.1586 0.141065 -3.93147 0
M  V30 106 H 11.1736 0.994869 -4.86124 0
M  V30 107 N 10.3467 1.47872 -0.545128 0
M  V30 108 C 11.2767 2.32661 0.197793 0
M  V30 109 C 12.2577 1.43041 0.920504 0
M  V30 110 O 13.4427 1.71912 0.90333 0
M  V30 111 C 10.5727 3.24569 1.23582 0
M  V30 112 C 9.5267 4.23333 0.630323 0
M  V30 113 C 8.8527 5.0448 1.77211 0
M  V30 114 C 10.1527 5.20704 -0.407974 0
M  V30 115 H 11.8467 2.95024 -0.510045 0
M  V30 116 H 9.3927 1.4187 -0.246731 0
M  V30 117 H 11.3457 3.8272 1.76362 0
M  V30 118 H 10.0697 2.60236 1.97344 0
M  V30 119 H 8.7287 3.6639 0.123922 0
M  V30 120 H 8.3767 4.36561 2.49847 0
M  V30 121 H 8.0767 5.71339 1.37281 0
M  V30 122 H 9.6007 5.65487 2.3034 0
M  V30 123 H 11.0147 5.7329 0.033305 0
M  V30 124 H 9.4117 5.95699 -0.725486 0
M  V30 125 H 10.4817 4.66917 -1.30828 0
M  V30 126 N 11.8248 0.280983 1.55075 0
M  V30 127 C 13.0728 -0.333455 1.9933 0
M  V30 128 C 13.3938 -1.55937 1.17085 0
M  V30 129 O 12.6638 -1.94143 0.261805 0
M  V30 130 H 11.2438 -0.126197 0.736263 0
M  V30 131 H 13.9058 0.387678 1.91005 0
M  V30 132 H 13.0018 -0.619292 3.05894 0
M  V30 133 N 13.3029 -1.57598 0.00835791 0
M  V30 134 C 14.2329 -2.1198 -0.979113 0
M  V30 135 C 15.2139 -1.03091 -1.35301 0
M  V30 136 O 16.3989 -1.30818 -1.43528 0
M  V30 137 C 13.5289 -2.62995 -2.26828 0
M  V30 138 C 12.4829 -3.76485 -2.03576 0
M  V30 139 C 11.8089 -4.13846 -3.38579 0
M  V30 140 C 13.1089 -5.0342 -1.39161 0
M  V30 141 H 14.8029 -2.94738 -0.526281 0
M  V30 142 H 12.3489 -1.41783 -0.251704 0
M  V30 143 H 14.3019 -2.99669 -2.96271 0
M  V30 144 H 13.0259 -1.7737 -2.7424 0
M  V30 145 H 11.6849 -3.40217 -1.36557 0
M  V30 146 H 11.3329 -3.25232 -3.83709 0
M  V30 147 H 11.0329 -4.90312 -3.23834 0
M  V30 148 H 12.5569 -4.53086 -4.09323 0
M  V30 149 H 13.9709 -5.37812 -1.98573 0
M  V30 150 H 12.3679 -5.84746 -1.34878 0
M  V30 151 H 13.4379 -4.83548 -0.361868 0
M  V30 152 N 14.781 0.264519 -1.55364 0
M  V30 153 C 15.711 1.33121 -1.91836 0
M  V30 154 C 16.692 1.51101 -0.781192 0
M  V30 155 O 17.877 1.64003 -1.04003 0
M  V30 156 C 15.007 2.68921 -2.19769 0
M  V30 157 C 13.961 2.65661 -3.35571 0
M  V30 158 C 13.287 4.05093 -3.49004 0
M  V30 159 C 14.587 2.24187 -4.71739 0
M  V30 160 H 16.281 1.02844 -2.81182 0
M  V30 161 H 13.827 0.493286 -1.35287 0
M  V30 162 H 15.78 3.43663 -2.43872 0
M  V30 163 H 14.504 3.00799 -1.27231 0
M  V30 164 H 13.163 1.93377 -3.1145 0
M  V30 165 H 12.811 4.34206 -2.53917 0
M  V30 166 H 12.511 4.03804 -4.26868 0
M  V30 167 H 14.035 4.81561 -3.75408 0
M  V30 168 H 15.449 2.88654 -4.9533 0
M  V30 169 H 13.846 2.34044 -5.52579 0
M  V30 170 H 14.916 1.19327 -4.69988 0
M  V30 171 N 16.2591 1.48442 0.529413 0
M  V30 172 C 17.4991 1.58086 1.29569 0
M  V30 173 C 17.8631 0.249302 1.90375 0
M  V30 174 O 19.0641 0.220738 2.67892 0
M  V30 175 C 17.3351 2.68793 2.35552 0
M  V30 176 S 18.8941 2.98207 3.21898 0
M  V30 177 H 15.7121 0.557922 0.440732 0
M  V30 178 H 18.3141 1.85966 0.603059 0
M  V30 179 H 17.0181 3.64102 1.89363 0
M  V30 180 H 16.5491 2.42817 3.09522 0
M  V30 181 H 18.5641 2.37548 4.35644 0
M  V30 182 N 17.7372 -0.778329 1.37039 0
M  V30 183 C 18.9832 -1.53892 1.32079 0
M  V30 184 C 19.3162 -1.9396 -0.0965386 0
M  V30 185 O 18.5912 -1.63568 -1.05242 0
M  V30 186 C 18.8742 -2.80847 2.25382 0
M  V30 187 C 18.7272 -2.47076 3.75864 0
M  V30 188 C 20.0462 -3.82741 2.1725 0
M  V30 189 H 17.1652 -0.558303 0.48111 0
M  V30 190 H 19.8072 -0.893397 1.67685 0
M  V30 191 H 17.9572 -3.35931 1.95148 0
M  V30 192 H 19.6292 -1.97957 4.16666 0
M  V30 193 H 17.8722 -1.79863 3.94755 0
M  V30 194 H 18.5432 -3.37798 4.36574 0
M  V30 195 H 21.0192 -3.37133 2.43887 0
M  V30 196 H 19.8952 -4.69303 2.84686 0
M  V30 197 H 20.1562 -4.2652 1.16331 0
M  V30 198 N 19.2153 -1.21501 -1.00376 0
M  V30 199 C 20.1453 -0.999478 -2.11028 0
M  V30 200 C 21.1263 0.0759671 -1.6993 0
M  V30 201 O 22.3113 -0.0841106 -1.94018 0
M  V30 202 C 19.4413 -0.564709 -3.42678 0
M  V30 203 C 18.3953 -1.58486 -3.97576 0
M  V30 204 C 17.7213 -1.00628 -5.25146 0
M  V30 205 C 19.0213 -2.97204 -4.29496 0
M  V30 206 H 20.7153 -1.92495 -2.29317 0
M  V30 207 H 18.2613 -0.92693 -1.102 0
M  V30 208 H 20.2143 -0.401091 -4.19487 0
M  V30 209 H 18.9383 0.396411 -3.24185 0
M  V30 210 H 17.5973 -1.73606 -3.22888 0
M  V30 211 H 17.2453 -0.0368439 -5.02987 0
M  V30 212 H 16.9453 -1.68771 -5.62841 0
M  V30 213 H 18.4693 -0.854015 -6.04598 0
M  V30 214 H 19.8833 -2.8552 -4.97143 0
M  V30 215 H 18.2803 -3.62372 -4.78338 0
M  V30 216 H 19.3503 -3.47956 -3.3772 0
M  V30 217 N 20.6934 1.19889 -1.02296 0
M  V30 218 C 21.9404 1.8942 -0.715972 0
M  V30 219 C 22.2684 1.79251 0.754944 0
M  V30 220 O 21.5234 1.17526 1.56481 0
M  V30 221 C 21.8224 3.39883 -1.10518 0
M  V30 222 C 21.4884 3.70254 -2.57337 0
M  V30 223 C 20.1504 3.78254 -2.97452 0
M  V30 224 C 22.5024 3.84052 -3.52354 0
M  V30 225 C 19.8304 3.97514 -4.31509 0
M  V30 226 C 22.1824 4.04824 -4.86108 0
M  V30 227 C 20.8464 4.11054 -5.25919 0
M  V30 228 H 20.1164 0.693138 -0.261993 0
M  V30 229 H 22.7634 1.42012 -1.28472 0
M  V30 230 H 21.0684 3.8915 -0.454953 0
M  V30 231 H 22.7654 3.9199 -0.845261 0
M  V30 232 H 19.3554 3.64632 -2.25258 0
M  V30 233 H 23.5394 3.77221 -3.22518 0
M  V30 234 H 18.7954 4.00574 -4.61898 0
M  V30 235 H 22.9694 4.14442 -5.59653 0
M  V30 236 H 20.5964 4.2573 -6.29808 0
M  V30 237 N 22.1715 0.800033 1.35784 0
M  V30 238 C 23.4175 0.377901 1.99248 0
M  V30 239 C 23.7505 -1.05052 1.63333 0
M  V30 240 O 23.0255 -1.72768 0.893385 0
M  V30 241 C 23.3085 0.553922 3.55814 0
M  V30 242 C 23.1615 2.0268 4.01548 0
M  V30 243 C 24.4805 -0.0244802 4.40093 0
M  V30 244 H 21.5995 0.138782 0.723815 0
M  V30 245 H 24.2415 1.00835 1.61035 0
M  V30 246 H 22.3915 0.0172398 3.88496 0
M  V30 247 H 24.0635 2.62536 3.79305 0
M  V30 248 H 22.3065 2.5256 3.52698 0
M  V30 249 H 22.9775 2.10087 5.10458 0
M  V30 250 H 25.4535 0.433775 4.13833 0
M  V30 251 H 24.3295 0.128637 5.48749 0
M  V30 252 H 24.5905 -1.11758 4.27741 0
M  V30 253 N 23.6496 -1.47581 0.552962 0
M  V30 254 C 24.8746 -2.07378 0.0300593 0
M  V30 255 C 25.2996 -1.40355 -1.25229 0
M  V30 256 O 24.6576 -0.477099 -1.7491 0
M  V30 257 C 24.7056 -3.60274 -0.153231 0
M  V30 258 O 23.8096 -3.94041 -1.21678 0
M  V30 259 H 23.1506 -0.662158 0.0494182 0
M  V30 260 H 25.6806 -1.89662 0.767434 0
M  V30 261 H 25.6906 -4.0633 -0.368761 0
M  V30 262 H 24.3656 -4.08455 0.783397 0
M  V30 263 H 22.9426 -3.59735 -0.982079 0
M  V30 264 N 25.1277 -0.289203 -1.54924 0
M  V30 265 C 26.0777 0.606939 -2.19773 0
M  V30 266 C 27.0617 1.10783 -1.16687 0
M  V30 267 O 28.2537 1.05057 -1.4245 0
M  V30 268 C 25.3827 1.78398 -2.93307 0
M  V30 269 C 24.4687 1.29961 -4.03697 0
M  V30 270 N 24.8597 0.532377 -5.0299 0
M  V30 271 C 23.1577 1.58136 -4.17024 0
M  V30 272 C 23.8587 0.275912 -5.81045 0
M  V30 273 N 22.8347 0.852365 -5.36876 0
M  V30 274 H 26.6367 0.0130779 -2.93897 0
M  V30 275 H 24.1507 -0.09341 -1.62131 0
M  V30 276 H 26.1477 2.43741 -3.38225 0
M  V30 277 H 24.8077 2.38166 -2.20697 0
M  V30 278 H 25.8187 0.17838 -5.17593 0
M  V30 279 H 22.4957 2.18738 -3.55612 0
M  V30 280 H 23.8857 -0.339502 -6.71042 0
M  V30 281 N 26.6058 1.57591 -0.0167156 0
M  V30 282 C 27.8528 1.91283 0.664597 0
M  V30 283 C 28.1808 0.891949 1.72842 0
M  V30 284 O 27.4358 -0.100931 1.9544 0
M  V30 285 C 27.7348 3.3172 1.33029 0
M  V30 286 C 27.4008 4.4914 0.398047 0
M  V30 287 C 26.0628 4.80992 0.141421 0
M  V30 288 C 28.4148 5.20634 -0.242825 0
M  V30 289 C 25.7428 5.81703 -0.764092 0
M  V30 290 C 28.0948 6.22311 -1.13632 0
M  V30 291 C 26.7588 6.52611 -1.40196 0
M  V30 292 H 26.0288 0.699956 0.243193 0
M  V30 293 H 28.6758 1.9135 -0.0758267 0
M  V30 294 H 26.9808 3.27856 2.14517 0
M  V30 295 H 28.6778 3.55055 1.86379 0
M  V30 296 H 25.2678 4.24262 0.608238 0
M  V30 297 H 29.4518 4.96267 -0.0576019 0
M  V30 298 H 24.7078 6.03532 -0.977732 0
M  V30 299 H 28.8818 6.76834 -1.63917 0
M  V30 300 H 26.5088 7.30467 -2.10529 0
M  V30 301 N 28.0839 -0.256276 1.55502 0
M  V30 302 C 29.3139 -1.00196 1.80677 0
M  V30 303 C 29.7219 -1.79805 0.588797 0
M  V30 304 O 29.0649 -1.78055 -0.451883 0
M  V30 305 C 29.1269 -1.99515 2.99055 0
M  V30 306 C 28.7909 -1.38688 4.35448 0
M  V30 307 C 29.7879 -0.794079 5.138 0
M  V30 308 C 27.4729 -1.40906 4.82132 0
M  V30 309 C 29.4669 -0.231562 6.36979 0
M  V30 310 C 27.1539 -0.842684 6.05262 0
M  V30 311 C 28.1519 -0.254953 6.82524 0
M  V30 312 O 27.8399 0.3027 8.0333 0
M  V30 313 H 27.5719 -0.300919 0.60533 0
M  V30 314 H 30.1259 -0.287307 2.03381 0
M  V30 315 H 28.3559 -2.74785 2.72084 0
M  V30 316 H 30.0449 -2.60349 3.11405 0
M  V30 317 H 30.8109 -0.769519 4.78856 0
M  V30 318 H 26.6899 -1.85591 4.21992 0
M  V30 319 H 30.2339 0.227816 6.97228 0
M  V30 320 H 26.1309 -0.86454 6.39684 0
M  V30 321 H 26.8989 0.193662 8.18271 0
M  V30 322 N 29.562 -1.4872 -0.521534 0
M  V30 323 C 30.79 -1.60843 -1.30142 0
M  V30 324 C 31.205 -0.271897 -1.86832 0
M  V30 325 O 30.562 0.739969 -1.66825 0
M  V30 326 C 30.613 -2.66155 -2.4463 0
M  V30 327 O 30.334 -3.94623 -1.90275 0
M  V30 328 C 31.835 -2.88795 -3.36322 0
M  V30 329 H 29.055 -0.542075 -0.395468 0
M  V30 330 H 31.599 -1.94609 -0.628285 0
M  V30 331 H 29.754 -2.35224 -3.07812 0
M  V30 332 H 30.168 -4.52468 -2.65279 0
M  V30 333 H 31.642 -3.66264 -4.12983 0
M  V30 334 H 32.119 -1.97934 -3.9207 0
M  V30 335 H 32.725 -3.21063 -2.78924 0
M  V30 336 N 31.0401 0.771051 -1.3745 0
M  V30 337 C 32.4511 1.34737 -1.29239 0
M  V30 338 C 32.8021 1.96109 0.0596908 0
M  V30 339 O 31.9271 1.93865 0.961534 0
M  V30 340 C 32.5221 2.44973 -2.34037 0
M  V30 341 C 31.0811 2.98372 -2.29458 0
M  V30 342 C 30.2281 1.71595 -2.17831 0
M  V30 343 H 33.1791 0.571256 -1.48062 0
M  V30 344 H 33.2001 3.24471 -1.98744 0
M  V30 345 H 32.7121 2.00276 -3.32432 0
M  V30 346 H 30.8131 3.47443 -1.34589 0
M  V30 347 H 30.9261 3.53939 -3.229 0
M  V30 348 H 29.2901 1.94547 -1.64388 0
M  V30 349 H 30.0731 1.29001 -3.18141 0
M  V30 350 N 32.5182 1.22032 0.997298 0
M  V30 351 C 33.4512 0.929735 2.08401 0
M  V30 352 C 34.4292 -0.125681 1.62114 0
M  V30 353 O 35.6132 0.00495409 1.88499 0
M  V30 354 C 32.7402 0.397488 3.3636 0
M  V30 355 C 31.7862 1.4369 4.01566 0
M  V30 356 S 32.6192 3.00874 4.42984 0
M  V30 357 C 33.7752 2.49276 5.74119 0
M  V30 358 H 34.0082 1.84998 2.32729 0
M  V30 359 H 31.5412 1.0509 1.13117 0
M  V30 360 H 33.4992 0.0969846 4.10385 0
M  V30 361 H 32.1602 -0.501571 3.10069 0
M  V30 362 H 31.3532 1.01427 4.93689 0
M  V30 363 H 30.9552 1.68588 3.33847 0
M  V30 364 H 33.2472 1.90242 6.50242 0
M  V30 365 H 34.1902 3.39872 6.21203 0
M  V30 366 H 34.5982 1.90714 5.31308 0
M  V30 367 N 33.9963 -1.19345 1.0293 0
M  V30 368 C 35.4073 -1.70725 0.755633 0
M  V30 369 C 35.7583 -1.82326 -0.724676 0
M  V30 370 O 34.8833 -1.49471 -1.56484 0
M  V30 371 C 35.4783 -3.10084 1.36503 0
M  V30 372 C 34.0373 -3.58723 1.13994 0
M  V30 373 C 33.1843 -2.35577 1.46283 0
M  V30 374 H 36.1353 -1.0418 1.19718 0
M  V30 375 H 36.1563 -3.72787 0.762217 0
M  V30 376 H 35.6683 -3.01609 2.44241 0
M  V30 377 H 33.7693 -3.72512 0.0807901 0
M  V30 378 H 33.8823 -4.42816 1.82894 0
M  V30 379 H 32.2463 -2.38935 0.88217 0
M  V30 380 H 33.0293 -2.29731 2.55105 0
M  V30 381 N 35.4744 -0.807222 -1.35358 0
M  V30 382 C 36.7514 -0.311126 -1.9311 0
M  V30 383 C 37.1314 1.19937 -1.73719 0
M  V30 384 O 36.4794 1.99918 -1.10657 0
M  V30 385 C 36.6894 -0.723226 -3.41424 0
M  V30 386 C 38.0374 -0.713078 -4.18569 0
M  V30 387 O 39.0614 -0.664811 -3.49941 0
M  V30 388 O 37.9204 -0.772022 -5.41019 0
M  V30 389 H 35.0144 -0.081526 -0.822972 0
M  V30 390 H 37.5604 -0.890962 -1.4443 0
M  V30 391 H 36.3324 -1.76426 -3.4927 0
M  V30 392 H 35.9554 -0.118232 -3.97424 0
M  V30 393 N 36.9525 1.47285 -0.560781 0
M  V30 394 C 37.9005 2.31756 0.197942 0
M  V30 395 C 38.8945 1.43146 0.905854 0
M  V30 396 O 40.1005 1.59891 0.826733 0
M  V30 397 H 36.4755 0.747438 0.0827049 0
M  V30 398 H 38.4465 2.9359 -0.533629 0
M  V30 399 C 37.1955 3.25874 1.21249 0
M  V30 400 H 36.5185 3.94023 0.67719 0
M  V30 401 H 37.9585 3.87803 1.71419 0
M  V30 402 C 36.4175 2.49651 2.26221 0
M  V30 403 O 36.9475 2.24355 3.33208 0
M  V30 404 N 35.1535 2.10597 2.00243 0
M  V30 405 H 34.7005 2.31369 1.13252 0
M  V30 406 H 34.6585 1.59913 2.70694 0
M  V30 407 N 38.4306 0.297415 1.54768 0
M  V30 408 C 39.6796 -0.313669 1.99246 0
M  V30 409 C 39.9926 -1.55281 1.18942 0
M  V30 410 O 41.1986 -2.23825 1.5367 0
M  V30 411 C 39.6546 -0.609407 3.54703 0
M  V30 412 C 39.2626 0.611192 4.43811 0
M  V30 413 C 41.0066 -1.18188 4.07715 0
M  V30 414 C 38.9136 0.288805 5.90694 0
M  V30 415 H 37.8436 -0.120979 0.744231 0
M  V30 416 H 40.4946 0.40556 1.78962 0
M  V30 417 H 38.8766 -1.38813 3.70873 0
M  V30 418 H 40.0506 1.3875 4.39414 0
M  V30 419 H 38.3656 1.10205 4.01552 0
M  V30 420 H 40.9626 -1.43727 5.15021 0
M  V30 421 H 41.3056 -2.12299 3.58099 0
M  V30 422 H 41.8386 -0.464944 3.95074 0
M  V30 423 H 38.5776 1.19838 6.44453 0
M  V30 424 H 38.0976 -0.450305 5.98107 0
M  V30 425 H 39.7766 -0.110933 6.46905 0
M  V30 426 N 39.9087 -1.5758 0.0250728 0
M  V30 427 C 40.8187 -2.1343 -0.973905 0
M  V30 428 C 41.8347 -1.08556 -1.35984 0
M  V30 429 O 43.0107 -1.40592 -1.44207 0
M  V30 430 C 40.0757 -2.64703 -2.23904 0
M  V30 431 C 39.1367 -3.84276 -1.91391 0
M  V30 432 C 38.3697 -4.33095 -3.11873 0
M  V30 433 O 38.5927 -3.81107 -4.24398 0
M  V30 434 O 37.5267 -5.24984 -2.94406 0
M  V30 435 H 41.3527 -2.99057 -0.529036 0
M  V30 436 H 38.9377 -1.48118 -0.195288 0
M  V30 437 H 40.8197 -2.97769 -2.98181 0
M  V30 438 H 39.4947 -1.82161 -2.6758 0
M  V30 439 H 38.4017 -3.56143 -1.14511 0
M  V30 440 H 39.7347 -4.67968 -1.52534 0
M  V30 441 N 41.3868 0.248026 -1.55636 0
M  V30 442 C 42.2968 1.32859 -1.93354 0
M  V30 443 C 43.3128 1.52719 -0.833838 0
M  V30 444 O 44.4888 1.66363 -1.13513 0
M  V30 445 C 41.5538 2.66337 -2.21958 0
M  V30 446 C 40.6148 2.55008 -3.45354 0
M  V30 447 C 39.8478 3.82121 -3.72584 0
M  V30 448 O 40.0708 4.83951 -3.01907 0
M  V30 449 O 39.0048 3.80822 -4.6611 0
M  V30 450 H 42.8308 1.03862 -2.85388 0
M  V30 451 H 40.4158 0.448686 -1.42503 0
M  V30 452 H 42.2978 3.45216 -2.4167 0
M  V30 453 H 40.9728 2.95068 -1.33103 0
M  V30 454 H 39.8798 1.7442 -3.30951 0
M  V30 455 H 41.2128 2.31222 -4.34508 0
M  V30 456 N 42.8649 1.48995 0.513639 0
M  V30 457 C 44.0899 1.61792 1.29762 0
M  V30 458 C 44.5149 0.284475 1.85936 0
M  V30 459 O 43.8729 -0.746185 1.65232 0
M  V30 460 C 43.9209 2.67993 2.41272 0
M  V30 461 O 43.0249 2.26287 3.44772 0
M  V30 462 H 42.3659 0.541963 0.38363 0
M  V30 463 H 44.8959 1.95097 0.616307 0
M  V30 464 H 44.9059 2.89772 2.87221 0
M  V30 465 H 43.5809 3.64791 1.9975 0
M  V30 466 H 42.1579 2.14788 3.04829 0
M  V30 467 N 44.343 -0.763751 1.37857 0
M  V30 468 C 45.589 -1.52396 1.3471 0
M  V30 469 C 45.944 -1.92288 -0.0656435 0
M  V30 470 O 45.237 -1.6181 -1.02606 0
M  V30 471 C 45.431 -2.79499 2.22745 0
M  V30 472 C 45.26 -2.52031 3.72438 0
M  V30 473 C 44.03 -2.45759 4.4151 0
M  V30 474 C 46.228 -2.19489 4.65112 0
M  V30 475 N 44.21 -2.1046 5.76697 0
M  V30 476 C 45.581 -1.94396 5.88736 0
M  V30 477 C 47.636 -2.05712 4.53417 0
M  V30 478 C 46.339 -1.56917 7.01975 0
M  V30 479 C 48.365 -1.69634 5.66549 0
M  V30 480 C 47.727 -1.45407 6.89229 0
M  V30 481 H 43.826 -0.55765 0.548225 0
M  V30 482 H 46.41 -0.890302 1.73152 0
M  V30 483 H 44.581 -3.4069 1.86507 0
M  V30 484 H 46.313 -3.45465 2.10798 0
M  V30 485 H 43.068 -2.61885 3.94605 0
M  V30 486 H 43.492 -1.95484 6.48163 0
M  V30 487 H 48.134 -2.23123 3.59133 0
M  V30 488 H 45.852 -1.38246 7.96187 0
M  V30 489 H 49.438 -1.59621 5.59475 0
M  V30 490 H 48.318 -1.17904 7.75286 0
M  V30 491 N 45.8211 -1.22559 -0.990812 0
M  V30 492 C 46.7681 -0.997519 -2.0813 0
M  V30 493 C 47.7381 0.0814702 -1.659 0
M  V30 494 O 48.9231 -0.0685424 -1.90677 0
M  V30 495 C 46.0631 -0.583615 -3.40129 0
M  V30 496 C 45.1761 -1.7336 -3.9569 0
M  V30 497 C 44.3111 -1.26748 -5.15857 0
M  V30 498 C 43.3501 -2.38888 -5.63559 0
M  V30 499 N 42.4871 -1.93308 -6.74964 0
M  V30 500 H 47.3271 -1.93099 -2.26973 0
M  V30 501 H 44.8641 -0.962114 -1.11273 0
M  V30 502 H 46.8221 -0.324801 -4.15934 0
M  V30 503 H 45.4521 0.312845 -3.2128 0
M  V30 504 H 44.5041 -2.10669 -3.16738 0
M  V30 505 H 45.8161 -2.57704 -4.27071 0
M  V30 506 H 44.9701 -0.966173 -5.98957 0
M  V30 507 H 43.7091 -0.394272 -4.86104 0
M  V30 508 H 42.7141 -2.69805 -4.79046 0
M  V30 509 H 43.9391 -3.26728 -5.95336 0
M  V30 510 H 41.8851 -1.08352 -6.4699 0
M  V30 511 H 41.8021 -2.71217 -7.05675 0
M  V30 512 H 43.0701 -1.66252 -7.61564 0
M  V30 513 N 47.2992 1.18797 -1.03562 0
M  V30 514 C 48.5482 1.87978 -0.731235 0
M  V30 515 C 48.8612 1.80911 0.743671 0
M  V30 516 O 50.0672 2.45407 1.16137 0
M  V30 517 C 48.5232 3.3721 -1.25768 0
M  V30 518 C 48.1312 3.52818 -2.76085 0
M  V30 519 C 49.8752 4.11825 -1.0296 0
M  V30 520 C 47.7822 4.9598 -3.22114 0
M  V30 521 H 46.7122 0.704063 -0.269835 0
M  V30 522 H 49.3632 1.34266 -1.25079 0
M  V30 523 H 47.7452 3.90359 -0.666011 0
M  V30 524 H 48.9192 3.09965 -3.40966 0
M  V30 525 H 47.2342 2.91602 -2.97249 0
M  V30 526 H 49.8312 5.17411 -1.34869 0
M  V30 527 H 50.1742 4.16287 0.0333546 0
M  V30 528 H 50.7072 3.64833 -1.58562 0
M  V30 529 H 47.4462 4.96684 -4.27768 0
M  V30 530 H 46.9662 5.39569 -2.61965 0
M  V30 531 H 48.6452 5.6467 -3.15844 0
M  V30 532 N 48.7773 0.814389 1.34928 0
M  V30 533 C 49.7103 0.175641 2.27523 0
M  V30 534 C 50.6883 -0.662953 1.48471 0
M  V30 535 O 51.8723 -0.628545 1.77712 0
M  V30 536 C 48.9993 -0.755516 3.30166 0
M  V30 537 C 48.0453 0.00445305 4.265 0
M  V30 538 S 48.8783 1.34582 5.18313 0
M  V30 539 C 50.0343 0.419315 6.24494 0
M  V30 540 H 50.2673 0.960691 2.8135 0
M  V30 541 H 47.8003 0.609846 1.41846 0
M  V30 542 H 49.7583 -1.28723 3.89796 0
M  V30 543 H 48.4193 -1.51402 2.75202 0
M  V30 544 H 47.6123 -0.703077 4.99072 0
M  V30 545 H 47.2143 0.466447 3.7108 0
M  V30 546 H 49.5063 -0.392432 6.76362 0
M  V30 547 H 50.4493 1.11446 6.99275 0
M  V30 548 H 50.8573 0.0115389 5.64499 0
M  V30 549 N 50.2554 -1.46986 0.568584 0
M  V30 550 C 51.2184 -2.28624 -0.162366 0
M  V30 551 C 52.2184 -1.37596 -0.832103 0
M  V30 552 O 53.4084 -1.60115 -0.68622 0
M  V30 553 C 50.5404 -3.17596 -1.23878 0
M  V30 554 H 51.7334 -2.94722 0.554899 0
M  V30 555 H 49.2864 -1.52863 0.325976 0
M  V30 556 H 50.0214 -2.56214 -1.98808 0
M  V30 557 H 49.8064 -3.846 -0.763219 0
M  V30 558 H 51.2964 -3.79078 -1.75185 0
M  V30 559 N 51.7335 -0.305618 -1.54608 0
M  V30 560 C 52.6635 0.561482 -2.26649 0
M  V30 561 C 53.6445 1.13415 -1.26772 0
M  V30 562 O 54.8295 1.16262 -1.55553 0
M  V30 563 C 51.9595 1.73122 -3.01075 0
M  V30 564 C 50.9135 1.2887 -4.08138 0
M  V30 565 C 50.2395 2.54396 -4.70305 0
M  V30 566 C 51.5395 0.416578 -5.20636 0
M  V30 567 H 53.2335 -0.0393902 -2.99374 0
M  V30 568 H 50.7795 -0.020385 -1.43986 0
M  V30 569 H 52.7325 2.34396 -3.50195 0
M  V30 570 H 51.4565 2.3584 -2.25936 0
M  V30 571 H 50.1155 0.698991 -3.59875 0
M  V30 572 H 49.7635 3.15439 -3.918 0
M  V30 573 H 49.4635 2.25486 -5.42614 0
M  V30 574 H 50.9875 3.16464 -5.2219 0
M  V30 575 H 52.4015 0.935116 -5.65622 0
M  V30 576 H 50.7985 0.221046 -5.99693 0
M  V30 577 H 51.8685 -0.557162 -4.81688 0
M  V30 578 N 53.2116 1.57565 -0.0334293 0
M  V30 579 C 54.4886 1.83282 0.683163 0
M  V30 580 C 54.8686 0.91823 1.90084 0
M  V30 581 O 54.2166 -0.025113 2.28486 0
M  V30 582 C 54.4266 3.32599 1.0573 0
M  V30 583 C 55.7746 3.99179 1.44711 0
M  V30 584 O 56.7986 3.3712 1.15015 0
M  V30 585 O 55.6576 5.08565 2.0006 0
M  V30 586 H 52.7516 0.755869 0.335546 0
M  V30 587 H 55.2976 1.69589 -0.0614402 0
M  V30 588 H 54.0696 3.90834 0.190828 0
M  V30 589 H 53.6926 3.51415 1.85993 0
M  V30 590 N 54.6897 -0.239769 1.55765 0
M  V30 591 C 55.6527 -1.28038 1.90103 0
M  V30 592 C 56.6527 -1.40723 0.778055 0
M  V30 593 O 57.8427 -1.39301 1.04599 0
M  V30 594 C 54.9747 -2.65702 2.13577 0
M  V30 595 H 56.1677 -0.988048 2.83157 0
M  V30 596 H 53.7207 -0.479382 1.48767 0
M  V30 597 H 54.4557 -3.00063 1.23015 0
M  V30 598 H 54.2407 -2.57875 2.95369 0
M  V30 599 H 55.7307 -3.40828 2.41301 0
M  V30 600 N 56.1678 -1.49265 -0.50573 0
M  V30 601 C 57.4168 -1.57761 -1.25675 0
M  V30 602 C 57.7298 -0.267371 -1.93764 0
M  V30 603 O 58.9358 -0.230827 -2.70517 0
M  V30 604 C 57.3918 -2.78332 -2.28165 0
M  V30 605 C 56.9998 -4.16096 -1.66037 0
M  V30 606 C 58.7438 -2.96155 -3.04125 0
M  V30 607 C 56.6508 -5.27895 -2.6661 0
M  V30 608 H 55.5808 -0.587391 -0.472745 0
M  V30 609 H 58.2318 -1.75644 -0.53118 0
M  V30 610 H 56.6138 -2.53934 -3.03865 0
M  V30 611 H 57.7878 -4.50612 -0.963622 0
M  V30 612 H 56.1028 -4.03591 -1.02484 0
M  V30 613 H 58.6998 -3.76849 -3.79327 0
M  V30 614 H 59.0428 -2.06534 -3.61455 0
M  V30 615 H 59.5758 -3.2057 -2.35541 0
M  V30 616 H 56.3148 -6.1956 -2.14068 0
M  V30 617 H 55.8348 -4.97839 -3.34539 0
M  V30 618 H 57.5138 -5.57031 -3.29129 0
M  V30 619 N 57.6459 0.756429 -1.3826 0
M  V30 620 C 58.6089 1.85176 -1.35065 0
M  V30 621 C 59.6089 1.58818 -0.251703 0
M  V30 622 O 60.7989 1.66615 -0.508433 0
M  V30 623 C 57.9309 3.22596 -1.10201 0
M  V30 624 H 59.1239 1.89417 -2.3251 0
M  V30 625 H 56.6769 0.95783 -1.23512 0
M  V30 626 H 57.4119 3.24025 -0.133504 0
M  V30 627 H 57.1969 3.43122 -1.89762 0
M  V30 628 H 58.6869 4.02673 -1.10654 0
M  V30 629 N 59.124 1.23083 0.984299 0
M  V30 630 C 60.071 1.00854 2.07598 0
M  V30 631 C 61.041 -0.0726709 1.65941 0
M  V30 632 O 62.226 0.0786535 1.90638 0
M  V30 633 C 59.366 0.601645 3.39815 0
M  V30 634 C 58.479 1.75456 3.94765 0
M  V30 635 C 57.614 1.29482 5.15177 0
M  V30 636 C 56.653 2.41873 5.62284 0
M  V30 637 N 55.79 1.96885 6.73929 0
M  V30 638 H 60.63 1.943 2.25946 0
M  V30 639 H 58.167 0.968001 1.10762 0
M  V30 640 H 60.125 0.346854 4.15756 0
M  V30 641 H 58.755 -0.295803 3.21442 0
M  V30 642 H 57.807 2.12346 3.15616 0
M  V30 643 H 59.119 2.59965 4.25699 0
M  V30 644 H 58.273 0.997923 5.98437 0
M  V30 645 H 57.012 0.420046 4.85888 0
M  V30 646 H 56.017 2.72342 4.77608 0
M  V30 647 H 57.242 3.29881 5.93595 0
M  V30 648 H 55.188 1.11782 6.46406 0
M  V30 649 H 55.105 2.74956 7.04227 0
M  V30 650 H 56.373 1.70289 7.60672 0
M  V30 651 N 60.6021 -1.18246 1.0419 0
M  V30 652 C 61.8301 -1.92195 0.766072 0
M  V30 653 C 62.2451 -1.76247 -0.676933 0
M  V30 654 O 61.6021 -1.09293 -1.46155 0
M  V30 655 C 61.6531 -3.43568 1.12442 0
M  V30 656 O 61.3741 -3.59015 2.51078 0
M  V30 657 C 62.8751 -4.34613 0.873275 0
M  V30 658 H 60.0951 -0.610114 0.279288 0
M  V30 659 H 62.6391 -1.50007 1.38989 0
M  V30 660 H 60.7941 -3.8354 0.545542 0
M  V30 661 H 61.2081 -4.5273 2.64831 0
M  V30 662 H 62.6821 -5.39374 1.17385 0
M  V30 663 H 63.1591 -4.38781 -0.191909 0
M  V30 664 H 63.7651 -4.00341 1.43551 0
M  V30 665 N 62.0802 -0.821533 -1.34494 0
M  V30 666 C 63.3202 -0.414785 -2.00147 0
M  V30 667 C 63.6842 1.00299 -1.6372 0
M  V30 668 O 64.8852 1.51255 -2.22206 0
M  V30 669 C 63.1562 -0.609403 -3.52166 0
M  V30 670 S 64.7152 -0.295297 -4.37805 0
M  V30 671 H 61.5332 -0.15679 -0.693497 0
M  V30 672 H 64.1352 -1.06705 -1.63812 0
M  V30 673 H 62.8392 -1.64096 -3.76166 0
M  V30 674 H 62.3702 0.0576414 -3.93358 0
M  V30 675 H 64.3852 0.891531 -4.88125 0
M  V30 676 N 63.5583 1.46682 -0.576371 0
M  V30 677 C 64.7863 2.06798 -0.0649635 0
M  V30 678 C 65.2013 1.42612 1.23723 0
M  V30 679 O 64.5583 0.529203 1.74659 0
M  V30 680 C 64.6093 3.6132 0.114202 0
M  V30 681 O 64.3303 4.23104 -1.13644 0
M  V30 682 C 65.8313 4.38349 0.66069 0
M  V30 683 H 63.0513 0.668778 -0.0545616 0
M  V30 684 H 65.5953 1.88404 -0.795237 0
M  V30 685 H 63.7503 3.79162 0.794673 0
M  V30 686 H 64.1643 5.15894 -0.946253 0
M  V30 687 H 65.6383 5.47081 0.73526 0
M  V30 688 H 66.1153 4.05953 1.67627 0
M  V30 689 H 66.7213 4.25297 0.0152951 0
M  V30 690 N 65.0364 0.313813 1.54444 0
M  V30 691 C 66.2834 -0.291675 2.00388 0
M  V30 692 C 66.6114 -1.52904 1.2021 0
M  V30 693 O 65.8664 -1.93833 0.269707 0
M  V30 694 C 66.1654 -0.680386 3.50864 0
M  V30 695 C 65.8314 0.456699 4.48581 0
M  V30 696 C 64.4934 0.768824 4.75018 0
M  V30 697 C 66.8454 1.22098 5.06697 0
M  V30 698 C 64.1734 1.84812 5.56831 0
M  V30 699 C 66.5254 2.29029 5.89685 0
M  V30 700 C 65.1894 2.60834 6.14428 0
M  V30 701 H 64.4594 -0.106732 0.733273 0
M  V30 702 H 67.1064 0.43557 1.86481 0
M  V30 703 H 65.4114 -1.48791 3.62448 0
M  V30 704 H 67.1084 -1.16026 3.83847 0
M  V30 705 H 63.6984 0.203337 4.28117 0
M  V30 706 H 67.8824 0.993096 4.86263 0
M  V30 707 H 63.1384 2.09912 5.74236 0
M  V30 708 H 67.3124 2.887 6.33739 0
M  V30 709 H 64.9394 3.44596 6.77612 0
M  V30 710 N 66.5145 -1.57545 0.0417849 0
M  V30 711 C 67.7425 -1.96624 -0.643928 0
M  V30 712 C 68.1575 -0.918897 -1.64929 0
M  V30 713 O 67.5145 0.0979323 -1.82237 0
M  V30 714 C 67.5655 -3.35781 -1.33914 0
M  V30 715 O 67.2865 -4.365 -0.374048 0
M  V30 716 C 68.7875 -3.89566 -2.1155 0
M  V30 717 H 66.0075 -0.647316 -0.176702 0
M  V30 718 H 68.5515 -2.04229 0.105304 0
M  V30 719 H 66.7065 -3.29357 -2.03968 0
M  V30 720 H 67.1205 -5.17248 -0.869179 0
M  V30 721 H 68.5945 -4.89242 -2.55628 0
M  V30 722 H 69.0715 -3.24488 -2.9598 0
M  V30 723 H 69.6775 -3.99298 -1.46427 0
M  V30 724 N 67.9926 0.231505 -1.5589 0
M  V30 725 C 68.9556 1.27028 -1.90779 0
M  V30 726 C 69.9556 1.40308 -0.785507 0
M  V30 727 O 71.1456 1.38744 -1.05336 0
M  V30 728 C 68.2776 2.64566 -2.14983 0
M  V30 729 H 69.4706 0.973017 -2.83677 0
M  V30 730 H 67.0236 0.471486 -1.49019 0
M  V30 731 H 67.7586 2.99406 -1.24604 0
M  V30 732 H 67.5436 2.56305 -2.96732 0
M  V30 733 H 69.0336 3.39543 -2.43105 0
M  V30 734 N 69.4707 1.49531 0.497807 0
M  V30 735 C 70.4037 1.61043 1.6168 0
M  V30 736 C 71.3817 0.459386 1.55976 0
M  V30 737 O 72.5657 0.675358 1.75986 0
M  V30 738 C 69.6927 1.56833 3.00202 0
M  V30 739 C 68.7387 2.77173 3.24156 0
M  V30 740 S 69.5717 4.38808 3.06933 0
M  V30 741 C 70.7277 4.37248 4.47845 0
M  V30 742 H 70.9607 2.55702 1.51671 0
M  V30 743 H 68.4937 1.38462 0.683201 0
M  V30 744 H 70.4517 1.55089 3.80076 0
M  V30 745 H 69.1127 0.634561 3.07623 0
M  V30 746 H 68.3057 2.70456 4.25288 0
M  V30 747 H 67.9077 2.76346 2.5201 0
M  V30 748 H 70.1997 4.09164 5.39992 0
M  V30 749 H 71.1427 5.38668 4.59612 0
M  V30 750 H 71.5507 3.67286 4.28674 0
M  V30 751 N 70.9488 -0.749086 1.3866 0
M  V30 752 C 72.1888 -1.52112 1.36534 0
M  V30 753 C 72.5528 -1.91951 -0.0432316 0
M  V30 754 O 73.7538 -2.68132 -0.189396 0
M  V30 755 C 72.0248 -2.73704 2.29828 0
M  V30 756 S 73.5838 -3.63519 2.45763 0
M  V30 757 H 70.4018 -0.520482 0.484375 0
M  V30 758 H 73.0038 -0.878963 1.74627 0
M  V30 759 H 71.7078 -2.42552 3.31054 0
M  V30 760 H 71.2388 -3.4286 1.929 0
M  V30 761 H 73.2538 -4.66712 1.68505 0
M  V30 762 N 72.4269 -1.23603 -0.977757 0
M  V30 763 C 73.6739 -1.06971 -1.71941 0
M  V30 764 C 74.0019 0.393009 -1.90488 0
M  V30 765 O 73.2569 1.30719 -1.4564 0
M  V30 766 C 73.5559 -1.7433 -3.11999 0
M  V30 767 C 73.2219 -3.24252 -3.13323 0
M  V30 768 C 71.8839 -3.65156 -3.13392 0
M  V30 769 C 74.2359 -4.20141 -3.08433 0
M  V30 770 C 71.5639 -5.00403 -3.0629 0
M  V30 771 C 73.9159 -5.55384 -3.02873 0
M  V30 772 C 72.5799 -5.95647 -3.01265 0
M  V30 773 H 71.8499 -0.391433 -0.629175 0
M  V30 774 H 74.4969 -1.53572 -1.14403 0
M  V30 775 H 72.8019 -1.20096 -3.7294 0
M  V30 776 H 74.4989 -1.58936 -3.68158 0
M  V30 777 H 71.0889 -2.91692 -3.14029 0
M  V30 778 H 75.2729 -3.89547 -3.07517 0
M  V30 779 H 70.5289 -5.3081 -3.03399 0
M  V30 780 H 74.7029 -6.29398 -2.98046 0
M  V30 781 H 72.3299 -7.0041 -2.95516 0
M  V30 782 N 73.905 1.17692 -1.04816 0
M  V30 783 C 74.815 2.25229 -0.65643 0
M  V30 784 C 75.831 1.71018 0.320761 0
M  V30 785 O 77.007 2.00649 0.173805 0
M  V30 786 C 74.072 3.46684 -0.0332629 0
M  V30 787 C 73.133 4.15997 -1.06042 0
M  V30 788 C 72.366 5.31654 -0.466893 0
M  V30 789 O 72.589 5.65777 0.724758 0
M  V30 790 O 71.523 5.89831 -1.1993 0
M  V30 791 H 75.349 2.61016 -1.55255 0
M  V30 792 H 72.934 1.24919 -0.81949 0
M  V30 793 H 74.816 4.20234 0.313256 0
M  V30 794 H 73.491 3.12703 0.836566 0
M  V30 795 H 72.398 3.44482 -1.45886 0
M  V30 796 H 73.731 4.53996 -1.90127 0
M  V30 797 N 75.3831 0.828654 1.34056 0
M  V30 798 C 76.3311 0.242973 2.31327 0
M  V30 799 C 77.3251 -0.61944 1.57668 0
M  V30 800 O 78.5311 -0.51014 1.7262 0
M  V30 801 H 74.9061 0.059834 0.749616 0
M  V30 802 H 76.8771 1.07809 2.78244 0
M  V30 803 C 75.6261 -0.575733 3.429 0
M  V30 804 H 74.9491 0.0785582 3.99723 0
M  V30 805 H 76.3891 -0.951547 4.13185 0
M  V30 806 C 74.8481 -1.75044 2.87856 0
M  V30 807 O 75.3781 -2.84882 2.83205 0
M  V30 808 N 73.5841 -1.56903 2.44602 0
M  V30 809 H 73.1311 -0.675547 2.48584 0
M  V30 810 H 73.0891 -2.35652 2.08124 0
M  V30 811 N 76.8612 -1.46375 0.584142 0
M  V30 812 C 77.7942 -2.27351 -0.196676 0
M  V30 813 C 78.7722 -1.35715 -0.895561 0
M  V30 814 O 79.9562 -1.65126 -0.90916 0
M  V30 815 C 77.0832 -3.13486 -1.28235 0
M  V30 816 C 76.1292 -4.20896 -0.689145 0
M  V30 817 S 76.9622 -5.33299 0.48507 0
M  V30 818 C 78.1182 -6.23 -0.601767 0
M  V30 819 H 78.3512 -2.93228 0.490395 0
M  V30 820 H 75.8842 -1.49875 0.371071 0
M  V30 821 H 77.8422 -3.63676 -1.90395 0
M  V30 822 H 76.5032 -2.4692 -1.94138 0
M  V30 823 H 75.6962 -4.80997 -1.50527 0
M  V30 824 H 75.2982 -3.73726 -0.143181 0
M  V30 825 H 77.5902 -6.60979 -1.48705 0
M  V30 826 H 78.5332 -7.0809 -0.0374799 0
M  V30 827 H 78.9412 -5.57173 -0.906557 0
M  V30 828 N 78.3393 -0.321999 -1.54275 0
M  V30 829 C 79.7553 0.0306999 -1.5957 0
M  V30 830 C 79.9553 1.50614 -1.33857 0
M  V30 831 O 79.0113 2.2619 -1.12223 0
M  V30 832 C 80.3243 -0.386122 -2.98211 0
M  V30 833 C 81.8723 -0.336647 -3.11184 0
M  V30 834 C 82.3473 -0.728607 -4.52167 0
M  V30 835 N 83.8383 -0.681952 -4.58152 0
M  V30 836 C 84.5733 -0.957449 -5.6535 0
M  V30 837 N 84.0693 -1.3 -6.80494 0
M  V30 838 N 85.8623 -0.883113 -5.55119 0
M  V30 839 H 78.0133 -1.28332 -1.69247 0
M  V30 840 H 80.2763 -0.521716 -0.791528 0
M  V30 841 H 79.9823 -1.41404 -3.22022 0
M  V30 842 H 79.8563 0.249662 -3.76373 0
M  V30 843 H 82.2433 0.682058 -2.8711 0
M  V30 844 H 82.3243 -1.00734 -2.3513 0
M  V30 845 H 81.9683 -1.74522 -4.76974 0
M  V30 846 H 81.8983 -0.0356152 -5.26588 0
M  V30 847 H 84.3893 -0.428985 -3.75457 0
M  V30 848 H 84.7023 -1.49563 -7.58189 0
M  V30 849 H 83.0473 -1.33824 -6.81994 0
M  V30 850 H 86.2383 -0.615001 -4.64042 0
M  V30 851 H 86.4113 -1.10118 -6.38575 0
M  V30 852 N 79.8174 1.5752 -0.0501392 0
M  V30 853 C 81.0664 1.91827 0.623328 0
M  V30 854 C 81.3794 0.930222 1.72065 0
M  V30 855 O 82.5854 1.1653 2.4522 0
M  V30 856 C 81.0414 3.40692 1.16003 0
M  V30 857 C 80.6494 4.479 0.0948811 0
M  V30 858 C 82.3934 3.84034 1.80881 0
M  V30 859 C 80.3004 5.87879 0.644411 0
M  V30 860 H 79.2304 0.715918 0.236596 0
M  V30 861 H 81.8814 1.83115 -0.118861 0
M  V30 862 H 80.2634 3.44405 1.9545 0
M  V30 863 H 81.4374 4.55775 -0.678675 0
M  V30 864 H 79.7524 4.13892 -0.45637 0
M  V30 865 H 82.3494 4.85984 2.22988 0
M  V30 866 H 82.6924 3.20225 2.6601 0
M  V30 867 H 83.2254 3.82833 1.0809 0
M  V30 868 H 79.9644 6.55282 -0.169229 0
M  V30 869 H 79.4844 5.83567 1.38598 0
M  V30 870 H 81.1634 6.37098 1.12763 0
M  V30 871 N 81.2955 -0.223234 1.56011 0
M  V30 872 C 82.2285 -1.30377 1.87289 0
M  V30 873 C 83.2065 -1.45286 0.730112 0
M  V30 874 O 84.3905 -1.61126 0.978302 0
M  V30 875 C 81.5175 -2.67431 2.07843 0
M  V30 876 C 80.5635 -2.69546 3.30526 0
M  V30 877 S 81.3965 -2.23781 4.865 0
M  V30 878 C 82.5525 -3.62714 5.10088 0
M  V30 879 H 82.7855 -1.03652 2.78646 0
M  V30 880 H 80.3185 -0.425393 1.48424 0
M  V30 881 H 82.2765 -3.46336 2.20368 0
M  V30 882 H 80.9375 -2.91381 1.17285 0
M  V30 883 H 80.1305 -3.70255 3.41947 0
M  V30 884 H 79.7325 -1.98703 3.16849 0
M  V30 885 H 82.0245 -4.58391 4.98883 0
M  V30 886 H 82.9675 -3.5621 6.11981 0
M  V30 887 H 83.3755 -3.56323 4.37829 0
M  V30 888 N 82.7736 -1.49793 -0.48987 0
M  V30 889 C 84.1896 -1.36803 -0.822022 0
M  V30 890 C 84.3896 -0.409652 -1.97292 0
M  V30 891 O 83.4456 0.154614 -2.52026 0
M  V30 892 C 84.7586 -2.77768 -1.15175 0
M  V30 893 C 86.3066 -2.86549 -1.25931 0
M  V30 894 C 86.7816 -4.28306 -1.62228 0
M  V30 895 N 88.2726 -4.31169 -1.69256 0
M  V30 896 C 89.0076 -5.37832 -1.98807 0
M  V30 897 N 88.5036 -6.54726 -2.26507 0
M  V30 898 N 90.2966 -5.25258 -2.00152 0
M  V30 899 H 82.4476 -2.10691 0.268881 0
M  V30 900 H 84.7106 -0.946241 0.057728 0
M  V30 901 H 84.4166 -3.49648 -0.379335 0
M  V30 902 H 84.2906 -3.13836 -2.09253 0
M  V30 903 H 86.6776 -2.14899 -2.02243 0
M  V30 904 H 86.7586 -2.54049 -0.298776 0
M  V30 905 H 86.4026 -5.00486 -0.864622 0
M  V30 906 H 86.3326 -4.58279 -2.594 0
M  V30 907 H 88.8236 -3.4687 -1.49965 0
M  V30 908 H 89.1366 -7.31833 -2.48276 0
M  V30 909 H 87.4816 -6.57933 -2.23939 0
M  V30 910 H 90.6726 -4.32938 -1.77996 0
M  V30 911 H 90.8456 -6.08476 -2.22848 0
M  V30 912 N 84.2517 0.741722 -1.39055 0
M  V30 913 C 85.4817 1.52876 -1.3897 0
M  V30 914 C 85.8897 1.8919 0.0193266 0
M  V30 915 O 85.2327 1.54138 0.999356 0
M  V30 916 C 85.2947 2.84929 -2.19216 0
M  V30 917 C 84.9587 2.71086 -3.67915 0
M  V30 918 C 85.9557 2.40084 -4.61146 0
M  V30 919 C 83.6407 2.88168 -4.11418 0
M  V30 920 C 85.6347 2.26335 -5.95862 0
M  V30 921 C 83.3217 2.74037 -5.46211 0
M  V30 922 C 84.3197 2.43166 -6.38247 0
M  V30 923 O 84.0077 2.29115 -7.70559 0
M  V30 924 H 83.7397 0.479252 -0.476753 0
M  V30 925 H 86.2937 0.924751 -1.83405 0
M  V30 926 H 84.5237 3.47564 -1.69518 0
M  V30 927 H 86.2127 3.46509 -2.11392 0
M  V30 928 H 86.9787 2.26545 -4.28838 0
M  V30 929 H 82.8577 3.11191 -3.40119 0
M  V30 930 H 86.4017 2.0216 -6.67665 0
M  V30 931 H 82.2987 2.87153 -5.78112 0
M  V30 932 H 83.0667 2.44237 -7.81211 0
M  V30 933 N 85.7298 1.2412 0.971189 0
M  V30 934 C 86.6398 1.04747 2.09917 0
M  V30 935 C 87.6558 -0.0107162 1.73997 0
M  V30 936 O 88.8318 0.186714 2.00533 0
M  V30 937 C 85.8968 0.650828 3.40537 0
M  V30 938 C 84.9578 1.7851 3.90426 0
M  V30 939 C 84.1908 1.40729 5.14812 0
M  V30 940 O 84.4138 0.29557 5.69634 0
M  V30 941 O 83.3478 2.23168 5.58999 0
M  V30 942 H 87.1738 1.99304 2.29154 0
M  V30 943 H 84.7588 1.02908 1.08307 0
M  V30 944 H 86.6408 0.440992 4.19086 0
M  V30 945 H 85.3158 -0.265649 3.22608 0
M  V30 946 H 84.2228 2.04966 3.12953 0
M  V30 947 H 85.5558 2.68023 4.12825 0
M  V30 948 N 87.2079 -1.17134 1.05439 0
M  V30 949 C 88.1179 -2.24878 0.668365 0
M  V30 950 C 89.1339 -1.71186 -0.311687 0
M  V30 951 O 90.3099 -2.00738 -0.163161 0
M  V30 952 C 87.3749 -3.46662 0.051648 0
M  V30 953 C 86.4359 -4.15429 1.08246 0
M  V30 954 C 85.6689 -5.31399 0.495082 0
M  V30 955 O 85.8919 -5.66153 -0.694743 0
M  V30 956 O 84.8259 -5.89187 1.23056 0
M  V30 957 H 88.6519 -2.60189 1.56637 0
M  V30 958 H 86.2369 -1.24482 0.826104 0
M  V30 959 H 88.1189 -4.20394 -0.290966 0
M  V30 960 H 86.7939 -3.13142 -0.819971 0
M  V30 961 H 85.7009 -3.43704 1.47711 0
M  V30 962 H 87.0339 -4.52982 1.92532 0
M  V30 963 N 88.686 -0.835752 -1.33615 0
M  V30 964 C 89.933 -0.429959 -1.97883 0
M  V30 965 C 90.261 1.01006 -1.66217 0
M  V30 966 O 89.516 1.72047 -0.93265 0
M  V30 967 C 89.815 -0.593925 -3.52431 0
M  V30 968 C 89.481 -2.00158 -4.04039 0
M  V30 969 C 88.143 -2.38662 -4.17844 0
M  V30 970 C 90.495 -2.92117 -4.31644 0
M  V30 971 C 87.823 -3.68435 -4.56588 0
M  V30 972 C 90.175 -4.21368 -4.71838 0
M  V30 973 C 88.839 -4.59833 -4.83849 0
M  V30 974 H 88.109 -0.157333 -0.724104 0
M  V30 975 H 90.756 -1.06217 -1.59343 0
M  V30 976 H 89.061 0.121619 -3.91611 0
M  V30 977 H 90.758 -0.260282 -4.00154 0
M  V30 978 H 87.348 -1.69252 -3.93766 0
M  V30 979 H 91.532 -2.63608 -4.20505 0
M  V30 980 H 86.788 -3.98046 -4.64079 0
M  V30 981 H 90.962 -4.92703 -4.92155 0
M  V30 982 H 88.589 -5.60438 -5.13627 0
M  V30 983 N 90.1641 1.46063 -0.591896 0
M  V30 984 C 91.4131 2.01547 -0.0786637 0
M  V30 985 C 91.7261 1.46796 1.29268 0
M  V30 986 O 92.9321 1.94157 1.89777 0
M  V30 987 C 91.3881 3.59787 -0.0900024 0
M  V30 988 C 90.9961 4.23534 -1.46023 0
M  V30 989 C 92.7401 4.22895 0.368806 0
M  V30 990 C 90.6471 5.73881 -1.4288 0
M  V30 991 H 89.5771 0.753564 -0.0256388 0
M  V30 992 H 92.2281 1.677 -0.744905 0
M  V30 993 H 90.6101 3.90752 0.642586 0
M  V30 994 H 91.7841 4.04167 -2.21328 0
M  V30 995 H 90.0991 3.72558 -1.85982 0
M  V30 996 H 92.6961 5.33116 0.411258 0
M  V30 997 H 93.0391 3.9247 1.38827 0
M  V30 998 H 93.5721 3.9659 -0.31001 0
M  V30 999 H 90.3111 6.0898 -2.42536 0
M  V30 1000 H 89.8311 5.95486 -0.718095 0
M  V30 1001 H 91.5101 6.36776 -1.14565 0
M  V30 1002 N 91.6422 0.330177 1.54103 0
M  V30 1003 C 92.8672 -0.274893 2.0557 0
M  V30 1004 C 93.2922 -1.44487 1.20437 0
M  V30 1005 O 92.6502 -1.80021 0.214991 0
M  V30 1006 C 92.6982 -0.68079 3.54115 0
M  V30 1007 O 91.8022 -1.7824 3.71893 0
M  V30 1008 H 91.1432 -0.0483849 0.662235 0
M  V30 1009 H 93.6732 0.480508 1.98878 0
M  V30 1010 H 93.6832 -0.961635 3.96505 0
M  V30 1011 H 92.3582 0.174903 4.15532 0
M  V30 1012 H 90.9352 -1.49985 3.41407 0
M  V30 1013 N 93.1203 -1.57491 0.0584922 0
M  V30 1014 C 94.0533 -2.07533 -0.948969 0
M  V30 1015 C 95.0313 -0.977444 -1.29942 0
M  V30 1016 O 96.2153 -1.2499 -1.41102 0
M  V30 1017 C 93.3423 -2.52192 -2.2609 0
M  V30 1018 C 92.3883 -3.73287 -2.06298 0
M  V30 1019 S 93.2213 -5.18603 -1.33459 0
M  V30 1020 C 94.3773 -5.66583 -2.65959 0
M  V30 1021 H 94.6103 -2.92662 -0.523118 0
M  V30 1022 H 92.1433 -1.53631 -0.153954 0
M  V30 1023 H 94.1013 -2.78585 -3.01498 0
M  V30 1024 H 92.7623 -1.67356 -2.65802 0
M  V30 1025 H 91.9553 -4.0248 -3.03357 0
M  V30 1026 H 91.5573 -3.47199 -1.39029 0
M  V30 1027 H 93.8493 -5.72616 -3.62101 0
M  V30 1028 H 94.7923 -6.65684 -2.41393 0
M  V30 1029 H 95.2003 -4.94342 -2.72554 0
M  V30 1030 N 94.5984 0.214957 -1.56127 0
M  V30 1031 C 95.8474 0.936451 -1.78643 0
M  V30 1032 C 96.1604 1.85237 -0.628229 0
M  V30 1033 O 97.3664 2.613 -0.737186 0
M  V30 1034 C 95.8224 1.7154 -3.16389 0
M  V30 1035 C 95.4304 0.845299 -4.39953 0
M  V30 1036 C 97.1744 2.42772 -3.48227 0
M  V30 1037 C 95.0814 1.62198 -5.68723 0
M  V30 1038 H 94.0114 0.353401 -0.666051 0
M  V30 1039 H 96.6624 0.190169 -1.82512 0
M  V30 1040 H 95.0444 2.50484 -3.06715 0
M  V30 1041 H 96.2184 0.0959353 -4.607 0
M  V30 1042 H 94.5334 0.244789 -4.1568 0
M  V30 1043 H 97.1304 3.01394 -4.41663 0
M  V30 1044 H 97.4734 3.15984 -2.71035 0
M  V30 1045 H 98.0064 1.70813 -3.5926 0
M  V30 1046 H 94.7454 0.933011 -6.48826 0
M  V30 1047 H 94.2654 2.34579 -5.52026 0
M  V30 1048 H 95.9444 2.18095 -6.09133 0
M  V30 1049 N 96.0765 1.50051 0.48192 0
M  V30 1050 C 97.3235 1.60498 1.23477 0
M  V30 1051 C 97.6515 0.300331 1.92167 0
M  V30 1052 O 96.9065 -0.713094 1.82246 0
M  V30 1053 C 97.2055 2.72717 2.30998 0
M  V30 1054 C 96.8715 4.13572 1.79636 0
M  V30 1055 C 95.5335 4.519 1.65348 0
M  V30 1056 C 97.8855 5.01649 1.41412 0
M  V30 1057 C 95.2135 5.76057 1.11244 0
M  V30 1058 C 97.5655 6.26343 0.887538 0
M  V30 1059 C 96.2295 6.63483 0.731207 0
M  V30 1060 H 95.4995 0.587303 0.451836 0
M  V30 1061 H 98.1465 1.83948 0.532468 0
M  V30 1062 H 96.4515 2.43312 3.07094 0
M  V30 1063 H 98.1485 2.78006 2.88988 0
M  V30 1064 H 94.7385 3.83329 1.91721 0
M  V30 1065 H 98.9225 4.72679 1.51289 0
M  V30 1066 H 94.1785 6.03516 0.978686 0
M  V30 1067 H 98.3525 6.93958 0.582654 0
M  V30 1068 H 95.9795 7.59568 0.309806 0
M  V30 1069 N 97.5546 -0.734337 1.39446 0
M  V30 1070 C 98.9706 -1.03997 1.21065 0
M  V30 1071 C 99.1706 -2.01369 0.0727019 0
M  V30 1072 O 98.2266 -2.45856 -0.575426 0
M  V30 1073 C 99.5396 -1.60163 2.54496 0
M  V30 1074 C 101.088 -1.7224 2.61347 0
M  V30 1075 C 101.563 -2.31814 3.95002 0
M  V30 1076 N 103.054 -2.39223 3.96644 0
M  V30 1077 C 103.789 -2.86258 4.96834 0
M  V30 1078 N 103.285 -3.33184 6.07421 0
M  V30 1079 N 105.078 -2.85473 4.84213 0
M  V30 1080 H 97.2286 -0.0885624 2.12215 0
M  V30 1081 H 99.4916 -0.10191 0.942506 0
M  V30 1082 H 99.1976 -0.960811 3.38321 0
M  V30 1083 H 99.0716 -2.5896 2.74262 0
M  V30 1084 H 101.459 -2.35443 1.77906 0
M  V30 1085 H 101.54 -0.720939 2.4543 0
M  V30 1086 H 101.184 -1.69238 4.78875 0
M  V30 1087 H 101.114 -3.32638 4.08239 0
M  V30 1088 H 103.605 -2.06057 3.16779 0
M  V30 1089 H 103.918 -3.67586 6.7978 0
M  V30 1090 H 102.263 -3.31191 6.11013 0
M  V30 1091 H 105.454 -2.48136 3.96921 0
M  V30 1092 H 105.627 -3.21814 5.62441 0
M  V30 1093 N 99.0327 -1.24633 -0.964593 0
M  V30 1094 C 99.9627 -1.06611 -2.07741 0
M  V30 1095 C 100.944 0.0218666 -1.70086 0
M  V30 1096 O 102.129 -0.145793 -1.93652 0
M  V30 1097 C 99.2587 -0.673444 -3.40708 0
M  V30 1098 C 98.2127 -1.71054 -3.92332 0
M  V30 1099 C 97.5387 -1.17285 -5.21678 0
M  V30 1100 C 98.8387 -3.10718 -4.19824 0
M  V30 1101 H 100.533 -1.99693 -2.23076 0
M  V30 1102 H 98.0787 -0.96152 -1.07195 0
M  V30 1103 H 100.032 -0.534345 -4.17998 0
M  V30 1104 H 98.7557 0.293073 -3.25282 0
M  V30 1105 H 97.4147 -1.83791 -3.17201 0
M  V30 1106 H 97.0627 -0.196847 -5.02615 0
M  V30 1107 H 96.7627 -1.86592 -5.57187 0
M  V30 1108 H 98.2867 -1.04593 -6.01575 0
M  V30 1109 H 99.7007 -3.01192 -4.87808 0
M  V30 1110 H 98.0977 -3.77406 -4.66567 0
M  V30 1111 H 99.1677 -3.58524 -3.26479 0
M  V30 1112 N 100.511 1.16574 -1.06058 0
M  V30 1113 C 101.788 1.83048 -0.689416 0
M  V30 1114 C 102.168 1.94122 0.829443 0
M  V30 1115 O 101.516 1.48249 1.7388 0
M  V30 1116 C 101.726 3.20186 -1.38859 0
M  V30 1117 C 103.074 3.95989 -1.53226 0
M  V30 1118 O 104.098 3.29696 -1.3483 0
M  V30 1119 O 102.957 5.14813 -1.83384 0
M  V30 1120 H 100.051 0.790258 -0.243764 0
M  V30 1121 H 102.597 1.23797 -1.16071 0
M  V30 1122 H 101.369 3.07146 -2.4244 0
M  V30 1123 H 100.992 3.87112 -0.907216 0
M  V30 1124 N 101.989 0.842826 1.3317 0
M  V30 1125 C 103.219 0.453397 2.01564 0
M  V30 1126 C 103.627 -0.951147 1.63554 0
M  V30 1127 O 102.97 -1.63021 0.846746 0
M  V30 1128 C 103.032 0.499013 3.5602 0
M  V30 1129 C 102.696 1.86037 4.1742 0
M  V30 1130 C 103.693 2.82416 4.36506 0
M  V30 1131 C 101.378 2.15428 4.53757 0
M  V30 1132 C 103.372 4.06346 4.91082 0
M  V30 1133 C 101.059 3.39615 5.0804 0
M  V30 1134 C 102.057 4.3489 5.26649 0
M  V30 1135 O 101.745 5.5688 5.79776 0
M  V30 1136 H 101.477 0.177871 0.652179 0
M  V30 1137 H 104.031 1.13808 1.70988 0
M  V30 1138 H 102.261 -0.242467 3.85939 0
M  V30 1139 H 103.95 0.126852 4.05702 0
M  V30 1140 H 104.716 2.6101 4.08777 0
M  V30 1141 H 100.595 1.42061 4.38565 0
M  V30 1142 H 104.139 4.80722 5.05522 0
M  V30 1143 H 100.036 3.60876 5.352 0
M  V30 1144 H 100.804 5.58674 5.98185 0
M  V30 1145 N 103.467 -1.45747 0.599634 0
M  V30 1146 C 104.695 -2.06668 0.0978551 0
M  V30 1147 C 105.11 -1.44562 -1.21439 0
M  V30 1148 O 104.467 -0.556923 -1.73795 0
M  V30 1149 C 104.518 -3.61456 -0.0567044 0
M  V30 1150 O 104.239 -4.21242 1.20361 0
M  V30 1151 C 105.74 -4.39345 -0.590869 0
M  V30 1152 H 102.96 -0.667825 0.0651943 0
M  V30 1153 H 105.504 -1.87115 0.82511 0
M  V30 1154 H 103.659 -3.80378 -0.734251 0
M  V30 1155 H 104.073 -5.14323 1.02821 0
M  V30 1156 H 105.547 -5.48182 -0.648131 0
M  V30 1157 H 106.024 -4.08568 -1.61147 0
M  V30 1158 H 106.63 -4.25268 0.0523679 0
M  V30 1159 N 104.945 -0.338344 -1.53925 0
M  V30 1160 C 105.877 0.555117 -2.22376 0
M  V30 1161 C 106.89 1.06812 -1.22862 0
M  V30 1162 O 108.079 0.979163 -1.49247 0
M  V30 1163 C 105.179 1.77609 -2.88631 0
M  V30 1164 C 104.352 1.39927 -4.14414 0
M  V30 1165 C 103.411 2.47936 -4.64127 0
M  V30 1166 O 102.437 2.11461 -5.28463 0
M  V30 1167 N 103.639 3.79107 -4.39612 0
M  V30 1168 H 106.404 -0.0310778 -2.99684 0
M  V30 1169 H 103.965 -0.162226 -1.61085 0
M  V30 1170 H 105.957 2.49287 -3.18807 0
M  V30 1171 H 104.527 2.26978 -2.14941 0
M  V30 1172 H 103.747 0.513481 -3.90841 0
M  V30 1173 H 105.035 1.12341 -4.96243 0
M  V30 1174 H 104.433 4.11531 -3.88148 0
M  V30 1175 H 102.99 4.4697 -4.74406 0
M  V30 1176 N 106.423 1.57458 -0.0668435 0
M  V30 1177 C 107.834 1.80776 0.466558 0
M  V30 1178 C 108.185 0.980361 1.69951 0
M  V30 1179 O 107.31 0.201441 2.1546 0
M  V30 1180 C 107.905 3.27881 0.85321 0
M  V30 1181 C 106.464 3.52062 1.3315 0
M  V30 1182 C 105.611 2.75513 0.314264 0
M  V30 1183 H 108.562 1.5598 -0.292588 0
M  V30 1184 H 108.583 3.39659 1.715 0
M  V30 1185 H 108.095 3.88075 -0.0443439 0
M  V30 1186 H 106.196 2.97167 2.24772 0
M  V30 1187 H 106.309 4.60762 1.31285 0
M  V30 1188 H 104.673 2.42123 0.790492 0
M  V30 1189 H 105.456 3.38442 -0.575477 0
M  V30 1190 N 107.901 -0.206675 1.56239 0
M  V30 1191 C 108.831 -1.25909 1.96645 0
M  V30 1192 C 109.812 -1.48097 0.836734 0
M  V30 1193 O 110.997 -1.6003 1.10019 0
M  V30 1194 C 108.127 -2.6058 2.29599 0
M  V30 1195 C 107.081 -2.53024 3.452 0
M  V30 1196 C 106.407 -3.91861 3.63798 0
M  V30 1197 C 107.707 -2.06524 4.79734 0
M  V30 1198 H 109.401 -0.923369 2.84806 0
M  V30 1199 H 106.947 -0.442735 1.37025 0
M  V30 1200 H 108.9 -3.34375 2.56459 0
M  V30 1201 H 107.624 -2.95869 1.38307 0
M  V30 1202 H 106.283 -1.81684 3.18412 0
M  V30 1203 H 105.931 -4.24483 2.69857 0
M  V30 1204 H 105.631 -3.87683 4.4156 0
M  V30 1205 H 107.155 -4.67296 3.93022 0
M  V30 1206 H 108.569 -2.70072 5.05702 0
M  V30 1207 H 106.966 -2.13374 5.60885 0
M  V30 1208 H 108.036 -1.01802 4.74093 0
M  V30 1209 N 109.379 -1.50304 -0.473955 0
M  V30 1210 C 110.604 -1.65175 -1.25427 0
M  V30 1211 C 111.029 -0.333673 -1.85117 0
M  V30 1212 O 110.387 0.702114 -1.67153 0
M  V30 1213 C 110.435 -2.74295 -2.34082 0
M  V30 1214 O 109.539 -2.35349 -3.38651 0
M  V30 1215 H 108.88 -0.551944 -0.369126 0
M  V30 1216 H 111.41 -1.96662 -0.564364 0
M  V30 1217 H 111.42 -2.97285 -2.79438 0
M  V30 1218 H 110.095 -3.69959 -1.90008 0
M  V30 1219 H 108.672 -2.22794 -2.99027 0
M  V30 1220 N 110.857 0.726932 -1.39834 0
M  V30 1221 C 112.134 1.47902 -1.28001 0
M  V30 1222 C 112.514 2.1083 0.106789 0
M  V30 1223 O 111.862 1.99242 1.11869 0
M  V30 1224 C 112.072 2.52392 -2.41038 0
M  V30 1225 C 113.42 3.18546 -2.80737 0
M  V30 1226 O 114.444 2.62708 -2.40547 0
M  V30 1227 O 113.303 4.19604 -3.50135 0
M  V30 1228 H 110.397 0.657163 -0.502062 0
M  V30 1229 H 112.943 0.760071 -1.51727 0
M  V30 1230 H 111.715 2.04329 -3.33715 0
M  V30 1231 H 111.338 3.31837 -2.19021 0
M  V30 1232 N 112.336 1.25143 0.95797 0
M  V30 1233 C 113.246 1.06968 2.08794 0
M  V30 1234 C 114.262 0.00773911 1.73998 0
M  V30 1235 O 115.438 0.207972 2.00323 0
M  V30 1236 C 112.503 0.68691 3.39827 0
M  V30 1237 C 111.564 1.82641 3.88511 0
M  V30 1238 C 110.797 1.46181 5.1329 0
M  V30 1239 O 111.02 0.355971 5.69288 0
M  V30 1240 O 109.954 2.29085 5.566 0
M  V30 1241 H 113.78 2.01723 2.27027 0
M  V30 1242 H 111.365 1.04051 1.07209 0
M  V30 1243 H 113.247 0.485417 4.18595 0
M  V30 1244 H 111.922 -0.231417 3.22872 0
M  V30 1245 H 110.829 2.08274 3.10762 0
M  V30 1246 H 112.162 2.72386 4.09959 0
M  V30 1247 N 113.814 -1.1601 1.06675 0
M  V30 1248 C 115.044 -1.90251 0.805497 0
M  V30 1249 C 115.452 -1.77891 -0.64431 0
M  V30 1250 O 114.795 -1.12383 -1.45313 0
M  V30 1251 C 114.857 -3.41419 1.12576 0
M  V30 1252 C 114.521 -3.77564 2.57477 0
M  V30 1253 C 115.518 -3.79161 3.55715 0
M  V30 1254 C 113.203 -4.08079 2.92877 0
M  V30 1255 C 115.197 -4.10767 4.8739 0
M  V30 1256 C 112.884 -4.39351 4.24751 0
M  V30 1257 C 113.882 -4.40675 5.21818 0
M  V30 1258 O 113.57 -4.71202 6.51325 0
M  V30 1259 H 113.302 -0.610018 0.291297 0
M  V30 1260 H 115.856 -1.47958 1.4247 0
M  V30 1261 H 114.086 -3.84079 0.449503 0
M  V30 1262 H 115.775 -3.9694 0.84814 0
M  V30 1263 H 116.541 -3.55693 3.29708 0
M  V30 1264 H 112.42 -4.06211 2.17976 0
M  V30 1265 H 115.964 -4.11715 5.63148 0
M  V30 1266 H 111.861 -4.62285 4.50514 0
M  V30 1267 H 112.629 -4.88996 6.56373 0
M  V30 1268 N 115.292 -0.849877 -1.32721 0
M  V30 1269 C 116.541 -0.447175 -1.96681 0
M  V30 1270 C 116.854 1.00135 -1.68025 0
M  V30 1271 O 118.06 1.50926 -2.25685 0
M  V30 1272 C 116.516 -0.7487 -3.52026 0
M  V30 1273 C 116.124 -2.21264 -3.89546 0
M  V30 1274 C 117.868 -0.413487 -4.22481 0
M  V30 1275 C 115.775 -2.45763 -5.37917 0
M  V30 1276 H 114.705 -0.163486 -0.736063 0
M  V30 1277 H 117.356 -1.03999 -1.51183 0
M  V30 1278 H 115.738 -0.0853727 -3.95908 0
M  V30 1279 H 116.912 -2.91736 -3.56689 0
M  V30 1280 H 115.227 -2.5119 -3.32103 0
M  V30 1281 H 117.824 -0.574017 -5.3161 0
M  V30 1282 H 118.167 0.644492 -4.11281 0
M  V30 1283 H 118.7 -1.03251 -3.84167 0
M  V30 1284 H 115.439 -3.50168 -5.54132 0
M  V30 1285 H 114.959 -1.79864 -5.72197 0
M  V30 1286 H 116.638 -2.29471 -6.0494 0
M  V30 1287 N 116.77 1.45427 -0.607355 0
M  V30 1288 C 117.998 2.06614 -0.108814 0
M  V30 1289 C 118.413 1.45204 1.2067 0
M  V30 1290 O 117.77 0.566132 1.73497 0
M  V30 1291 C 117.821 3.61481 0.0375347 0
M  V30 1292 O 117.542 4.20598 -1.22593 0
M  V30 1293 C 119.043 4.39652 0.567561 0
M  V30 1294 H 116.263 0.66747 -0.0687351 0
M  V30 1295 H 118.807 1.86675 -0.835022 0
M  V30 1296 H 116.962 3.80762 0.714068 0
M  V30 1297 H 117.376 5.1377 -1.05547 0
M  V30 1298 H 118.85 5.48518 0.61905 0
M  V30 1299 H 119.327 4.09417 1.58978 0
M  V30 1300 H 119.933 4.25234 -0.0749202 0
M  V30 1301 N 118.248 0.346503 1.53744 0
M  V30 1302 C 119.494 -0.249473 2.0126 0
M  V30 1303 C 119.827 -1.49965 1.23386 0
M  V30 1304 O 119.102 -1.91811 0.32229 0
M  V30 1305 C 119.385 -0.560643 3.55709 0
M  V30 1306 C 119.238 0.701836 4.44291 0
M  V30 1307 C 120.557 -1.36905 4.18264 0
M  V30 1308 H 117.676 -0.0891987 0.731582 0
M  V30 1309 H 120.318 0.467624 1.84156 0
M  V30 1310 H 118.468 -1.17156 3.70414 0
M  V30 1311 H 120.14 1.33974 4.41417 0
M  V30 1312 H 118.383 1.32612 4.13033 0
M  V30 1313 H 119.054 0.43933 5.50249 0
M  V30 1314 H 121.53 -0.852448 4.07275 0
M  V30 1315 H 120.406 -1.55553 5.26398 0
M  V30 1316 H 120.667 -2.37203 3.73078 0
M  V30 1317 N 119.726 -1.57421 0.075193 0
M  V30 1318 C 120.954 -1.97946 -0.602076 0
M  V30 1319 C 121.369 -0.953674 -1.62943 0
M  V30 1320 O 120.726 0.0592551 -1.82404 0
M  V30 1321 C 120.777 -3.38546 -1.26762 0
M  V30 1322 O 120.498 -4.37195 -0.281376 0
M  V30 1323 C 121.999 -3.93966 -2.03239 0
M  V30 1324 H 119.219 -0.650918 -0.162931 0
M  V30 1325 H 121.763 -2.03959 0.148601 0
M  V30 1326 H 119.918 -3.33609 -1.96936 0
M  V30 1327 H 120.332 -5.18975 -0.759267 0
M  V30 1328 H 121.806 -4.94555 -2.45193 0
M  V30 1329 H 122.283 -3.30693 -2.8903 0
M  V30 1330 H 122.889 -4.02315 -1.37924 0
M  V30 1331 N 121.204 0.198386 -1.56346 0
M  V30 1332 C 122.481 0.944982 -1.71258 0
M  V30 1333 C 122.861 2.0151 -0.629048 0
M  V30 1334 O 122.209 2.25639 0.360473 0
M  V30 1335 C 122.419 1.5344 -3.1346 0
M  V30 1336 C 123.767 2.01778 -3.73591 0
M  V30 1337 O 124.791 1.63288 -3.16568 0
M  V30 1338 O 123.65 2.72594 -4.73661 0
M  V30 1339 H 120.744 0.442939 -0.69838 0
M  V30 1340 H 123.29 0.188342 -1.68652 0
M  V30 1341 H 122.062 0.762869 -3.83792 0
M  V30 1342 H 121.685 2.35596 -3.20282 0
M  V30 1343 N 122.682 1.50554 0.465978 0
M  V30 1344 C 123.91 1.65563 1.24083 0
M  V30 1345 C 124.325 0.341051 1.85694 0
M  V30 1346 O 123.682 -0.677543 1.69457 0
M  V30 1347 C 123.733 2.75051 2.34583 0
M  V30 1348 O 123.454 4.01413 1.75497 0
M  V30 1349 C 124.955 3.01078 3.25372 0
M  V30 1350 H 122.175 0.55638 0.375077 0
M  V30 1351 H 124.719 1.96807 0.555624 0
M  V30 1352 H 122.874 2.46486 2.9887 0
M  V30 1353 H 123.288 4.62002 2.48303 0
M  V30 1354 H 124.762 3.81339 3.99105 0
M  V30 1355 H 125.239 2.12349 3.84453 0
M  V30 1356 H 125.845 3.31194 2.66816 0
M  V30 1357 N 124.16 -0.719506 1.40217 0
M  V30 1358 C 125.388 -1.50864 1.41589 0
M  V30 1359 C 125.803 -1.88794 0.0145275 0
M  V30 1360 O 125.16 -1.55174 -0.960594 0
M  V30 1361 C 125.211 -2.78646 2.30302 0
M  V30 1362 O 124.932 -2.42321 3.64983 0
M  V30 1363 C 126.433 -3.72569 2.40224 0
M  V30 1364 H 123.653 -0.465709 0.48307 0
M  V30 1365 H 126.197 -0.88785 1.84221 0
M  V30 1366 H 124.352 -3.37019 1.91042 0
M  V30 1367 H 124.766 -3.24514 4.12057 0
M  V30 1368 H 126.24 -4.5908 3.06512 0
M  V30 1369 H 126.717 -4.15403 1.42608 0
M  V30 1370 H 127.323 -3.20109 2.80019 0
M  V30 1371 N 125.638 -1.25649 -0.95132 0
M  V30 1372 C 126.885 -1.10594 -1.69633 0
M  V30 1373 C 127.213 0.352515 -1.91279 0
M  V30 1374 O 126.468 1.27601 -1.4838 0
M  V30 1375 C 126.767 -1.80909 -3.08231 0
M  V30 1376 C 126.433 -3.30825 -3.06375 0
M  V30 1377 C 125.095 -3.71722 -3.05576 0
M  V30 1378 C 127.447 -4.26589 -2.99452 0
M  V30 1379 C 124.775 -5.06788 -2.95606 0
M  V30 1380 C 127.127 -5.61683 -2.91024 0
M  V30 1381 C 125.791 -6.01904 -2.88562 0
M  V30 1382 H 125.061 -0.404691 -0.620731 0
M  V30 1383 H 127.708 -1.55964 -1.11119 0
M  V30 1384 H 126.013 -1.27979 -3.70309 0
M  V30 1385 H 127.71 -1.6671 -3.64704 0
M  V30 1386 H 124.3 -2.98287 -3.07771 0
M  V30 1387 H 128.484 -3.95982 -2.99185 0
M  V30 1388 H 123.74 -5.37126 -2.92071 0
M  V30 1389 H 127.914 -6.35578 -2.84629 0
M  V30 1390 H 125.541 -7.06521 -2.80593 0
M  V30 1391 N 127.117 1.15442 -1.07289 0
M  V30 1392 C 128.363 1.86489 -0.796846 0
M  V30 1393 C 128.696 1.82078 0.675371 0
M  V30 1394 O 127.971 1.24346 1.4956 0
M  V30 1395 C 128.254 3.35626 -1.30489 0
M  V30 1396 C 128.107 3.48673 -2.84161 0
M  V30 1397 C 129.426 4.30357 -0.920907 0
M  V30 1398 H 126.545 0.677144 -0.290939 0
M  V30 1399 H 129.187 1.35633 -1.33056 0
M  V30 1400 H 127.337 3.79068 -0.850883 0
M  V30 1401 H 129.009 3.14099 -3.37846 0
M  V30 1402 H 127.252 2.90253 -3.22391 0
M  V30 1403 H 127.923 4.53453 -3.14777 0
M  V30 1404 H 130.399 3.94871 -1.3121 0
M  V30 1405 H 129.275 5.33193 -1.30372 0
M  V30 1406 H 129.536 4.4176 0.173226 0
M  V30 1407 N 128.595 0.856903 1.32268 0
M  V30 1408 C 129.872 0.382583 1.91822 0
M  V30 1409 C 130.252 -1.13407 1.78051 0
M  V30 1410 O 129.6 -1.95673 1.18001 0
M  V30 1411 C 129.81 0.849446 3.38505 0
M  V30 1412 C 131.158 0.867936 4.15634 0
M  V30 1413 O 132.182 0.794232 3.47232 0
M  V30 1414 O 131.041 0.972286 5.37781 0
M  V30 1415 H 128.135 0.112014 0.819379 0
M  V30 1416 H 130.681 0.943952 1.41024 0
M  V30 1417 H 129.453 1.89267 3.42482 0
M  V30 1418 H 129.076 0.265652 3.96712 0
M  V30 1419 N 130.073 -1.45103 0.615059 0
M  V30 1420 C 131.322 -2.01396 0.110718 0
M  V30 1421 C 131.635 -1.48834 -1.26916 0
M  V30 1422 O 132.841 -1.97152 -1.86664 0
M  V30 1423 C 131.297 -3.59599 0.14723 0
M  V30 1424 C 130.905 -4.21158 1.52743 0
M  V30 1425 C 132.649 -4.23428 -0.30148 0
M  V30 1426 C 130.556 -5.71535 1.51992 0
M  V30 1427 H 129.486 -0.753061 0.0376241 0
M  V30 1428 H 132.137 -1.66494 0.77149 0
M  V30 1429 H 130.519 -3.91724 -0.580339 0
M  V30 1430 H 131.693 -4.00594 2.2773 0
M  V30 1431 H 130.008 -3.69552 1.91886 0
M  V30 1432 H 132.605 -5.33703 -0.326392 0
M  V30 1433 H 132.948 -3.94629 -1.32565 0
M  V30 1434 H 133.481 -3.96047 0.373065 0
M  V30 1435 H 130.22 -6.05044 2.52193 0
M  V30 1436 H 129.74 -5.94268 0.81274 0
M  V30 1437 H 131.419 -6.34873 1.24681 0
M  V30 1438 N 131.551 -0.354651 -1.53558 0
M  V30 1439 C 132.962 0.126902 -1.86268 0
M  V30 1440 C 133.313 1.49075 -1.27558 0
M  V30 1441 O 132.438 2.08105 -0.5934 0
M  V30 1442 C 133.033 0.237046 -3.3797 0
M  V30 1443 C 131.592 0.662842 -3.70518 0
M  V30 1444 C 130.739 -0.196652 -2.76602 0
M  V30 1445 H 133.69 -0.573849 -1.47962 0
M  V30 1446 H 133.711 1.06259 -3.65362 0
M  V30 1447 H 133.223 -0.755725 -3.80671 0
M  V30 1448 H 131.324 1.66424 -3.33367 0
M  V30 1449 H 131.437 0.445034 -4.77029 0
M  V30 1450 H 129.801 0.332763 -2.52517 0
M  V30 1451 H 130.584 -1.18676 -3.22135 0
M  V30 1452 N 133.029 1.57378 -0.0835403 0
M  V30 1453 C 134.275 1.94217 0.583733 0
M  V30 1454 C 134.608 0.964653 1.68547 0
M  V30 1455 O 133.883 -0.00422258 1.945 0
M  V30 1456 C 134.166 3.41253 1.14972 0
M  V30 1457 C 134.019 4.49768 0.0538277 0
M  V30 1458 C 135.338 3.89352 2.05166 0
M  V30 1459 H 132.457 0.706233 0.210724 0
M  V30 1460 H 135.099 1.89392 -0.1519 0
M  V30 1461 H 133.249 3.45496 1.77665 0
M  V30 1462 H 134.921 4.57641 -0.579851 0
M  V30 1463 H 133.164 4.29432 -0.614068 0
M  V30 1464 H 133.835 5.49817 0.490452 0
M  V30 1465 H 136.311 3.87189 1.52393 0
M  V30 1466 H 135.187 4.92822 2.41698 0
M  V30 1467 H 135.448 3.27973 2.96456 0
M  V30 1468 N 134.507 -0.190092 1.56449 0
M  V30 1469 C 135.923 -0.54113 1.50146 0
M  V30 1470 C 136.123 -1.85603 0.784465 0
M  V30 1471 O 135.179 -2.5024 0.337051 0
M  V30 1472 C 136.492 -0.591241 2.9483 0
M  V30 1473 C 138.04 -0.679732 3.0553 0
M  V30 1474 C 138.515 -0.760908 4.51635 0
M  V30 1475 N 140.006 -0.824302 4.55806 0
M  V30 1476 C 140.741 -0.907365 5.66175 0
M  V30 1477 N 140.237 -0.952422 6.86222 0
M  V30 1478 N 142.03 -0.94494 5.541 0
M  V30 1479 H 134.181 0.67235 2.01478 0
M  V30 1480 H 136.444 0.240127 0.917084 0
M  V30 1481 H 136.15 0.305905 3.50367 0
M  V30 1482 H 136.024 -1.44422 3.48457 0
M  V30 1483 H 138.411 -1.56731 2.50039 0
M  V30 1484 H 138.492 0.199549 2.5502 0
M  V30 1485 H 138.136 0.122336 5.07753 0
M  V30 1486 H 138.066 -1.65606 4.99882 0
M  V30 1487 H 140.557 -0.798526 3.69367 0
M  V30 1488 H 140.87 -1.01645 7.66086 0
M  V30 1489 H 139.215 -0.921014 6.8887 0
M  V30 1490 H 142.406 -0.906612 4.59236 0
M  V30 1491 H 142.579 -1.00622 6.4014 0
M  V30 1492 N 135.985 -1.50799 -0.457987 0
M  V30 1493 C 136.915 -1.73553 -1.5621 0
M  V30 1494 C 137.896 -0.584774 -1.59732 0
M  V30 1495 O 139.081 -0.825314 -1.7579 0
M  V30 1496 C 136.211 -1.84169 -2.94447 0
M  V30 1497 C 135.165 -2.99461 -3.0579 0
M  V30 1498 C 134.491 -2.95235 -4.45803 0
M  V30 1499 C 135.791 -4.39766 -2.81786 0
M  V30 1500 H 137.485 -2.66 -1.37421 0
M  V30 1501 H 135.031 -1.28002 -0.659662 0
M  V30 1502 H 136.984 -1.98672 -3.71628 0
M  V30 1503 H 135.708 -0.883545 -3.14422 0
M  V30 1504 H 134.367 -2.8463 -2.31044 0
M  V30 1505 H 134.015 -1.97239 -4.62715 0
M  V30 1506 H 133.715 -3.72642 -4.54326 0
M  V30 1507 H 135.239 -3.11803 -5.24987 0
M  V30 1508 H 136.653 -4.55054 -3.4871 0
M  V30 1509 H 135.05 -5.18722 -3.0174 0
M  V30 1510 H 136.12 -4.51229 -1.7754 0
M  V30 1511 N 137.463 0.71206 -1.40597 0
M  V30 1512 C 138.693 1.49894 -1.42181 0
M  V30 1513 C 139.101 1.89189 -0.0208078 0
M  V30 1514 O 138.444 1.56223 0.966436 0
M  V30 1515 C 138.506 2.80215 -2.25211 0
M  V30 1516 C 138.17 2.63221 -3.73582 0
M  V30 1517 C 139.167 2.30249 -4.66135 0
M  V30 1518 C 136.852 2.79376 -4.17438 0
M  V30 1519 C 138.846 2.13645 -6.00529 0
M  V30 1520 C 136.533 2.6239 -5.51901 0
M  V30 1521 C 137.531 2.29573 -6.43262 0
M  V30 1522 O 137.219 2.12719 -7.75246 0
M  V30 1523 H 136.951 0.469031 -0.486812 0
M  V30 1524 H 139.505 0.88564 -1.85326 0
M  V30 1525 H 137.735 3.4389 -1.76852 0
M  V30 1526 H 139.424 3.41947 -2.18694 0
M  V30 1527 H 140.19 2.17398 -4.33547 0
M  V30 1528 H 136.069 3.03906 -3.46644 0
M  V30 1529 H 139.613 1.87953 -6.71803 0
M  V30 1530 H 135.51 2.74826 -5.84073 0
M  V30 1531 H 136.278 2.27611 -7.86216 0
M  V30 1532 N 138.941 1.26152 0.944643 0
M  V30 1533 C 139.871 1.09902 2.06019 0
M  V30 1534 C 140.852 0.00519538 1.70099 0
M  V30 1535 O 142.037 0.176583 1.93396 0
M  V30 1536 C 139.167 0.727562 3.39594 0
M  V30 1537 C 138.121 1.77274 3.89561 0
M  V30 1538 C 137.447 1.25569 5.19747 0
M  V30 1539 C 138.747 3.17357 4.14827 0
M  V30 1540 H 140.441 2.03217 2.19871 0
M  V30 1541 H 137.987 0.978452 1.05652 0
M  V30 1542 H 139.94 0.600777 4.17095 0
M  V30 1543 H 138.664 -0.241287 3.25707 0
M  V30 1544 H 137.323 1.88814 3.14237 0
M  V30 1545 H 136.971 0.276783 5.02238 0
M  V30 1546 H 136.671 1.95433 5.54148 0
M  V30 1547 H 138.195 1.1415 5.99835 0
M  V30 1548 H 139.609 3.08914 4.82954 0
M  V30 1549 H 138.006 3.84781 4.60504 0
M  V30 1550 H 139.076 3.63673 3.20734 0
M  V30 1551 N 140.419 -1.14872 1.07899 0
M  V30 1552 C 141.83 -1.67367 0.827363 0
M  V30 1553 C 142.181 -1.85236 -0.646693 0
M  V30 1554 O 141.306 -1.55974 -1.50004 0
M  V30 1555 C 141.901 -3.04016 1.49532 0
M  V30 1556 C 140.46 -3.53566 1.29106 0
M  V30 1557 C 139.607 -2.29161 1.56143 0
M  V30 1558 H 142.558 -0.990083 1.24028 0
M  V30 1559 H 142.579 -3.69219 0.919643 0
M  V30 1560 H 142.091 -2.90978 2.56814 0
M  V30 1561 H 140.192 -3.71835 0.238713 0
M  V30 1562 H 140.305 -4.34661 2.01511 0
M  V30 1563 H 138.669 -2.34978 0.982717 0
M  V30 1564 H 139.452 -2.18705 2.64619 0
M  V30 1565 N 141.898 -0.863906 -1.31812 0
M  V30 1566 C 142.845 -0.313303 -2.28664 0
M  V30 1567 C 143.815 0.584868 -1.55462 0
M  V30 1568 O 145 0.517805 -1.83639 0
M  V30 1569 C 142.14 0.48441 -3.41683 0
M  V30 1570 C 141.253 -0.440594 -4.29747 0
M  V30 1571 C 140.388 0.370652 -5.29905 0
M  V30 1572 C 139.427 -0.551164 -6.09613 0
M  V30 1573 N 138.564 0.223462 -7.01744 0
M  V30 1574 H 143.404 -1.14444 -2.75148 0
M  V30 1575 H 140.941 -0.575769 -1.35364 0
M  V30 1576 H 142.899 0.962627 -4.05943 0
M  V30 1577 H 141.529 1.28029 -2.96325 0
M  V30 1578 H 140.581 -1.03724 -3.65986 0
M  V30 1579 H 141.893 -1.14767 -4.85417 0
M  V30 1580 H 141.047 0.911638 -5.99812 0
M  V30 1581 H 139.786 1.11105 -4.74876 0
M  V30 1582 H 138.791 -1.10396 -5.38603 0
M  V30 1583 H 140.016 -1.29032 -6.66729 0
M  V30 1584 H 137.962 0.946787 -6.49132 0
M  V30 1585 H 137.879 -0.424399 -7.54808 0
M  V30 1586 H 139.147 0.745876 -7.75923 0
M  V30 1587 N 143.376 1.44774 -0.622745 0
M  V30 1588 C 144.792 1.56986 -0.287652 0
M  V30 1589 C 144.992 1.61167 1.20944 0
M  V30 1590 O 144.048 1.55015 1.99315 0
M  V30 1591 C 145.361 2.84551 -0.972188 0
M  V30 1592 C 146.909 2.9825 -0.949536 0
M  V30 1593 C 147.384 4.28605 -1.61437 0
M  V30 1594 N 148.875 4.35399 -1.58057 0
M  V30 1595 C 149.61 5.34964 -2.064 0
M  V30 1596 N 149.106 6.40981 -2.62897 0
M  V30 1597 N 150.899 5.26419 -1.97078 0
M  V30 1598 H 143.05 1.40304 -1.59463 0
M  V30 1599 H 145.313 0.671794 -0.668878 0
M  V30 1600 H 145.019 2.87417 -2.02693 0
M  V30 1601 H 144.893 3.73807 -0.504771 0
M  V30 1602 H 147.28 2.94941 0.0967067 0
M  V30 1603 H 147.361 2.10364 -1.45536 0
M  V30 1604 H 147.005 4.32672 -2.66002 0
M  V30 1605 H 146.935 5.15334 -1.08344 0
M  V30 1606 H 149.426 3.59397 -1.16801 0
M  V30 1607 H 149.739 7.13225 -2.97539 0
M  V30 1608 H 148.084 6.4169 -2.66943 0
M  V30 1609 H 151.275 4.42504 -1.52669 0
M  V30 1610 H 151.448 6.03861 -2.35066 0
M  V30 1611 N 144.854 0.36279 1.53368 0
M  V30 1612 C 145.801 -0.485008 2.25646 0
M  V30 1613 C 146.771 -1.07982 1.2621 0
M  V30 1614 O 147.956 -1.11284 1.54986 0
M  V30 1615 C 145.096 -1.62023 3.04701 0
M  V30 1616 C 144.209 -1.05086 4.19024 0
M  V30 1617 C 143.344 -2.15496 4.85525 0
M  V30 1618 C 142.383 -1.5601 5.91884 0
M  V30 1619 N 141.52 -2.60241 6.52088 0
M  V30 1620 H 146.36 0.137864 2.97681 0
M  V30 1621 H 143.897 0.0798061 1.46883 0
M  V30 1622 H 145.855 -2.28887 3.48807 0
M  V30 1623 H 144.485 -2.2138 2.34927 0
M  V30 1624 H 143.537 -0.27259 3.79422 0
M  V30 1625 H 144.849 -0.575926 4.95464 0
M  V30 1626 H 144.003 -2.90186 5.32801 0
M  V30 1627 H 142.742 -2.66341 4.08551 0
M  V30 1628 H 141.747 -0.798338 5.43973 0
M  V30 1629 H 142.972 -1.05994 6.70777 0
M  V30 1630 H 140.918 -3.10304 5.77968 0
M  V30 1631 H 140.835 -2.17426 7.24059 0
M  V30 1632 H 142.103 -3.34641 7.04014 0
M  V30 1633 N 146.332 -1.57332 0.0918853 0
M  V30 1634 C 147.557 -1.98995 -0.584442 0
M  V30 1635 C 147.982 -0.970528 -1.61128 0
M  V30 1636 O 147.34 0.0613904 -1.81196 0
M  V30 1637 C 147.388 -3.39636 -1.21161 0
M  V30 1638 O 146.492 -3.40447 -2.32744 0
M  V30 1639 H 145.833 -0.647165 -0.148572 0
M  V30 1640 H 148.363 -2.03873 0.172347 0
M  V30 1641 H 148.373 -3.7726 -1.55367 0
M  V30 1642 H 147.048 -4.13356 -0.459313 0
M  V30 1643 H 145.625 -3.14614 -2.0018 0
M  V30 1644 N 147.81 0.181792 -1.56548 0
M  V30 1645 C 148.72 1.24538 -1.98815 0
M  V30 1646 C 149.736 1.49045 -0.897861 0
M  V30 1647 O 150.912 1.61399 -1.20467 0
M  V30 1648 C 147.977 2.56683 -2.33055 0
M  V30 1649 C 147.038 2.40131 -3.55859 0
M  V30 1650 C 146.271 3.65975 -3.88456 0
M  V30 1651 O 146.494 4.70711 -3.22161 0
M  V30 1652 O 145.428 3.6071 -4.81842 0
M  V30 1653 H 149.254 0.916647 -2.89536 0
M  V30 1654 H 146.839 0.387842 -1.44278 0
M  V30 1655 H 148.721 3.34655 -2.56094 0
M  V30 1656 H 147.396 2.89157 -1.45498 0
M  V30 1657 H 146.303 1.60226 -3.38051 0
M  V30 1658 H 147.636 2.12585 -4.43924 0
M  V30 1659 N 149.288 1.51039 0.449983 0
M  V30 1660 C 150.516 1.66869 1.2232 0
M  V30 1661 C 150.931 0.360727 1.85322 0
M  V30 1662 O 150.288 -0.659531 1.70166 0
M  V30 1663 C 150.339 2.77524 2.31652 0
M  V30 1664 O 150.06 4.03252 1.7123 0
M  V30 1665 C 151.561 3.04512 3.2216 0
M  V30 1666 H 148.781 0.560326 0.369155 0
M  V30 1667 H 151.325 1.97385 0.534719 0
M  V30 1668 H 149.48 2.49642 2.96239 0
M  V30 1669 H 149.894 4.64609 2.43389 0
M  V30 1670 H 151.368 3.85551 3.95038 0
M  V30 1671 H 151.845 2.16415 3.8218 0
M  V30 1672 H 152.451 3.34005 2.63288 0
M  V30 1673 N 150.766 -0.704594 1.40972 0
M  V30 1674 C 152.182 -1.01406 1.23244 0
M  V30 1675 C 152.382 -2.01169 0.115399 0
M  V30 1676 O 151.438 -2.47021 -0.523147 0
M  V30 1677 C 152.751 -1.54728 2.57836 0
M  V30 1678 C 154.299 -1.66658 2.64942 0
M  V30 1679 C 154.774 -2.23383 3.9983 0
M  V30 1680 N 156.265 -2.30756 4.01629 0
M  V30 1681 C 157 -2.75655 5.02794 0
M  V30 1682 N 156.496 -3.20225 6.14352 0
M  V30 1683 N 158.289 -2.75138 4.90159 0
M  V30 1684 H 150.44 -0.0435285 2.12355 0
M  V30 1685 H 152.703 -0.0818951 0.944456 0
M  V30 1686 H 152.409 -0.888832 3.40283 0
M  V30 1687 H 152.283 -2.53084 2.79693 0
M  V30 1688 H 154.67 -2.31617 1.8286 0
M  V30 1689 H 154.751 -0.668717 2.46904 0
M  V30 1690 H 154.395 -1.59043 4.82357 0
M  V30 1691 H 154.325 -3.23904 4.15203 0
M  V30 1692 H 156.816 -1.99291 3.21079 0
M  V30 1693 H 157.129 -3.53084 6.87424 0
M  V30 1694 H 155.474 -3.18156 6.17901 0
M  V30 1695 H 158.665 -2.39661 4.02095 0
M  V30 1696 H 158.838 -3.09812 5.6914 0
M  V30 1697 N 152.244 -1.26651 -0.937939 0
M  V30 1698 C 153.66 -1.03834 -1.21205 0
M  V30 1699 C 153.86 0.234502 -2.00131 0
M  V30 1700 O 152.916 0.942767 -2.3424 0
M  V30 1701 C 154.229 -2.27167 -1.97017 0
M  V30 1702 C 155.777 -2.32101 -2.09996 0
M  V30 1703 C 156.252 -3.55136 -2.8921 0
M  V30 1704 N 157.743 -3.55632 -2.96783 0
M  V30 1705 C 158.478 -4.475 -3.58512 0
M  V30 1706 N 157.974 -5.4966 -4.21717 0
M  V30 1707 N 159.767 -4.35145 -3.55816 0
M  V30 1708 H 151.918 -2.08398 -0.410391 0
M  V30 1709 H 154.181 -0.916031 -0.244114 0
M  V30 1710 H 153.887 -3.19765 -1.46434 0
M  V30 1711 H 153.761 -2.31672 -2.97671 0
M  V30 1712 H 156.148 -1.40015 -2.59769 0
M  V30 1713 H 156.229 -2.31605 -1.08594 0
M  V30 1714 H 155.873 -4.47553 -2.40123 0
M  V30 1715 H 155.803 -3.5288 -3.90875 0
M  V30 1716 H 158.294 -2.81743 -2.51852 0
M  V30 1717 H 158.607 -6.15943 -4.66727 0
M  V30 1718 H 156.952 -5.53514 -4.20294 0
M  V30 1719 H 160.143 -3.5455 -3.05634 0
M  V30 1720 H 160.316 -5.06934 -4.03636 0
M  V30 1721 N 153.722 1.14298 -1.08507 0
M  V30 1722 C 155.138 1.37347 -0.812901 0
M  V30 1723 C 155.338 1.93052 0.577325 0
M  V30 1724 O 154.394 2.14389 1.33393 0
M  V30 1725 C 155.707 2.33359 -1.89642 0
M  V30 1726 C 157.255 2.46996 -1.92255 0
M  V30 1727 C 157.73 3.46309 -2.99724 0
M  V30 1728 N 159.221 3.53853 -2.98902 0
M  V30 1729 C 159.956 4.3055 -3.787 0
M  V30 1730 N 159.452 5.10482 -4.6838 0
M  V30 1731 N 161.245 4.25757 -3.66998 0
M  V30 1732 H 153.396 0.764867 -1.9815 0
M  V30 1733 H 155.659 0.398966 -0.859959 0
M  V30 1734 H 155.365 1.99565 -2.89597 0
M  V30 1735 H 155.239 3.33274 -1.76659 0
M  V30 1736 H 157.626 2.80081 -0.929445 0
M  V30 1737 H 157.707 1.47039 -2.09316 0
M  V30 1738 H 157.351 3.13957 -3.99241 0
M  V30 1739 H 157.281 4.46049 -2.79907 0
M  V30 1740 H 159.772 2.96812 -2.33904 0
M  V30 1741 H 160.085 5.66284 -5.25873 0
M  V30 1742 H 158.43 5.09747 -4.72422 0
M  V30 1743 H 161.621 3.62383 -2.96304 0
M  V30 1744 H 161.794 4.85279 -4.29427 0
M  V30 1745 N 155.201 0.870884 1.31352 0
M  V30 1746 C 156.164 0.332243 2.26779 0
M  V30 1747 C 157.164 -0.517302 1.52252 0
M  V30 1748 O 158.354 -0.326477 1.71113 0
M  V30 1749 C 155.486 -0.528066 3.36785 0
M  V30 1750 H 156.679 1.17469 2.75937 0
M  V30 1751 H 154.232 0.64655 1.423 0
M  V30 1752 H 154.967 -1.39167 2.92922 0
M  V30 1753 H 154.752 0.0802582 3.92018 0
M  V30 1754 H 156.242 -0.897179 4.07849 0
M  V30 1755 N 156.679 -1.44442 0.630414 0
M  V30 1756 C 157.925 -2.02351 0.134816 0
M  V30 1757 C 158.258 -1.4947 -1.23986 0
M  V30 1758 O 157.533 -0.678475 -1.82283 0
M  V30 1759 C 157.816 -3.59898 0.120707 0
M  V30 1760 C 157.669 -4.23063 1.52767 0
M  V30 1761 C 158.988 -4.36585 -0.555127 0
M  V30 1762 H 156.107 -0.73527 0.0504646 0
M  V30 1763 H 158.749 -1.72022 0.806751 0
M  V30 1764 H 156.899 -3.85868 -0.451477 0
M  V30 1765 H 158.571 -4.08202 2.14869 0
M  V30 1766 H 156.814 -3.80586 2.08175 0
M  V30 1767 H 157.485 -5.32071 1.46984 0
M  V30 1768 H 159.961 -4.16044 -0.0685429 0
M  V30 1769 H 158.837 -5.46294 -0.534185 0
M  V30 1770 H 159.098 -4.11138 -1.62535 0
M  V30 1771 N 158.157 -0.370918 -1.53173 0
M  V30 1772 C 159.406 0.218249 -2.00516 0
M  V30 1773 C 159.719 1.49429 -1.26215 0
M  V30 1774 O 160.925 2.16239 -1.64174 0
M  V30 1775 C 159.381 0.43948 -3.57207 0
M  V30 1776 C 158.989 -0.822244 -4.4039 0
M  V30 1777 C 160.733 0.986012 -4.1289 0
M  V30 1778 C 158.64 -0.570304 -5.88644 0
M  V30 1779 H 157.57 0.0853333 -0.749156 0
M  V30 1780 H 160.221 -0.490483 -1.76823 0
M  V30 1781 H 158.603 1.20961 -3.77074 0
M  V30 1782 H 159.777 -1.59557 -4.32294 0
M  V30 1783 H 158.092 -1.29238 -3.95836 0
M  V30 1784 H 160.689 1.18991 -5.21292 0
M  V30 1785 H 161.032 1.94972 -3.6782 0
M  V30 1786 H 161.565 0.27592 -3.96842 0
M  V30 1787 H 158.304 -1.50449 -6.38001 0
M  V30 1788 H 157.824 0.164427 -5.99575 0
M  V30 1789 H 159.503 -0.19784 -6.46697 0
M  V30 1790 N 159.635 1.57281 -0.100228 0
M  V30 1791 C 160.865 1.98591 0.569681 0
M  V30 1792 C 161.273 0.978315 1.61943 0
M  V30 1793 O 160.616 -0.0396108 1.83657 0
M  V30 1794 C 160.678 3.36282 1.271 0
M  V30 1795 C 160.342 4.55488 0.371409 0
M  V30 1796 C 161.339 5.18491 -0.382504 0
M  V30 1797 C 159.024 5.01474 0.287965 0
M  V30 1798 C 161.018 6.25852 -1.20779 0
M  V30 1799 C 158.705 6.08701 -0.540965 0
M  V30 1800 C 159.703 6.70755 -1.28749 0
M  V30 1801 O 159.391 7.75914 -2.10269 0
M  V30 1802 H 159.123 0.65752 0.156982 0
M  V30 1803 H 161.677 2.0463 -0.177734 0
M  V30 1804 H 159.907 3.26941 2.0651 0
M  V30 1805 H 161.596 3.62005 1.83595 0
M  V30 1806 H 162.362 4.83891 -0.3278 0
M  V30 1807 H 158.241 4.52932 0.858689 0
M  V30 1808 H 161.785 6.74218 -1.79096 0
M  V30 1809 H 157.682 6.42732 -0.597131 0
M  V30 1810 H 158.45 7.92925 -2.03007 0
M  V30 1811 N 161.113 -0.173488 1.56642 0
M  V30 1812 C 162.36 -0.890465 1.81871 0
M  V30 1813 C 162.688 -1.82339 0.67696 0
M  V30 1814 O 161.943 -1.92795 -0.335926 0
M  V30 1815 C 162.242 -1.72069 3.13252 0
M  V30 1816 C 161.908 -0.936878 4.41059 0
M  V30 1817 C 160.57 -0.720545 4.75775 0
M  V30 1818 C 162.922 -0.386919 5.19762 0
M  V30 1819 C 160.25 0.0568829 5.86672 0
M  V30 1820 C 162.602 0.37741 6.31473 0
M  V30 1821 C 161.266 0.604563 6.64757 0
M  V30 1822 H 160.536 -0.325844 0.665512 0
M  V30 1823 H 163.183 -0.155527 1.90867 0
M  V30 1824 H 161.488 -2.52496 2.99588 0
M  V30 1825 H 163.185 -2.27844 3.29982 0
M  V30 1826 H 159.775 -1.11553 4.13828 0
M  V30 1827 H 163.959 -0.541398 4.93338 0
M  V30 1828 H 159.215 0.242635 6.10918 0
M  V30 1829 H 163.389 0.810825 6.91664 0
M  V30 1830 H 161.016 1.20885 7.50527 0
M  V30 1831 N 162.591 -1.51276 -0.441967 0
M  V30 1832 C 163.541 -1.6864 -1.53442 0
M  V30 1833 C 164.525 -0.540444 -1.51552 0
M  V30 1834 O 165.717 -0.796157 -1.58083 0
M  V30 1835 C 162.846 -1.8106 -2.91672 0
M  V30 1836 C 161.932 -3.01424 -2.98336 0
M  V30 1837 N 162.323 -4.2467 -2.74752 0
M  V30 1838 C 160.621 -3.00584 -3.29493 0
M  V30 1839 C 161.322 -5.05891 -2.87139 0
M  V30 1840 N 160.298 -4.40442 -3.18609 0
M  V30 1841 H 164.1 -2.61598 -1.33954 0
M  V30 1842 H 161.614 -1.4886 -0.6492 0
M  V30 1843 H 163.611 -1.91609 -3.70259 0
M  V30 1844 H 162.271 -0.892795 -3.12185 0
M  V30 1845 H 163.282 -4.53691 -2.49769 0
M  V30 1846 H 159.959 -2.18417 -3.55809 0
M  V30 1847 H 161.349 -6.13983 -2.72899 0
M  V30 1848 N 164.069 0.697108 -1.41344 0
M  V30 1849 C 165.317 1.45426 -1.40341 0
M  V30 1850 C 165.638 1.94996 -0.0128787 0
M  V30 1851 O 164.908 1.71599 0.945027 0
M  V30 1852 H 163.488 0.539594 -0.516573 0
M  V30 1853 H 166.15 0.825201 -1.76569 0
M  V30 1854 H 165.246 2.31817 -2.08967 0
M  V30 1855 N 165.547 1.27147 0.931209 0
M  V30 1856 C 166.795 1.13055 1.6752 0
M  V30 1857 C 167.116 -0.324791 1.92276 0
M  V30 1858 O 166.386 -1.22775 1.52654 0
M  V30 1859 H 164.966 0.415391 0.620854 0
M  V30 1860 H 167.628 1.59623 1.11833 0
M  V30 1861 H 166.724 1.65694 2.64485 0
M  V30 1862 N 167.025 -1.13721 1.09112 0
M  V30 1863 C 168.273 -1.84559 0.823562 0
M  V30 1864 C 168.594 -1.83754 -0.652658 0
M  V30 1865 O 167.864 -1.29102 -1.47342 0
M  V30 1866 H 166.444 -0.683376 0.301673 0
M  V30 1867 H 169.106 -1.37771 1.37859 0
M  V30 1868 H 168.202 -2.8917 1.17419 0
M  V30 1869 N 168.503 -0.877838 -1.30888 0
M  V30 1870 C 169.75 -0.492696 -1.96415 0
M  V30 1871 C 170.078 0.956671 -1.69346 0
M  V30 1872 O 169.333 1.68993 -0.986913 0
M  V30 1873 C 169.632 -0.705748 -3.50363 0
M  V30 1874 C 169.298 -2.1291 -3.97467 0
M  V30 1875 C 167.96 -2.51834 -4.1004 0
M  V30 1876 C 170.312 -3.05702 -4.22132 0
M  V30 1877 C 167.64 -3.82775 -4.44635 0
M  V30 1878 C 169.992 -4.36166 -4.58194 0
M  V30 1879 C 168.656 -4.74993 -4.68975 0
M  V30 1880 H 167.926 -0.18029 -0.718733 0
M  V30 1881 H 170.573 -1.11233 -1.55883 0
M  V30 1882 H 168.878 -0.00303058 -3.918 0
M  V30 1883 H 170.575 -0.387456 -3.99124 0
M  V30 1884 H 167.165 -1.81694 -3.88182 0
M  V30 1885 H 171.349 -2.76853 -4.11906 0
M  V30 1886 H 166.605 -4.12609 -4.51181 0
M  V30 1887 H 170.779 -5.08111 -4.76231 0
M  V30 1888 H 168.406 -5.76495 -4.95537 0
M  V30 1889 N 169.982 1.44106 -0.638065 0
M  V30 1890 C 171.222 2.03858 -0.148733 0
M  V30 1891 C 171.586 1.49153 1.20903 0
M  V30 1892 O 172.787 2.00452 1.79088 0
M  V30 1893 C 171.058 3.57117 -0.142314 0
M  V30 1894 S 172.617 4.37897 0.281385 0
M  V30 1895 H 169.435 0.708069 -0.0644912 0
M  V30 1896 H 172.037 1.7639 -0.843009 0
M  V30 1897 H 170.741 3.94436 -1.13349 0
M  V30 1898 H 170.272 3.89205 0.572988 0
M  V30 1899 H 172.287 4.72218 1.52395 0
M  V30 1900 N 171.46 0.379036 1.52974 0
M  V30 1901 C 172.707 -0.206421 2.01445 0
M  V30 1902 C 173.035 -1.47668 1.26587 0
M  V30 1903 O 172.29 -1.92514 0.351675 0
M  V30 1904 C 172.589 -0.53096 3.53434 0
M  V30 1905 C 172.255 0.646546 4.46241 0
M  V30 1906 C 170.917 0.969604 4.7133 0
M  V30 1907 C 173.269 1.43479 5.01062 0
M  V30 1908 C 170.597 2.08263 5.48492 0
M  V30 1909 C 172.949 2.53834 5.7944 0
M  V30 1910 C 171.613 2.86659 6.02812 0
M  V30 1911 H 170.883 -0.0755349 0.73714 0
M  V30 1912 H 173.53 0.514271 1.84465 0
M  V30 1913 H 171.835 -1.33285 3.68432 0
M  V30 1914 H 173.532 -0.996417 3.88423 0
M  V30 1915 H 170.122 0.384734 4.2687 0
M  V30 1916 H 174.306 1.19844 4.81613 0
M  V30 1917 H 169.562 2.34078 5.64816 0
M  V30 1918 H 173.736 3.15319 6.20924 0
M  V30 1919 H 171.363 3.73026 6.62387 0
M  V30 1920 N 172.938 -1.57226 0.108567 0
M  V30 1921 C 174.186 -1.94448 -0.550853 0
M  V30 1922 C 174.507 -0.992074 -1.67878 0
M  V30 1923 O 173.777 -0.0465 -1.95845 0
M  V30 1924 H 172.357 -0.717897 -0.206479 0
M  V30 1925 H 175.019 -1.94112 0.175062 0
M  V30 1926 H 174.115 -2.97218 -0.952259 0
M  V30 1927 N 174.416 0.165178 -1.56732 0
M  V30 1928 C 175.641 0.900253 -1.86843 0
M  V30 1929 C 176.066 1.74766 -0.695596 0
M  V30 1930 O 175.424 1.77786 0.35522 0
M  V30 1931 C 175.472 1.74777 -3.15413 0
M  V30 1932 O 174.576 2.85007 -2.98068 0
M  V30 1933 H 173.917 0.251832 -0.614391 0
M  V30 1934 H 176.447 0.161468 -2.03962 0
M  V30 1935 H 176.457 2.14646 -3.46974 0
M  V30 1936 H 175.132 1.12537 -4.00385 0
M  V30 1937 H 173.709 2.48676 -2.77875 0
M  V30 1938 N 175.894 1.51508 0.433938 0
M  V30 1939 C 177.119 1.68443 1.21003 0
M  V30 1940 C 177.544 0.382636 1.84167 0
M  V30 1941 O 176.902 -0.65755 1.68956 0
M  V30 1942 C 176.95 2.80405 2.26727 0
M  V30 1943 O 176.054 2.44245 3.32292 0
M  V30 1944 H 175.395 0.561536 0.354363 0
M  V30 1945 H 177.925 1.9809 0.512024 0
M  V30 1946 H 177.935 3.0459 2.71457 0
M  V30 1947 H 176.61 3.74867 1.80132 0
M  V30 1948 H 175.187 2.30644 2.93015 0
M  V30 1949 N 177.372 -0.689602 1.41712 0
M  V30 1950 C 178.319 -1.80345 1.44029 0
M  V30 1951 C 179.289 -1.63478 0.293948 0
M  V30 1952 O 180.474 -1.84244 0.495869 0
M  V30 1953 C 177.614 -3.18272 1.33405 0
M  V30 1954 C 176.727 -3.46529 2.57956 0
M  V30 1955 C 175.862 -4.74103 2.39582 0
M  V30 1956 C 174.901 -4.95347 3.5958 0
M  V30 1957 N 174.038 -6.14151 3.40239 0
M  V30 1958 H 178.878 -1.77698 2.39222 0
M  V30 1959 H 176.415 -0.867688 1.18784 0
M  V30 1960 H 178.373 -3.97956 1.25246 0
M  V30 1961 H 177.003 -3.2008 0.418164 0
M  V30 1962 H 176.055 -2.61207 2.76542 0
M  V30 1963 H 177.367 -3.58126 3.47199 0
M  V30 1964 H 176.521 -5.61853 2.28924 0
M  V30 1965 H 175.26 -4.64763 1.47805 0
M  V30 1966 H 174.265 -4.06044 3.70686 0
M  V30 1967 H 175.49 -5.06542 4.52318 0
M  V30 1968 H 173.436 -6.06013 2.51167 0
M  V30 1969 H 173.353 -6.26543 4.23061 0
M  V30 1970 H 174.621 -7.04619 3.33365 0
M  V30 1971 N 178.85 -1.27639 -0.924453 0
M  V30 1972 C 179.782 -1.06442 -2.02985 0
M  V30 1973 C 180.795 -0.0194771 -1.62788 0
M  V30 1974 O 181.984 -0.261388 -1.76576 0
M  V30 1975 C 179.084 -0.59327 -3.33667 0
M  V30 1976 C 178.257 -1.71123 -4.02537 0
M  V30 1977 C 177.316 -1.23527 -5.11495 0
M  V30 1978 O 176.342 -1.93553 -5.35281 0
M  V30 1979 N 177.544 -0.0926678 -5.80426 0
M  V30 1980 H 180.309 -2.01633 -2.2173 0
M  V30 1981 H 177.87 -1.19248 -1.09505 0
M  V30 1982 H 179.862 -0.258686 -4.03872 0
M  V30 1983 H 178.432 0.265502 -3.1147 0
M  V30 1984 H 177.652 -2.21593 -3.26022 0
M  V30 1985 H 178.94 -2.46145 -4.45298 0
M  V30 1986 H 178.338 0.491741 -5.63559 0
M  V30 1987 H 176.895 0.182714 -6.51544 0
M  V30 1988 N 180.328 1.1314 -1.09713 0
M  V30 1989 C 181.744 1.36477 -0.827423 0
M  V30 1990 C 181.944 1.93654 0.556817 0
M  V30 1991 O 181 2.15791 1.31112 0
M  V30 1992 C 182.313 2.31334 -1.92106 0
M  V30 1993 C 183.861 2.44943 -1.94864 0
M  V30 1994 C 184.336 3.4311 -3.0338 0
M  V30 1995 N 185.827 3.50662 -3.02639 0
M  V30 1996 C 186.562 4.2651 -3.83246 0
M  V30 1997 N 186.058 5.05485 -4.73768 0
M  V30 1998 N 187.851 4.2184 -3.71493 0
M  V30 1999 H 180.002 0.743807 -1.9895 0
M  V30 2000 H 182.265 0.389823 -0.864143 0
M  V30 2001 H 181.971 1.96483 -2.91698 0
M  V30 2002 H 181.845 3.31381 -1.80184 0
M  V30 2003 H 184.232 2.79079 -0.959099 0
M  V30 2004 H 184.313 1.4481 -2.10864 0
M  V30 2005 H 183.957 3.09704 -4.02549 0
M  V30 2006 H 183.887 4.43055 -2.84622 0
M  V30 2007 H 186.378 2.94315 -2.37039 0
M  V30 2008 H 186.691 5.60675 -5.3185 0
M  V30 2009 H 185.036 5.04708 -4.77802 0
M  V30 2010 H 188.227 3.5922 -3.00131 0
M  V30 2011 H 188.4 4.80697 -4.3455 0
M  V30 2012 N 181.806 0.884767 1.30421 0
M  V30 2013 C 182.769 0.356277 2.26414 0
M  V30 2014 C 183.769 -0.501124 1.52792 0
M  V30 2015 O 184.959 -0.30831 1.7145 0
M  V30 2016 C 182.091 -0.492316 3.37326 0
M  V30 2017 H 183.284 1.20389 2.74675 0
M  V30 2018 H 180.837 0.661607 1.41607 0
M  V30 2019 H 181.572 -1.36052 2.94381 0
M  V30 2020 H 181.357 0.121832 3.91911 0
M  V30 2021 H 182.847 -0.853871 4.08777 0
M  V30 2022 N 183.284 -1.43765 0.645699 0
M  V30 2023 C 184.531 -2.01898 0.15604 0
M  V30 2024 C 184.859 -1.50887 -1.22733 0
M  V30 2025 O 184.114 -0.689271 -1.8316 0
M  V30 2026 C 184.413 -3.57238 0.107679 0
M  V30 2027 C 184.079 -4.27564 1.43178 0
M  V30 2028 C 182.741 -4.46492 1.7944 0
M  V30 2029 C 185.093 -4.67454 2.30513 0
M  V30 2030 C 182.421 -5.02573 3.02716 0
M  V30 2031 C 184.773 -5.24901 3.53074 0
M  V30 2032 C 183.437 -5.42046 3.89541 0
M  V30 2033 H 182.707 -0.738797 0.057099 0
M  V30 2034 H 185.354 -1.72341 0.834912 0
M  V30 2035 H 183.659 -3.86293 -0.654618 0
M  V30 2036 H 185.356 -3.99965 -0.287938 0
M  V30 2037 H 181.946 -4.13171 1.13963 0
M  V30 2038 H 186.13 -4.5253 2.0379 0
M  V30 2039 H 181.386 -5.14033 3.31028 0
M  V30 2040 H 185.56 -5.54758 4.20971 0
M  V30 2041 H 183.187 -5.85268 4.85145 0
M  V30 2042 N 184.763 -0.387143 -1.52771 0
M  V30 2043 C 186.04 0.253197 -1.93954 0
M  V30 2044 C 186.42 1.64545 -1.32243 0
M  V30 2045 O 185.768 2.23191 -0.489699 0
M  V30 2046 C 185.978 0.281722 -3.47861 0
M  V30 2047 C 187.326 0.511715 -4.21505 0
M  V30 2048 O 188.35 0.362023 -3.54356 0
M  V30 2049 O 187.209 0.804847 -5.40541 0
M  V30 2050 H 184.303 0.156845 -0.811991 0
M  V30 2051 H 186.849 -0.441494 -1.63856 0
M  V30 2052 H 185.621 -0.693571 -3.85104 0
M  V30 2053 H 185.244 1.02142 -3.84256 0
M  V30 2054 N 186.241 1.57166 -0.116904 0
M  V30 2055 C 187.488 1.95123 0.541603 0
M  V30 2056 C 187.816 1.00006 1.6682 0
M  V30 2057 O 187.071 0.0235658 1.95686 0
M  V30 2058 C 187.37 3.39508 1.11664 0
M  V30 2059 C 187.036 4.50762 0.111606 0
M  V30 2060 C 185.698 4.80918 -0.164758 0
M  V30 2061 C 188.05 5.18036 -0.573438 0
M  V30 2062 C 185.378 5.75666 -1.13249 0
M  V30 2063 C 187.73 6.13824 -1.52978 0
M  V30 2064 C 186.394 6.42374 -1.81415 0
M  V30 2065 H 185.664 0.714005 0.198187 0
M  V30 2066 H 188.311 1.9048 -0.197365 0
M  V30 2067 H 186.616 3.40835 1.93232 0
M  V30 2068 H 188.313 3.66189 1.63422 0
M  V30 2069 H 184.903 4.27272 0.337192 0
M  V30 2070 H 189.087 4.94896 -0.373092 0
M  V30 2071 H 184.343 5.96092 -1.35958 0
M  V30 2072 H 188.517 6.65039 -2.06629 0
M  V30 2073 H 186.144 7.15599 -2.56557 0
M  V30 2074 N 187.719 -0.156864 1.56817 0
M  V30 2075 C 188.649 -1.19589 2.00551 0
M  V30 2076 C 189.63 -1.4536 0.883426 0
M  V30 2077 O 190.815 -1.56449 1.15054 0
M  V30 2078 C 187.945 -2.53143 2.37773 0
M  V30 2079 C 186.899 -2.41913 3.53075 0
M  V30 2080 C 186.225 -3.80088 3.76081 0
M  V30 2081 C 187.525 -1.91157 4.86062 0
M  V30 2082 H 189.219 -0.832293 2.87599 0
M  V30 2083 H 186.765 -0.398918 1.38364 0
M  V30 2084 H 188.718 -3.26047 2.66967 0
M  V30 2085 H 187.442 -2.91319 1.4765 0
M  V30 2086 H 186.101 -1.71462 3.24031 0
M  V30 2087 H 185.749 -4.15683 2.83225 0
M  V30 2088 H 185.449 -3.73439 4.53671 0
M  V30 2089 H 186.973 -4.54556 4.0769 0
M  V30 2090 H 188.387 -2.53846 5.14038 0
M  V30 2091 H 186.784 -1.95422 5.67389 0
M  V30 2092 H 187.854 -0.866673 4.77092 0
M  V30 2093 N 189.197 -1.51736 -0.425897 0
M  V30 2094 C 190.145 -1.74464 -1.53834 0
M  V30 2095 C 191.139 -0.611241 -1.57988 0
M  V30 2096 O 192.345 -0.792899 -1.61596 0
M  V30 2097 H 188.72 -0.551437 -0.511293 0
M  V30 2098 H 190.691 -2.67694 -1.31843 0
M  V30 2099 C 189.44 -1.8972 -2.91379 0
M  V30 2100 H 188.763 -2.76344 -2.88919 0
M  V30 2101 H 190.203 -2.09629 -3.68553 0
M  V30 2102 C 188.662 -0.65992 -3.30374 0
M  V30 2103 O 189.192 0.180083 -4.01296 0
M  V30 2104 N 187.398 -0.500677 -2.86254 0
M  V30 2105 H 186.945 -1.18532 -2.28709 0
M  V30 2106 H 186.903 0.325903 -3.12706 0
M  V30 2107 N 190.675 0.682077 -1.42076 0
M  V30 2108 C 192.091 0.994324 -1.24841 0
M  V30 2109 C 192.291 2.0096 -0.147389 0
M  V30 2110 O 191.347 2.47822 0.483782 0
M  V30 2111 C 192.66 1.50607 -2.60265 0
M  V30 2112 C 194.208 1.62421 -2.6756 0
M  V30 2113 C 194.683 2.16994 -4.03333 0
M  V30 2114 N 196.174 2.24337 -4.0525 0
M  V30 2115 C 196.909 2.67621 -5.07116 0
M  V30 2116 N 196.405 3.1041 -6.19368 0
M  V30 2117 N 198.198 2.67305 -4.94474 0
M  V30 2118 H 190.349 0.00973908 -2.12398 0
M  V30 2119 H 192.612 0.0668593 -0.945639 0
M  V30 2120 H 192.318 0.834583 -3.41654 0
M  V30 2121 H 192.192 2.48602 -2.83684 0
M  V30 2122 H 194.579 2.28678 -1.86521 0
M  V30 2123 H 194.66 0.629352 -2.47937 0
M  V30 2124 H 194.304 1.51349 -4.84826 0
M  V30 2125 H 194.234 3.17258 -4.20304 0
M  V30 2126 H 196.725 1.94158 -3.24209 0
M  V30 2127 H 197.038 3.42103 -6.92954 0
M  V30 2128 H 195.383 3.08286 -6.22884 0
M  V30 2129 H 198.574 2.33233 -4.05857 0
M  V30 2130 H 198.747 3.00718 -5.73997 0
M  V30 2131 N 192.153 1.28127 0.917671 0
M  V30 2132 C 193.399 1.16232 1.66918 0
M  V30 2133 C 193.754 -0.28701 1.90247 0
M  V30 2134 O 193.047 -1.20586 1.48895 0
M  V30 2135 C 193.241 1.89018 3.03327 0
M  V30 2136 C 193.07 3.4088 2.9331 0
M  V30 2137 C 191.84 4.10214 2.95047 0
M  V30 2138 C 194.038 4.36689 2.71675 0
M  V30 2139 N 192.02 5.48571 2.75577 0
M  V30 2140 C 193.391 5.62382 2.6101 0
M  V30 2141 C 195.446 4.26661 2.56641 0
M  V30 2142 C 194.149 6.79189 2.36843 0
M  V30 2143 C 196.175 5.432 2.33853 0
M  V30 2144 C 195.537 6.67855 2.23939 0
M  V30 2145 H 191.636 0.48024 0.617166 0
M  V30 2146 H 194.22 1.61727 1.08409 0
M  V30 2147 H 192.391 1.45963 3.59929 0
M  V30 2148 H 194.123 1.69541 3.67475 0
M  V30 2149 H 190.878 3.61762 3.05655 0
M  V30 2150 H 191.302 6.21287 2.68945 0
M  V30 2151 H 195.944 3.30998 2.63059 0
M  V30 2152 H 193.662 7.74926 2.29164 0
M  V30 2153 H 197.248 5.37328 2.23091 0
M  V30 2154 H 196.128 7.56511 2.06546 0
M  V30 2155 N 193.631 -1.12557 1.10312 0
M  V30 2156 C 194.859 -1.87864 0.866873 0
M  V30 2157 C 195.274 -1.79588 -0.582557 0
M  V30 2158 O 194.631 -1.16887 -1.40156 0
M  V30 2159 C 194.682 -3.37125 1.30496 0
M  V30 2160 O 194.403 -3.45201 2.69755 0
M  V30 2161 C 195.904 -4.29373 1.10243 0
M  V30 2162 H 193.124 -0.594452 0.311236 0
M  V30 2163 H 195.668 -1.42429 1.46745 0
M  V30 2164 H 193.823 -3.80109 0.748081 0
M  V30 2165 H 194.237 -4.38056 2.88457 0
M  V30 2166 H 195.711 -5.32394 1.45811 0
M  V30 2167 H 196.188 -4.39181 0.0409492 0
M  V30 2168 H 196.794 -3.92169 1.64571 0
M  V30 2169 N 195.109 -0.891671 -1.2995 0
M  V30 2170 C 196.072 -0.36828 -2.26222 0
M  V30 2171 C 197.072 0.493014 -1.53056 0
M  V30 2172 O 198.262 0.299213 -1.71611 0
M  V30 2173 C 195.394 0.47442 -3.37583 0
M  V30 2174 H 196.587 -1.21844 -2.74033 0
M  V30 2175 H 194.14 -0.669107 -1.41254 0
M  V30 2176 H 194.875 1.34489 -2.95099 0
M  V30 2177 H 194.66 -0.142615 -3.91841 0
M  V30 2178 H 196.15 0.83218 -4.09224 0
M  V30 2179 N 196.587 1.43421 -0.653314 0
M  V30 2180 C 197.535 2.32546 0.0501531 0
M  V30 2181 C 198.529 1.48617 0.812985 0
M  V30 2182 O 199.735 1.64825 0.723375 0
M  V30 2183 H 196.11 0.751185 0.0350032 0
M  V30 2184 H 198.081 2.89602 -0.719261 0
M  V30 2185 C 196.83 3.32925 1.00279 0
M  V30 2186 H 196.153 3.97532 0.425236 0
M  V30 2187 H 197.593 3.9792 1.46409 0
M  V30 2188 C 196.052 2.63532 2.09886 0
M  V30 2189 O 196.582 2.45092 3.18265 0
M  V30 2190 N 194.788 2.22905 1.86445 0
M  V30 2191 H 194.335 2.38103 0.98309 0
M  V30 2192 H 194.293 1.76805 2.59976 0
M  V30 2193 N 198.065 0.39524 1.52563 0
M  V30 2194 C 199.293 -0.184943 2.06072 0
M  V30 2195 C 199.708 -1.40021 1.26647 0
M  V30 2196 O 199.065 -1.79767 0.314672 0
M  V30 2197 C 199.116 -0.549179 3.57304 0
M  V30 2198 O 198.837 0.617813 4.33722 0
M  V30 2199 C 200.338 -1.18459 4.2718 0
M  V30 2200 H 197.558 -0.0265025 0.670476 0
M  V30 2201 H 200.102 0.562184 1.96621 0
M  V30 2202 H 198.257 -1.2462 3.66809 0
M  V30 2203 H 198.671 0.317091 5.23541 0
M  V30 2204 H 200.145 -1.38976 5.34219 0
M  V30 2205 H 200.622 -2.15368 3.82771 0
M  V30 2206 H 201.228 -0.528163 4.22008 0
M  V30 2207 N 199.544 -1.57102 0.125237 0
M  V30 2208 C 200.474 -2.18659 -0.819174 0
M  V30 2209 C 201.455 -1.12843 -1.27281 0
M  V30 2210 O 202.64 -1.41104 -1.33429 0
M  V30 2211 C 199.77 -2.79096 -2.06695 0
M  V30 2212 C 198.724 -3.90548 -1.75088 0
M  V30 2213 C 198.05 -4.37821 -3.06948 0
M  V30 2214 C 199.35 -5.12356 -1.01435 0
M  V30 2215 H 201.044 -2.9783 -0.306202 0
M  V30 2216 H 198.59 -1.4326 -0.145839 0
M  V30 2217 H 200.543 -3.2082 -2.73226 0
M  V30 2218 H 199.267 -1.97223 -2.60328 0
M  V30 2219 H 197.926 -3.49409 -1.10944 0
M  V30 2220 H 197.574 -3.52799 -3.58527 0
M  V30 2221 H 197.274 -5.12982 -2.86571 0
M  V30 2222 H 198.798 -4.822 -3.74587 0
M  V30 2223 H 200.212 -5.5106 -1.58132 0
M  V30 2224 H 198.609 -5.9314 -0.911319 0
M  V30 2225 H 199.679 -4.849 -0.00218681 0
M  V30 2226 N 201.022 0.148545 -1.56898 0
M  V30 2227 C 202.299 0.890019 -1.74178 0
M  V30 2228 C 202.679 1.99407 -0.692839 0
M  V30 2229 O 202.027 2.26671 0.288505 0
M  V30 2230 C 202.237 1.43389 -3.18183 0
M  V30 2231 C 203.585 1.89791 -3.79822 0
M  V30 2232 O 204.609 1.53134 -3.21603 0
M  V30 2233 O 203.468 2.57387 -4.82093 0
M  V30 2234 H 200.562 0.420496 -0.712118 0
M  V30 2235 H 203.108 0.134591 -1.69165 0
M  V30 2236 H 201.88 0.640383 -3.86024 0
M  V30 2237 H 201.503 2.25287 -3.27615 0
M  V30 2238 N 202.5 1.5196 0.417844 0
M  V30 2239 C 203.463 1.74065 1.49111 0
M  V30 2240 C 204.463 0.610537 1.48758 0
M  V30 2241 O 205.653 0.87832 1.50437 0
M  V30 2242 C 202.785 1.81502 2.88565 0
M  V30 2243 H 203.978 2.69869 1.30807 0
M  V30 2244 H 201.531 1.42244 0.647785 0
M  V30 2245 H 202.266 0.875813 3.1225 0
M  V30 2246 H 202.051 2.63651 2.90225 0
M  V30 2247 H 203.541 2.00376 3.66387 0
M  V30 2248 N 203.978 -0.674533 1.42435 0
M  V30 2249 C 205.224 -1.43671 1.43131 0
M  V30 2250 C 205.557 -1.94142 0.0476021 0
M  V30 2251 O 204.832 -1.70924 -0.928188 0
M  V30 2252 C 205.115 -2.63355 2.45594 0
M  V30 2253 C 204.968 -2.18514 3.93156 0
M  V30 2254 C 206.287 -3.65571 2.45043 0
M  V30 2255 H 203.406 -0.521077 0.521198 0
M  V30 2256 H 206.048 -0.766551 1.7385 0
M  V30 2257 H 204.198 -3.2053 2.19528 0
M  V30 2258 H 205.87 -1.66504 4.30202 0
M  V30 2259 H 204.113 -1.50086 4.07009 0
M  V30 2260 H 204.784 -3.04484 4.60428 0
M  V30 2261 H 207.26 -3.18113 2.68223 0
M  V30 2262 H 206.136 -4.46893 3.18713 0
M  V30 2263 H 206.397 -4.16716 1.47649 0
M  V30 2264 N 205.456 -1.28612 -0.910864 0
M  V30 2265 C 206.702 -1.16106 -1.66274 0
M  V30 2266 C 207.035 0.289113 -1.92036 0
M  V30 2267 O 206.31 1.21 -1.52281 0
M  V30 2268 C 206.593 -1.96309 -3.01885 0
M  V30 2269 C 206.446 -3.49405 -2.8326 0
M  V30 2270 C 207.765 -1.78076 -4.02463 0
M  V30 2271 H 204.884 -0.423152 -0.603417 0
M  V30 2272 H 207.526 -1.57961 -1.05586 0
M  V30 2273 H 205.676 -1.60742 -3.53687 0
M  V30 2274 H 207.348 -3.94894 -2.38446 0
M  V30 2275 H 205.591 -3.74893 -2.18261 0
M  V30 2276 H 206.262 -4.00784 -3.79574 0
M  V30 2277 H 208.738 -2.0912 -3.59733 0
M  V30 2278 H 207.614 -2.36561 -4.95308 0
M  V30 2279 H 207.875 -0.733008 -4.35981 0
M  V30 2280 N 206.934 1.1197 -1.10907 0
M  V30 2281 C 208.18 1.8386 -0.855773 0
M  V30 2282 C 208.513 1.84134 0.617103 0
M  V30 2283 O 207.788 1.29041 1.45529 0
M  V30 2284 C 208.071 3.31305 -1.411 0
M  V30 2285 C 207.924 3.39456 -2.9511 0
M  V30 2286 C 209.243 4.2721 -1.05736 0
M  V30 2287 H 206.362 0.667545 -0.312334 0
M  V30 2288 H 209.004 1.31331 -1.37303 0
M  V30 2289 H 207.154 3.76169 -0.97105 0
M  V30 2290 H 208.826 3.03191 -3.47668 0
M  V30 2291 H 207.069 2.79849 -3.31462 0
M  V30 2292 H 207.74 4.43209 -3.29044 0
M  V30 2293 H 210.216 3.90497 -1.43706 0
M  V30 2294 H 209.092 5.28775 -1.47269 0
M  V30 2295 H 209.353 4.42088 0.0325958 0
M  V30 2296 N 208.412 0.89855 1.29475 0
M  V30 2297 C 209.66 0.522847 1.9522 0
M  V30 2298 C 209.981 -0.93371 1.71192 0
M  V30 2299 O 209.251 -1.65823 1.04305 0
M  V30 2300 H 207.831 0.190366 0.722336 0
M  V30 2301 H 210.493 1.14459 1.5775 0
M  V30 2302 H 209.589 0.704476 3.04045 0
M  V30 2303 N 209.89 -1.43072 0.660911 0
M  V30 2304 C 211.136 -2.0202 0.177708 0
M  V30 2305 C 211.469 -1.52066 -1.20787 0
M  V30 2306 O 210.744 -0.716987 -1.80802 0
M  V30 2307 C 211.027 -3.59561 0.197019 0
M  V30 2308 C 210.88 -4.19727 1.61706 0
M  V30 2309 C 212.199 -4.37664 -0.462396 0
M  V30 2310 H 209.318 -0.734034 0.0660494 0
M  V30 2311 H 211.96 -1.70272 0.843058 0
M  V30 2312 H 210.11 -3.86739 -0.369527 0
M  V30 2313 H 211.782 -4.03553 2.23479 0
M  V30 2314 H 210.025 -3.76084 2.16201 0
M  V30 2315 H 210.696 -5.28834 1.58237 0
M  V30 2316 H 213.172 -4.16095 0.0197215 0
M  V30 2317 H 212.048 -5.47305 -0.418188 0
M  V30 2318 H 212.309 -4.14493 -1.53778 0
M  V30 2319 N 211.368 -0.403325 -1.52352 0
M  V30 2320 C 212.645 0.232611 -1.94212 0
M  V30 2321 C 213.025 1.63133 -1.33981 0
M  V30 2322 O 212.373 2.22659 -0.513344 0
M  V30 2323 C 212.583 0.244811 -3.4814 0
M  V30 2324 C 213.931 0.46698 -4.22024 0
M  V30 2325 O 214.955 0.324419 -3.5472 0
M  V30 2326 O 213.814 0.74747 -5.41364 0
M  V30 2327 H 210.908 0.148223 -0.813609 0
M  V30 2328 H 213.454 -0.458848 -1.63379 0
M  V30 2329 H 212.226 -0.734378 -3.84347 0
M  V30 2330 H 211.849 0.980611 -3.85318 0
M  V30 2331 N 212.846 1.57033 -0.133567 0
M  V30 2332 C 214.076 1.99754 0.527429 0
M  V30 2333 C 214.484 1.01245 1.59832 0
M  V30 2334 O 213.827 -0.000645496 1.837 0
M  V30 2335 C 213.889 3.38903 1.19939 0
M  V30 2336 C 213.553 4.56174 0.274709 0
M  V30 2337 C 214.55 5.17563 -0.492398 0
M  V30 2338 C 212.235 5.01972 0.18153 0
M  V30 2339 C 214.229 6.2315 -1.34027 0
M  V30 2340 C 211.916 6.07416 -0.669958 0
M  V30 2341 C 212.914 6.67874 -1.42947 0
M  V30 2342 O 212.602 7.71279 -2.2668 0
M  V30 2343 H 212.334 0.660702 0.142999 0
M  V30 2344 H 214.888 2.04207 -0.221099 0
M  V30 2345 H 213.118 3.31248 1.99528 0
M  V30 2346 H 214.807 3.65818 1.75875 0
M  V30 2347 H 215.573 4.83087 -0.430367 0
M  V30 2348 H 211.452 4.54652 0.762422 0
M  V30 2349 H 214.996 6.70268 -1.93357 0
M  V30 2350 H 210.893 6.41321 -0.73333 0
M  V30 2351 H 211.661 7.88441 -2.1978 0
M  V30 2352 N 214.325 -0.140222 1.56975 0
M  V30 2353 C 215.741 -0.493088 1.51792 0
M  V30 2354 C 215.941 -1.83013 0.843116 0
M  V30 2355 O 214.997 -2.49041 0.416493 0
M  V30 2356 C 216.31 -0.497144 2.96562 0
M  V30 2357 C 217.858 -0.582186 3.07538 0
M  V30 2358 C 218.333 -0.616838 4.53827 0
M  V30 2359 N 219.824 -0.678873 4.58198 0
M  V30 2360 C 220.559 -0.726782 5.68775 0
M  V30 2361 N 220.055 -0.733623 6.88905 0
M  V30 2362 N 221.848 -0.768179 5.56826 0
M  V30 2363 H 213.999 0.736108 1.99237 0
M  V30 2364 H 216.262 0.269182 0.90898 0
M  V30 2365 H 215.968 0.417217 3.49217 0
M  V30 2366 H 215.842 -1.33263 3.52875 0
M  V30 2367 H 218.229 -1.48697 2.54899 0
M  V30 2368 H 218.31 0.280581 2.54257 0
M  V30 2369 H 217.954 0.283812 5.07106 0
M  V30 2370 H 217.884 -1.49619 5.04898 0
M  V30 2371 H 220.375 -0.68061 3.7172 0
M  V30 2372 H 220.688 -0.772215 7.68932 0
M  V30 2373 H 219.033 -0.701389 6.91452 0
M  V30 2374 H 222.224 -0.760051 4.61888 0
M  V30 2375 H 222.397 -0.80205 6.43017 0
M  V30 2376 N 215.803 -1.52179 -0.40978 0
M  V30 2377 C 216.733 -1.78435 -1.5061 0
M  V30 2378 C 217.714 -0.635295 -1.57791 0
M  V30 2379 O 218.899 -0.880823 -1.73076 0
M  V30 2380 C 216.029 -1.93444 -2.88439 0
M  V30 2381 C 214.983 -3.09038 -2.96108 0
M  V30 2382 C 214.309 -3.09268 -4.36185 0
M  V30 2383 C 215.609 -4.48508 -2.67652 0
M  V30 2384 H 217.303 -2.70237 -1.28889 0
M  V30 2385 H 214.849 -1.30036 -0.618605 0
M  V30 2386 H 216.802 -2.10394 -3.65119 0
M  V30 2387 H 215.526 -0.983129 -3.11452 0
M  V30 2388 H 214.185 -2.91837 -2.21872 0
M  V30 2389 H 213.833 -2.11861 -4.56206 0
M  V30 2390 H 213.533 -3.86907 -4.42241 0
M  V30 2391 H 215.057 -3.28348 -5.14801 0
M  V30 2392 H 216.471 -4.65918 -3.34056 0
M  V30 2393 H 214.868 -5.28059 -2.85085 0
M  V30 2394 H 215.938 -4.56649 -1.63095 0
M  V30 2395 N 217.281 0.66697 -1.42791 0
M  V30 2396 C 218.244 1.76211 -1.46568 0
M  V30 2397 C 219.244 1.56896 -0.352196 0
M  V30 2398 O 220.434 1.63044 -0.613364 0
M  V30 2399 C 217.566 3.14935 -1.30494 0
M  V30 2400 H 218.759 1.74247 -2.44086 0
M  V30 2401 H 216.312 0.877342 -1.29354 0
M  V30 2402 H 217.047 3.2252 -0.339301 0
M  V30 2403 H 216.832 3.30359 -2.11199 0
M  V30 2404 H 218.322 3.94821 -1.36038 0
M  V30 2405 N 218.759 1.29093 0.90403 0
M  V30 2406 C 220.17 1.15186 1.46932 0
M  V30 2407 C 220.521 -0.254587 1.94541 0
M  V30 2408 O 219.646 -1.14972 1.83332 0
M  V30 2409 C 220.241 2.08492 2.67051 0
M  V30 2410 C 218.8 1.98621 3.19729 0
M  V30 2411 C 217.947 1.9967 1.92425 0
M  V30 2412 H 220.898 1.41641 0.715789 0
M  V30 2413 H 220.919 1.65461 3.42641 0
M  V30 2414 H 220.431 3.10847 2.3237 0
M  V30 2415 H 218.532 0.993389 3.59114 0
M  V30 2416 H 218.645 2.86068 3.8432 0
M  V30 2417 H 217.009 1.44208 2.09943 0
M  V30 2418 H 217.792 3.03721 1.60026 0
M  V30 2419 N 220.237 -1.11381 1.11499 0
M  V30 2420 C 221.169 -2.17207 0.731704 0
M  V30 2421 C 222.182 -1.61066 -0.236957 0
M  V30 2422 O 223.371 -1.78489 -0.0197591 0
M  V30 2423 C 220.471 -3.38846 0.0607624 0
M  V30 2424 C 219.644 -4.24451 1.0564 0
M  V30 2425 C 218.703 -5.24562 0.4149 0
M  V30 2426 O 217.729 -5.59071 1.069 0
M  V30 2427 N 218.931 -5.74651 -0.821943 0
M  V30 2428 H 221.696 -2.50699 1.64225 0
M  V30 2429 H 219.257 -1.26908 1.00529 0
M  V30 2430 H 221.249 -4.02911 -0.380139 0
M  V30 2431 H 219.819 -3.03411 -0.752376 0
M  V30 2432 H 219.039 -3.56833 1.67524 0
M  V30 2433 H 220.327 -4.78486 1.72998 0
M  V30 2434 H 219.725 -5.48797 -1.37252 0
M  V30 2435 H 218.282 -6.40549 -1.20582 0
M  V30 2436 N 221.715 -0.905404 -1.28997 0
M  V30 2437 C 222.665 -0.358713 -2.25161 0
M  V30 2438 C 223.649 0.524449 -1.52113 0
M  V30 2439 O 224.841 0.365534 -1.73184 0
M  V30 2440 C 221.97 0.407609 -3.40872 0
M  V30 2441 C 221.056 -0.490797 -4.21251 0
M  V30 2442 N 221.447 -1.60061 -4.79806 0
M  V30 2443 C 219.745 -0.289636 -4.45059 0
M  V30 2444 C 220.446 -2.15757 -5.40207 0
M  V30 2445 N 219.422 -1.44988 -5.23908 0
M  V30 2446 H 223.224 -1.20642 -2.67998 0
M  V30 2447 H 220.738 -0.757103 -1.43672 0
M  V30 2448 H 222.735 0.816046 -4.08835 0
M  V30 2449 H 221.395 1.25251 -2.9957 0
M  V30 2450 H 222.406 -1.98329 -4.7842 0
M  V30 2451 H 219.083 0.51643 -4.14294 0
M  V30 2452 H 220.473 -3.09069 -5.96595 0
M  V30 2453 N 223.193 1.4272 -0.668489 0
M  V30 2454 C 224.143 2.27971 0.0363806 0
M  V30 2455 C 225.127 1.40741 0.779794 0
M  V30 2456 O 226.319 1.64245 0.659745 0
M  V30 2457 C 223.448 3.28673 0.991398 0
M  V30 2458 C 222.534 4.23388 0.245658 0
M  V30 2459 N 222.925 5.00267 -0.746069 0
M  V30 2460 C 221.223 4.43355 0.484988 0
M  V30 2461 C 221.924 5.69396 -1.19009 0
M  V30 2462 N 220.9 5.41095 -0.521287 0
M  V30 2463 H 224.702 2.84833 -0.724394 0
M  V30 2464 H 222.216 1.54607 -0.497028 0
M  V30 2465 H 224.213 3.88543 1.51129 0
M  V30 2466 H 222.873 2.73373 1.75207 0
M  V30 2467 H 223.884 5.05525 -1.12537 0
M  V30 2468 H 220.561 3.99104 1.22565 0
M  V30 2469 H 221.951 6.41083 -2.01153 0
M  V30 2470 N 224.671 0.411399 1.52136 0
M  V30 2471 C 225.918 -0.163645 2.01838 0
M  V30 2472 C 226.246 -1.4495 1.29691 0
M  V30 2473 O 225.501 -1.91725 0.392431 0
M  V30 2474 C 225.8 -0.455872 3.54481 0
M  V30 2475 C 225.466 0.741055 4.44769 0
M  V30 2476 C 224.128 1.06936 4.69167 0
M  V30 2477 C 226.48 1.54075 4.97906 0
M  V30 2478 C 223.808 2.19851 5.43951 0
M  V30 2479 C 226.16 2.66067 5.73926 0
M  V30 2480 C 224.824 2.99381 5.96596 0
M  V30 2481 H 224.094 -0.0598821 0.738576 0
M  V30 2482 H 226.741 0.553283 1.83333 0
M  V30 2483 H 225.046 -1.2544 3.71177 0
M  V30 2484 H 226.743 -0.913802 3.90449 0
M  V30 2485 H 223.333 0.475192 4.25958 0
M  V30 2486 H 227.517 1.30033 4.78963 0
M  V30 2487 H 222.773 2.46006 5.59724 0
M  V30 2488 H 226.947 3.28419 6.14096 0
M  V30 2489 H 224.574 3.86992 6.54325 0
M  V30 2490 N 226.149 -1.5696 0.141893 0
M  V30 2491 C 227.56 -1.82797 -0.379776 0
M  V30 2492 C 227.911 -1.06033 -1.6508 0
M  V30 2493 O 227.036 -0.304011 -2.14254 0
M  V30 2494 C 227.631 -3.31578 -0.695802 0
M  V30 2495 C 226.19 -3.58014 -1.16201 0
M  V30 2496 C 225.337 -2.76699 -0.182455 0
M  V30 2497 H 228.288 -1.54406 0.366675 0
M  V30 2498 H 228.309 -3.47454 -1.55099 0
M  V30 2499 H 227.821 -3.87421 0.229449 0
M  V30 2500 H 225.922 -3.07553 -2.10338 0
M  V30 2501 H 226.035 -4.66501 -1.09151 0
M  V30 2502 H 224.399 -2.45618 -0.674072 0
M  V30 2503 H 225.182 -3.35311 0.736297 0
M  V30 2504 N 227.627 0.131896 -1.57047 0
M  V30 2505 C 228.59 1.14638 -1.98471 0
M  V30 2506 C 229.59 1.35029 -0.873148 0
M  V30 2507 O 230.78 1.31764 -1.13946 0
M  V30 2508 C 227.912 2.50358 -2.31373 0
M  V30 2509 H 229.105 0.79064 -2.8929 0
M  V30 2510 H 226.658 0.375761 -1.51716 0
M  V30 2511 H 227.393 2.90876 -1.43393 0
M  V30 2512 H 227.178 2.36915 -3.12432 0
M  V30 2513 H 228.668 3.23395 -2.64207 0
M  V30 2514 N 229.106 1.52395 0.401703 0
M  V30 2515 C 230.038 1.72505 1.50912 0
M  V30 2516 C 231.051 0.605468 1.51122 0
M  V30 2517 O 232.24 0.880828 1.55254 0
M  V30 2518 C 229.34 1.75711 2.89791 0
M  V30 2519 C 228.513 3.04824 3.1369 0
M  V30 2520 C 227.572 2.99743 4.32482 0
M  V30 2521 O 226.598 3.73635 4.29402 0
M  V30 2522 N 227.8 2.18047 5.37992 0
M  V30 2523 H 230.565 2.68049 1.34052 0
M  V30 2524 H 228.126 1.50724 0.591084 0
M  V30 2525 H 230.118 1.69834 3.6734 0
M  V30 2526 H 228.688 0.876092 3.00072 0
M  V30 2527 H 227.908 3.2429 2.24119 0
M  V30 2528 H 229.196 3.90221 3.26504 0
M  V30 2529 H 228.594 1.57456 5.43345 0
M  V30 2530 H 227.151 2.18021 6.14256 0
M  V30 2531 N 230.584 -0.659388 1.43143 0
M  V30 2532 C 231.831 -1.41935 1.44433 0
M  V30 2533 C 232.159 -1.94387 0.0663522 0
M  V30 2534 O 231.414 -1.72314 -0.927706 0
M  V30 2535 C 231.713 -2.62206 2.42864 0
M  V30 2536 C 231.379 -2.28208 3.88886 0
M  V30 2537 C 230.041 -2.18647 4.28657 0
M  V30 2538 C 232.393 -2.00887 4.8093 0
M  V30 2539 C 229.721 -1.79914 5.58433 0
M  V30 2540 C 232.073 -1.63653 6.11065 0
M  V30 2541 C 230.737 -1.52614 6.49819 0
M  V30 2542 H 230.007 -0.519376 0.528517 0
M  V30 2543 H 232.654 -0.750453 1.76183 0
M  V30 2544 H 230.959 -3.34199 2.04495 0
M  V30 2545 H 232.656 -3.2041 2.41119 0
M  V30 2546 H 229.246 -2.36557 3.57406 0
M  V30 2547 H 233.43 -2.07198 4.5098 0
M  V30 2548 H 228.686 -1.69948 5.87305 0
M  V30 2549 H 232.86 -1.41543 6.81864 0
M  V30 2550 H 230.487 -1.22371 7.50286 0
M  V30 2551 N 232.062 -1.29571 -0.897171 0
M  V30 2552 C 232.972 -1.16808 -2.03453 0
M  V30 2553 C 233.988 -0.0907471 -1.73763 0
M  V30 2554 O 235.164 -0.303312 -1.99103 0
M  V30 2555 C 232.229 -0.848264 -3.36163 0
M  V30 2556 C 231.29 -2.0097 -3.79354 0
M  V30 2557 C 230.523 -1.70505 -5.05731 0
M  V30 2558 O 230.746 -0.62718 -5.66941 0
M  V30 2559 O 229.68 -2.5538 -5.45036 0
M  V30 2560 H 233.506 -2.12325 -2.17144 0
M  V30 2561 H 231.091 -1.09047 -1.02123 0
M  V30 2562 H 232.973 -0.684581 -4.15802 0
M  V30 2563 H 231.648 0.0771071 -3.23608 0
M  V30 2564 H 230.555 -2.22863 -3.00471 0
M  V30 2565 H 231.888 -2.91636 -3.96496 0
M  V30 2566 N 233.54 1.10788 -1.12088 0
M  V30 2567 C 234.817 1.79136 -0.785476 0
M  V30 2568 C 235.197 1.98246 0.725377 0
M  V30 2569 O 234.545 1.57258 1.65778 0
M  V30 2570 C 234.755 3.12375 -1.55636 0
M  V30 2571 C 236.103 3.8731 -1.74001 0
M  V30 2572 O 237.127 3.22085 -1.52117 0
M  V30 2573 O 235.986 5.04369 -2.10415 0
M  V30 2574 H 233.08 0.776226 -0.285311 0
M  V30 2575 H 235.626 1.1747 -1.2247 0
M  V30 2576 H 234.398 2.93863 -2.5838 0
M  V30 2577 H 234.021 3.81758 -1.11114 0
M  V30 2578 N 235.018 0.912232 1.28515 0
M  V30 2579 C 236.266 0.543523 1.94654 0
M  V30 2580 C 236.587 -0.9155 1.72173 0
M  V30 2581 O 235.857 -1.64708 1.06058 0
M  V30 2582 H 234.437 0.198017 0.720277 0
M  V30 2583 H 237.099 1.16126 1.56527 0
M  V30 2584 H 236.195 0.736684 3.03281 0
M  V30 2585 N 236.496 -1.42363 0.676048 0
M  V30 2586 C 237.426 -2.33497 0.0124832 0
M  V30 2587 C 238.407 -1.50748 -0.787981 0
M  V30 2588 O 239.592 -1.79346 -0.744884 0
M  V30 2589 C 236.722 -3.34377 -0.938582 0
M  V30 2590 C 235.676 -4.27289 -0.246622 0
M  V30 2591 C 235.002 -5.18386 -1.31071 0
M  V30 2592 C 236.302 -5.14916 0.875125 0
M  V30 2593 H 237.996 -2.89233 0.773593 0
M  V30 2594 H 235.542 -1.39073 0.37346 0
M  V30 2595 H 237.495 -3.97044 -1.41188 0
M  V30 2596 H 236.219 -2.76947 -1.73113 0
M  V30 2597 H 234.878 -3.66018 0.206456 0
M  V30 2598 H 234.526 -4.57282 -2.09528 0
M  V30 2599 H 234.226 -5.81378 -0.852839 0
M  V30 2600 H 235.75 -5.83929 -1.78492 0
M  V30 2601 H 237.164 -5.71262 0.482983 0
M  V30 2602 H 235.561 -5.86747 1.25887 0
M  V30 2603 H 236.631 -4.53242 1.72335 0
M  V30 2604 N 237.974 -0.419461 -1.51915 0
M  V30 2605 C 238.937 0.389116 -2.25873 0
M  V30 2606 C 239.937 0.964924 -1.28631 0
M  V30 2607 O 241.127 0.842179 -1.52489 0
M  V30 2608 C 238.259 1.54874 -3.03689 0
M  V30 2609 H 239.452 -0.258799 -2.98781 0
M  V30 2610 H 237.005 -0.172209 -1.55348 0
M  V30 2611 H 237.74 2.23323 -2.35154 0
M  V30 2612 H 237.525 1.14223 -3.75094 0
M  V30 2613 H 239.015 2.12046 -3.59759 0
M  V30 2614 N 239.452 1.56882 -0.150215 0
M  V30 2615 C 240.415 2.1573 0.774157 0
M  V30 2616 C 241.415 1.0999 1.17298 0
M  V30 2617 O 242.605 1.35613 1.09338 0
M  V30 2618 C 239.737 2.72302 2.05096 0
M  V30 2619 H 240.93 2.98752 0.262201 0
M  V30 2620 H 238.483 1.55985 0.099248 0
M  V30 2621 H 239.218 1.92956 2.6065 0
M  V30 2622 H 239.003 3.49665 1.77416 0
M  V30 2623 H 240.493 3.17632 2.71109 0
M  V30 2624 N 240.93 -0.123565 1.57115 0
M  V30 2625 C 242.176 -0.833386 1.84885 0
M  V30 2626 C 242.509 -1.79742 0.735292 0
M  V30 2627 O 241.784 -1.92764 -0.25925 0
M  V30 2628 C 242.067 -1.5873 3.23228 0
M  V30 2629 C 241.92 -0.643183 4.45178 0
M  V30 2630 C 243.239 -2.54453 3.59085 0
M  V30 2631 H 240.358 -0.301518 0.6725 0
M  V30 2632 H 243 -0.097778 1.89748 0
M  V30 2633 H 241.15 -2.21438 3.19214 0
M  V30 2634 H 242.822 -0.0253015 4.61293 0
M  V30 2635 H 241.065 0.0456139 4.33776 0
M  V30 2636 H 241.736 -1.20724 5.38637 0
M  V30 2637 H 244.212 -2.01853 3.63861 0
M  V30 2638 H 243.088 -3.04238 4.5687 0
M  V30 2639 H 243.349 -3.36906 2.86264 0
M  V30 2640 N 242.408 -1.52605 -0.393616 0
M  V30 2641 C 243.355 -1.77055 -1.48054 0
M  V30 2642 C 244.325 -0.61358 -1.54352 0
M  V30 2643 O 245.51 -0.852806 -1.70681 0
M  V30 2644 C 242.65 -1.94108 -2.85335 0
M  V30 2645 C 241.763 -3.21792 -2.88226 0
M  V30 2646 C 240.898 -3.29188 -4.16904 0
M  V30 2647 C 239.937 -4.51013 -4.13828 0
M  V30 2648 N 239.074 -4.55716 -5.34105 0
M  V30 2649 H 243.914 -2.69815 -1.26506 0
M  V30 2650 H 241.451 -1.33683 -0.61379 0
M  V30 2651 H 243.409 -2.01979 -3.65049 0
M  V30 2652 H 242.039 -1.04713 -3.05344 0
M  V30 2653 H 241.091 -3.23015 -2.00911 0
M  V30 2654 H 242.403 -4.11557 -2.8182 0
M  V30 2655 H 241.557 -3.36216 -5.05018 0
M  V30 2656 H 240.296 -2.37389 -4.26026 0
M  V30 2657 H 239.301 -4.44115 -3.24102 0
M  V30 2658 H 240.526 -5.44123 -4.06333 0
M  V30 2659 H 238.472 -3.66807 -5.43865 0
M  V30 2660 H 238.389 -5.39346 -5.29756 0
M  V30 2661 H 239.657 -4.66993 -6.2413 0
M  V30 2662 N 243.887 0.651787 -1.4349 0
M  V30 2663 C 245.134 1.41167 -1.45183 0
M  V30 2664 C 245.462 1.94349 -0.0766601 0
M  V30 2665 O 244.717 1.72804 0.918555 0
M  V30 2666 C 245.016 2.60914 -2.44251 0
M  V30 2667 C 244.682 2.26142 -3.9009 0
M  V30 2668 C 243.344 2.16371 -4.2981 0
M  V30 2669 C 245.696 1.98334 -4.81989 0
M  V30 2670 C 243.024 1.7695 -5.5938 0
M  V30 2671 C 245.376 1.6041 -6.11924 0
M  V30 2672 C 244.04 1.49166 -6.5062 0
M  V30 2673 H 243.31 0.516566 -0.531263 0
M  V30 2674 H 245.957 0.741099 -1.76579 0
M  V30 2675 H 244.262 3.3311 -2.06265 0
M  V30 2676 H 245.959 3.19127 -2.42815 0
M  V30 2677 H 242.549 2.34658 -3.58655 0
M  V30 2678 H 246.733 2.04803 -4.52072 0
M  V30 2679 H 241.989 1.66831 -5.88198 0
M  V30 2680 H 246.163 1.37925 -6.82605 0
M  V30 2681 H 243.79 1.1839 -7.50925 0
M  V30 2682 N 245.365 1.30045 0.890287 0
M  V30 2683 C 246.612 1.18561 1.64163 0
M  V30 2684 C 246.94 -0.260852 1.92743 0
M  V30 2685 O 246.195 -1.20376 1.54299 0
M  V30 2686 C 246.494 1.95409 2.99249 0
M  V30 2687 C 246.16 3.45066 2.90242 0
M  V30 2688 C 244.822 3.85878 2.87492 0
M  V30 2689 C 247.174 4.4039 2.78758 0
M  V30 2690 C 244.502 5.20314 2.7109 0
M  V30 2691 C 246.854 5.74928 2.63894 0
M  V30 2692 C 245.518 6.14986 2.59516 0
M  V30 2693 H 244.788 0.433846 0.600715 0
M  V30 2694 H 247.435 1.61088 1.03552 0
M  V30 2695 H 245.74 1.45501 3.63781 0
M  V30 2696 H 247.437 1.8392 3.56334 0
M  V30 2697 H 244.027 3.12631 2.93189 0
M  V30 2698 H 248.211 4.09806 2.79952 0
M  V30 2699 H 243.467 5.50449 2.66112 0
M  V30 2700 H 247.641 6.48434 2.53981 0
M  V30 2701 H 245.268 7.19104 2.46565 0
M  V30 2702 N 246.843 -1.10192 1.12674 0
M  V30 2703 C 247.773 -2.18652 0.819362 0
M  V30 2704 C 248.754 -1.68698 -0.217915 0
M  V30 2705 O 249.939 -1.94041 -0.0785581 0
M  V30 2706 C 247.069 -3.46202 0.27594 0
M  V30 2707 C 246.023 -4.09444 1.24656 0
M  V30 2708 C 245.349 -5.31725 0.563258 0
M  V30 2709 C 246.649 -4.52863 2.60217 0
M  V30 2710 H 248.343 -2.44622 1.72628 0
M  V30 2711 H 245.889 -1.17571 0.831451 0
M  V30 2712 H 247.842 -4.21372 0.0486149 0
M  V30 2713 H 246.566 -3.1973 -0.666331 0
M  V30 2714 H 245.225 -3.36284 1.45974 0
M  V30 2715 H 244.873 -5.0153 -0.384235 0
M  V30 2716 H 244.573 -5.74991 1.21075 0
M  V30 2717 H 246.097 -6.09624 0.34503 0
M  V30 2718 H 247.511 -5.19294 2.42913 0
M  V30 2719 H 245.908 -5.06986 3.21068 0
M  V30 2720 H 246.978 -3.65656 3.18471 0
M  V30 2721 N 248.321 -0.919034 -1.28029 0
M  V30 2722 C 249.251 -0.428581 -2.29533 0
M  V30 2723 C 250.232 0.50659 -1.62381 0
M  V30 2724 O 251.417 0.413195 -1.89753 0
M  V30 2725 C 248.547 0.327388 -3.45753 0
M  V30 2726 C 247.501 -0.519137 -4.2484 0
M  V30 2727 C 246.827 0.365486 -5.33449 0
M  V30 2728 C 248.127 -1.77914 -4.91064 0
M  V30 2729 H 249.821 -1.27687 -2.70807 0
M  V30 2730 H 247.367 -0.615428 -1.30186 0
M  V30 2731 H 249.32 0.681378 -4.15855 0
M  V30 2732 H 248.044 1.20963 -3.03374 0
M  V30 2733 H 246.703 -0.855717 -3.56473 0
M  V30 2734 H 246.351 1.24642 -4.87312 0
M  V30 2735 H 246.051 -0.197356 -5.87268 0
M  V30 2736 H 247.575 0.715241 -6.06396 0
M  V30 2737 H 248.989 -1.49374 -5.53498 0
M  V30 2738 H 247.386 -2.2848 -5.54903 0
M  V30 2739 H 248.456 -2.50382 -4.15255 0
M  V30 2740 N 249.799 1.42003 -0.683588 0
M  V30 2741 C 250.709 2.34597 -0.0109075 0
M  V30 2742 C 251.725 1.55576 0.779245 0
M  V30 2743 O 252.901 1.88107 0.719555 0
M  V30 2744 C 249.966 3.34199 0.922588 0
M  V30 2745 C 249.027 4.29115 0.125984 0
M  V30 2746 C 248.26 5.23959 1.01502 0
M  V30 2747 O 248.483 5.23952 2.25456 0
M  V30 2748 O 247.417 6.00053 0.47111 0
M  V30 2749 H 251.243 2.93675 -0.773853 0
M  V30 2750 H 248.828 1.42654 -0.443861 0
M  V30 2751 H 250.71 3.95365 1.45823 0
M  V30 2752 H 249.385 2.77582 1.66523 0
M  V30 2753 H 248.292 3.71335 -0.453969 0
M  V30 2754 H 249.625 4.88798 -0.577736 0
M  V30 2755 N 251.277 0.427512 1.51691 0
M  V30 2756 C 252.224 -0.388867 2.275 0
M  V30 2757 C 253.194 -1.02532 1.30677 0
M  V30 2758 O 254.379 -1.0461 1.59566 0
M  V30 2759 C 251.519 -1.48954 3.11298 0
M  V30 2760 C 250.632 -0.872194 4.23104 0
M  V30 2761 C 249.767 -1.94709 4.94228 0
M  V30 2762 C 248.806 -1.30766 5.97969 0
M  V30 2763 N 247.943 -2.32349 6.62539 0
M  V30 2764 H 252.783 0.263997 2.96828 0
M  V30 2765 H 250.32 0.142033 1.46413 0
M  V30 2766 H 252.278 -2.13887 3.58201 0
M  V30 2767 H 250.908 -2.11217 2.44105 0
M  V30 2768 H 249.96 -0.111419 3.80237 0
M  V30 2769 H 251.272 -0.365264 4.97461 0
M  V30 2770 H 250.426 -2.67327 5.44629 0
M  V30 2771 H 249.165 -2.48773 4.1948 0
M  V30 2772 H 248.17 -0.566902 5.4687 0
M  V30 2773 H 249.395 -0.774483 6.74669 0
M  V30 2774 H 247.341 -2.85511 5.90609 0
M  V30 2775 H 247.258 -1.8652 7.3263 0
M  V30 2776 H 248.526 -3.04481 7.17574 0
M  V30 2777 N 252.755 -1.56801 0.158532 0
M  V30 2778 C 254.004 -1.95665 -0.489702 0
M  V30 2779 C 254.317 -1.04654 -1.65248 0
M  V30 2780 O 255.523 -1.33146 -2.3661 0
M  V30 2781 C 253.979 -3.47874 -0.922582 0
M  V30 2782 C 253.587 -4.47489 0.213893 0
M  V30 2783 C 255.331 -3.95583 -1.53996 0
M  V30 2784 C 253.238 -5.90921 -0.237903 0
M  V30 2785 H 252.168 -0.730516 -0.186716 0
M  V30 2786 H 254.819 -1.81861 0.244722 0
M  V30 2787 H 253.201 -3.57051 -1.71261 0
M  V30 2788 H 254.375 -4.50017 0.991036 0
M  V30 2789 H 252.69 -4.09764 0.740407 0
M  V30 2790 H 255.287 -5.0019 -1.8898 0
M  V30 2791 H 255.63 -3.37789 -2.43319 0
M  V30 2792 H 256.163 -3.8937 -0.814611 0
M  V30 2793 H 252.902 -6.52559 0.620236 0
M  V30 2794 H 252.422 -5.91729 -0.980676 0
M  V30 2795 H 254.101 -6.43352 -0.686067 0
M  V30 2796 N 254.233 0.115231 -1.57178 0
M  V30 2797 C 255.163 1.1423 -2.03651 0
M  V30 2798 C 256.144 1.42967 -0.921655 0
M  V30 2799 O 257.329 1.53343 -1.19162 0
M  V30 2800 C 254.459 2.4675 -2.44401 0
M  V30 2801 C 253.413 2.32467 -3.59365 0
M  V30 2802 C 252.739 3.69984 -3.86026 0
M  V30 2803 C 254.039 1.78203 -4.90959 0
M  V30 2804 H 255.733 0.755749 -2.89705 0
M  V30 2805 H 253.279 0.362093 -1.39373 0
M  V30 2806 H 255.232 3.18854 -2.75517 0
M  V30 2807 H 253.956 2.87302 -1.55322 0
M  V30 2808 H 252.615 1.62811 -3.28463 0
M  V30 2809 H 252.263 4.08028 -2.94147 0
M  V30 2810 H 251.963 3.61279 -4.63412 0
M  V30 2811 H 253.487 4.43587 -4.19599 0
M  V30 2812 H 254.901 2.40128 -5.20587 0
M  V30 2813 H 253.298 1.8031 -5.72371 0
M  V30 2814 H 254.368 0.739876 -4.79222 0
M  V30 2815 N 255.711 1.52812 0.385517 0
M  V30 2816 C 256.939 1.71907 1.15133 0
M  V30 2817 C 257.354 0.439004 1.83625 0
M  V30 2818 O 256.711 -0.586765 1.7281 0
M  V30 2819 C 256.762 2.87099 2.19673 0
M  V30 2820 O 256.483 4.10151 1.53973 0
M  V30 2821 C 257.984 3.17902 3.08955 0
M  V30 2822 H 255.204 0.575479 0.345057 0
M  V30 2823 H 257.748 1.99476 0.45052 0
M  V30 2824 H 255.903 2.61982 2.85384 0
M  V30 2825 H 256.317 4.74514 2.23465 0
M  V30 2826 H 257.791 4.01959 3.7833 0
M  V30 2827 H 258.268 2.3243 3.72657 0
M  V30 2828 H 258.874 3.44871 2.48885 0
M  V30 2829 N 257.189 -0.644168 1.43834 0
M  V30 2830 C 258.136 -1.75671 1.49694 0
M  V30 2831 C 259.106 -1.6246 0.345809 0
M  V30 2832 O 260.291 -1.82573 0.554234 0
M  V30 2833 C 257.431 -3.13867 1.43463 0
M  V30 2834 C 256.544 -3.38147 2.6885 0
M  V30 2835 C 255.679 -4.66241 2.54544 0
M  V30 2836 C 254.718 -4.83657 3.75157 0
M  V30 2837 N 253.855 -6.03016 3.59605 0
M  V30 2838 H 258.695 -1.69998 2.44754 0
M  V30 2839 H 256.232 -0.829458 1.21484 0
M  V30 2840 H 258.19 -3.9377 1.37843 0
M  V30 2841 H 256.82 -3.18588 0.519783 0
M  V30 2842 H 255.872 -2.52276 2.84712 0
M  V30 2843 H 257.184 -3.46899 3.58417 0
M  V30 2844 H 256.338 -5.54285 2.46683 0
M  V30 2845 H 255.077 -4.59826 1.62516 0
M  V30 2846 H 254.082 -3.94046 3.83416 0
M  V30 2847 H 255.307 -4.91896 4.68204 0
M  V30 2848 H 253.253 -5.97715 2.7032 0
M  V30 2849 H 253.17 -6.12766 4.42779 0
M  V30 2850 H 254.438 -6.93657 3.55613 0
M  V30 2851 N 258.668 -1.30515 -0.883378 0
M  V30 2852 C 259.898 -1.22182 -1.66599 0
M  V30 2853 C 260.306 0.217507 -1.87946 0
M  V30 2854 O 259.649 1.1554 -1.42815 0
M  V30 2855 C 259.711 -1.88146 -3.06335 0
M  V30 2856 C 259.375 -3.37476 -3.08154 0
M  V30 2857 C 260.372 -4.33443 -2.87094 0
M  V30 2858 C 258.057 -3.7895 -3.29701 0
M  V30 2859 C 260.051 -5.68858 -2.8754 0
M  V30 2860 C 257.738 -5.14482 -3.29776 0
M  V30 2861 C 258.736 -6.09246 -3.0872 0
M  V30 2862 O 258.424 -7.42302 -3.08615 0
M  V30 2863 H 258.156 -0.423898 -0.52658 0
M  V30 2864 H 260.71 -1.72703 -1.11188 0
M  V30 2865 H 258.94 -1.32157 -3.63416 0
M  V30 2866 H 260.629 -1.7391 -3.66756 0
M  V30 2867 H 261.395 -4.02733 -2.70243 0
M  V30 2868 H 257.274 -3.05631 -3.45124 0
M  V30 2869 H 260.818 -6.428 -2.71024 0
M  V30 2870 H 256.715 -5.44832 -3.46163 0
M  V30 2871 H 257.483 -7.5131 -3.24769 0
M  V30 2872 N 260.146 1.09593 -1.13257 0
M  V30 2873 C 261.394 1.81375 -0.891492 0
M  V30 2874 C 261.715 1.86049 0.584009 0
M  V30 2875 O 260.985 1.34481 1.42449 0
M  V30 2876 H 259.565 0.671708 -0.326828 0
M  V30 2877 H 262.227 1.3256 -1.42877 0
M  V30 2878 H 261.323 2.84612 -1.28071 0
M  V30 2879 N 261.624 0.925811 1.2754 0
M  V30 2880 C 262.87 0.566092 1.94739 0
M  V30 2881 C 263.203 -0.890057 1.72603 0
M  V30 2882 O 262.478 -1.63467 1.05399 0
M  V30 2883 C 262.761 0.89054 3.48915 0
M  V30 2884 C 262.614 2.4003 3.80402 0
M  V30 2885 C 263.933 0.395101 4.38323 0
M  V30 2886 H 261.052 0.20714 0.707292 0
M  V30 2887 H 263.694 1.15725 1.50691 0
M  V30 2888 H 261.844 0.387452 3.86563 0
M  V30 2889 H 263.516 2.97494 3.52555 0
M  V30 2890 H 261.759 2.85028 3.2702 0
M  V30 2891 H 262.43 2.57785 4.8811 0
M  V30 2892 H 264.906 0.826241 4.07814 0
M  V30 2893 H 263.782 0.651086 5.45025 0
M  V30 2894 H 264.043 -0.704798 4.36446 0
M  V30 2895 N 263.102 -1.41638 0.69111 0
M  V30 2896 C 264.379 -1.95036 0.148421 0
M  V30 2897 C 264.759 -1.63072 -1.34055 0
M  V30 2898 O 264.107 -0.93538 -2.08478 0
M  V30 2899 C 264.317 -3.46279 0.434951 0
M  V30 2900 C 265.665 -4.23069 0.360275 0
M  V30 2901 O 266.689 -3.54277 0.369613 0
M  V30 2902 O 265.548 -5.45583 0.316534 0
M  V30 2903 H 262.642 -0.826908 0.0123654 0
M  V30 2904 H 265.188 -1.5138 0.766963 0
M  V30 2905 H 263.96 -3.6281 1.46576 0
M  V30 2906 H 263.583 -3.97019 -0.214787 0
M  V30 2907 N 264.58 -0.43555 -1.51462 0
M  V30 2908 C 265.991 0.0279871 -1.86679 0
M  V30 2909 C 266.342 1.42104 -1.35281 0
M  V30 2910 O 265.467 2.04667 -0.702878 0
M  V30 2911 C 266.062 0.0575626 -3.38751 0
M  V30 2912 C 264.621 0.465507 -3.7351 0
M  V30 2913 C 263.768 -0.342996 -2.75171 0
M  V30 2914 H 266.719 -0.651473 -1.44712 0
M  V30 2915 H 266.74 0.867421 -3.70481 0
M  V30 2916 H 266.252 -0.956448 -3.7613 0
M  V30 2917 H 264.353 1.48519 -3.41721 0
M  V30 2918 H 264.466 0.191546 -4.78717 0
M  V30 2919 H 262.83 0.198442 -2.53926 0
M  V30 2920 H 263.613 -1.35585 -3.15391 0
M  V30 2921 N 266.058 1.56714 -0.166846 0
M  V30 2922 C 267.286 2.0112 0.485644 0
M  V30 2923 C 267.701 1.04705 1.57106 0
M  V30 2924 O 267.058 0.0471923 1.82439 0
M  V30 2925 C 267.109 3.45361 1.06808 0
M  V30 2926 O 266.83 4.38092 0.0259995 0
M  V30 2927 C 268.331 4.05145 1.79924 0
M  V30 2928 H 265.551 0.65931 0.124704 0
M  V30 2929 H 268.095 2.02746 -0.267262 0
M  V30 2930 H 266.25 3.44524 1.7715 0
M  V30 2931 H 266.664 5.22519 0.455398 0
M  V30 2932 H 268.138 5.08009 2.15942 0
M  V30 2933 H 268.615 3.46982 2.69258 0
M  V30 2934 H 269.221 4.09672 1.14234 0
M  V30 2935 N 267.536 -0.106894 1.57237 0
M  V30 2936 C 268.952 -0.46078 1.52804 0
M  V30 2937 C 269.152 -1.81184 0.881746 0
M  V30 2938 O 268.208 -2.48102 0.469224 0
M  V30 2939 C 269.521 -0.434127 2.9755 0
M  V30 2940 C 271.069 -0.516821 3.08704 0
M  V30 2941 C 271.544 -0.520436 4.55033 0
M  V30 2942 N 273.035 -0.58153 4.59535 0
M  V30 2943 C 273.77 -0.605973 5.70189 0
M  V30 2944 N 273.266 -0.587331 6.90306 0
M  V30 2945 N 275.059 -0.649895 5.5833 0
M  V30 2946 H 267.21 0.778203 1.9763 0
M  V30 2947 H 269.473 0.288403 0.903066 0
M  V30 2948 H 269.179 0.491197 3.48253 0
M  V30 2949 H 269.053 -1.25748 3.55622 0
M  V30 2950 H 271.44 -1.43256 2.57995 0
M  V30 2951 H 271.521 0.334449 2.53604 0
M  V30 2952 H 271.165 0.391313 5.0639 0
M  V30 2953 H 271.095 -1.38876 5.07958 0
M  V30 2954 H 273.586 -0.60161 3.73081 0
M  V30 2955 H 273.899 -0.60894 7.70397 0
M  V30 2956 H 272.244 -0.554564 6.92784 0
M  V30 2957 H 275.435 -0.661907 4.63397 0
M  V30 2958 H 275.608 -0.665476 6.44574 0
M  V30 2959 N 269.014 -1.53014 -0.377408 0
M  V30 2960 C 270.263 -1.67845 -1.11853 0
M  V30 2961 C 270.576 -0.430625 -1.90801 0
M  V30 2962 O 271.782 -0.459261 -2.67587 0
M  V30 2963 C 270.238 -2.96668 -2.03756 0
M  V30 2964 C 269.846 -4.28671 -1.30175 0
M  V30 2965 C 271.59 -3.20865 -2.77932 0
M  V30 2966 C 269.497 -5.48591 -2.20911 0
M  V30 2967 H 268.427 -0.625343 -0.421263 0
M  V30 2968 H 271.078 -1.79514 -0.380409 0
M  V30 2969 H 269.46 -2.78773 -2.8125 0
M  V30 2970 H 270.634 -4.57157 -0.578259 0
M  V30 2971 H 268.949 -4.10825 -0.679108 0
M  V30 2972 H 271.546 -4.07642 -3.46024 0
M  V30 2973 H 271.889 -2.36424 -3.4265 0
M  V30 2974 H 272.422 -3.39379 -2.07525 0
M  V30 2975 H 269.161 -6.35474 -1.6079 0
M  V30 2976 H 268.681 -5.244 -2.91144 0
M  V30 2977 H 270.36 -5.8292 -2.80736 0
M  V30 2978 N 270.492 0.636531 -1.44174 0
M  V30 2979 C 271.732 1.40781 -1.48189 0
M  V30 2980 C 272.096 1.91688 -0.10944 0
M  V30 2981 O 273.297 2.68789 -0.0242741 0
M  V30 2982 C 271.568 2.54575 -2.50851 0
M  V30 2983 S 273.127 3.4284 -2.73873 0
M  V30 2984 H 269.945 0.480345 -0.524204 0
M  V30 2985 H 272.547 0.737416 -1.81059 0
M  V30 2986 H 271.251 2.15478 -3.49281 0
M  V30 2987 H 270.782 3.26447 -2.19536 0
M  V30 2988 H 272.797 4.51846 -2.05059 0
M  V30 2989 N 271.97 1.30982 0.876444 0
M  V30 2990 C 273.219 1.19658 1.62373 0
M  V30 2991 C 273.532 -0.245636 1.94052 0
M  V30 2992 O 274.738 -0.48049 2.67214 0
M  V30 2993 C 273.194 2.09433 2.92687 0
M  V30 2994 C 272.802 3.58613 2.68516 0
M  V30 2995 C 274.546 2.06893 3.70669 0
M  V30 2996 C 272.453 4.40416 3.94699 0
M  V30 2997 H 271.383 0.444268 0.609214 0
M  V30 2998 H 274.034 1.55791 0.969605 0
M  V30 2999 H 272.416 1.66191 3.59439 0
M  V30 3000 H 273.59 4.10058 2.10212 0
M  V30 3001 H 271.905 3.63063 2.03898 0
M  V30 3002 H 274.502 2.65258 4.64265 0
M  V30 3003 H 274.845 1.05448 4.02724 0
M  V30 3004 H 275.378 2.48301 3.10792 0
M  V30 3005 H 272.117 5.42591 3.67798 0
M  V30 3006 H 271.637 3.93731 4.52477 0
M  V30 3007 H 273.316 4.52294 4.62644 0
M  V30 3008 N 273.449 -1.08991 1.13837 0
M  V30 3009 C 274.412 -2.13925 0.822715 0
M  V30 3010 C 275.412 -1.599 -0.1699 0
M  V30 3011 O 276.602 -1.74104 0.0577251 0
M  V30 3012 C 273.734 -3.40155 0.225318 0
M  V30 3013 H 274.927 -2.43358 1.75262 0
M  V30 3014 H 272.48 -1.24603 0.943594 0
M  V30 3015 H 273.215 -3.16352 -0.713594 0
M  V30 3016 H 273 -3.80661 0.940193 0
M  V30 3017 H 274.49 -4.17594 0.0214784 0
M  V30 3018 N 274.927 -0.932562 -1.27047 0
M  V30 3019 C 276.175 -0.574422 -1.93765 0
M  V30 3020 C 276.496 0.887993 -1.73608 0
M  V30 3021 O 275.766 1.62999 -1.08665 0
M  V30 3022 H 274.346 -0.209451 -0.717035 0
M  V30 3023 H 277.008 -1.18601 -1.5466 0
M  V30 3024 H 276.104 -0.784841 -3.02071 0
M  V30 3025 N 276.405 1.4127 -0.698611 0
M  V30 3026 C 277.682 1.94955 -0.158762 0
M  V30 3027 C 278.062 1.63781 1.33188 0
M  V30 3028 O 277.41 0.946423 2.07979 0
M  V30 3029 C 277.62 3.46044 -0.453309 0
M  V30 3030 C 278.968 4.22872 -0.382707 0
M  V30 3031 O 279.992 3.54076 -0.388396 0
M  V30 3032 O 278.851 5.45407 -0.345463 0
M  V30 3033 H 275.945 0.82683 -0.0167505 0
M  V30 3034 H 278.491 1.50971 -0.77498 0
M  V30 3035 H 277.263 3.62028 -1.48498 0
M  V30 3036 H 276.886 3.97128 0.19373 0
M  V30 3037 N 277.883 0.443576 1.51229 0
M  V30 3038 C 279.108 -0.121648 2.07043 0
M  V30 3039 C 279.533 -1.35156 1.30823 0
M  V30 3040 O 278.891 -1.7793 0.347934 0
M  V30 3041 C 278.939 -0.41624 3.5819 0
M  V30 3042 O 278.043 -1.50163 3.8409 0
M  V30 3043 H 277.384 0.000871367 0.663999 0
M  V30 3044 H 279.914 0.626706 1.94765 0
M  V30 3045 H 279.924 -0.664867 4.02546 0
M  V30 3046 H 278.599 0.482653 4.1309 0
M  V30 3047 H 277.176 -1.24248 3.51592 0
M  V30 3048 N 279.361 -1.56624 0.175154 0
M  V30 3049 C 280.586 -2.01813 -0.478137 0
M  V30 3050 C 281.011 -1.05457 -1.55757 0
M  V30 3051 O 280.369 -0.0347439 -1.81267 0
M  V30 3052 C 280.417 -3.45581 -1.02987 0
M  V30 3053 O 279.521 -3.52305 -2.14371 0
M  V30 3054 H 278.862 -0.65413 -0.114059 0
M  V30 3055 H 281.392 -2.02673 0.280173 0
M  V30 3056 H 281.402 -3.84965 -1.35151 0
M  V30 3057 H 280.077 -4.1521 -0.239556 0
M  V30 3058 H 278.654 -3.24783 -1.83222 0
M  V30 3059 N 280.839 0.0985539 -1.57292 0
M  V30 3060 C 282.087 0.801092 -1.85545 0
M  V30 3061 C 282.408 1.79438 -0.763353 0
M  V30 3062 O 281.678 1.94763 0.21073 0
M  V30 3063 H 280.258 0.29884 -0.684619 0
M  V30 3064 H 282.92 0.0810064 -1.94732 0
M  V30 3065 H 282.016 1.3338 -2.82163 0
M  V30 3066 N 282.317 1.53212 0.369288 0
M  V30 3067 C 283.565 1.68881 1.11012 0
M  V30 3068 C 283.886 0.441285 1.89941 0
M  V30 3069 O 283.156 -0.544623 1.88177 0
M  V30 3070 H 281.736 0.622569 0.412816 0
M  V30 3071 H 284.398 1.90391 0.416802 0
M  V30 3072 H 283.494 2.54822 1.80201 0
M  V30 3073 N 283.795 -0.628877 1.44509 0
M  V30 3074 C 284.743 -1.76193 1.51852 0
M  V30 3075 C 285.737 -1.64849 0.390042 0
M  V30 3076 O 286.943 -1.709 0.565082 0
M  V30 3077 H 283.318 -0.581728 0.476547 0
M  V30 3078 H 285.289 -1.67123 2.47209 0
M  V30 3079 C 284.038 -3.14533 1.48204 0
M  V30 3080 H 283.361 -3.23911 2.34354 0
M  V30 3081 H 284.801 -3.93701 1.57402 0
M  V30 3082 C 283.26 -3.36287 0.203142 0
M  V30 3083 O 283.79 -3.9509 -0.725745 0
M  V30 3084 N 281.996 -2.90408 0.105563 0
M  V30 3085 H 281.543 -2.42739 0.862301 0
M  V30 3086 H 281.501 -3.05339 -0.749371 0
M  V30 3087 N 285.273 -1.31445 -0.869486 0
M  V30 3088 C 286.203 -1.21727 -1.99261 0
M  V30 3089 C 287.184 -0.104359 -1.6978 0
M  V30 3090 O 288.369 -0.289038 -1.92037 0
M  V30 3091 C 285.499 -0.924317 -3.34774 0
M  V30 3092 C 284.453 -1.99685 -3.78563 0
M  V30 3093 C 283.779 -1.55658 -5.11541 0
M  V30 3094 C 285.079 -3.41003 -3.95619 0
M  V30 3095 H 286.773 -2.1569 -2.07649 0
M  V30 3096 H 284.319 -1.03839 -0.997675 0
M  V30 3097 H 286.272 -0.842934 -4.12883 0
M  V30 3098 H 284.996 0.0509793 -3.2656 0
M  V30 3099 H 283.655 -2.06813 -3.02694 0
M  V30 3100 H 283.303 -0.569132 -4.9977 0
M  V30 3101 H 283.003 -2.27409 -5.41811 0
M  V30 3102 H 284.527 -1.48928 -5.92159 0
M  V30 3103 H 285.941 -3.36547 -4.64122 0
M  V30 3104 H 284.338 -4.10975 -4.37286 0
M  V30 3105 H 285.408 -3.81754 -2.98985 0
M  V30 3106 N 286.751 1.08385 -1.14413 0
M  V30 3107 C 287.714 2.13486 -0.834048 0
M  V30 3108 C 288.714 1.59988 0.161418 0
M  V30 3109 O 289.904 1.74071 -0.0669575 0
M  V30 3110 C 287.036 3.4003 -0.243354 0
M  V30 3111 H 288.229 2.42425 -1.7655 0
M  V30 3112 H 285.782 1.24101 -0.950189 0
M  V30 3113 H 286.517 3.16726 0.696807 0
M  V30 3114 H 286.302 3.80157 -0.960367 0
M  V30 3115 H 287.792 4.17577 -0.0436242 0
M  V30 3116 N 288.23 0.939286 1.26551 0
M  V30 3117 C 289.458 0.602536 1.97932 0
M  V30 3118 C 289.873 -0.82206 1.69964 0
M  V30 3119 O 289.23 -1.54789 0.966784 0
M  V30 3120 C 289.281 0.832946 3.51773 0
M  V30 3121 O 289.002 2.20151 3.78768 0
M  V30 3122 C 290.503 0.506483 4.40397 0
M  V30 3123 H 287.723 0.227248 0.631347 0
M  V30 3124 H 290.267 1.25948 1.61113 0
M  V30 3125 H 288.422 0.222644 3.8676 0
M  V30 3126 H 288.836 2.26013 4.73306 0
M  V30 3127 H 290.31 0.718333 5.47306 0
M  V30 3128 H 290.787 -0.558451 4.35635 0
M  V30 3129 H 291.393 1.09543 4.10951 0
M  V30 3130 N 289.708 -1.40897 0.706093 0
M  V30 3131 C 290.671 -2.29131 0.0562841 0
M  V30 3132 C 291.671 -1.44901 -0.697166 0
M  V30 3133 O 292.861 -1.65926 -0.530484 0
M  V30 3134 C 289.993 -3.27957 -0.93043 0
M  V30 3135 H 291.186 -2.88091 0.833284 0
M  V30 3136 H 288.739 -1.4906 0.470192 0
M  V30 3137 H 289.474 -2.73997 -1.73482 0
M  V30 3138 H 289.259 -3.90124 -0.393166 0
M  V30 3139 H 290.749 -3.94049 -1.38256 0
M  V30 3140 N 291.186 -0.45159 -1.50991 0
M  V30 3141 C 292.432 0.110237 -2.025 0
M  V30 3142 C 292.765 1.41109 -1.33424 0
M  V30 3143 O 292.04 1.89135 -0.453659 0
M  V30 3144 C 292.323 0.314271 -3.58726 0
M  V30 3145 C 292.176 -1.00623 -4.38401 0
M  V30 3146 C 293.495 1.07767 -4.26702 0
M  V30 3147 H 290.614 0.0385897 -0.735989 0
M  V30 3148 H 293.256 -0.593374 -1.80497 0
M  V30 3149 H 291.406 0.913601 -3.77605 0
M  V30 3150 H 293.078 -1.64064 -4.31139 0
M  V30 3151 H 291.321 -1.6075 -4.02917 0
M  V30 3152 H 291.992 -0.817341 -5.45915 0
M  V30 3153 H 294.468 0.56986 -4.12179 0
M  V30 3154 H 293.344 1.18921 -5.35863 0
M  V30 3155 H 293.605 2.10939 -3.88532 0
M  V30 3156 N 292.664 1.56529 -0.183458 0
M  V30 3157 C 293.892 2.01623 0.464285 0
M  V30 3158 C 294.307 1.06366 1.55986 0
M  V30 3159 O 293.664 0.0665398 1.82379 0
M  V30 3160 C 293.715 3.46475 1.03139 0
M  V30 3161 O 293.436 4.38095 -0.0204675 0
M  V30 3162 C 294.937 4.0703 1.75617 0
M  V30 3163 H 292.157 0.660596 0.117704 0
M  V30 3164 H 294.701 2.02451 -0.288751 0
M  V30 3165 H 292.856 3.46383 1.73486 0
M  V30 3166 H 293.27 5.22973 0.399952 0
M  V30 3167 H 294.744 5.10271 2.10542 0
M  V30 3168 H 295.221 3.49819 2.65563 0
M  V30 3169 H 295.827 4.1086 1.09882 0
M  V30 3170 N 294.142 -0.090211 1.57342 0
M  V30 3171 C 295.074 -1.13541 1.99101 0
M  V30 3172 C 296.087 -1.3604 0.894258 0
M  V30 3173 O 297.276 -1.34606 1.17233 0
M  V30 3174 C 294.376 -2.49001 2.29895 0
M  V30 3175 C 293.549 -2.46712 3.61182 0
M  V30 3176 C 292.608 -3.64136 3.79857 0
M  V30 3177 O 291.634 -3.46405 4.51655 0
M  V30 3178 N 292.836 -4.83802 3.20806 0
M  V30 3179 H 295.601 -0.779942 2.89373 0
M  V30 3180 H 293.162 -0.279125 1.59476 0
M  V30 3181 H 295.154 -3.26166 2.39578 0
M  V30 3182 H 293.724 -2.76619 1.45605 0
M  V30 3183 H 292.944 -1.55058 3.62423 0
M  V30 3184 H 294.232 -2.42265 4.4742 0
M  V30 3185 H 293.63 -5.01112 2.62494 0
M  V30 3186 H 292.187 -5.58543 3.35966 0
M  V30 3187 N 295.62 -1.53406 -0.361157 0
M  V30 3188 C 296.552 -1.76446 -1.46286 0
M  V30 3189 C 297.565 -0.645322 -1.49464 0
M  V30 3190 O 298.754 -0.921681 -1.52864 0
M  V30 3191 C 295.854 -1.83332 -2.85031 0
M  V30 3192 C 295.027 -3.13033 -3.05498 0
M  V30 3193 C 294.086 -3.11104 -4.24383 0
M  V30 3194 O 293.112 -3.84888 -4.19344 0
M  V30 3195 N 294.314 -2.32234 -5.32022 0
M  V30 3196 H 297.079 -2.71508 -1.26899 0
M  V30 3197 H 294.64 -1.52238 -0.550915 0
M  V30 3198 H 296.632 -1.79514 -3.62708 0
M  V30 3199 H 295.202 -0.955342 -2.97644 0
M  V30 3200 H 294.422 -3.30119 -2.15442 0
M  V30 3201 H 295.71 -3.9874 -3.16044 0
M  V30 3202 H 295.108 -1.71807 -5.38979 0
M  V30 3203 H 293.665 -2.3423 -6.08259 0
M  V30 3204 N 297.098 0.621204 -1.44841 0
M  V30 3205 C 298.344 1.3826 -1.48365 0
M  V30 3206 C 298.677 1.93831 -0.119624 0
M  V30 3207 O 297.952 1.74251 0.864111 0
M  V30 3208 C 298.235 2.54058 -2.55199 0
M  V30 3209 C 298.088 2.03772 -4.00995 0
M  V30 3210 C 299.407 3.56225 -2.58442 0
M  V30 3211 H 296.526 0.501374 -0.540179 0
M  V30 3212 H 299.168 0.7015 -1.76576 0
M  V30 3213 H 297.318 3.12162 -2.31274 0
M  V30 3214 H 298.99 1.50423 -4.36086 0
M  V30 3215 H 297.233 1.34876 -4.12299 0
M  V30 3216 H 297.904 2.87185 -4.71411 0
M  V30 3217 H 300.38 3.07939 -2.79844 0
M  V30 3218 H 299.256 4.34756 -3.3508 0
M  V30 3219 H 299.517 4.10949 -1.63013 0
M  V30 3220 N 298.576 1.31904 0.862503 0
M  V30 3221 C 299.508 1.16005 1.97675 0
M  V30 3222 C 300.521 0.0971234 1.6251 0
M  V30 3223 O 301.71 0.345337 1.75128 0
M  V30 3224 C 298.81 0.751791 3.30456 0
M  V30 3225 C 297.983 1.90133 3.93914 0
M  V30 3226 C 297.042 1.4779 5.05019 0
M  V30 3227 O 296.068 2.18872 5.25437 0
M  V30 3228 N 297.27 0.369491 5.79323 0
M  V30 3229 H 300.035 2.11982 2.11857 0
M  V30 3230 H 297.596 1.24337 1.03691 0
M  V30 3231 H 299.588 0.451084 4.02178 0
M  V30 3232 H 298.158 -0.116593 3.12382 0
M  V30 3233 H 297.378 2.36896 3.15078 0
M  V30 3234 H 298.666 2.67111 4.33047 0
M  V30 3235 H 298.064 -0.222299 5.65263 0
M  V30 3236 H 296.621 0.128354 6.51674 0
M  V30 3237 N 300.054 -1.07777 1.14986 0
M  V30 3238 C 301.002 -2.16964 0.838406 0
M  V30 3239 C 301.996 -1.68372 -0.186386 0
M  V30 3240 O 303.202 -1.79951 -0.0418465 0
M  V30 3241 H 299.577 -0.708006 0.253439 0
M  V30 3242 H 301.548 -2.40454 1.76704 0
M  V30 3243 C 300.297 -3.4604 0.339335 0
M  V30 3244 H 299.62 -3.83813 1.11927 0
M  V30 3245 H 301.06 -4.23698 0.160021 0
M  V30 3246 C 299.519 -3.23569 -0.938325 0
M  V30 3247 O 300.049 -3.47752 -2.01077 0
M  V30 3248 N 298.255 -2.77079 -0.876117 0
M  V30 3249 H 297.802 -2.576 -0.00322037 0
M  V30 3250 H 297.76 -2.62422 -1.73153 0
M  V30 3251 N 301.532 -0.945985 -1.26051 0
M  V30 3252 C 302.809 -0.513816 -1.88731 0
M  V30 3253 C 303.189 1.00872 -1.8544 0
M  V30 3254 O 302.537 1.8708 -1.312 0
M  V30 3255 C 302.747 -1.08062 -3.31849 0
M  V30 3256 C 304.095 -1.1522 -4.08668 0
M  V30 3257 O 305.119 -1.03155 -3.40936 0
M  V30 3258 O 303.978 -1.34044 -5.29806 0
M  V30 3259 H 301.072 -0.168193 -0.809716 0
M  V30 3260 H 303.618 -1.03886 -1.34186 0
M  V30 3261 H 302.39 -2.1241 -3.2863 0
M  V30 3262 H 302.013 -0.538307 -3.93939 0
M  V30 3263 N 303.011 1.40521 -0.713556 0
M  V30 3264 C 303.974 2.29098 -0.0684347 0
M  V30 3265 C 304.974 1.45268 0.689472 0
M  V30 3266 O 306.164 1.66205 0.521677 0
M  V30 3267 C 303.296 3.28446 0.913024 0
M  V30 3268 H 304.489 2.87645 -0.84855 0
M  V30 3269 H 302.042 1.48809 -0.47809 0
M  V30 3270 H 302.777 2.74913 1.72027 0
M  V30 3271 H 302.562 3.90327 0.372472 0
M  V30 3272 H 304.052 3.94777 1.36165 0
M  V30 3273 N 304.489 0.459591 1.5075 0
M  V30 3274 C 305.399 -0.34613 2.32033 0
M  V30 3275 C 306.415 -1.00686 1.41909 0
M  V30 3276 O 307.591 -0.997361 1.7497 0
M  V30 3277 C 304.656 -1.42029 3.16273 0
M  V30 3278 C 303.717 -0.777362 4.22203 0
M  V30 3279 C 302.95 -1.80034 5.02418 0
M  V30 3280 O 303.173 -3.02544 4.83553 0
M  V30 3281 O 302.107 -1.37853 5.85901 0
M  V30 3282 H 305.933 0.318054 3.0203 0
M  V30 3283 H 303.518 0.221663 1.47746 0
M  V30 3284 H 305.4 -2.04275 3.68578 0
M  V30 3285 H 304.075 -2.06815 2.49016 0
M  V30 3286 H 302.982 -0.116256 3.73919 0
M  V30 3287 H 304.315 -0.172634 4.91897 0
M  V30 3288 N 305.967 -1.56429 0.191757 0
M  V30 3289 C 307.216 -1.9666 -0.448088 0
M  V30 3290 C 307.529 -1.08136 -1.62991 0
M  V30 3291 O 308.735 -1.38135 -2.33733 0
M  V30 3292 C 307.191 -3.49753 -0.848585 0
M  V30 3293 C 306.799 -4.46935 0.308764 0
M  V30 3294 C 308.543 -3.9876 -1.4557 0
M  V30 3295 C 306.45 -5.91293 -0.112506 0
M  V30 3296 H 305.38 -0.734312 -0.171179 0
M  V30 3297 H 308.031 -1.81301 0.283242 0
M  V30 3298 H 306.413 -3.60604 -1.63649 0
M  V30 3299 H 307.587 -4.47813 1.08627 0
M  V30 3300 H 305.902 -4.08102 0.827158 0
M  V30 3301 H 308.499 -5.04086 -1.78328 0
M  V30 3302 H 308.842 -3.42875 -2.36099 0
M  V30 3303 H 309.375 -3.9101 -0.731836 0
M  V30 3304 H 306.114 -6.51097 0.758514 0
M  V30 3305 H 305.634 -5.93676 -0.854941 0
M  V30 3306 H 307.313 -6.44663 -0.549448 0
M  V30 3307 N 307.445 0.0818655 -1.57387 0
M  V30 3308 C 308.392 1.09834 -2.0299 0
M  V30 3309 C 309.362 1.39043 -0.908639 0
M  V30 3310 O 310.547 1.50282 -1.17559 0
M  V30 3311 C 307.687 2.40971 -2.47037 0
M  V30 3312 C 306.8 2.18379 -3.7274 0
M  V30 3313 C 305.935 3.43008 -4.0561 0
M  V30 3314 C 304.974 3.15736 -5.24383 0
M  V30 3315 N 304.111 4.32667 -5.52941 0
M  V30 3316 H 308.951 0.702472 -2.89602 0
M  V30 3317 H 306.488 0.33531 -1.43227 0
M  V30 3318 H 308.446 3.1752 -2.70623 0
M  V30 3319 H 307.076 2.78379 -1.63417 0
M  V30 3320 H 306.128 1.32569 -3.56552 0
M  V30 3321 H 307.44 1.94227 -4.59431 0
M  V30 3322 H 306.594 4.27958 -4.30043 0
M  V30 3323 H 305.333 3.70225 -3.17466 0
M  V30 3324 H 304.338 2.2918 -4.99757 0
M  V30 3325 H 305.563 2.8985 -6.14136 0
M  V30 3326 H 303.509 4.59935 -4.67756 0
M  V30 3327 H 303.426 4.11753 -6.34031 0
M  V30 3328 H 304.694 5.18644 -5.81918 0
M  V30 3329 N 308.923 1.53595 0.353017 0
M  V30 3330 C 309.873 1.77299 1.43349 0
M  V30 3331 C 310.857 0.627884 1.48143 0
M  V30 3332 O 312.049 0.88697 1.53173 0
M  V30 3333 C 309.178 1.97757 2.80619 0
M  V30 3334 C 308.264 3.18305 2.80254 0
M  V30 3335 N 308.655 4.39967 2.49526 0
M  V30 3336 C 306.953 3.19283 3.11407 0
M  V30 3337 C 307.654 5.21772 2.57156 0
M  V30 3338 N 306.63 4.58269 2.92388 0
M  V30 3339 H 310.432 2.68963 1.18474 0
M  V30 3340 H 307.946 1.52391 0.561306 0
M  V30 3341 H 309.943 2.1287 3.58458 0
M  V30 3342 H 308.603 1.07329 3.06448 0
M  V30 3343 H 309.614 4.67482 2.22893 0
M  V30 3344 H 306.291 2.3879 3.4247 0
M  V30 3345 H 307.681 6.2885 2.36638 0
M  V30 3346 N 310.401 -0.613514 1.45168 0
M  V30 3347 C 311.348 -1.72456 1.53387 0
M  V30 3348 C 312.318 -1.6169 0.380191 0
M  V30 3349 O 313.503 -1.81356 0.592836 0
M  V30 3350 C 310.643 -3.10753 1.50088 0
M  V30 3351 C 309.756 -3.32368 2.75963 0
M  V30 3352 C 308.891 -4.60737 2.64376 0
M  V30 3353 C 307.93 -4.7559 3.85332 0
M  V30 3354 N 307.067 -5.95253 3.72315 0
M  V30 3355 H 311.907 -1.64768 2.48305 0
M  V30 3356 H 309.444 -0.803503 1.23216 0
M  V30 3357 H 311.402 -3.90758 1.46164 0
M  V30 3358 H 310.032 -3.17413 0.587243 0
M  V30 3359 H 309.084 -2.4618 2.89999 0
M  V30 3360 H 310.396 -3.39218 3.65695 0
M  V30 3361 H 309.55 -5.48928 2.58385 0
M  V30 3362 H 308.289 -4.56275 1.72233 0
M  V30 3363 H 307.294 -3.85824 3.91688 0
M  V30 3364 H 308.519 -4.81854 4.78533 0
M  V30 3365 H 306.465 -5.91847 2.82937 0
M  V30 3366 H 306.382 -6.03236 4.55677 0
M  V30 3367 H 307.65 -6.85958 3.70246 0
M  V30 3368 N 311.879 -1.3236 -0.855495 0
M  V30 3369 C 313.128 -1.22226 -1.60448 0
M  V30 3370 C 313.441 0.214733 -1.94418 0
M  V30 3371 O 314.647 0.437917 -2.67945 0
M  V30 3372 C 313.103 -2.14063 -2.89318 0
M  V30 3373 C 312.711 -3.62839 -2.62777 0
M  V30 3374 C 314.455 -2.12764 -3.67331 0
M  V30 3375 C 312.362 -4.4664 -3.87643 0
M  V30 3376 H 311.292 -0.453904 -0.602069 0
M  V30 3377 H 313.943 -1.57314 -0.944698 0
M  V30 3378 H 312.325 -1.71889 -3.5675 0
M  V30 3379 H 313.499 -4.1335 -2.03662 0
M  V30 3380 H 311.814 -3.66261 -1.98096 0
M  V30 3381 H 314.411 -2.72611 -4.59987 0
M  V30 3382 H 314.754 -1.11841 -4.00995 0
M  V30 3383 H 315.287 -2.53214 -3.06802 0
M  V30 3384 H 312.026 -5.48373 -3.5912 0
M  V30 3385 H 311.546 -4.0088 -4.46156 0
M  V30 3386 H 313.225 -4.59597 -4.55389 0
M  V30 3387 N 313.357 1.07166 -1.15556 0
M  V30 3388 C 314.304 2.14417 -0.854055 0
M  V30 3389 C 315.274 1.64965 0.193806 0
M  V30 3390 O 316.459 1.90703 0.0609443 0
M  V30 3391 C 313.599 3.43304 -0.351574 0
M  V30 3392 C 312.712 4.06537 -1.46123 0
M  V30 3393 C 311.847 5.23266 -0.914677 0
M  V30 3394 C 310.886 5.78464 -2.00114 0
M  V30 3395 N 310.023 6.86521 -1.47083 0
M  V30 3396 H 314.863 2.39548 -1.77259 0
M  V30 3397 H 312.4 1.17543 -0.884425 0
M  V30 3398 H 314.358 4.17179 -0.0419409 0
M  V30 3399 H 312.988 3.18419 0.530037 0
M  V30 3400 H 312.04 3.30297 -1.88701 0
M  V30 3401 H 313.352 4.43567 -2.28144 0
M  V30 3402 H 312.506 6.04131 -0.557698 0
M  V30 3403 H 311.245 4.87658 -0.0636583 0
M  V30 3404 H 310.25 4.96243 -2.36692 0
M  V30 3405 H 311.475 6.16126 -2.85597 0
M  V30 3406 H 309.421 6.52849 -0.642198 0
M  V30 3407 H 309.338 7.22446 -2.22729 0
M  V30 3408 H 310.606 7.71087 -1.14215 0
M  V30 3409 N 314.835 0.952656 1.25548 0
M  V30 3410 C 315.768 0.415525 2.24385 0
M  V30 3411 C 316.746 -0.502046 1.54655 0
M  V30 3412 O 317.93 -0.436875 1.83368 0
M  V30 3413 C 315.057 -0.401734 3.36309 0
M  V30 3414 C 314.103 0.455949 4.24056 0
M  V30 3415 S 314.936 1.88698 5.01152 0
M  V30 3416 C 316.092 1.07809 6.16545 0
M  V30 3417 H 316.325 1.25315 2.69599 0
M  V30 3418 H 313.858 0.756587 1.34592 0
M  V30 3419 H 315.816 -0.867329 4.01233 0
M  V30 3420 H 314.477 -1.21416 2.89684 0
M  V30 3421 H 313.67 -0.170776 5.03711 0
M  V30 3422 H 313.272 0.856675 3.64056 0
M  V30 3423 H 315.564 0.325816 6.76716 0
M  V30 3424 H 316.507 1.84849 6.83547 0
M  V30 3425 H 316.915 0.60909 5.61204 0
M  V30 3426 N 316.313 -1.40141 0.720998 0
M  V30 3427 C 317.245 -2.29177 0.0324669 0
M  V30 3428 C 318.258 -1.46105 -0.718126 0
M  V30 3429 O 319.447 -1.69335 -0.564608 0
M  V30 3430 C 316.547 -3.24473 -0.978292 0
M  V30 3431 C 315.72 -4.36423 -0.292115 0
M  V30 3432 C 314.779 -5.12122 -1.20901 0
M  V30 3433 O 313.805 -5.64981 -0.691766 0
M  V30 3434 N 315.007 -5.21992 -2.53978 0
M  V30 3435 H 317.772 -2.88909 0.796984 0
M  V30 3436 H 315.333 -1.51569 0.569068 0
M  V30 3437 H 317.325 -3.71987 -1.59398 0
M  V30 3438 H 315.895 -2.65871 -1.64413 0
M  V30 3439 H 315.115 -3.90967 0.503847 0
M  V30 3440 H 316.403 -5.08467 0.183971 0
M  V30 3441 H 315.801 -4.8054 -2.98493 0
M  V30 3442 H 314.358 -5.72995 -3.10677 0
M  V30 3443 N 317.792 -0.46758 -1.50504 0
M  V30 3444 C 319.038 0.0887532 -2.02606 0
M  V30 3445 C 319.371 1.39686 -1.34913 0
M  V30 3446 O 318.646 1.88644 -0.473694 0
M  V30 3447 C 318.929 0.276206 -3.59039 0
M  V30 3448 C 318.782 -1.05267 -4.37309 0
M  V30 3449 C 320.101 1.03235 -4.27821 0
M  V30 3450 H 317.22 0.0307814 -0.736357 0
M  V30 3451 H 319.862 -0.612485 -1.79857 0
M  V30 3452 H 318.012 0.8735 -3.78553 0
M  V30 3453 H 319.684 -1.68628 -4.29374 0
M  V30 3454 H 317.927 -1.65015 -4.01189 0
M  V30 3455 H 318.598 -0.875197 -5.45018 0
M  V30 3456 H 321.074 0.526111 -4.12761 0
M  V30 3457 H 319.95 1.1323 -5.37094 0
M  V30 3458 H 320.211 2.06806 -3.90748 0
M  V30 3459 N 319.27 1.56325 -0.20005 0
M  V30 3460 C 320.2 2.22318 0.713916 0
M  V30 3461 C 321.181 1.18788 1.21752 0
M  V30 3462 O 322.366 1.47309 1.26545 0
M  V30 3463 C 319.496 2.88639 1.93144 0
M  V30 3464 C 318.45 3.98457 1.56255 0
M  V30 3465 C 317.776 4.51967 2.85709 0
M  V30 3466 C 319.076 5.16612 0.768747 0
M  V30 3467 H 320.77 2.98952 0.163755 0
M  V30 3468 H 318.316 1.43792 0.0773219 0
M  V30 3469 H 320.269 3.33491 2.57608 0
M  V30 3470 H 318.993 2.09419 2.50621 0
M  V30 3471 H 317.652 3.54305 0.941471 0
M  V30 3472 H 317.3 3.69503 3.41287 0
M  V30 3473 H 317 5.26071 2.6177 0
M  V30 3474 H 318.524 4.99523 3.51154 0
M  V30 3475 H 319.938 5.57977 1.3166 0
M  V30 3476 H 318.335 5.96812 0.627286 0
M  V30 3477 H 319.405 4.84358 -0.229168 0
M  V30 3478 N 320.748 -0.0735177 1.57428 0
M  V30 3479 C 321.678 -1.0879 2.06608 0
M  V30 3480 C 322.659 -1.40473 0.959237 0
M  V30 3481 O 323.844 -1.5013 1.23185 0
M  V30 3482 C 320.974 -2.40183 2.50857 0
M  V30 3483 C 319.928 -2.22858 3.65402 0
M  V30 3484 C 319.254 -3.59619 3.957 0
M  V30 3485 C 320.554 -1.65123 4.95511 0
M  V30 3486 H 322.248 -0.678673 2.91607 0
M  V30 3487 H 319.794 -0.325013 1.40284 0
M  V30 3488 H 321.747 -3.11437 2.83874 0
M  V30 3489 H 320.471 -2.83083 1.62885 0
M  V30 3490 H 319.13 -1.54045 3.32664 0
M  V30 3491 H 318.778 -4.00086 3.04861 0
M  V30 3492 H 318.478 -3.48866 4.72828 0
M  V30 3493 H 320.002 -4.32306 4.31212 0
M  V30 3494 H 321.416 -2.26241 5.26771 0
M  V30 3495 H 319.813 -1.65071 5.7695 0
M  V30 3496 H 320.883 -0.612559 4.81015 0
M  V30 3497 N 322.226 -1.5378 -0.344866 0
M  V30 3498 C 323.456 -1.74646 -1.10374 0
M  V30 3499 C 323.864 -0.48491 -1.8288 0
M  V30 3500 O 323.207 0.553062 -1.75177 0
M  V30 3501 C 323.269 -2.87145 -2.16306 0
M  V30 3502 C 322.933 -4.26795 -1.63386 0
M  V30 3503 C 323.93 -5.08412 -1.08688 0
M  V30 3504 C 321.615 -4.73276 -1.68272 0
M  V30 3505 C 323.609 -6.34609 -0.595792 0
M  V30 3506 C 321.296 -5.99446 -1.18776 0
M  V30 3507 C 322.294 -6.79946 -0.645215 0
M  V30 3508 O 321.982 -8.03745 -0.157626 0
M  V30 3509 H 321.714 -0.587112 -0.335075 0
M  V30 3510 H 324.268 -2.01403 -0.403252 0
M  V30 3511 H 322.498 -2.55909 -2.89909 0
M  V30 3512 H 324.187 -2.95992 -2.77747 0
M  V30 3513 H 324.953 -4.73666 -1.04236 0
M  V30 3514 H 320.832 -4.10677 -2.09442 0
M  V30 3515 H 324.376 -6.97389 -0.171654 0
M  V30 3516 H 320.273 -6.33687 -1.22928 0
M  V30 3517 H 321.041 -8.18038 -0.275037 0
M  V30 3518 N 323.704 0.605807 -1.45491 0
M  V30 3519 C 325.115 1.18777 -1.44045 0
M  V30 3520 C 325.466 1.95471 -0.169001 0
M  V30 3521 O 324.591 2.0374 0.729324 0
M  V30 3522 C 325.186 2.16064 -2.60963 0
M  V30 3523 C 323.745 2.69633 -2.62631 0
M  V30 3524 C 322.892 1.45072 -2.36325 0
M  V30 3525 H 325.843 0.395017 -1.53705 0
M  V30 3526 H 325.864 2.9913 -2.35163 0
M  V30 3527 H 325.376 1.60217 -3.53486 0
M  V30 3528 H 323.477 3.29414 -1.74119 0
M  V30 3529 H 323.59 3.13944 -3.61906 0
M  V30 3530 H 321.954 1.74089 -1.85917 0
M  V30 3531 H 322.737 0.910899 -3.30995 0
M  V30 3532 N 325.182 1.32811 0.848464 0
M  V30 3533 C 326.43 1.23479 1.59991 0
M  V30 3534 C 326.751 -0.201853 1.93952 0
M  V30 3535 O 326.021 -1.12818 1.60153 0
M  V30 3536 H 324.601 0.454034 0.593179 0
M  V30 3537 H 327.263 1.66412 1.01455 0
M  V30 3538 H 326.359 1.82178 2.53412 0
M  V30 3539 N 326.66 -1.06551 1.16123 0
M  V30 3540 C 327.59 -2.15935 0.88851 0
M  V30 3541 C 328.571 -1.69306 -0.164135 0
M  V30 3542 O 329.756 -1.94193 -0.0167857 0
M  V30 3543 C 326.886 -3.45149 0.385942 0
M  V30 3544 C 325.84 -4.05271 1.3762 0
M  V30 3545 C 325.166 -5.29664 0.732137 0
M  V30 3546 C 326.466 -4.44355 2.74493 0
M  V30 3547 H 328.16 -2.39006 1.80323 0
M  V30 3548 H 325.706 -1.14866 0.868435 0
M  V30 3549 H 327.659 -4.21004 0.182647 0
M  V30 3550 H 326.383 -3.21689 -0.564274 0
M  V30 3551 H 325.042 -3.3147 1.56599 0
M  V30 3552 H 324.69 -5.02499 -0.224483 0
M  V30 3553 H 324.39 -5.70848 1.39307 0
M  V30 3554 H 325.914 -6.08218 0.538802 0
M  V30 3555 H 327.328 -5.11303 2.59311 0
M  V30 3556 H 325.725 -4.96515 3.37035 0
M  V30 3557 H 326.795 -3.55339 3.29943 0
M  V30 3558 N 328.138 -0.959301 -1.25041 0
M  V30 3559 C 329.07 -0.440543 -2.24926 0
M  V30 3560 C 330.083 0.446131 -1.56568 0
M  V30 3561 O 331.272 0.253657 -1.76689 0
M  V30 3562 C 328.372 0.38412 -3.36716 0
M  V30 3563 C 327.545 -0.490658 -4.34639 0
M  V30 3564 C 326.604 0.276587 -5.25473 0
M  V30 3565 O 325.63 -0.326614 -5.68262 0
M  V30 3566 N 326.832 1.56844 -5.5891 0
M  V30 3567 H 329.597 -1.29931 -2.70071 0
M  V30 3568 H 327.158 -0.830181 -1.38995 0
M  V30 3569 H 329.15 0.905228 -3.94446 0
M  V30 3570 H 327.72 1.14377 -2.90924 0
M  V30 3571 H 326.94 -1.19282 -3.7572 0
M  V30 3572 H 328.228 -1.08756 -4.97041 0
M  V30 3573 H 327.626 2.08036 -5.26059 0
M  V30 3574 H 326.183 2.03541 -6.19205 0
M  V30 3575 N 329.616 1.39756 -0.72842 0
M  V30 3576 C 330.865 1.99879 -0.270407 0
M  V30 3577 C 331.178 1.58449 1.14688 0
M  V30 3578 O 332.384 2.11362 1.70407 0
M  V30 3579 C 330.84 3.57292 -0.43252 0
M  V30 3580 C 330.448 4.07688 -1.85727 0
M  V30 3581 C 332.192 4.24485 -0.0359507 0
M  V30 3582 C 330.099 5.5765 -1.96928 0
M  V30 3583 H 329.029 0.747689 -0.0973472 0
M  V30 3584 H 331.68 1.59837 -0.901355 0
M  V30 3585 H 330.062 3.95097 0.267219 0
M  V30 3586 H 331.236 3.81231 -2.58843 0
M  V30 3587 H 329.551 3.53135 -2.20646 0
M  V30 3588 H 332.148 5.34609 -0.0987484 0
M  V30 3589 H 332.491 4.03915 1.00787 0
M  V30 3590 H 333.024 3.9183 -0.686604 0
M  V30 3591 H 329.763 5.8309 -2.99476 0
M  V30 3592 H 329.283 5.8593 -1.28241 0
M  V30 3593 H 330.962 6.22957 -1.74737 0
M  V30 3594 N 331.094 0.475555 1.50254 0
M  V30 3595 C 332.322 -0.0754493 2.06762 0
M  V30 3596 C 332.737 -1.33111 1.33891 0
M  V30 3597 O 332.094 -1.77846 0.40952 0
M  V30 3598 C 332.145 -0.359008 3.59713 0
M  V30 3599 O 331.866 0.846851 4.29837 0
M  V30 3600 C 333.367 -0.956484 4.32858 0
M  V30 3601 H 330.587 0.00907525 0.670939 0
M  V30 3602 H 333.131 0.665618 1.93364 0
M  V30 3603 H 331.286 -1.05001 3.72899 0
M  V30 3604 H 331.7 0.594162 5.21124 0
M  V30 3605 H 333.174 -1.10463 5.40834 0
M  V30 3606 H 333.651 -1.94775 3.93649 0
M  V30 3607 H 334.257 -0.303723 4.24214 0
M  V30 3608 N 332.573 -1.56217 0.208337 0
M  V30 3609 C 333.85 -1.89739 -0.475234 0
M  V30 3610 C 334.23 -1.1238 -1.78701 0
M  V30 3611 O 333.578 -0.228979 -2.2735 0
M  V30 3612 C 333.788 -3.42289 -0.681101 0
M  V30 3613 C 335.136 -4.12789 -0.994507 0
M  V30 3614 O 336.16 -3.47814 -0.768357 0
M  V30 3615 O 335.019 -5.27649 -1.42299 0
M  V30 3616 H 332.113 -0.788478 -0.249461 0
M  V30 3617 H 334.659 -1.67855 0.249538 0
M  V30 3618 H 333.431 -3.90534 0.244722 0
M  V30 3619 H 333.054 -3.69909 -1.45785 0
M  V30 3620 N 334.051 0.0651679 -1.57465 0
M  V30 3621 C 335.276 0.779605 -1.9219 0
M  V30 3622 C 335.701 1.69988 -0.805333 0
M  V30 3623 O 335.059 1.79685 0.241435 0
M  V30 3624 C 335.107 1.54364 -3.2589 0
M  V30 3625 O 334.211 2.65474 -3.1559 0
M  V30 3626 H 333.552 0.212249 -0.629163 0
M  V30 3627 H 336.082 0.0314294 -2.04576 0
M  V30 3628 H 336.092 1.92146 -3.59922 0
M  V30 3629 H 334.767 0.868457 -4.06732 0
M  V30 3630 H 333.344 2.30501 -2.93128 0
M  V30 3631 N 335.529 1.53961 0.336706 0
M  V30 3632 C 336.759 1.75229 1.09446 0
M  V30 3633 C 337.167 0.494602 1.82621 0
M  V30 3634 O 336.51 -0.543764 1.75468 0
M  V30 3635 C 336.572 2.88288 2.1478 0
M  V30 3636 C 336.236 4.27656 1.6112 0
M  V30 3637 C 337.233 5.08981 1.0599 0
M  V30 3638 C 334.918 4.74161 1.6576 0
M  V30 3639 C 336.912 6.34916 0.562129 0
M  V30 3640 C 334.599 6.00067 1.15595 0
M  V30 3641 C 335.597 6.80278 0.609147 0
M  V30 3642 O 335.285 8.03818 0.114999 0
M  V30 3643 H 335.017 0.588881 0.331956 0
M  V30 3644 H 337.571 2.01614 0.392566 0
M  V30 3645 H 335.801 2.57443 2.88548 0
M  V30 3646 H 337.49 2.97461 2.76174 0
M  V30 3647 H 338.256 4.74213 1.01722 0
M  V30 3648 H 334.135 4.11781 2.07261 0
M  V30 3649 H 337.679 6.9747 0.134668 0
M  V30 3650 H 333.576 6.3433 1.19566 0
M  V30 3651 H 334.344 8.18172 0.231651 0
M  V30 3652 N 337.007 -0.598083 1.45811 0
M  V30 3653 C 337.937 -1.71873 1.58057 0
M  V30 3654 C 338.918 -1.64533 0.431615 0
M  V30 3655 O 340.103 -1.82787 0.65595 0
M  V30 3656 C 337.233 -3.10495 1.55597 0
M  V30 3657 C 336.187 -3.32654 2.69305 0
M  V30 3658 C 335.513 -4.71646 2.51902 0
M  V30 3659 C 336.813 -3.21981 4.11248 0
M  V30 3660 H 338.507 -1.61881 2.51863 0
M  V30 3661 H 336.053 -0.777372 1.21214 0
M  V30 3662 H 338.006 -3.88699 1.6276 0
M  V30 3663 H 336.73 -3.2135 0.583255 0
M  V30 3664 H 335.389 -2.56843 2.61586 0
M  V30 3665 H 335.037 -4.79246 1.52748 0
M  V30 3666 H 334.737 -4.87426 3.2816 0
M  V30 3667 H 336.261 -5.52038 2.60933 0
M  V30 3668 H 337.675 -3.90049 4.20161 0
M  V30 3669 H 336.072 -3.49289 4.87972 0
M  V30 3670 H 337.142 -2.1928 4.32486 0
M  V30 3671 N 338.485 -1.33259 -0.841409 0
M  V30 3672 C 339.896 -1.22066 -1.41269 0
M  V30 3673 C 340.247 0.161479 -1.95534 0
M  V30 3674 O 339.372 1.06094 -1.88608 0
M  V30 3675 C 339.967 -2.20996 -2.568 0
M  V30 3676 C 338.526 -2.13649 -3.09888 0
M  V30 3677 C 337.673 -2.08623 -1.82679 0
M  V30 3678 H 340.624 -1.44895 -0.647395 0
M  V30 3679 H 340.645 -1.81621 -3.34356 0
M  V30 3680 H 340.157 -3.2158 -2.17274 0
M  V30 3681 H 338.258 -1.16359 -3.53965 0
M  V30 3682 H 338.371 -3.04079 -3.70234 0
M  V30 3683 H 336.735 -1.54061 -2.02824 0
M  V30 3684 H 337.518 -3.1101 -1.45353 0
M  V30 3685 N 339.963 1.05934 -1.16686 0
M  V30 3686 C 341.188 1.83029 -0.975455 0
M  V30 3687 C 341.613 1.82096 0.471452 0
M  V30 3688 O 340.971 1.22443 1.33706 0
M  V30 3689 C 341.019 3.27372 -1.51195 0
M  V30 3690 O 340.123 4.06054 -0.720701 0
M  V30 3691 H 339.464 0.566194 -0.346872 0
M  V30 3692 H 341.994 1.33541 -1.55009 0
M  V30 3693 H 342.004 3.78186 -1.53099 0
M  V30 3694 H 340.679 3.27366 -2.56523 0
M  V30 3695 H 339.256 3.64812 -0.772458 0
M  V30 3696 N 341.441 0.965919 1.2453 0
M  V30 3697 C 342.391 0.465731 2.23193 0
M  V30 3698 C 343.375 -0.451277 1.54442 0
M  V30 3699 O 344.567 -0.282489 1.74731 0
M  V30 3700 C 341.696 -0.244511 3.42428 0
M  V30 3701 C 340.782 0.691222 4.18429 0
M  V30 3702 N 341.173 1.82771 4.71623 0
M  V30 3703 C 339.471 0.501649 4.4317 0
M  V30 3704 C 340.172 2.41285 5.29298 0
M  V30 3705 N 339.148 1.69819 5.16394 0
M  V30 3706 H 342.95 1.33291 2.61937 0
M  V30 3707 H 340.464 0.824789 1.39896 0
M  V30 3708 H 342.461 -0.620056 4.12263 0
M  V30 3709 H 341.121 -1.10815 3.05205 0
M  V30 3710 H 342.132 2.20929 4.68413 0
M  V30 3711 H 338.809 -0.318177 4.16286 0
M  V30 3712 H 340.199 3.37181 5.8117 0
M  V30 3713 N 342.919 -1.39368 0.735821 0
M  V30 3714 C 344.335 -1.54204 0.411492 0
M  V30 3715 C 344.535 -1.70268 -1.07755 0
M  V30 3716 O 343.591 -1.70364 -1.86366 0
M  V30 3717 C 344.904 -2.75925 1.19523 0
M  V30 3718 C 346.452 -2.89761 1.18354 0
M  V30 3719 C 346.927 -4.14421 1.94986 0
M  V30 3720 N 348.418 -4.21462 1.92156 0
M  V30 3721 C 349.153 -5.16871 2.48258 0
M  V30 3722 N 348.649 -6.18063 3.13001 0
M  V30 3723 N 350.442 -5.09093 2.38287 0
M  V30 3724 H 342.593 -1.27189 1.70108 0
M  V30 3725 H 344.856 -0.616517 0.720147 0
M  V30 3726 H 344.562 -2.70401 2.24892 0
M  V30 3727 H 344.436 -3.68614 0.800222 0
M  V30 3728 H 346.823 -2.94777 0.137975 0
M  V30 3729 H 346.904 -1.98133 1.61793 0
M  V30 3730 H 346.548 -4.10166 2.99543 0
M  V30 3731 H 346.478 -5.05095 1.48953 0
M  V30 3732 H 348.969 -3.48979 1.44991 0
M  V30 3733 H 349.282 -6.87326 3.53275 0
M  V30 3734 H 347.627 -6.18448 3.17091 0
M  V30 3735 H 350.818 -4.28973 1.8735 0
M  V30 3736 H 350.991 -5.83272 2.82308 0
M  V30 3737 N 344.397 -0.483516 -1.5 0
M  V30 3738 C 345.307 0.309172 -2.32554 0
M  V30 3739 C 346.323 0.984159 -1.43493 0
M  V30 3740 O 347.499 0.969399 -1.76535 0
M  V30 3741 C 344.564 1.36979 -3.18493 0
M  V30 3742 C 343.625 0.710095 -4.23387 0
M  V30 3743 C 342.858 1.72018 -5.05218 0
M  V30 3744 O 343.081 2.94813 -4.88305 0
M  V30 3745 O 342.015 1.28515 -5.8802 0
M  V30 3746 H 345.841 -0.366064 -3.01486 0
M  V30 3747 H 343.426 -0.24514 -1.47375 0
M  V30 3748 H 345.308 1.98385 -3.71781 0
M  V30 3749 H 343.983 2.02828 -2.52275 0
M  V30 3750 H 342.89 0.0567539 -3.74057 0
M  V30 3751 H 344.223 0.0943557 -4.9211 0
M  V30 3752 N 345.875 1.56104 -0.216619 0
M  V30 3753 C 346.823 2.21434 0.712036 0
M  V30 3754 C 347.817 1.19218 1.20348 0
M  V30 3755 O 349.023 1.3731 1.16387 0
M  V30 3756 H 345.398 0.70992 0.248026 0
M  V30 3757 H 347.369 2.98083 0.137558 0
M  V30 3758 C 346.118 2.90434 1.91163 0
M  V30 3759 H 345.441 3.68842 1.54258 0
M  V30 3760 H 346.881 3.39552 2.5393 0
M  V30 3761 C 345.34 1.92635 2.76394 0
M  V30 3762 O 345.87 1.44017 3.74996 0
M  V30 3763 N 344.076 1.60392 2.42328 0
M  V30 3764 H 343.623 2.00122 1.622 0
M  V30 3765 H 343.581 0.952159 2.99635 0
M  V30 3766 N 347.353 -0.0568162 1.57498 0
M  V30 3767 C 348.263 -1.08346 2.08083 0
M  V30 3768 C 349.279 -1.41439 1.01346 0
M  V30 3769 O 350.455 -1.51316 1.32912 0
M  V30 3770 C 347.52 -2.37352 2.52715 0
M  V30 3771 C 346.581 -2.11093 3.73816 0
M  V30 3772 C 345.814 -3.33949 4.1631 0
M  V30 3773 O 346.037 -4.43622 3.58547 0
M  V30 3774 O 344.971 -3.21279 5.08983 0
M  V30 3775 H 348.797 -0.683667 2.95905 0
M  V30 3776 H 346.382 -0.271965 1.46904 0
M  V30 3777 H 348.264 -3.13246 2.81877 0
M  V30 3778 H 346.939 -2.76681 1.68016 0
M  V30 3779 H 345.846 -1.32856 3.49714 0
M  V30 3780 H 347.179 -1.76637 4.59413 0
M  V30 3781 N 348.832 -1.54138 -0.328536 0
M  V30 3782 C 349.782 -1.79557 -1.4051 0
M  V30 3783 C 350.766 -0.651373 -1.47126 0
M  V30 3784 O 351.958 -0.911226 -1.51742 0
M  V30 3785 C 349.087 -2.02196 -2.77438 0
M  V30 3786 C 348.173 -3.22724 -2.75155 0
M  V30 3787 N 348.564 -4.43881 -2.42494 0
M  V30 3788 C 346.862 -3.24196 -3.06289 0
M  V30 3789 C 347.563 -5.25797 -2.48822 0
M  V30 3790 N 346.539 -4.62862 -2.8506 0
M  V30 3791 H 350.341 -2.70814 -1.1418 0
M  V30 3792 H 347.855 -1.53265 -0.536991 0
M  V30 3793 H 349.852 -2.18546 -3.55026 0
M  V30 3794 H 348.512 -1.12191 -3.04702 0
M  V30 3795 H 349.523 -4.70969 -2.15428 0
M  V30 3796 H 346.2 -2.44208 -3.38627 0
M  V30 3797 H 347.59 -6.32535 -2.26603 0
M  V30 3798 N 350.31 0.590341 -1.46126 0
M  V30 3799 C 351.558 1.34616 -1.50742 0
M  V30 3800 C 351.879 1.94363 -0.157486 0
M  V30 3801 O 351.149 1.78136 0.815136 0
M  V30 3802 H 349.729 0.499789 -0.555175 0
M  V30 3803 H 352.391 0.691953 -1.82203 0
M  V30 3804 H 351.487 2.15678 -2.25587 0
M  V30 3805 N 351.788 1.33704 0.83433 0
M  V30 3806 C 353.037 1.24763 1.58484 0
M  V30 3807 C 353.35 -0.183775 1.94735 0
M  V30 3808 O 354.556 -0.395234 2.68608 0
M  V30 3809 C 353.012 2.18638 2.85876 0
M  V30 3810 C 352.62 3.66974 2.56971 0
M  V30 3811 C 354.364 2.18581 3.63899 0
M  V30 3812 C 352.271 4.5275 3.80488 0
M  V30 3813 H 351.201 0.463425 0.594772 0
M  V30 3814 H 353.852 1.58797 0.919551 0
M  V30 3815 H 352.234 1.77542 3.5397 0
M  V30 3816 H 353.408 4.16538 1.9706 0
M  V30 3817 H 351.723 3.69366 1.92244 0
M  V30 3818 H 354.32 2.79894 4.55591 0
M  V30 3819 H 354.663 1.18207 3.99165 0
M  V30 3820 H 355.196 2.58062 3.02735 0
M  V30 3821 H 351.935 5.54017 3.5035 0
M  V30 3822 H 351.455 4.07927 4.39722 0
M  V30 3823 H 353.134 4.66784 4.4802 0
M  V30 3824 N 353.266 -1.05314 1.17247 0
M  V30 3825 C 354.512 -1.78557 0.961513 0
M  V30 3826 C 354.845 -1.87419 -0.508697 0
M  V30 3827 O 354.12 -1.37307 -1.37757 0
M  V30 3828 C 354.403 -3.22514 1.60176 0
M  V30 3829 C 354.256 -3.21673 3.14399 0
M  V30 3830 C 355.575 -4.20318 1.30463 0
M  V30 3831 H 352.694 -0.6482 0.350723 0
M  V30 3832 H 355.336 -1.23102 1.44727 0
M  V30 3833 H 353.486 -3.69867 1.18871 0
M  V30 3834 H 355.158 -2.82405 3.64753 0
M  V30 3835 H 353.401 -2.60048 3.47214 0
M  V30 3836 H 354.072 -4.23271 3.54324 0
M  V30 3837 H 356.548 -3.81454 1.66229 0
M  V30 3838 H 355.424 -5.19289 1.77848 0
M  V30 3839 H 355.685 -4.41526 0.22521 0
M  V30 3840 N 354.744 -0.972509 -1.24016 0
M  V30 3841 C 355.674 -0.525548 -2.27509 0
M  V30 3842 C 356.655 0.437262 -1.64384 0
M  V30 3843 O 357.84 0.332343 -1.91335 0
M  V30 3844 C 354.97 0.180448 -3.46831 0
M  V30 3845 C 353.924 -0.698859 -4.22256 0
M  V30 3846 C 353.25 0.138903 -5.3452 0
M  V30 3847 C 354.55 -1.98582 -4.83076 0
M  V30 3848 H 356.244 -1.39058 -2.65148 0
M  V30 3849 H 353.79 -0.67009 -1.27459 0
M  V30 3850 H 355.743 0.504387 -4.18371 0
M  V30 3851 H 354.467 1.07987 -3.08231 0
M  V30 3852 H 353.126 -1.00614 -3.52523 0
M  V30 3853 H 352.774 1.03862 -4.9216 0
M  V30 3854 H 352.474 -0.446259 -5.85903 0
M  V30 3855 H 353.998 0.457404 -6.08884 0
M  V30 3856 H 355.412 -1.72715 -5.46665 0
M  V30 3857 H 353.809 -2.5181 -5.44713 0
M  V30 3858 H 354.879 -2.67769 -4.04262 0
M  V30 3859 N 356.222 1.38976 -0.743202 0
M  V30 3860 C 357.45 2.04636 -0.30525 0
M  V30 3861 C 357.865 1.56044 1.06281 0
M  V30 3862 O 357.222 0.728921 1.67311 0
M  V30 3863 C 357.273 3.60193 -0.307177 0
M  V30 3864 O 356.994 4.06998 -1.62124 0
M  V30 3865 C 358.495 4.4306 0.145928 0
M  V30 3866 H 355.715 0.65788 -0.132041 0
M  V30 3867 H 358.259 1.77866 -1.00915 0
M  V30 3868 H 356.414 3.85835 0.347898 0
M  V30 3869 H 356.828 5.01371 -1.54036 0
M  V30 3870 H 358.302 5.51921 0.0934183 0
M  V30 3871 H 358.779 4.22706 1.19231 0
M  V30 3872 H 359.385 4.22584 -0.479886 0
M  V30 3873 N 357.7 0.491464 1.49741 0
M  V30 3874 C 359.116 0.146835 1.58923 0
M  V30 3875 C 359.316 -1.34804 1.49767 0
M  V30 3876 O 358.372 -2.12317 1.36667 0
M  V30 3877 C 359.685 0.715157 2.92072 0
M  V30 3878 C 361.233 0.680407 3.05515 0
M  V30 3879 C 361.708 1.22663 4.41269 0
M  V30 3880 N 363.199 1.18691 4.47735 0
M  V30 3881 C 363.934 1.57984 5.51207 0
M  V30 3882 N 363.43 2.04824 6.6183 0
M  V30 3883 N 365.223 1.49459 5.41866 0
M  V30 3884 H 357.374 1.46347 1.53936 0
M  V30 3885 H 359.637 0.606453 0.728642 0
M  V30 3886 H 359.343 1.76317 3.04311 0
M  V30 3887 H 359.217 0.17018 3.76816 0
M  V30 3888 H 361.604 -0.358743 2.92911 0
M  V30 3889 H 361.685 1.26242 2.22478 0
M  V30 3890 H 361.329 2.26451 4.54623 0
M  V30 3891 H 361.259 0.620637 5.2293 0
M  V30 3892 H 363.75 0.843605 3.68364 0
M  V30 3893 H 364.063 2.32901 7.3687 0
M  V30 3894 H 362.408 2.08791 6.62896 0
M  V30 3895 H 365.599 1.12692 4.54333 0
M  V30 3896 H 365.772 1.80406 6.22381 0
M  V30 3897 N 359.178 -1.55987 0.224894 0
M  V30 3898 C 360.455 -1.90232 -0.455083 0
M  V30 3899 C 360.835 -1.14269 -1.77499 0
M  V30 3900 O 360.183 -0.253079 -2.27094 0
M  V30 3901 C 360.393 -3.42993 -0.644758 0
M  V30 3902 C 361.741 -4.13821 -0.950669 0
M  V30 3903 O 362.765 -3.4861 -0.731423 0
M  V30 3904 O 361.624 -5.29128 -1.36695 0
M  V30 3905 H 358.718 -0.79108 -0.241084 0
M  V30 3906 H 361.264 -1.67581 0.267327 0
M  V30 3907 H 360.036 -3.90252 0.28613 0
M  V30 3908 H 359.659 -3.71434 -1.41853 0
M  V30 3909 N 360.656 0.0484629 -1.57525 0
M  V30 3910 C 361.902 0.744226 -1.88651 0
M  V30 3911 C 362.235 1.76029 -0.820212 0
M  V30 3912 O 361.51 1.93782 0.166985 0
M  V30 3913 C 361.793 1.43128 -3.30434 0
M  V30 3914 C 361.646 0.43005 -4.47739 0
M  V30 3915 C 362.965 2.37031 -3.70816 0
M  V30 3916 H 360.084 0.269089 -0.68612 0
M  V30 3917 H 362.726 0.00713532 -1.89999 0
M  V30 3918 H 360.876 2.05956 -3.29415 0
M  V30 3919 H 362.548 -0.194816 -4.60888 0
M  V30 3920 H 360.791 -0.252522 -4.33064 0
M  V30 3921 H 361.462 0.948874 -5.43783 0
M  V30 3922 H 363.938 1.84263 -3.73077 0
M  V30 3923 H 362.814 2.82094 -4.70865 0
M  V30 3924 H 363.075 3.22864 -3.02012 0
M  V30 3925 N 362.134 1.5431 0.320358 0
M  V30 3926 C 363.097 1.83195 1.3774 0
M  V30 3927 C 364.097 0.703906 1.44575 0
M  V30 3928 O 365.287 0.972214 1.44546 0
M  V30 3929 C 362.419 1.99487 2.76438 0
M  V30 3930 H 363.612 2.77642 1.1338 0
M  V30 3931 H 361.165 1.46076 0.556012 0
M  V30 3932 H 361.9 1.07262 3.06048 0
M  V30 3933 H 361.685 2.81575 2.7287 0
M  V30 3934 H 363.175 2.23271 3.52902 0
M  V30 3935 N 363.613 -0.582584 1.46437 0
M  V30 3936 C 364.862 -1.337 1.5102 0
M  V30 3937 C 365.175 -1.94891 0.166359 0
M  V30 3938 O 366.381 -2.71351 0.0899954 0
M  V30 3939 C 364.837 -2.42315 2.66104 0
M  V30 3940 C 364.445 -1.87427 4.06909 0
M  V30 3941 C 366.189 -3.19099 2.79958 0
M  V30 3942 C 364.096 -2.93672 5.13333 0
M  V30 3943 H 363.026 -0.502619 0.562041 0
M  V30 3944 H 365.677 -0.621701 1.72647 0
M  V30 3945 H 364.059 -3.16645 2.37807 0
M  V30 3946 H 365.233 -1.19639 4.44998 0
M  V30 3947 H 363.548 -1.2331 3.97723 0
M  V30 3948 H 366.145 -3.9839 3.56636 0
M  V30 3949 H 366.488 -3.71695 1.87479 0
M  V30 3950 H 367.021 -2.51875 3.07902 0
M  V30 3951 H 363.76 -2.45962 6.07604 0
M  V30 3952 H 363.28 -3.59948 4.79789 0
M  V30 3953 H 364.959 -3.5762 5.39182 0
M  V30 3954 N 365.091 -1.34144 -0.827227 0
M  V30 3955 C 366.038 -1.25364 -1.93785 0
M  V30 3956 C 367.008 -0.129774 -1.65592 0
M  V30 3957 O 368.193 -0.310024 -1.88264 0
M  V30 3958 C 365.333 -1.01064 -3.2997 0
M  V30 3959 C 364.446 -2.22185 -3.70484 0
M  V30 3960 C 363.581 -1.91203 -4.95595 0
M  V30 3961 C 362.62 -3.08491 -5.28677 0
M  V30 3962 N 361.757 -2.77421 -6.44967 0
M  V30 3963 H 366.597 -2.20347 -2.00627 0
M  V30 3964 H 364.134 -1.09558 -0.981608 0
M  V30 3965 H 366.092 -0.850139 -4.08446 0
M  V30 3966 H 364.722 -0.0975026 -3.22653 0
M  V30 3967 H 363.774 -2.4917 -2.87434 0
M  V30 3968 H 365.086 -3.0983 -3.90905 0
M  V30 3969 H 364.24 -1.71864 -5.81848 0
M  V30 3970 H 362.979 -1.00812 -4.77167 0
M  V30 3971 H 361.984 -3.28431 -4.40923 0
M  V30 3972 H 363.209 -3.99655 -5.49047 0
M  V30 3973 H 361.155 -1.89601 -6.28003 0
M  V30 3974 H 361.072 -3.58598 -6.6554 0
M  V30 3975 H 362.34 -2.61577 -7.34301 0
M  V30 3976 N 366.569 1.04691 -1.17803 0
M  V30 3977 C 367.499 2.14494 -0.92275 0
M  V30 3978 C 368.48 1.69546 0.137179 0
M  V30 3979 O 369.665 1.94195 -0.0141108 0
M  V30 3980 C 366.795 3.44491 -0.440803 0
M  V30 3981 C 365.749 4.03031 -1.4405 0
M  V30 3982 C 365.075 5.28432 -0.81631 0
M  V30 3983 C 366.375 4.39932 -2.81527 0
M  V30 3984 H 368.069 2.36107 -1.84103 0
M  V30 3985 H 365.615 1.1347 -0.886599 0
M  V30 3986 H 367.568 4.2066 -0.249602 0
M  V30 3987 H 366.292 3.22546 0.513025 0
M  V30 3988 H 364.951 3.28937 -1.61853 0
M  V30 3989 H 364.599 5.02792 0.144511 0
M  V30 3990 H 364.299 5.68559 -1.48371 0
M  V30 3991 H 365.823 6.07284 -0.635496 0
M  V30 3992 H 367.237 5.07113 -2.67412 0
M  V30 3993 H 365.634 4.9109 -3.44892 0
M  V30 3994 H 366.704 3.50045 -3.35554 0
M  V30 3995 N 368.047 0.979072 1.23499 0
M  V30 3996 C 369.293 0.648178 1.92163 0
M  V30 3997 C 369.626 -0.816049 1.76222 0
M  V30 3998 O 368.901 -1.58849 1.12237 0
M  V30 3999 C 369.184 1.03773 3.44824 0
M  V30 4000 C 369.037 2.55948 3.69879 0
M  V30 4001 C 370.356 0.580653 4.36253 0
M  V30 4002 H 367.475 0.236952 0.69787 0
M  V30 4003 H 370.117 1.22012 1.45647 0
M  V30 4004 H 368.267 0.551058 3.84572 0
M  V30 4005 H 369.939 3.12179 3.3962 0
M  V30 4006 H 368.182 2.98641 3.14636 0
M  V30 4007 H 368.853 2.78255 4.76737 0
M  V30 4008 H 371.329 0.998465 4.03943 0
M  V30 4009 H 370.205 0.881663 5.41773 0
M  V30 4010 H 370.466 -0.519052 4.39042 0
M  V30 4011 N 369.525 -1.3858 0.750561 0
M  V30 4012 C 370.75 -2.04997 0.314812 0
M  V30 4013 C 371.175 -1.56235 -1.04749 0
M  V30 4014 O 370.533 -0.712981 -1.66692 0
M  V30 4015 C 370.581 -3.58961 0.343415 0
M  V30 4016 O 369.685 -4.07025 -0.663628 0
M  V30 4017 H 369.026 -0.649081 0.139962 0
M  V30 4018 H 371.556 -1.77313 1.02084 0
M  V30 4019 H 371.566 -4.07542 0.193233 0
M  V30 4020 H 370.241 -3.93811 1.33738 0
M  V30 4021 H 368.818 -3.6982 -0.478307 0
M  V30 4022 N 371.003 -0.499398 -1.49478 0
M  V30 4023 C 371.933 0.269244 -2.31943 0
M  V30 4024 C 372.914 0.964054 -1.40143 0
M  V30 4025 O 374.099 0.955767 -1.69052 0
M  V30 4026 C 371.229 1.33504 -3.20615 0
M  V30 4027 C 370.183 0.760202 -4.21195 0
M  V30 4028 C 369.509 1.9264 -4.98792 0
M  V30 4029 C 370.809 -0.247661 -5.21712 0
M  V30 4030 H 372.503 -0.419082 -2.96452 0
M  V30 4031 H 370.049 -0.202988 -1.42562 0
M  V30 4032 H 372.002 1.88048 -3.77115 0
M  V30 4033 H 370.726 2.05253 -2.54045 0
M  V30 4034 H 369.385 0.23653 -3.65836 0
M  V30 4035 H 369.033 2.63154 -4.28671 0
M  V30 4036 H 368.733 1.54785 -5.66847 0
M  V30 4037 H 370.257 2.4762 -5.58137 0
M  V30 4038 H 371.671 0.209579 -5.72917 0
M  V30 4039 H 370.068 -0.541962 -5.97648 0
M  V30 4040 H 371.138 -1.16409 -4.7072 0
M  V30 4041 N 372.481 1.55866 -0.233164 0
M  V30 4042 C 373.711 2.02704 0.399325 0
M  V30 4043 C 374.119 1.11204 1.53069 0
M  V30 4044 O 373.462 0.116182 1.83332 0
M  V30 4045 C 373.524 3.45844 0.981429 0
M  V30 4046 C 373.188 4.56997 -0.0159561 0
M  V30 4047 C 374.185 5.13384 -0.820552 0
M  V30 4048 C 371.87 5.0211 -0.138072 0
M  V30 4049 C 373.864 6.13365 -1.73386 0
M  V30 4050 C 371.551 6.01926 -1.0549 0
M  V30 4051 C 372.549 6.57431 -1.85132 0
M  V30 4052 O 372.237 7.55302 -2.75272 0
M  V30 4053 H 371.969 0.668459 0.100692 0
M  V30 4054 H 374.523 2.02387 -0.35052 0
M  V30 4055 H 372.753 3.43267 1.78058 0
M  V30 4056 H 374.442 3.76262 1.52255 0
M  V30 4057 H 375.208 4.79372 -0.736721 0
M  V30 4058 H 371.087 4.5858 0.471737 0
M  V30 4059 H 374.631 6.56614 -2.35592 0
M  V30 4060 H 370.528 6.35359 -1.1397 0
M  V30 4061 H 371.296 7.72867 -2.69477 0
M  V30 4062 N 373.959 -0.0401083 1.57549 0
M  V30 4063 C 375.206 -0.733125 1.88763 0
M  V30 4064 C 375.534 -1.75946 0.829058 0
M  V30 4065 O 374.789 -1.94949 -0.171323 0
M  V30 4066 C 375.088 -1.44902 3.26708 0
M  V30 4067 C 374.754 -0.559707 4.47413 0
M  V30 4068 C 373.416 -0.314731 4.8017 0
M  V30 4069 C 375.768 0.0549743 5.21171 0
M  V30 4070 C 373.096 0.553886 5.8408 0
M  V30 4071 C 375.448 0.911229 6.26003 0
M  V30 4072 C 374.112 1.16577 6.57241 0
M  V30 4073 H 373.382 -0.268269 0.690733 0
M  V30 4074 H 376.029 0.00679408 1.91499 0
M  V30 4075 H 374.334 -2.26197 3.1991 0
M  V30 4076 H 376.031 -1.99058 3.48105 0
M  V30 4077 H 372.621 -0.760793 4.21794 0
M  V30 4078 H 376.805 -0.121344 4.96152 0
M  V30 4079 H 372.061 0.759518 6.06664 0
M  V30 4080 H 376.235 1.3941 6.82303 0
M  V30 4081 H 373.862 1.84058 7.37582 0
M  V30 4082 N 375.437 -1.54477 -0.31217 0
M  V30 4083 C 376.665 -1.77205 -1.068 0
M  V30 4084 C 377.08 -0.526114 -1.81321 0
M  V30 4085 O 376.437 0.503647 -1.75413 0
M  V30 4086 C 376.488 -2.97253 -2.05725 0
M  V30 4087 O 376.209 -4.1703 -1.34228 0
M  V30 4088 C 377.71 -3.32281 -2.93435 0
M  V30 4089 H 374.93 -0.591287 -0.317208 0
M  V30 4090 H 377.474 -2.01398 -0.354834 0
M  V30 4091 H 375.629 -2.753 -2.72559 0
M  V30 4092 H 376.043 -4.84636 -2.00571 0
M  V30 4093 H 377.517 -4.19551 -3.58721 0
M  V30 4094 H 377.994 -2.49945 -3.61143 0
M  V30 4095 H 378.6 -3.56353 -2.32147 0
M  V30 4096 N 376.915 0.57481 -1.46744 0
M  V30 4097 C 377.862 1.68329 -1.57905 0
M  V30 4098 C 378.832 1.60625 -0.422927 0
M  V30 4099 O 380.017 1.79721 -0.640711 0
M  V30 4100 C 377.157 3.06665 -1.58274 0
M  V30 4101 C 376.27 3.24935 -2.84678 0
M  V30 4102 C 375.405 4.53566 -2.76499 0
M  V30 4103 C 374.444 4.65207 -3.97806 0
M  V30 4104 N 373.581 5.85172 -3.87967 0
M  V30 4105 H 378.421 1.58127 -2.52587 0
M  V30 4106 H 375.958 0.770552 -1.25303 0
M  V30 4107 H 377.916 3.86745 -1.56473 0
M  V30 4108 H 376.546 3.15745 -0.671194 0
M  V30 4109 H 375.598 2.38405 -2.96424 0
M  V30 4110 H 376.91 3.29403 -3.7456 0
M  V30 4111 H 376.064 5.41885 -2.72848 0
M  V30 4112 H 374.803 4.51548 -1.8427 0
M  V30 4113 H 373.808 3.75304 -4.0178 0
M  V30 4114 H 375.033 4.68997 -4.9114 0
M  V30 4115 H 372.979 5.84137 -2.98529 0
M  V30 4116 H 372.896 5.90943 -4.71511 0
M  V30 4117 H 374.164 6.759 -3.88303 0
M  V30 4118 N 378.394 1.34581 0.820102 0
M  V30 4119 C 379.671 1.17675 1.56244 0
M  V30 4120 C 380.051 -0.249541 2.0962 0
M  V30 4121 O 379.399 -1.25125 1.91196 0
M  V30 4122 C 379.609 2.23364 2.6816 0
M  V30 4123 C 380.957 2.58485 3.36854 0
M  V30 4124 O 381.981 2.22175 2.78418 0
M  V30 4125 O 380.84 3.20868 4.42386 0
M  V30 4126 H 377.934 0.456333 0.689702 0
M  V30 4127 H 380.48 1.46222 0.861231 0
M  V30 4128 H 379.252 3.19087 2.26493 0
M  V30 4129 H 378.875 1.96009 3.45928 0
M  V30 4130 N 379.872 -1.04064 1.18357 0
M  V30 4131 C 380.782 -2.15569 0.925596 0
M  V30 4132 C 381.798 -1.7365 -0.110295 0
M  V30 4133 O 382.974 -2.01273 0.0716218 0
M  V30 4134 C 380.039 -3.43704 0.454836 0
M  V30 4135 C 379.1 -4.00004 1.55869 0
M  V30 4136 C 378.333 -5.22023 1.1103 0
M  V30 4137 O 378.556 -5.70392 -0.0309756 0
M  V30 4138 O 377.49 -5.70856 1.90805 0
M  V30 4139 H 381.316 -2.40187 1.8586 0
M  V30 4140 H 378.901 -1.1402 0.965394 0
M  V30 4141 H 380.783 -4.20923 0.200382 0
M  V30 4142 H 379.458 -3.20559 -0.449876 0
M  V30 4143 H 378.365 -3.24172 1.86716 0
M  V30 4144 H 379.698 -4.2749 2.43953 0
M  V30 4145 N 381.35 -0.985608 -1.22978 0
M  V30 4146 C 382.313 -0.535071 -2.22867 0
M  V30 4147 C 383.313 0.378123 -1.56291 0
M  V30 4148 O 384.503 0.171092 -1.73358 0
M  V30 4149 C 381.635 0.222702 -3.40172 0
M  V30 4150 H 382.828 -1.41835 -2.6424 0
M  V30 4151 H 380.381 -0.772042 -1.35901 0
M  V30 4152 H 381.116 1.12229 -3.04262 0
M  V30 4153 H 380.901 -0.43288 -3.89703 0
M  V30 4154 H 382.391 0.526335 -4.1427 0
M  V30 4155 N 382.828 1.3818 -0.7579 0
M  V30 4156 C 383.758 2.33027 -0.148597 0
M  V30 4157 C 384.739 1.55085 0.69875 0
M  V30 4158 O 385.924 1.83384 0.639053 0
M  V30 4159 C 383.054 3.3928 0.742034 0
M  V30 4160 C 382.008 4.28 -0.00291946 0
M  V30 4161 C 381.334 5.25146 1.00625 0
M  V30 4162 C 382.634 5.08938 -1.17385 0
M  V30 4163 H 384.328 2.84231 -0.940909 0
M  V30 4164 H 381.874 1.36659 -0.453908 0
M  V30 4165 H 383.827 4.046 1.17799 0
M  V30 4166 H 382.551 2.86569 1.56671 0
M  V30 4167 H 381.21 3.64192 -0.419504 0
M  V30 4168 H 380.858 4.68721 1.8251 0
M  V30 4169 H 380.558 5.85361 0.512428 0
M  V30 4170 H 382.082 5.93342 1.44143 0
M  V30 4171 H 383.496 5.67474 -0.815224 0
M  V30 4172 H 381.893 5.7841 -1.59882 0
M  V30 4173 H 382.963 4.42424 -1.98468 0
M  V30 4174 N 384.306 0.507319 1.49211 0
M  V30 4175 C 385.717 0.0611118 1.866 0
M  V30 4176 C 386.068 -1.35488 1.41907 0
M  V30 4177 O 385.193 -2.0108 0.799726 0
M  V30 4178 C 385.788 0.104125 3.3864 0
M  V30 4179 C 384.347 -0.28677 3.75306 0
M  V30 4180 C 383.494 0.473893 2.73221 0
M  V30 4181 H 386.445 0.719775 1.41439 0
M  V30 4182 H 386.466 -0.689672 3.74198 0
M  V30 4183 H 385.978 1.13482 3.71138 0
M  V30 4184 H 384.079 -1.32046 3.48417 0
M  V30 4185 H 384.192 0.0370745 4.79086 0
M  V30 4186 H 382.556 -0.0770644 2.54583 0
M  V30 4187 H 383.339 1.50478 3.08563 0
M  V30 4188 N 385.784 -1.5574 0.241426 0
M  V30 4189 C 387.03 -1.99846 -0.378555 0
M  V30 4190 C 387.385 -1.12665 -1.55963 0
M  V30 4191 O 386.678 -0.180966 -1.90743 0
M  V30 4192 C 386.872 -3.47308 -0.843317 0
M  V30 4193 C 386.701 -4.48756 0.291178 0
M  V30 4194 C 385.471 -4.9949 0.764077 0
M  V30 4195 C 387.669 -5.02039 1.11631 0
M  V30 4196 N 385.651 -5.84676 1.87156 0
M  V30 4197 C 387.022 -5.84343 2.07226 0
M  V30 4198 C 389.077 -4.84354 1.15349 0
M  V30 4199 C 387.78 -6.50851 3.06245 0
M  V30 4200 C 389.806 -5.51636 2.13195 0
M  V30 4201 C 389.168 -6.33724 3.07528 0
M  V30 4202 H 385.267 -0.774968 -0.104634 0
M  V30 4203 H 387.851 -1.91385 0.357751 0
M  V30 4204 H 386.022 -3.56178 -1.54893 0
M  V30 4205 H 387.754 -3.78299 -1.43779 0
M  V30 4206 H 384.509 -4.72311 0.349175 0
M  V30 4207 H 384.933 -6.31967 2.42789 0
M  V30 4208 H 389.575 -4.20525 0.438057 0
M  V30 4209 H 387.293 -7.1385 3.78739 0
M  V30 4210 H 390.879 -5.39909 2.16771 0
M  V30 4211 H 389.759 -6.84867 3.82003 0
M  V30 4212 N 387.262 0.0317525 -1.57568 0
M  V30 4213 C 388.225 1.01783 -2.0536 0
M  V30 4214 C 389.225 1.29203 -0.957253 0
M  V30 4215 O 390.415 1.24251 -1.22095 0
M  V30 4216 C 387.547 2.35137 -2.46827 0
M  V30 4217 H 388.74 0.605062 -2.93733 0
M  V30 4218 H 386.293 0.278514 -1.53799 0
M  V30 4219 H 387.028 2.81168 -1.61602 0
M  V30 4220 H 386.813 2.16566 -3.26866 0
M  V30 4221 H 388.303 3.05938 -2.84239 0
M  V30 4222 N 388.74 1.54641 0.303973 0
M  V30 4223 C 389.673 1.80263 1.3993 0
M  V30 4224 C 390.651 0.653657 1.48883 0
M  V30 4225 O 391.835 0.893284 1.6599 0
M  V30 4226 C 388.962 1.9367 2.77866 0
M  V30 4227 C 388.008 3.16078 2.86351 0
M  V30 4228 S 388.841 4.74219 2.4875 0
M  V30 4229 C 389.997 4.90558 3.88721 0
M  V30 4230 H 390.23 2.72886 1.17986 0
M  V30 4231 H 387.763 1.46014 0.501918 0
M  V30 4232 H 389.721 2.0208 3.57315 0
M  V30 4233 H 388.382 1.01991 2.9708 0
M  V30 4234 H 387.575 3.22252 3.87517 0
M  V30 4235 H 387.177 3.06099 2.14893 0
M  V30 4236 H 389.469 4.74398 4.83687 0
M  V30 4237 H 390.412 5.92651 3.87518 0
M  V30 4238 H 390.82 4.18728 3.78585 0
M  V30 4239 N 390.218 -0.567019 1.47046 0
M  V30 4240 C 391.634 -0.891975 1.32348 0
M  V30 4241 C 391.834 -1.99154 0.306616 0
M  V30 4242 O 390.89 -2.50883 -0.28532 0
M  V30 4243 C 392.203 -1.29449 2.7141 0
M  V30 4244 C 393.751 -1.40646 2.79621 0
M  V30 4245 C 394.226 -1.84257 4.19301 0
M  V30 4246 N 395.717 -1.91424 4.21795 0
M  V30 4247 C 396.452 -2.26476 5.26779 0
M  V30 4248 N 395.948 -2.60211 6.42077 0
M  V30 4249 N 397.741 -2.27166 5.14152 0
M  V30 4250 H 389.892 0.159074 2.11803 0
M  V30 4251 H 392.155 0.00849752 0.947962 0
M  V30 4252 H 391.861 -0.560448 3.47206 0
M  V30 4253 H 391.735 -2.25273 3.02542 0
M  V30 4254 H 394.122 -2.13133 2.04104 0
M  V30 4255 H 394.203 -0.430339 2.52154 0
M  V30 4256 H 393.847 -1.12343 4.95319 0
M  V30 4257 H 393.777 -2.82855 4.44185 0
M  V30 4258 H 396.268 -1.6778 3.38612 0
M  V30 4259 H 396.581 -2.85956 7.17948 0
M  V30 4260 H 394.926 -2.57813 6.45413 0
M  V30 4261 H 398.117 -2.00244 4.23107 0
M  V30 4262 H 398.29 -2.54154 5.96079 0
M  V30 4263 N 391.696 -1.35014 -0.812953 0
M  V30 4264 C 393.112 -1.14914 -1.10757 0
M  V30 4265 C 393.312 0.0426818 -2.01455 0
M  V30 4266 O 392.368 0.715212 -2.42159 0
M  V30 4267 C 393.681 -2.44911 -1.74468 0
M  V30 4268 C 395.229 -2.5106 -1.86917 0
M  V30 4269 C 395.704 -3.81085 -2.54044 0
M  V30 4270 N 397.195 -3.82301 -2.61535 0
M  V30 4271 C 397.93 -4.79634 -3.14227 0
M  V30 4272 N 397.426 -5.87353 -3.67407 0
M  V30 4273 N 399.219 -4.67078 -3.12721 0
M  V30 4274 H 391.37 -2.1136 -0.20989 0
M  V30 4275 H 393.633 -0.935128 -0.155692 0
M  V30 4276 H 393.339 -3.32267 -1.15289 0
M  V30 4277 H 393.213 -2.58989 -2.74234 0
M  V30 4278 H 395.6 -1.64137 -2.45241 0
M  V30 4279 H 395.681 -2.40901 -0.860242 0
M  V30 4280 H 395.325 -4.68402 -1.96372 0
M  V30 4281 H 395.255 -3.88529 -3.55461 0
M  V30 4282 H 397.746 -3.04465 -2.23851 0
M  V30 4283 H 398.059 -6.57624 -4.05894 0
M  V30 4284 H 396.404 -5.91054 -3.65623 0
M  V30 4285 H 399.595 -3.82067 -2.70449 0
M  V30 4286 H 399.768 -5.43098 -3.53481 0
M  V30 4287 N 393.175 1.03435 -1.18907 0
M  V30 4288 C 394.123 2.13703 -0.918353 0
M  V30 4289 C 395.117 1.68947 0.123767 0
M  V30 4290 O 396.323 1.79983 -0.0249701 0
M  V30 4291 H 392.698 0.698112 -0.279542 0
M  V30 4292 H 394.669 2.33731 -1.85506 0
M  V30 4293 C 393.418 3.44542 -0.467532 0
M  V30 4294 H 392.741 3.79394 -1.26095 0
M  V30 4295 H 394.181 4.22812 -0.317164 0
M  V30 4296 C 392.64 3.26829 0.817588 0
M  V30 4297 O 393.17 3.54975 1.88031 0
M  V30 4298 N 391.376 2.80139 0.772677 0
M  V30 4299 H 390.923 2.57434 -0.0923883 0
M  V30 4300 H 390.881 2.68668 1.63294 0
M  V30 4301 N 394.653 0.992116 1.22453 0
M  V30 4302 C 395.585 0.500024 2.23679 0
M  V30 4303 C 396.598 -0.404463 1.57696 0
M  V30 4304 O 397.787 -0.206722 1.77299 0
M  V30 4305 C 394.887 -0.294711 3.37616 0
M  V30 4306 C 394.06 0.605723 4.33186 0
M  V30 4307 C 393.119 -0.13717 5.26021 0
M  V30 4308 O 392.145 0.477164 5.67196 0
M  V30 4309 N 393.347 -1.4197 5.62872 0
M  V30 4310 H 396.112 1.37045 2.66531 0
M  V30 4311 H 393.673 0.866741 1.36745 0
M  V30 4312 H 395.665 -0.800329 3.96707 0
M  V30 4313 H 394.235 -1.06623 2.93854 0
M  V30 4314 H 393.455 1.29202 3.72425 0
M  V30 4315 H 394.743 1.21896 4.93983 0
M  V30 4316 H 394.141 -1.94015 5.31389 0
M  V30 4317 H 392.698 -1.87052 6.24383 0
M  V30 4318 N 396.131 -1.37776 0.765217 0
M  V30 4319 C 397.081 -2.2768 0.12075 0
M  V30 4320 C 398.065 -1.45778 -0.680988 0
M  V30 4321 O 399.257 -1.684 -0.545033 0
M  V30 4322 C 396.386 -3.34722 -0.762626 0
M  V30 4323 C 395.472 -4.24074 0.0465881 0
M  V30 4324 N 395.863 -4.93939 1.08892 0
M  V30 4325 C 394.161 -4.45643 -0.178418 0
M  V30 4326 C 394.862 -5.59845 1.57951 0
M  V30 4327 N 393.838 -5.36218 0.892797 0
M  V30 4328 H 397.64 -2.79166 0.918889 0
M  V30 4329 H 395.154 -1.50816 0.602353 0
M  V30 4330 H 397.151 -3.98031 -1.24005 0
M  V30 4331 H 395.811 -2.84793 -1.55959 0
M  V30 4332 H 396.822 -4.96572 1.47095 0
M  V30 4333 H 393.499 -4.06599 -0.9478 0
M  V30 4334 H 394.889 -6.25703 2.44838 0
M  V30 4335 N 397.609 -0.515225 -1.4894 0
M  V30 4336 C 398.542 0.302518 -2.26186 0
M  V30 4337 C 399.52 0.957895 -1.31389 0
M  V30 4338 O 400.704 0.985198 -1.60705 0
M  V30 4339 C 397.831 1.42719 -3.07163 0
M  V30 4340 C 396.877 0.884736 -4.17223 0
M  V30 4341 S 397.71 -0.235767 -5.34981 0
M  V30 4342 C 398.866 0.891731 -6.19515 0
M  V30 4343 H 399.099 -0.353076 -2.95196 0
M  V30 4344 H 396.632 -0.300753 -1.51443 0
M  V30 4345 H 398.59 2.07152 -3.54398 0
M  V30 4346 H 397.251 2.05445 -2.37595 0
M  V30 4347 H 396.444 1.72801 -4.73451 0
M  V30 4348 H 396.046 0.317362 -3.72651 0
M  V30 4349 H 398.338 1.79377 -6.53322 0
M  V30 4350 H 399.281 0.367751 -7.07144 0
M  V30 4351 H 399.689 1.16548 -5.52338 0
M  V30 4352 N 399.087 1.5561 -0.249682 0
M  V30 4353 C 400.498 1.84979 0.252949 0
M  V30 4354 C 400.849 1.17153 1.57384 0
M  V30 4355 O 399.974 0.450884 2.11651 0
M  V30 4356 C 400.569 3.35584 0.465732 0
M  V30 4357 C 399.128 3.65169 0.912624 0
M  V30 4358 C 398.275 2.77299 -0.00859085 0
M  V30 4359 H 401.226 1.51513 -0.47217 0
M  V30 4360 H 401.247 3.57313 1.30795 0
M  V30 4361 H 400.759 3.8492 -0.49579 0
M  V30 4362 H 398.86 3.21312 1.88652 0
M  V30 4363 H 398.973 4.72912 0.767559 0
M  V30 4364 H 397.337 2.49678 0.50327 0
M  V30 4365 H 398.12 3.29442 -0.965537 0
M  V30 4366 N 400.565 -0.0233959 1.57583 0
M  V30 4367 C 401.495 -1.02162 2.09965 0
M  V30 4368 C 402.476 -1.3735 1.00344 0
M  V30 4369 O 403.661 -1.46135 1.27899 0
M  V30 4370 C 400.791 -2.32081 2.58371 0
M  V30 4371 C 399.745 -2.1112 3.72307 0
M  V30 4372 C 399.071 -3.46848 4.06941 0
M  V30 4373 C 400.371 -1.49276 5.00514 0
M  V30 4374 H 402.065 -0.585557 2.93618 0
M  V30 4375 H 399.611 -0.280218 1.41247 0
M  V30 4376 H 401.564 -3.02249 2.93639 0
M  V30 4377 H 400.288 -2.77758 1.71808 0
M  V30 4378 H 398.947 -1.43384 3.37397 0
M  V30 4379 H 398.595 -3.90184 3.17436 0
M  V30 4380 H 398.295 -3.33646 4.83688 0
M  V30 4381 H 399.819 -4.18369 4.44747 0
M  V30 4382 H 401.233 -2.09368 5.33702 0
M  V30 4383 H 399.63 -1.46632 5.8191 0
M  V30 4384 H 400.7 -0.459217 4.82721 0
M  V30 4385 N 402.043 -1.548 -0.295768 0
M  V30 4386 C 402.953 -1.89177 -1.38742 0
M  V30 4387 C 403.969 -0.786481 -1.55211 0
M  V30 4388 O 405.145 -1.08344 -1.69775 0
M  V30 4389 C 402.21 -2.13663 -2.73036 0
M  V30 4390 C 401.271 -3.37349 -2.65508 0
M  V30 4391 C 400.504 -3.60658 -3.93398 0
M  V30 4392 O 400.727 -2.86882 -4.93006 0
M  V30 4393 O 399.661 -4.54179 -3.94975 0
M  V30 4394 H 403.487 -2.82059 -1.12589 0
M  V30 4395 H 401.072 -1.41056 -0.492295 0
M  V30 4396 H 402.954 -2.3094 -3.52484 0
M  V30 4397 H 401.629 -1.23967 -2.99022 0
M  V30 4398 H 400.536 -3.25431 -1.84514 0
M  V30 4399 H 401.869 -4.27192 -2.44474 0
M  V30 4400 N 403.521 0.559213 -1.47345 0
M  V30 4401 C 404.746 1.34676 -1.57725 0
M  V30 4402 C 405.171 1.86723 -0.227164 0
M  V30 4403 O 404.529 1.6286 0.796642 0
M  V30 4404 C 404.577 2.49399 -2.60447 0
M  V30 4405 O 403.681 3.51567 -2.15578 0
M  V30 4406 H 403.022 0.400115 -0.52991 0
M  V30 4407 H 405.552 0.676009 -1.93109 0
M  V30 4408 H 405.562 2.95996 -2.80803 0
M  V30 4409 H 404.237 2.10873 -3.58477 0
M  V30 4410 H 402.814 3.11289 -2.05313 0
M  V30 4411 N 404.999 1.35443 0.805782 0
M  V30 4412 C 406.415 1.15499 1.10146 0
M  V30 4413 C 406.615 -0.0319975 2.01475 0
M  V30 4414 O 405.671 -0.70236 2.42535 0
M  V30 4415 C 406.984 2.45833 1.73166 0
M  V30 4416 C 408.532 2.52047 1.85583 0
M  V30 4417 C 409.007 3.82427 2.52019 0
M  V30 4418 N 410.498 3.83682 2.59504 0
M  V30 4419 C 411.233 4.81294 3.11679 0
M  V30 4420 N 410.729 5.89294 3.64287 0
M  V30 4421 N 412.522 4.6873 3.1024 0
M  V30 4422 H 404.673 2.11469 0.198678 0
M  V30 4423 H 406.936 0.93594 0.150731 0
M  V30 4424 H 406.642 3.32874 1.13526 0
M  V30 4425 H 406.516 2.6044 2.72857 0
M  V30 4426 H 408.903 1.65435 2.44367 0
M  V30 4427 H 408.984 2.41354 0.847455 0
M  V30 4428 H 408.628 4.69437 1.93885 0
M  V30 4429 H 408.558 3.90409 3.53395 0
M  V30 4430 H 411.049 3.05648 2.22234 0
M  V30 4431 H 411.362 6.59768 4.02401 0
M  V30 4432 H 409.707 5.92985 3.62483 0
M  V30 4433 H 412.898 3.83496 2.68419 0
M  V30 4434 H 413.071 5.44965 3.50596 0
M  V30 4435 N 406.477 -1.02803 1.19454 0
M  V30 4436 C 407.427 -2.0945 0.900827 0
M  V30 4437 C 408.411 -1.60335 -0.134715 0
M  V30 4438 O 409.603 -1.76857 0.0710924 0
M  V30 4439 C 406.732 -3.4044 0.442229 0
M  V30 4440 C 405.818 -3.96286 1.51056 0
M  V30 4441 N 406.209 -4.25785 2.73021 0
M  V30 4442 C 404.507 -4.24307 1.37404 0
M  V30 4443 C 405.208 -4.70654 3.41848 0
M  V30 4444 N 404.184 -4.72238 2.69243 0
M  V30 4445 H 407.986 -2.3015 1.82779 0
M  V30 4446 H 405.5 -1.20672 1.08683 0
M  V30 4447 H 407.497 -4.16354 0.21326 0
M  V30 4448 H 406.157 -3.21159 -0.478238 0
M  V30 4449 H 407.168 -4.15041 3.09776 0
M  V30 4450 H 403.845 -4.14285 0.517103 0
M  V30 4451 H 405.235 -5.02392 4.46152 0
M  V30 4452 N 407.956 -0.998596 -1.21925 0
M  V30 4453 C 408.886 -0.573688 -2.26343 0
M  V30 4454 C 409.867 0.402296 -1.65274 0
M  V30 4455 O 411.052 0.291683 -1.91997 0
M  V30 4456 C 408.182 0.106839 -3.47136 0
M  V30 4457 C 407.136 -0.788269 -4.20678 0
M  V30 4458 C 406.462 0.0254927 -5.34694 0
M  V30 4459 C 407.762 -2.08784 -4.78755 0
M  V30 4460 H 409.456 -1.44651 -2.62138 0
M  V30 4461 H 407.002 -0.696975 -1.26009 0
M  V30 4462 H 408.955 0.415531 -4.19346 0
M  V30 4463 H 407.679 1.01424 -3.10452 0
M  V30 4464 H 406.338 -1.08069 -3.50309 0
M  V30 4465 H 405.986 0.933989 -4.94253 0
M  V30 4466 H 405.686 -0.570437 -5.84825 0
M  V30 4467 H 407.21 0.328147 -6.09718 0
M  V30 4468 H 408.624 -1.84272 -5.42878 0
M  V30 4469 H 407.021 -2.63307 -5.39249 0
M  V30 4470 H 408.091 -2.76284 -3.98491 0
M  V30 4471 N 409.434 1.37368 -0.772513 0
M  V30 4472 C 410.681 1.99673 -0.337182 0
M  V30 4473 C 411.009 1.61324 1.0865 0
M  V30 4474 O 410.264 0.851377 1.7621 0
M  V30 4475 C 410.563 3.54817 -0.428876 0
M  V30 4476 C 410.229 4.12936 -1.81092 0
M  V30 4477 C 408.891 4.28523 -2.1891 0
M  V30 4478 C 411.243 4.44801 -2.71664 0
M  V30 4479 C 408.571 4.73277 -3.46735 0
M  V30 4480 C 410.923 4.90981 -3.98899 0
M  V30 4481 C 409.587 5.04773 -4.36761 0
M  V30 4482 H 408.857 0.730656 -0.123384 0
M  V30 4483 H 411.504 1.64124 -0.986686 0
M  V30 4484 H 409.809 3.90618 0.304167 0
M  V30 4485 H 411.506 4.00933 -0.0733334 0
M  V30 4486 H 408.096 4.01233 -1.50699 0
M  V30 4487 H 412.28 4.32344 -2.43706 0
M  V30 4488 H 407.536 4.82142 -3.75964 0
M  V30 4489 H 411.71 5.14603 -4.69208 0
M  V30 4490 H 409.337 5.39211 -5.35868 0
M  V30 4491 N 410.912 0.523116 1.48665 0
M  V30 4492 C 411.859 -0.243398 2.29513 0
M  V30 4493 C 412.829 -0.940139 1.36933 0
M  V30 4494 O 414.014 -0.942503 1.65896 0
M  V30 4495 C 411.154 -1.28855 3.20141 0
M  V30 4496 C 410.267 -0.60135 4.27794 0
M  V30 4497 C 409.402 -1.62884 5.05611 0
M  V30 4498 C 408.441 -0.924726 6.05075 0
M  V30 4499 N 407.578 -1.89744 6.75975 0
M  V30 4500 H 412.418 0.452234 2.94549 0
M  V30 4501 H 409.955 0.234858 1.45213 0
M  V30 4502 H 411.913 -1.90674 3.71079 0
M  V30 4503 H 410.543 -1.95266 2.57043 0
M  V30 4504 H 409.595 0.130623 3.80176 0
M  V30 4505 H 410.907 -0.0481585 4.98777 0
M  V30 4506 H 410.061 -2.32149 5.60528 0
M  V30 4507 H 408.8 -2.21592 4.34452 0
M  V30 4508 H 407.805 -0.217966 5.49368 0
M  V30 4509 H 409.03 -0.343851 6.78229 0
M  V30 4510 H 406.976 -2.47373 6.07571 0
M  V30 4511 H 406.893 -1.3955 7.43009 0
M  V30 4512 H 408.161 -2.58229 7.35485 0
M  V30 4513 N 412.39 -1.55475 0.257931 0
M  V30 4514 C 413.637 -1.99207 -0.363728 0
M  V30 4515 C 413.965 -1.1462 -1.57139 0
M  V30 4516 O 413.22 -0.199653 -1.94679 0
M  V30 4517 C 413.519 -3.48183 -0.806433 0
M  V30 4518 C 413.185 -4.49936 0.294684 0
M  V30 4519 C 411.847 -4.77481 0.597076 0
M  V30 4520 C 414.199 -5.10769 1.03751 0
M  V30 4521 C 411.527 -5.63132 1.64618 0
M  V30 4522 C 413.879 -5.97558 2.07622 0
M  V30 4523 C 412.543 -6.23432 2.38514 0
M  V30 4524 H 411.813 -0.728949 -0.133097 0
M  V30 4525 H 414.46 -1.8793 0.368059 0
M  V30 4526 H 412.765 -3.56848 -1.61761 0
M  V30 4527 H 414.462 -3.79415 -1.29789 0
M  V30 4528 H 411.052 -4.28572 0.0488649 0
M  V30 4529 H 415.236 -4.89527 0.817149 0
M  V30 4530 H 410.492 -5.8143 1.89074 0
M  V30 4531 H 414.666 -6.43735 2.65666 0
M  V30 4532 H 412.293 -6.89594 3.19943 0
M  V30 4533 N 413.868 0.0150385 -1.57593 0
M  V30 4534 C 415.114 0.704043 -1.90187 0
M  V30 4535 C 415.447 1.74249 -0.857366 0
M  V30 4536 O 414.722 1.94092 0.125843 0
M  V30 4537 C 415.005 1.36087 -3.33395 0
M  V30 4538 C 414.858 0.334981 -4.48551 0
M  V30 4539 C 416.177 2.29112 -3.7576 0
M  V30 4540 H 413.296 0.254475 -0.691673 0
M  V30 4541 H 415.938 -0.0331678 -1.89971 0
M  V30 4542 H 414.088 1.98922 -3.3371 0
M  V30 4543 H 415.76 -0.292534 -4.60372 0
M  V30 4544 H 414.003 -0.344325 -4.32431 0
M  V30 4545 H 414.674 0.833316 -5.45674 0
M  V30 4546 H 417.15 1.76308 -3.76902 0
M  V30 4547 H 416.026 2.72043 -4.76743 0
M  V30 4548 H 416.287 3.16385 -3.08793 0
M  V30 4549 N 415.346 1.54954 0.287554 0
M  V30 4550 C 416.294 1.87606 1.37502 0
M  V30 4551 C 417.288 0.751001 1.51843 0
M  V30 4552 O 418.494 0.935169 1.53801 0
M  V30 4553 H 414.869 0.595231 0.459569 0
M  V30 4554 H 416.84 2.78477 1.07206 0
M  V30 4555 C 415.589 2.15183 2.73115 0
M  V30 4556 H 414.912 3.01234 2.62866 0
M  V30 4557 H 416.352 2.4196 3.48183 0
M  V30 4558 C 414.811 0.954686 3.2309 0
M  V30 4559 O 415.341 0.181949 4.01288 0
M  V30 4560 N 413.547 0.756368 2.80584 0
M  V30 4561 H 413.094 1.38643 2.17108 0
M  V30 4562 H 413.052 -0.0430391 3.14371 0
M  V30 4563 N 416.824 -0.551391 1.4764 0
M  V30 4564 C 418.07 -1.30789 1.55774 0
M  V30 4565 C 418.425 -1.91143 0.219562 0
M  V30 4566 O 417.718 -1.7521 -0.775375 0
M  V30 4567 C 417.912 -2.43469 2.61644 0
M  V30 4568 C 417.741 -1.94157 4.05627 0
M  V30 4569 C 416.511 -1.77734 4.7301 0
M  V30 4570 C 418.709 -1.48262 4.92466 0
M  V30 4571 N 416.691 -1.22823 6.01488 0
M  V30 4572 C 418.062 -1.05156 6.11017 0
M  V30 4573 C 420.117 -1.36367 4.78862 0
M  V30 4574 C 418.82 -0.513357 7.17466 0
M  V30 4575 C 420.846 -0.839484 5.85411 0
M  V30 4576 C 420.208 -0.418377 7.03156 0
M  V30 4577 H 416.307 -0.470406 0.624694 0
M  V30 4578 H 418.891 -0.624331 1.84419 0
M  V30 4579 H 417.062 -3.09348 2.34859 0
M  V30 4580 H 418.794 -3.10477 2.59589 0
M  V30 4581 H 415.549 -2.00623 4.29007 0
M  V30 4582 H 415.973 -0.974393 6.69951 0
M  V30 4583 H 420.615 -1.67535 3.88191 0
M  V30 4584 H 418.333 -0.189318 8.07878 0
M  V30 4585 H 421.919 -0.750921 5.76934 0
M  V30 4586 H 420.799 -0.0190538 7.84198 0
M  V30 4587 N 418.302 -1.35869 -0.798587 0
M  V30 4588 C 419.527 -1.32883 -1.59238 0
M  V30 4589 C 419.952 0.0894587 -1.87887 0
M  V30 4590 O 419.31 1.05869 -1.47178 0
M  V30 4591 C 419.358 -2.14892 -2.89575 0
M  V30 4592 O 418.462 -1.53512 -3.82763 0
M  V30 4593 H 417.803 -0.455236 -0.48338 0
M  V30 4594 H 420.333 -1.79024 -0.990539 0
M  V30 4595 H 420.343 -2.27139 -3.38928 0
M  V30 4596 H 419.018 -3.17998 -2.68049 0
M  V30 4597 H 417.595 -1.50153 -3.41334 0
M  V30 4598 N 419.78 1.02168 -1.19998 0
M  V30 4599 C 421.029 1.75091 -1.0013 0
M  V30 4600 C 421.342 1.89923 0.467835 0
M  V30 4601 O 422.548 2.59888 0.785515 0
M  V30 4602 C 421.004 3.14892 -1.74273 0
M  V30 4603 C 420.612 3.0809 -3.25245 0
M  V30 4604 C 422.356 3.9206 -1.62755 0
M  V30 4605 C 420.263 4.42867 -3.91948 0
M  V30 4606 H 419.193 0.656394 -0.37103 0
M  V30 4607 H 421.844 1.14284 -1.43567 0
M  V30 4608 H 420.226 3.7621 -1.2362 0
M  V30 4609 H 421.4 2.5611 -3.83072 0
M  V30 4610 H 419.715 2.44416 -3.3712 0
M  V30 4611 H 422.312 4.91764 -2.09934 0
M  V30 4612 H 422.655 4.12199 -0.582894 0
M  V30 4613 H 423.188 3.37359 -2.10793 0
M  V30 4614 H 419.927 4.27931 -4.96543 0
M  V30 4615 H 419.447 4.94874 -3.3891 0
M  V30 4616 H 421.126 5.11728 -3.95909 0
M  V30 4617 N 421.258 1.00505 1.21394 0
M  V30 4618 C 422.188 0.585684 2.26035 0
M  V30 4619 C 423.169 -0.393525 1.65485 0
M  V30 4620 O 424.354 -0.281497 1.92149 0
M  V30 4621 C 421.484 -0.0884283 3.47187 0
M  V30 4622 C 420.438 0.810567 4.20254 0
M  V30 4623 C 419.764 0.00286382 5.347 0
M  V30 4624 C 421.064 2.1132 4.77641 0
M  V30 4625 H 422.758 1.46039 2.61368 0
M  V30 4626 H 420.304 0.703648 1.25638 0
M  V30 4627 H 422.257 -0.393286 4.19561 0
M  V30 4628 H 420.981 -0.997766 3.10986 0
M  V30 4629 H 419.64 1.09925 3.49731 0
M  V30 4630 H 419.288 -0.907765 4.94741 0
M  V30 4631 H 418.988 0.601444 5.84514 0
M  V30 4632 H 420.512 -0.295808 6.09883 0
M  V30 4633 H 421.926 1.87148 5.41893 0
M  V30 4634 H 420.323 2.66164 5.37845 0
M  V30 4635 H 421.393 2.78393 3.9702 0
M  V30 4636 N 422.737 -1.36956 0.779787 0
M  V30 4637 C 423.667 -2.32761 0.185651 0
M  V30 4638 C 424.648 -1.56177 -0.673989 0
M  V30 4639 O 425.833 -1.84378 -0.609797 0
M  V30 4640 C 422.963 -3.40418 -0.687964 0
M  V30 4641 C 421.917 -4.27941 0.0710102 0
M  V30 4642 C 421.243 -5.26681 -0.922573 0
M  V30 4643 C 422.543 -5.07006 1.25467 0
M  V30 4644 H 424.237 -2.82698 0.986008 0
M  V30 4645 H 421.783 -1.3592 0.475592 0
M  V30 4646 H 423.736 -4.06423 -1.11348 0
M  V30 4647 H 422.46 -2.89025 -1.52093 0
M  V30 4648 H 421.119 -3.63478 0.47739 0
M  V30 4649 H 420.767 -4.71565 -1.7503 0
M  V30 4650 H 420.467 -5.86103 -0.419237 0
M  V30 4651 H 421.991 -5.9556 -1.34686 0
M  V30 4652 H 423.405 -5.66105 0.905401 0
M  V30 4653 H 421.802 -5.75793 1.69063 0
M  V30 4654 H 422.872 -4.3921 2.05481 0
M  V30 4655 N 424.215 -0.530993 -1.48385 0
M  V30 4656 C 425.626 -0.0907905 -1.86479 0
M  V30 4657 C 425.977 1.33213 -1.44044 0
M  V30 4658 O 425.102 1.99783 -0.831615 0
M  V30 4659 C 425.697 -0.157987 -3.38431 0
M  V30 4660 C 424.256 0.227026 -3.75715 0
M  V30 4661 C 423.403 -0.5173 -2.72432 0
M  V30 4662 H 426.354 -0.742186 -1.40276 0
M  V30 4663 H 426.375 0.630053 -3.75247 0
M  V30 4664 H 425.887 -1.19372 -3.69286 0
M  V30 4665 H 423.988 1.26486 -3.50474 0
M  V30 4666 H 424.101 -0.113288 -4.78966 0
M  V30 4667 H 422.465 0.0365527 -2.54674 0
M  V30 4668 H 423.248 -1.55368 -3.0613 0
M  V30 4669 N 425.693 1.55336 -0.266172 0
M  V30 4670 C 426.603 2.2583 0.635458 0
M  V30 4671 C 427.619 1.28106 1.17749 0
M  V30 4672 O 428.795 1.61024 1.20968 0
M  V30 4673 C 425.86 2.95879 1.80712 0
M  V30 4674 C 424.921 4.09059 1.30265 0
M  V30 4675 C 424.154 4.75759 2.41846 0
M  V30 4676 O 424.377 4.41622 3.61007 0
M  V30 4677 O 423.311 5.63888 2.1051 0
M  V30 4678 H 427.137 3.03631 0.0646693 0
M  V30 4679 H 424.722 1.49361 -0.0339177 0
M  V30 4680 H 426.604 3.39932 2.49047 0
M  V30 4681 H 425.279 2.21002 2.36516 0
M  V30 4682 H 424.186 3.69482 0.586019 0
M  V30 4683 H 425.519 4.85811 0.790458 0
M  V30 4684 N 427.171 -0.0066808 1.57599 0
M  V30 4685 C 428.118 -1.00024 2.08 0
M  V30 4686 C 429.088 -1.34549 0.973943 0
M  V30 4687 O 430.273 -1.44502 1.24595 0
M  V30 4688 C 427.413 -2.2891 2.58252 0
M  V30 4689 C 426.526 -2.00346 3.82734 0
M  V30 4690 C 425.661 -3.23265 4.21513 0
M  V30 4691 C 424.7 -2.90357 5.3885 0
M  V30 4692 N 423.837 -4.05793 5.72954 0
M  V30 4693 H 428.677 -0.563499 2.92624 0
M  V30 4694 H 426.214 -0.266592 1.44664 0
M  V30 4695 H 428.172 -3.04247 2.85464 0
M  V30 4696 H 426.802 -2.70265 1.76512 0
M  V30 4697 H 425.854 -1.15406 3.62471 0
M  V30 4698 H 427.166 -1.72086 4.68175 0
M  V30 4699 H 426.32 -4.06953 4.49971 0
M  V30 4700 H 425.059 -3.54657 3.34768 0
M  V30 4701 H 424.064 -2.05075 5.10122 0
M  V30 4702 H 425.289 -2.60219 6.27266 0
M  V30 4703 H 423.235 -4.37094 4.89167 0
M  V30 4704 H 423.152 -3.81034 6.52954 0
M  V30 4705 H 424.42 -4.90289 6.06001 0
M  V30 4706 N 428.649 -1.55105 -0.279332 0
M  V30 4707 C 429.879 -1.7917 -1.02867 0
M  V30 4708 C 430.287 -0.56204 -1.80659 0
M  V30 4709 O 429.63 0.478266 -1.77365 0
M  V30 4710 C 429.692 -2.96061 -2.03932 0
M  V30 4711 C 429.356 -4.33341 -1.45137 0
M  V30 4712 C 430.353 -5.12565 -0.870266 0
M  V30 4713 C 428.038 -4.79987 -1.48048 0
M  V30 4714 C 430.032 -6.36565 -0.326097 0
M  V30 4715 C 427.719 -6.03944 -0.932443 0
M  V30 4716 C 428.717 -6.8207 -0.356247 0
M  V30 4717 O 428.405 -8.03691 0.183412 0
M  V30 4718 H 428.137 -0.600796 -0.309872 0
M  V30 4719 H 430.691 -2.02932 -0.317468 0
M  V30 4720 H 428.921 -2.67975 -2.78794 0
M  V30 4721 H 430.61 -3.07506 -2.64943 0
M  V30 4722 H 431.376 -4.77661 -0.840521 0
M  V30 4723 H 427.255 -4.1919 -1.91835 0
M  V30 4724 H 430.799 -6.97489 0.124286 0
M  V30 4725 H 426.696 -6.3833 -0.959407 0
M  V30 4726 H 427.464 -8.18468 0.0721681 0
M  V30 4727 N 430.127 0.543554 -1.4793 0
M  V30 4728 C 431.543 0.870806 -1.3375 0
M  V30 4729 C 431.743 1.9864 -0.338261 0
M  V30 4730 O 430.799 2.51305 0.245371 0
M  V30 4731 C 432.112 1.25114 -2.73435 0
M  V30 4732 C 433.66 1.3618 -2.81823 0
M  V30 4733 C 434.135 1.77563 -4.22179 0
M  V30 4734 N 435.626 1.8469 -4.24787 0
M  V30 4735 C 436.361 2.18067 -5.30315 0
M  V30 4736 N 435.857 2.49963 -6.46135 0
M  V30 4737 N 437.65 2.18958 -5.17701 0
M  V30 4738 H 429.801 -0.19275 -2.11524 0
M  V30 4739 H 432.064 -0.0235777 -0.947707 0
M  V30 4740 H 431.77 0.50514 -3.48053 0
M  V30 4741 H 431.644 2.20431 -3.06088 0
M  V30 4742 H 434.031 2.09859 -2.07468 0
M  V30 4743 H 434.112 0.390169 -2.52807 0
M  V30 4744 H 433.756 1.04449 -4.97044 0
M  V30 4745 H 433.686 2.75753 -4.48629 0
M  V30 4746 H 436.177 1.62372 -3.41239 0
M  V30 4747 H 436.49 2.74497 -7.22406 0
M  V30 4748 H 434.835 2.47513 -6.49432 0
M  V30 4749 H 438.026 1.93488 -4.2624 0
M  V30 4750 H 438.199 2.44639 -6.00047 0
M  V30 4751 N 431.605 1.3629 0.791371 0
M  V30 4752 C 432.552 1.30458 1.90393 0
M  V30 4753 C 433.522 0.173632 1.6519 0
M  V30 4754 O 434.707 0.35983 1.87376 0
M  V30 4755 C 431.847 1.09777 3.27174 0
M  V30 4756 C 430.96 2.31929 3.64462 0
M  V30 4757 C 430.095 2.04276 4.90352 0
M  V30 4758 C 429.134 3.224 5.20312 0
M  V30 4759 N 428.271 2.94424 6.37385 0
M  V30 4760 H 433.111 2.25589 1.94714 0
M  V30 4761 H 430.648 1.12122 0.952216 0
M  V30 4762 H 432.606 0.958133 4.06049 0
M  V30 4763 H 431.236 0.183014 3.22281 0
M  V30 4764 H 430.288 2.56703 2.80727 0
M  V30 4765 H 431.6 3.20085 3.82553 0
M  V30 4766 H 430.754 1.87231 5.77087 0
M  V30 4767 H 429.493 1.13428 4.74326 0
M  V30 4768 H 428.498 3.40005 4.32061 0
M  V30 4769 H 429.723 4.14071 5.38258 0
M  V30 4770 H 427.669 2.06185 6.22755 0
M  V30 4771 H 427.586 3.76118 6.55798 0
M  V30 4772 H 428.854 2.80953 7.27108 0
M  V30 4773 N 433.083 -1.0153 1.20538 0
M  V30 4774 C 434.36 -1.72327 0.925343 0
M  V30 4775 C 434.74 -2.03383 -0.565547 0
M  V30 4776 O 434.088 -1.69934 -1.52757 0
M  V30 4777 C 434.298 -2.9902 1.79967 0
M  V30 4778 C 435.646 -3.72258 2.04228 0
M  V30 4779 O 436.67 -3.08979 1.77231 0
M  V30 4780 O 435.529 -4.86053 2.4983 0
M  V30 4781 H 432.623 -0.751099 0.346092 0
M  V30 4782 H 435.169 -1.07366 1.31417 0
M  V30 4783 H 433.941 -2.72402 2.80915 0
M  V30 4784 H 433.564 -3.71721 1.41099 0
M  V30 4785 N 434.561 -1.01147 -1.20859 0
M  V30 4786 C 435.791 -0.715872 -1.93801 0
M  V30 4787 C 436.199 0.726592 -1.74692 0
M  V30 4788 O 435.542 1.50397 -1.05482 0
M  V30 4789 C 435.604 -0.965269 -3.46299 0
M  V30 4790 C 435.268 -2.39584 -3.89164 0
M  V30 4791 C 436.265 -3.3764 -3.95342 0
M  V30 4792 C 433.95 -2.73522 -4.21297 0
M  V30 4793 C 435.944 -4.67698 -4.33056 0
M  V30 4794 C 433.631 -4.03794 -4.58687 0
M  V30 4795 C 434.629 -5.00693 -4.64538 0
M  V30 4796 O 434.317 -6.28635 -5.01072 0
M  V30 4797 H 434.049 -0.262524 -0.622942 0
M  V30 4798 H 436.603 -1.35413 -1.54443 0
M  V30 4799 H 434.833 -0.269847 -3.85757 0
M  V30 4800 H 436.522 -0.662051 -4.00464 0
M  V30 4801 H 437.288 -3.12757 -3.70686 0
M  V30 4802 H 433.167 -1.9879 -4.15937 0
M  V30 4803 H 436.711 -5.4333 -4.37537 0
M  V30 4804 H 432.608 -4.28459 -4.82797 0
M  V30 4805 H 433.376 -6.32847 -5.19083 0
M  V30 4806 N 436.039 1.36541 -0.78704 0
M  V30 4807 C 437.285 1.99599 -0.358872 0
M  V30 4808 C 437.618 1.62323 1.06606 0
M  V30 4809 O 436.893 0.876858 1.73613 0
M  V30 4810 C 437.176 3.56327 -0.519944 0
M  V30 4811 C 437.029 4.03464 -1.98839 0
M  V30 4812 C 438.348 4.4005 0.0664737 0
M  V30 4813 H 435.467 0.725107 -0.131869 0
M  V30 4814 H 438.109 1.6199 -0.992936 0
M  V30 4815 H 436.259 3.88495 0.0198321 0
M  V30 4816 H 437.931 3.81793 -2.58905 0
M  V30 4817 H 436.174 3.55092 -2.49183 0
M  V30 4818 H 436.845 5.12439 -2.05207 0
M  V30 4819 H 439.321 4.14228 -0.394267 0
M  V30 4820 H 438.197 5.48847 -0.0762682 0
M  V30 4821 H 438.458 4.26655 1.15835 0
M  V30 4822 N 437.518 0.538854 1.48102 0
M  V30 4823 C 438.748 0.0122958 2.06596 0
M  V30 4824 C 439.156 -1.27861 1.39457 0
M  V30 4825 O 438.499 -1.77348 0.478907 0
M  V30 4826 C 438.561 -0.273131 3.58461 0
M  V30 4827 C 438.225 0.92561 4.47528 0
M  V30 4828 C 439.222 1.82637 4.86765 0
M  V30 4829 C 436.907 1.13511 4.89306 0
M  V30 4830 C 438.901 2.92047 5.66558 0
M  V30 4831 C 436.588 2.23233 5.68868 0
M  V30 4832 C 437.586 3.12333 6.07402 0
M  V30 4833 O 437.274 4.20155 6.85365 0
M  V30 4834 H 437.006 0.0344283 0.675123 0
M  V30 4835 H 439.56 0.746494 1.91355 0
M  V30 4836 H 437.79 -1.06141 3.71848 0
M  V30 4837 H 439.479 -0.742842 3.99045 0
M  V30 4838 H 440.245 1.67649 4.55103 0
M  V30 4839 H 436.124 0.450835 4.5879 0
M  V30 4840 H 439.668 3.6162 5.96554 0
M  V30 4841 H 435.565 2.38201 5.99942 0
M  V30 4842 H 436.333 4.17975 7.03732 0
M  V30 4843 N 438.996 -1.55193 0.274407 0
M  V30 4844 C 440.224 -2.03987 -0.345943 0
M  V30 4845 C 440.639 -1.15279 -1.4952 0
M  V30 4846 O 439.996 -0.172759 -1.8168 0
M  V30 4847 C 440.047 -3.51898 -0.827631 0
M  V30 4848 O 439.768 -4.37231 0.275855 0
M  V30 4849 C 441.269 -4.16577 -1.51587 0
M  V30 4850 H 438.489 -0.666335 -0.0789892 0
M  V30 4851 H 441.033 -2.00423 0.406294 0
M  V30 4852 H 439.188 -3.55909 -1.52996 0
M  V30 4853 H 439.602 -5.24415 -0.0943638 0
M  V30 4854 H 441.076 -5.21678 -1.80433 0
M  V30 4855 H 441.553 -3.64707 -2.44716 0
M  V30 4856 H 442.159 -4.16568 -0.857409 0
M  V30 4857 N 440.474 -0.00167713 -1.576 0
M  V30 4858 C 441.384 1.00548 -2.1196 0
M  V30 4859 C 442.4 1.3758 -1.06526 0
M  V30 4860 O 443.576 1.46278 -1.38436 0
M  V30 4861 C 440.641 2.27809 -2.6135 0
M  V30 4862 C 439.702 1.97074 -3.81393 0
M  V30 4863 C 438.935 3.18267 -4.28417 0
M  V30 4864 O 439.158 4.30009 -3.74765 0
M  V30 4865 O 438.092 3.02167 -5.20556 0
M  V30 4866 H 441.918 0.573373 -2.98238 0
M  V30 4867 H 439.503 0.217255 -1.47812 0
M  V30 4868 H 441.385 3.02568 -2.93309 0
M  V30 4869 H 440.06 2.70254 -1.78169 0
M  V30 4870 H 438.967 1.19785 -3.54404 0
M  V30 4871 H 440.3 1.59464 -4.65652 0
M  V30 4872 N 441.952 1.55251 0.271103 0
M  V30 4873 C 443.363 1.66635 0.842007 0
M  V30 4874 C 443.714 0.594631 1.86972 0
M  V30 4875 O 442.839 -0.263532 2.14789 0
M  V30 4876 C 443.434 3.02082 1.53401 0
M  V30 4877 C 441.993 3.15487 2.05293 0
M  V30 4878 C 441.14 2.62438 0.895631 0
M  V30 4879 H 444.091 1.58629 0.0474117 0
M  V30 4880 H 444.112 2.95176 2.40107 0
M  V30 4881 H 443.624 3.80062 0.785786 0
M  V30 4882 H 441.725 2.42284 2.83071 0
M  V30 4883 H 441.838 4.22075 2.26693 0
M  V30 4884 H 440.202 2.19644 1.28953 0
M  V30 4885 H 440.985 3.42923 0.160878 0
M  V30 4886 N 443.43 -0.535701 1.48216 0
M  V30 4887 C 444.679 -1.28828 1.55197 0
M  V30 4888 C 444.992 -1.94263 0.228278 0
M  V30 4889 O 446.198 -2.70927 0.176278 0
M  V30 4890 C 444.654 -2.33727 2.73678 0
M  V30 4891 C 444.262 -1.74386 4.12666 0
M  V30 4892 C 446.006 -3.1003 2.89968 0
M  V30 4893 C 443.913 -2.77192 5.22416 0
M  V30 4894 H 442.843 -0.484484 0.577747 0
M  V30 4895 H 445.494 -0.56646 1.74538 0
M  V30 4896 H 443.876 -3.08919 2.4776 0
M  V30 4897 H 445.05 -1.05421 4.48579 0
M  V30 4898 H 443.365 -1.10595 4.01445 0
M  V30 4899 H 445.962 -3.86842 3.6913 0
M  V30 4900 H 446.305 -3.65542 1.9921 0
M  V30 4901 H 446.838 -2.41952 3.15759 0
M  V30 4902 H 443.577 -2.26507 6.15122 0
M  V30 4903 H 443.097 -3.44502 4.90998 0
M  V30 4904 H 444.776 -3.40285 5.50286 0
M  V30 4905 N 444.908 -1.36708 -0.784132 0
M  V30 4906 C 445.838 -1.34153 -1.91116 0
M  V30 4907 C 446.819 -0.212121 -1.68772 0
M  V30 4908 O 448.004 -0.410581 -1.8981 0
M  V30 4909 C 445.134 -1.13535 -3.28218 0
M  V30 4910 C 444.088 -2.23356 -3.65097 0
M  V30 4911 C 443.414 -1.87875 -5.00607 0
M  V30 4912 C 444.714 -3.65473 -3.73131 0
M  V30 4913 H 446.408 -2.28459 -1.93512 0
M  V30 4914 H 443.954 -1.09973 -0.929618 0
M  V30 4915 H 445.907 -1.10381 -4.06687 0
M  V30 4916 H 444.631 -0.156804 -3.26223 0
M  V30 4917 H 443.29 -2.25645 -2.88929 0
M  V30 4918 H 442.938 -0.885814 -4.95139 0
M  V30 4919 H 442.638 -2.61406 -5.26252 0
M  V30 4920 H 444.162 -1.86286 -5.81489 0
M  V30 4921 H 445.576 -3.65382 -4.41779 0
M  V30 4922 H 443.973 -4.37953 -4.10265 0
M  V30 4923 H 445.043 -3.99995 -2.74102 0
M  V30 4924 N 446.386 1.0089 -1.21074 0
M  V30 4925 C 447.634 1.74262 -1.02358 0
M  V30 4926 C 447.955 1.89869 0.444393 0
M  V30 4927 O 447.225 1.44677 1.32081 0
M  V30 4928 H 445.805 0.645615 -0.375754 0
M  V30 4929 H 448.467 1.21596 -1.52317 0
M  V30 4930 H 447.563 2.74328 -1.4883 0
M  V30 4931 N 447.864 1.01787 1.20321 0
M  V30 4932 C 449.112 0.706538 1.89347 0
M  V30 4933 C 449.433 -0.766289 1.79313 0
M  V30 4934 O 448.703 -1.55126 1.19635 0
M  V30 4935 H 447.283 0.258348 0.700903 0
M  V30 4936 H 449.945 1.28974 1.46122 0
M  V30 4937 H 449.041 0.991066 2.95946 0
M  V30 4938 N 449.342 -1.36122 0.79427 0
M  V30 4939 C 450.272 -2.32551 0.210328 0
M  V30 4940 C 451.253 -1.56884 -0.657386 0
M  V30 4941 O 452.438 -1.85014 -0.590207 0
M  V30 4942 C 449.568 -3.41128 -0.651819 0
M  V30 4943 C 448.522 -4.27842 0.116395 0
M  V30 4944 C 447.848 -5.2763 -0.86666 0
M  V30 4945 C 449.148 -5.05647 1.30837 0
M  V30 4946 H 450.842 -2.81636 1.01594 0
M  V30 4947 H 448.388 -1.35407 0.489981 0
M  V30 4948 H 450.341 -4.07581 -1.07031 0
M  V30 4949 H 449.065 -2.90622 -1.49019 0
M  V30 4950 H 447.724 -3.62952 0.515915 0
M  V30 4951 H 447.372 -4.73395 -1.70019 0
M  V30 4952 H 447.072 -5.86514 -0.35705 0
M  V30 4953 H 448.596 -5.96955 -1.28361 0
M  V30 4954 H 450.01 -5.65113 0.965393 0
M  V30 4955 H 448.407 -5.73967 1.75161 0
M  V30 4956 H 449.477 -4.37006 2.10128 0
M  V30 4957 N 450.82 -0.546701 -1.47814 0
M  V30 4958 C 452.045 -0.021268 -2.07389 0
M  V30 4959 C 452.47 1.25822 -1.39822 0
M  V30 4960 O 451.828 1.75111 -0.46968 0
M  V30 4961 C 451.876 0.168502 -3.60206 0
M  V30 4962 O 450.98 1.23347 -3.93522 0
M  V30 4963 H 450.321 -0.0466108 -0.662362 0
M  V30 4964 H 452.851 -0.759387 -1.89985 0
M  V30 4965 H 452.861 0.385982 -4.0617 0
M  V30 4966 H 451.536 -0.766075 -4.08784 0
M  V30 4967 H 450.113 0.997319 -3.59316 0
M  V30 4968 N 452.299 1.55045 -0.282633 0
M  V30 4969 C 453.529 2.03872 0.334635 0
M  V30 4970 C 453.937 1.16018 1.49454 0
M  V30 4971 O 453.28 0.174449 1.8287 0
M  V30 4972 C 453.342 3.48791 0.870905 0
M  V30 4973 C 453.006 4.56715 -0.161338 0
M  V30 4974 C 454.003 5.10513 -0.983466 0
M  V30 4975 C 451.688 5.01417 -0.297745 0
M  V30 4976 C 453.682 6.07538 -1.92811 0
M  V30 4977 C 451.369 5.98265 -1.24586 0
M  V30 4978 C 452.367 6.51208 -2.05954 0
M  V30 4979 O 452.055 7.46162 -2.99162 0
M  V30 4980 H 451.787 0.671324 0.0793742 0
M  V30 4981 H 454.341 2.01169 -0.41473 0
M  V30 4982 H 452.571 3.48758 1.67047 0
M  V30 4983 H 454.26 3.80916 1.40207 0
M  V30 4984 H 455.026 4.76785 -0.888856 0
M  V30 4985 H 450.905 4.59849 0.325604 0
M  V30 4986 H 454.449 6.48787 -2.56363 0
M  V30 4987 H 450.346 6.31412 -1.34126 0
M  V30 4988 H 451.114 7.63903 -2.93929 0
M  V30 4989 N 453.777 0.010035 1.57597 0
M  V30 4990 C 455.002 -0.687021 1.95691 0
M  V30 4991 C 455.427 -1.65952 0.885519 0
M  V30 4992 O 454.785 -1.80633 -0.15543 0
M  V30 4993 C 454.833 -1.3864 3.32884 0
M  V30 4994 O 453.937 -2.50115 3.27897 0
M  V30 4995 H 453.278 -0.181989 0.638573 0
M  V30 4996 H 455.808 0.0662122 2.04493 0
M  V30 4997 H 455.818 -1.74754 3.6868 0
M  V30 4998 H 454.493 -0.673411 4.10412 0
M  V30 4999 H 453.07 -2.16253 3.03791 0
M  V30 5000 N 455.255 -1.55392 -0.262866 0
M  V30 5001 C 456.185 -1.91978 -1.32917 0
M  V30 5002 C 457.166 -0.7828 -1.51017 0
M  V30 5003 O 458.351 -1.04178 -1.63892 0
M  V30 5004 C 455.481 -2.20055 -2.68687 0
M  V30 5005 C 454.435 -3.35854 -2.65304 0
M  V30 5006 C 453.761 -3.49435 -4.04721 0
M  V30 5007 C 455.061 -4.71977 -2.23685 0
M  V30 5008 H 456.755 -2.81292 -1.02544 0
M  V30 5009 H 454.301 -1.3534 -0.491846 0
M  V30 5010 H 456.254 -2.44237 -3.43404 0
M  V30 5011 H 454.978 -1.27551 -3.00663 0
M  V30 5012 H 453.637 -3.11655 -1.93045 0
M  V30 5013 H 453.285 -2.54379 -4.33936 0
M  V30 5014 H 452.985 -4.27297 -4.0335 0
M  V30 5015 H 454.509 -3.7592 -4.81161 0
M  V30 5016 H 455.923 -4.95637 -2.88127 0
M  V30 5017 H 454.32 -5.52828 -2.33456 0
M  V30 5018 H 455.39 -4.70115 -1.18827 0
M  V30 5019 N 456.733 0.527833 -1.48498 0
M  V30 5020 C 458.144 1.10975 -1.50138 0
M  V30 5021 C 458.495 1.943 -0.272378 0
M  V30 5022 O 457.62 2.07319 0.620301 0
M  V30 5023 C 458.215 2.01927 -2.72049 0
M  V30 5024 C 456.774 2.55332 -2.76554 0
M  V30 5025 C 455.921 1.32341 -2.43683 0
M  V30 5026 H 458.872 0.312986 -1.55583 0
M  V30 5027 H 458.893 2.86244 -2.50689 0
M  V30 5028 H 458.405 1.41254 -3.61481 0
M  V30 5029 H 456.506 3.19721 -1.91336 0
M  V30 5030 H 456.619 2.94319 -3.78038 0
M  V30 5031 H 454.983 1.63989 -1.94884 0
M  V30 5032 H 455.766 0.734165 -3.35358 0
M  V30 5033 N 458.211 1.37122 0.776871 0
M  V30 5034 C 459.459 1.31787 1.53221 0
M  V30 5035 C 459.78 -0.0987589 1.9475 0
M  V30 5036 O 459.05 -1.0417 1.65908 0
M  V30 5037 H 457.63 0.484839 0.568278 0
M  V30 5038 H 460.292 1.71556 0.924917 0
M  V30 5039 H 459.388 1.95355 2.43398 0
M  V30 5040 N 459.689 -1.00246 1.21608 0
M  V30 5041 C 460.619 -2.10921 1.00172 0
M  V30 5042 C 461.6 -1.69938 -0.0741587 0
M  V30 5043 O 462.785 -1.94009 0.0861753 0
M  V30 5044 C 459.915 -3.42618 0.568355 0
M  V30 5045 C 458.869 -3.97407 1.58909 0
M  V30 5046 C 458.195 -5.25038 1.01187 0
M  V30 5047 C 459.495 -4.2918 2.97661 0
M  V30 5048 H 461.189 -2.29112 1.92739 0
M  V30 5049 H 458.735 -1.10101 0.928102 0
M  V30 5050 H 460.688 -4.19444 0.405555 0
M  V30 5051 H 459.412 -3.24227 -0.392961 0
M  V30 5052 H 458.071 -3.22703 1.73949 0
M  V30 5053 H 457.719 -5.02982 0.0421965 0
M  V30 5054 H 457.419 -5.62661 1.6937 0
M  V30 5055 H 458.943 -6.04507 0.860448 0
M  V30 5056 H 460.357 -4.96839 2.86049 0
M  V30 5057 H 458.754 -4.77952 3.6288 0
M  V30 5058 H 459.824 -3.3735 3.48315 0
M  V30 5059 N 461.167 -1.02423 -1.1978 0
M  V30 5060 C 462.395 -0.737456 -1.93311 0
M  V30 5061 C 462.81 0.703023 -1.75223 0
M  V30 5062 O 462.167 1.47761 -1.07112 0
M  V30 5063 C 462.218 -1.0733 -3.45199 0
M  V30 5064 O 461.939 -2.4572 -3.62702 0
M  V30 5065 C 463.44 -0.80866 -4.35862 0
M  V30 5066 H 460.66 -0.2702 -0.614193 0
M  V30 5067 H 463.204 -1.36747 -1.52054 0
M  V30 5068 H 461.359 -0.488545 -3.84307 0
M  V30 5069 H 461.773 -2.58081 -4.56612 0
M  V30 5070 H 463.247 -1.09365 -5.41057 0
M  V30 5071 H 463.724 0.257025 -4.38447 0
M  V30 5072 H 464.33 -1.37592 -4.02428 0
M  V30 5073 N 462.645 1.35699 -0.801477 0
M  V30 5074 C 463.922 1.9324 -0.302937 0
M  V30 5075 C 464.302 1.73209 1.20672 0
M  V30 5076 O 463.65 1.09809 2.00385 0
M  V30 5077 C 463.86 3.41728 -0.708747 0
M  V30 5078 C 465.208 4.18868 -0.695328 0
M  V30 5079 O 466.232 3.5022 -0.649971 0
M  V30 5080 O 465.091 5.41342 -0.749081 0
M  V30 5081 H 462.185 0.82331 -0.0780367 0
M  V30 5082 H 464.731 1.44806 -0.884832 0
M  V30 5083 H 463.503 3.50015 -1.74944 0
M  V30 5084 H 463.126 3.97471 -0.101384 0
M  V30 5085 N 464.123 0.554532 1.47522 0
M  V30 5086 C 465.348 0.0322661 2.07375 0
M  V30 5087 C 465.773 -1.25079 1.40488 0
M  V30 5088 O 465.131 -1.74859 0.47896 0
M  V30 5089 C 465.179 -0.149397 3.6029 0
M  V30 5090 O 464.283 -1.21259 3.9417 0
M  V30 5091 H 463.624 0.0501228 0.662106 0
M  V30 5092 H 466.154 0.769452 1.8958 0
M  V30 5093 H 466.164 -0.364437 4.06369 0
M  V30 5094 H 464.839 0.787743 4.08372 0
M  V30 5095 H 463.416 -0.97825 3.5984 0
M  V30 5096 N 465.601 -1.54893 0.290851 0
M  V30 5097 C 467.017 -1.59476 -0.0628432 0
M  V30 5098 C 467.217 -1.30795 -1.5328 0
M  V30 5099 O 466.273 -1.07644 -2.28406 0
M  V30 5100 C 467.586 -2.98928 0.325962 0
M  V30 5101 C 469.134 -3.11799 0.273882 0
M  V30 5102 C 469.609 -4.53544 0.637359 0
M  V30 5103 N 471.1 -4.59433 0.589507 0
M  V30 5104 C 471.835 -5.67164 0.84335 0
M  V30 5105 N 471.331 -6.82975 1.16263 0
M  V30 5106 N 473.124 -5.56786 0.771091 0
M  V30 5107 H 465.275 -1.71798 1.24896 0
M  V30 5108 H 467.538 -0.801879 0.505663 0
M  V30 5109 H 467.244 -3.24805 1.34887 0
M  V30 5110 H 467.118 -3.75793 -0.325441 0
M  V30 5111 H 469.505 -2.85677 -0.739765 0
M  V30 5112 H 469.586 -2.37112 0.959766 0
M  V30 5113 H 469.23 -4.80394 1.64877 0
M  V30 5114 H 469.16 -5.26553 -0.0704866 0
M  V30 5115 H 471.651 -3.76245 0.353252 0
M  V30 5116 H 471.964 -7.61048 1.34257 0
M  V30 5117 H 470.309 -6.84552 1.20057 0
M  V30 5118 H 473.5 -4.65187 0.521383 0
M  V30 5119 H 473.673 -6.40664 0.972295 0
M  V30 5120 N 467.08 -0.0183926 -1.57589 0
M  V30 5121 C 468.043 0.951986 -2.08494 0
M  V30 5122 C 469.043 1.26092 -0.997874 0
M  V30 5123 O 470.233 1.20304 -1.25987 0
M  V30 5124 C 467.365 2.27165 -2.54182 0
M  V30 5125 H 468.558 0.511307 -2.95509 0
M  V30 5126 H 466.111 0.229444 -1.54607 0
M  V30 5127 H 466.846 2.75884 -1.70465 0
M  V30 5128 H 466.631 2.06057 -3.33591 0
M  V30 5129 H 468.121 2.9674 -2.93828 0
M  V30 5130 N 468.558 1.5553 0.254621 0
M  V30 5131 C 469.488 1.9268 1.31897 0
M  V30 5132 C 470.469 0.790797 1.506 0
M  V30 5133 O 471.654 1.05045 1.63337 0
M  V30 5134 C 468.784 2.21477 2.67517 0
M  V30 5135 C 467.738 3.37256 2.63519 0
M  V30 5136 C 467.064 3.51576 4.02862 0
M  V30 5137 C 468.364 4.73157 2.21179 0
M  V30 5138 H 470.058 2.81832 1.01051 0
M  V30 5139 H 467.604 1.35599 0.484662 0
M  V30 5140 H 469.557 2.46055 3.42104 0
M  V30 5141 H 468.281 1.29144 2.99982 0
M  V30 5142 H 466.94 3.12675 1.9139 0
M  V30 5143 H 466.588 2.56676 4.32581 0
M  V30 5144 H 466.288 4.2943 4.01078 0
M  V30 5145 H 467.812 3.78467 4.79161 0
M  V30 5146 H 469.226 4.97158 2.85494 0
M  V30 5147 H 467.623 5.54058 2.30521 0
M  V30 5148 H 468.693 4.70739 1.16332 0
M  V30 5149 N 470.036 -0.519951 1.48776 0
M  V30 5150 C 471.447 -1.10177 1.50725 0
M  V30 5151 C 471.798 -1.94153 0.282678 0
M  V30 5152 O 470.923 -2.07645 -0.609298 0
M  V30 5153 C 471.518 -2.00482 2.73116 0
M  V30 5154 C 470.077 -2.53862 2.77905 0
M  V30 5155 C 469.224 -1.31047 2.44381 0
M  V30 5156 H 472.175 -0.30473 1.55747 0
M  V30 5157 H 472.196 -2.8491 2.52203 0
M  V30 5158 H 471.708 -1.39335 3.62225 0
M  V30 5159 H 469.809 -3.18702 1.93029 0
M  V30 5160 H 469.922 -2.9231 3.79594 0
M  V30 5161 H 468.286 -1.62953 1.95751 0
M  V30 5162 H 469.069 -0.71637 3.35743 0
M  V30 5163 N 471.514 -1.37532 -0.769588 0
M  V30 5164 C 472.444 -1.36172 -1.89682 0
M  V30 5165 C 473.425 -0.23001 -1.68538 0
M  V30 5166 O 474.61 -0.43069 -1.89364 0
M  V30 5167 C 471.74 -1.1701 -3.26995 0
M  V30 5168 C 470.694 -2.27216 -3.62708 0
M  V30 5169 C 470.02 -1.93174 -4.98586 0
M  V30 5170 C 471.32 -3.6941 -3.69234 0
M  V30 5171 H 473.014 -2.30499 -1.91078 0
M  V30 5172 H 470.56 -1.10953 -0.917902 0
M  V30 5173 H 472.513 -1.14688 -4.05493 0
M  V30 5174 H 471.237 -0.191395 -3.26039 0
M  V30 5175 H 469.896 -2.28697 -2.86519 0
M  V30 5176 H 469.544 -0.938281 -4.94171 0
M  V30 5177 H 469.244 -2.66973 -5.23449 0
M  V30 5178 H 470.768 -1.92443 -5.79481 0
M  V30 5179 H 472.182 -3.70047 -4.37879 0
M  V30 5180 H 470.579 -4.4228 -4.05597 0
M  V30 5181 H 471.649 -4.0288 -2.69844 0
M  V30 5182 N 472.992 0.995999 -1.22138 0
M  V30 5183 C 473.922 2.10387 -1.01289 0
M  V30 5184 C 474.903 1.69975 0.0651454 0
M  V30 5185 O 476.088 1.9396 -0.0964628 0
M  V30 5186 C 473.218 3.42312 -0.586517 0
M  V30 5187 C 472.172 3.96558 -1.61014 0
M  V30 5188 C 471.498 5.24494 -1.0397 0
M  V30 5189 C 472.798 4.27595 -2.99933 0
M  V30 5190 H 474.492 2.28086 -1.93951 0
M  V30 5191 H 472.038 1.09607 -0.933928 0
M  V30 5192 H 473.991 4.19223 -0.427793 0
M  V30 5193 H 472.715 3.24431 0.375761 0
M  V30 5194 H 471.374 3.21776 -1.75658 0
M  V30 5195 H 471.022 5.02953 -0.0688703 0
M  V30 5196 H 470.722 5.61755 -1.72352 0
M  V30 5197 H 472.246 6.04042 -0.892494 0
M  V30 5198 H 473.66 4.95315 -2.8868 0
M  V30 5199 H 472.057 4.76021 -3.6541 0
M  V30 5200 H 473.127 3.35498 -3.50099 0
M  V30 5201 N 474.47 1.03057 1.19235 0
M  V30 5202 C 475.433 0.617418 2.20727 0
M  V30 5203 C 476.433 -0.319856 1.57587 0
M  V30 5204 O 477.623 -0.106633 1.73873 0
M  V30 5205 C 474.755 -0.096296 3.40764 0
M  V30 5206 H 475.948 1.51544 2.58794 0
M  V30 5207 H 473.501 0.821949 1.32942 0
M  V30 5208 H 474.236 -1.00859 3.08217 0
M  V30 5209 H 474.021 0.577217 3.87828 0
M  V30 5210 H 475.511 -0.372219 4.15938 0
M  V30 5211 N 475.948 -1.35272 0.808662 0
M  V30 5212 C 476.896 -2.31663 0.208606 0
M  V30 5213 C 477.89 -1.56731 -0.642778 0
M  V30 5214 O 479.096 -1.71843 -0.53571 0
M  V30 5215 H 475.471 -0.750421 0.0486993 0
M  V30 5216 H 477.442 -2.79814 1.03666 0
M  V30 5217 C 476.191 -3.42008 -0.626573 0
M  V30 5218 H 475.514 -3.99795 0.0192103 0
M  V30 5219 H 476.954 -4.11727 -1.01278 0
M  V30 5220 C 475.413 -2.85226 -1.79298 0
M  V30 5221 O 475.943 -2.78945 -2.89055 0
M  V30 5222 N 474.149 -2.42245 -1.60516 0
M  V30 5223 H 473.696 -2.47554 -0.712375 0
M  V30 5224 H 473.654 -2.04603 -2.38715 0
M  V30 5225 N 477.426 -0.562348 -1.47226 0
M  V30 5226 C 478.703 0.0256985 -1.95583 0
M  V30 5227 C 479.083 1.48032 -1.50498 0
M  V30 5228 O 478.431 2.15973 -0.746181 0
M  V30 5229 C 478.641 -0.125129 -3.48776 0
M  V30 5230 C 479.989 0.0175728 -4.24596 0
M  V30 5231 O 481.013 -0.0529341 -3.56161 0
M  V30 5232 O 479.872 0.170145 -5.46235 0
M  V30 5233 H 476.966 0.0612565 -0.824728 0
M  V30 5234 H 479.512 -0.629233 -1.57603 0
M  V30 5235 H 478.284 -1.13715 -3.74412 0
M  V30 5236 H 477.907 0.567178 -3.93534 0
M  V30 5237 N 478.904 1.54736 -0.299062 0
M  V30 5238 C 480.129 2.04975 0.316254 0
M  V30 5239 C 480.554 1.17501 1.46885 0
M  V30 5240 O 479.912 0.178678 1.80417 0
M  V30 5241 C 479.96 3.52672 0.751997 0
M  V30 5242 O 479.064 3.68226 1.85697 0
M  V30 5243 H 478.405 0.661126 0.0617175 0
M  V30 5244 H 480.935 1.99805 -0.440341 0
M  V30 5245 H 480.945 3.94488 1.04133 0
M  V30 5246 H 479.62 4.158 -0.0911482 0
M  V30 5247 H 478.197 3.38316 1.56834 0
M  V30 5248 N 480.382 0.0267497 1.57577 0
M  V30 5249 C 481.314 -0.984594 2.06974 0
M  V30 5250 C 482.327 -1.29032 0.992705 0
M  V30 5251 O 483.516 -1.25539 1.26895 0
M  V30 5252 C 480.616 -2.31262 2.47732 0
M  V30 5253 C 479.789 -2.1924 3.78487 0
M  V30 5254 C 478.848 -3.34956 4.05821 0
M  V30 5255 O 477.874 -3.11948 4.76106 0
M  V30 5256 N 479.076 -4.58672 3.55809 0
M  V30 5257 H 481.841 -0.563143 2.94362 0
M  V30 5258 H 479.402 -0.160061 1.61107 0
M  V30 5259 H 481.394 -3.07496 2.63112 0
M  V30 5260 H 479.964 -2.65056 1.65723 0
M  V30 5261 H 479.184 -1.27747 3.72927 0
M  V30 5262 H 480.472 -2.08409 4.64158 0
M  V30 5263 H 479.87 -4.8026 2.98942 0
M  V30 5264 H 478.427 -5.32083 3.76472 0
M  V30 5265 N 481.861 -1.55662 -0.24637 0
M  V30 5266 C 482.791 -1.93377 -1.30873 0
M  V30 5267 C 483.772 -0.798773 -1.50179 0
M  V30 5268 O 484.957 -1.0591 -1.62778 0
M  V30 5269 C 482.087 -2.22893 -2.66338 0
M  V30 5270 C 481.041 -3.38649 -2.61727 0
M  V30 5271 C 480.367 -3.53708 -4.00992 0
M  V30 5272 C 481.667 -4.74323 -2.18666 0
M  V30 5273 H 483.361 -2.82363 -0.995552 0
M  V30 5274 H 480.907 -1.35854 -0.477464 0
M  V30 5275 H 482.86 -2.47866 -3.40794 0
M  V30 5276 H 481.584 -1.30733 -2.99293 0
M  V30 5277 H 480.243 -3.13685 -1.89729 0
M  V30 5278 H 479.891 -2.58967 -4.31214 0
M  V30 5279 H 479.591 -4.31551 -3.98795 0
M  V30 5280 H 481.115 -3.81003 -4.77147 0
M  V30 5281 H 482.529 -4.98665 -2.82854 0
M  V30 5282 H 480.926 -5.55273 -2.27579 0
M  V30 5283 H 481.996 -4.71349 -1.13834 0
M  V30 5284 N 483.339 0.512053 -1.4905 0
M  V30 5285 C 484.271 1.63121 -1.6101 0
M  V30 5286 C 485.284 1.55145 -0.493352 0
M  V30 5287 O 486.473 1.61278 -0.764955 0
M  V30 5288 C 483.573 3.01863 -1.54052 0
M  V30 5289 C 482.746 3.35138 -2.81072 0
M  V30 5290 C 481.805 4.5324 -2.67319 0
M  V30 5291 O 480.831 4.55571 -3.41238 0
M  V30 5292 N 482.033 5.52495 -1.78127 0
M  V30 5293 H 484.798 1.53292 -2.5753 0
M  V30 5294 H 482.359 0.699706 -1.45999 0
M  V30 5295 H 484.351 3.78774 -1.42521 0
M  V30 5296 H 482.921 3.05675 -0.654345 0
M  V30 5297 H 482.141 2.4723 -3.07036 0
M  V30 5298 H 483.429 3.54162 -3.65304 0
M  V30 5299 H 482.827 5.53403 -1.17308 0
M  V30 5300 H 481.384 6.28553 -1.72525 0
M  V30 5301 N 484.817 1.37938 0.762283 0
M  V30 5302 C 485.765 1.34569 1.89721 0
M  V30 5303 C 486.759 0.232929 1.67791 0
M  V30 5304 O 487.965 0.401485 1.75465 0
M  V30 5305 H 484.34 0.419594 0.624055 0
M  V30 5306 H 486.311 2.30357 1.8968 0
M  V30 5307 C 485.06 1.17898 3.27101 0
M  V30 5308 H 484.383 2.02781 3.44558 0
M  V30 5309 H 485.823 1.19593 4.06784 0
M  V30 5310 C 484.282 -0.114728 3.36705 0
M  V30 5311 O 484.812 -1.0949 3.8649 0
M  V30 5312 N 483.018 -0.16863 2.9011 0
M  V30 5313 H 482.565 0.62967 2.49786 0
M  V30 5314 H 482.523 -1.03383 2.96916 0
M  V30 5315 N 486.295 -0.989507 1.22664 0
M  V30 5316 C 487.225 -2.09847 1.02404 0
M  V30 5317 C 488.206 -1.70007 -0.0561303 0
M  V30 5318 O 489.391 -1.93906 0.106748 0
M  V30 5319 C 486.521 -3.41996 0.604663 0
M  V30 5320 C 485.475 -3.95699 1.63115 0
M  V30 5321 C 484.801 -5.23936 1.0675 0
M  V30 5322 C 486.101 -4.25999 3.02196 0
M  V30 5323 H 487.795 -2.27054 1.95158 0
M  V30 5324 H 485.341 -1.09111 0.939727 0
M  V30 5325 H 487.294 -4.1899 0.45002 0
M  V30 5326 H 486.018 -3.24626 -0.35855 0
M  V30 5327 H 484.677 -3.2084 1.77362 0
M  V30 5328 H 484.325 -5.02909 0.0955422 0
M  V30 5329 H 484.025 -5.60833 1.75328 0
M  V30 5330 H 485.549 -6.0356 0.924516 0
M  V30 5331 H 486.963 -4.93777 2.91303 0
M  V30 5332 H 485.36 -4.74076 3.67929 0
M  V30 5333 H 486.43 -3.33636 3.51873 0
M  V30 5334 N 487.773 -1.03688 -1.18687 0
M  V30 5335 C 489.184 -0.766488 -1.70241 0
M  V30 5336 C 489.535 0.713052 -1.82784 0
M  V30 5337 O 488.66 1.55529 -1.50465 0
M  V30 5338 C 489.255 -1.38475 -3.09209 0
M  V30 5339 C 487.814 -1.16276 -3.5799 0
M  V30 5340 C 486.961 -1.4778 -2.34641 0
M  V30 5341 H 489.912 -1.20378 -1.03415 0
M  V30 5342 H 489.933 -0.785939 -3.72295 0
M  V30 5343 H 489.445 -2.46157 -3.00048 0
M  V30 5344 H 487.546 -0.104508 -3.72453 0
M  V30 5345 H 487.659 -1.8571 -4.41643 0
M  V30 5346 H 486.023 -0.897366 -2.38368 0
M  V30 5347 H 486.806 -2.56562 -2.28102 0
M  V30 5348 N 489.251 1.34841 -0.815825 0
M  V30 5349 C 490.181 2.32187 -0.247298 0
M  V30 5350 C 491.162 1.5791 0.632344 0
M  V30 5351 O 492.347 1.8593 0.560698 0
M  V30 5352 C 489.477 3.42122 0.597466 0
M  V30 5353 C 488.431 4.27602 -0.184446 0
M  V30 5354 C 487.757 5.28942 0.782609 0
M  V30 5355 C 489.057 5.03502 -1.38865 0
M  V30 5356 H 490.751 2.79985 -1.06061 0
M  V30 5357 H 488.297 1.34611 -0.511461 0
M  V30 5358 H 490.25 4.09232 1.00533 0
M  V30 5359 H 488.974 2.92956 1.44376 0
M  V30 5360 H 487.633 3.62085 -0.573592 0
M  V30 5361 H 487.281 4.7604 1.62466 0
M  V30 5362 H 486.981 5.87008 0.263695 0
M  V30 5363 H 488.505 5.98922 1.18848 0
M  V30 5364 H 489.919 5.63506 -1.05518 0
M  V30 5365 H 488.316 5.71108 -1.8427 0
M  V30 5366 H 489.386 4.33608 -2.17054 0
M  V30 5367 N 490.729 0.570148 1.46925 0
M  V30 5368 C 491.957 0.0561966 2.06824 0
M  V30 5369 C 492.372 -1.24326 1.42086 0
M  V30 5370 O 491.729 -1.74882 0.521794 0
M  V30 5371 C 491.78 -0.129517 3.61268 0
M  V30 5372 O 491.501 1.1185 4.23581 0
M  V30 5373 C 493.002 -0.679266 4.38065 0
M  V30 5374 H 490.222 0.0517261 0.669003 0
M  V30 5375 H 492.766 0.787243 1.8874 0
M  V30 5376 H 490.921 -0.810739 3.78822 0
M  V30 5377 H 491.335 0.924375 5.1629 0
M  V30 5378 H 492.809 -0.758445 5.46765 0
M  V30 5379 H 493.286 -1.69346 4.05239 0
M  V30 5380 H 493.892 -0.0333237 4.25287 0
M  V30 5381 N 492.207 -1.54576 0.307264 0
M  V30 5382 C 493.437 -2.04378 -0.302158 0
M  V30 5383 C 493.845 -1.18381 -1.47589 0
M  V30 5384 O 493.188 -0.20352 -1.82569 0
M  V30 5385 C 493.25 -3.50133 -0.815305 0
M  V30 5386 C 492.914 -4.56401 0.233977 0
M  V30 5387 C 493.911 -5.08884 1.06456 0
M  V30 5388 C 491.596 -5.0088 0.377478 0
M  V30 5389 C 493.59 -6.04394 2.02452 0
M  V30 5390 C 491.277 -5.96208 1.34088 0
M  V30 5391 C 492.275 -6.47849 2.16288 0
M  V30 5392 O 491.963 -7.41308 3.10994 0
M  V30 5393 H 491.695 -0.672502 -0.0686839 0
M  V30 5394 H 494.249 -2.00484 0.446682 0
M  V30 5395 H 492.479 -3.51371 -1.61478 0
M  V30 5396 H 494.168 -3.83098 -1.34129 0
M  V30 5397 H 494.934 -4.75311 0.964596 0
M  V30 5398 H 490.813 -4.60309 -0.252405 0
M  V30 5399 H 494.357 -6.44626 2.66652 0
M  V30 5400 H 490.254 -6.29198 1.44154 0
M  V30 5401 H 491.022 -7.5913 3.06045 0
M  V30 5402 N 493.685 -0.035106 -1.57561 0
M  V30 5403 C 494.934 0.641604 -1.91223 0
M  V30 5404 C 495.247 1.72944 -0.913761 0
M  V30 5405 O 496.453 2.46321 -1.14185 0
M  V30 5406 C 494.909 1.19249 -3.3957 0
M  V30 5407 C 494.517 0.137616 -4.47789 0
M  V30 5408 C 496.261 1.84537 -3.82291 0
M  V30 5409 C 494.168 0.700478 -5.87237 0
M  V30 5410 H 493.098 0.243417 -0.713627 0
M  V30 5411 H 495.749 -0.101382 -1.8322 0
M  V30 5412 H 494.131 1.98728 -3.42525 0
M  V30 5413 H 495.305 -0.635153 -4.56402 0
M  V30 5414 H 493.62 -0.416855 -4.14308 0
M  V30 5415 H 496.217 2.27616 -4.83834 0
M  V30 5416 H 496.56 2.69054 -3.17672 0
M  V30 5417 H 497.093 1.11739 -3.81784 0
M  V30 5418 H 493.832 -0.106693 -6.55413 0
M  V30 5419 H 493.352 1.4416 -5.82218 0
M  V30 5420 H 495.031 1.18837 -6.35993 0
M  V30 5421 N 495.163 1.55791 0.238111 0
M  V30 5422 C 496.093 1.94068 1.29846 0
M  V30 5423 C 497.074 0.806726 1.49753 0
M  V30 5424 O 498.259 1.06772 1.62214 0
M  V30 5425 C 495.389 2.24302 2.65153 0
M  V30 5426 C 494.343 3.40032 2.59927 0
M  V30 5427 C 493.669 3.55829 3.99111 0
M  V30 5428 C 494.969 4.75476 2.16148 0
M  V30 5429 H 496.663 2.82887 0.980563 0
M  V30 5430 H 494.209 1.36105 0.470253 0
M  V30 5431 H 496.162 2.4967 3.39475 0
M  V30 5432 H 494.886 1.32318 2.98596 0
M  V30 5433 H 493.545 3.14687 1.88063 0
M  V30 5434 H 493.193 2.6125 4.29834 0
M  V30 5435 H 492.893 4.3366 3.96501 0
M  V30 5436 H 494.417 3.83528 4.7512 0
M  V30 5437 H 495.831 5.00158 2.80205 0
M  V30 5438 H 494.228 5.56472 2.24631 0
M  V30 5439 H 495.298 4.71946 1.11333 0
M  V30 5440 N 496.642 -0.504142 1.49319 0
M  V30 5441 C 497.87 -1.28256 1.62351 0
M  V30 5442 C 498.285 -1.86502 0.293682 0
M  V30 5443 O 497.642 -1.67678 -0.720449 0
M  V30 5444 C 497.693 -2.41507 2.68992 0
M  V30 5445 O 497.414 -1.85656 3.96817 0
M  V30 5446 C 498.915 -3.32929 2.927 0
M  V30 5447 H 496.135 -0.389115 0.546654 0
M  V30 5448 H 498.679 -0.605531 1.95329 0
M  V30 5449 H 496.834 -3.05046 2.38801 0
M  V30 5450 H 497.248 -2.59981 4.55533 0
M  V30 5451 H 498.722 -4.0868 3.71058 0
M  V30 5452 H 499.199 -3.89733 2.02496 0
M  V30 5453 H 499.805 -2.75158 3.24296 0
M  V30 5454 N 498.12 -1.38341 -0.754957 0
M  V30 5455 C 499.36 -1.35888 -1.52689 0
M  V30 5456 C 499.724 0.0513682 -1.91931 0
M  V30 5457 O 500.925 0.200761 -2.68049 0
M  V30 5458 C 499.196 -2.28666 -2.74676 0
M  V30 5459 S 500.755 -2.4422 -3.64558 0
M  V30 5460 H 497.573 -0.482165 -0.522531 0
M  V30 5461 H 500.175 -1.74253 -0.886358 0
M  V30 5462 H 498.879 -3.30023 -2.43953 0
M  V30 5463 H 498.41 -1.91445 -3.43675 0
M  V30 5464 H 500.425 -1.66525 -4.67423 0
M  V30 5465 N 499.598 0.982988 -1.23187 0
M  V30 5466 C 500.53 2.07729 -0.968572 0
M  V30 5467 C 501.543 1.62702 0.0564821 0
M  V30 5468 O 502.732 1.77603 -0.178733 0
M  V30 5469 C 499.832 3.36071 -0.436974 0
M  V30 5470 C 499.005 4.10081 -1.52159 0
M  V30 5471 C 498.064 5.16701 -0.99532 0
M  V30 5472 O 497.09 5.43727 -1.68373 0
M  V30 5473 N 498.292 5.80226 0.178192 0
M  V30 5474 H 501.057 2.30894 -1.9107 0
M  V30 5475 H 498.618 1.14949 -1.1401 0
M  V30 5476 H 500.61 4.04639 -0.0700051 0
M  V30 5477 H 499.18 3.09893 0.410509 0
M  V30 5478 H 498.4 3.36004 -2.06144 0
M  V30 5479 H 499.688 4.56295 -2.25105 0
M  V30 5480 H 499.086 5.60651 0.754096 0
M  V30 5481 H 497.643 6.49982 0.486449 0
M  V30 5482 N 501.076 1.04316 1.18135 0
M  V30 5483 C 502.026 0.606731 2.19779 0
M  V30 5484 C 503.01 -0.352144 1.56999 0
M  V30 5485 O 504.202 -0.170795 1.76174 0
M  V30 5486 C 501.331 -0.0262443 3.4329 0
M  V30 5487 C 500.417 0.955928 4.13186 0
M  V30 5488 N 500.808 2.12395 4.59045 0
M  V30 5489 C 499.106 0.782473 4.39082 0
M  V30 5490 C 499.807 2.74458 5.12882 0
M  V30 5491 N 498.783 2.02316 5.04548 0
M  V30 5492 H 502.585 1.49679 2.5293 0
M  V30 5493 H 500.099 0.912088 1.34368 0
M  V30 5494 H 502.096 -0.356617 4.15372 0
M  V30 5495 H 500.756 -0.911811 3.11635 0
M  V30 5496 H 501.767 2.50272 4.53414 0
M  V30 5497 H 498.444 -0.0527906 4.17467 0
M  V30 5498 H 499.834 3.73459 5.5855 0
M  V30 5499 N 502.554 -1.34406 0.822964 0
M  V30 5500 C 503.831 -1.92733 0.333641 0
M  V30 5501 C 504.211 -1.75107 -1.17901 0
M  V30 5502 O 503.559 -1.12983 -1.98613 0
M  V30 5503 C 503.769 -3.40557 0.763023 0
M  V30 5504 C 505.117 -4.17709 0.761879 0
M  V30 5505 O 506.141 -3.49141 0.705606 0
M  V30 5506 O 505 -5.40082 0.835109 0
M  V30 5507 H 502.094 -0.821964 0.0911249 0
M  V30 5508 H 504.64 -1.4338 0.907757 0
M  V30 5509 H 503.412 -3.47187 1.8049 0
M  V30 5510 H 503.035 -3.97259 0.164605 0
M  V30 5511 N 504.032 -0.577932 -1.46621 0
M  V30 5512 C 504.962 0.145917 -2.33044 0
M  V30 5513 C 505.943 0.888412 -1.45056 0
M  V30 5514 O 507.128 0.864812 -1.73881 0
M  V30 5515 C 504.258 1.16322 -3.27241 0
M  V30 5516 C 503.212 0.535868 -4.24632 0
M  V30 5517 C 502.538 1.65929 -5.08303 0
M  V30 5518 C 503.838 -0.523861 -5.19666 0
M  V30 5519 H 505.532 -0.575636 -2.93814 0
M  V30 5520 H 503.078 -0.278272 -1.41286 0
M  V30 5521 H 505.031 1.67793 -3.86553 0
M  V30 5522 H 503.755 1.91498 -2.64567 0
M  V30 5523 H 502.414 0.0422759 -3.66576 0
M  V30 5524 H 502.062 2.40061 -4.42018 0
M  V30 5525 H 501.762 1.2452 -5.74255 0
M  V30 5526 H 503.286 2.17686 -5.70478 0
M  V30 5527 H 504.7 -0.0944059 -5.73222 0
M  V30 5528 H 503.097 -0.858 -5.93935 0
M  V30 5529 H 504.167 -1.41197 -4.63887 0
M  V30 5530 N 505.51 1.54411 -0.315457 0
M  V30 5531 C 506.44 2.27002 0.547039 0
M  V30 5532 C 507.421 1.27492 1.12605 0
M  V30 5533 O 508.606 1.5629 1.15269 0
M  V30 5534 C 505.736 3.02171 1.71201 0
M  V30 5535 C 504.69 4.0895 1.26268 0
M  V30 5536 C 504.016 4.71915 2.51396 0
M  V30 5537 C 505.316 5.20891 0.383419 0
M  V30 5538 H 507.01 2.99343 -0.0584517 0
M  V30 5539 H 504.556 1.4397 -0.0295527 0
M  V30 5540 H 506.509 3.51681 2.32161 0
M  V30 5541 H 505.233 2.27433 2.34397 0
M  V30 5542 H 503.892 3.60312 0.676062 0
M  V30 5543 H 503.54 3.93801 3.12937 0
M  V30 5544 H 503.24 5.44039 2.22026 0
M  V30 5545 H 504.764 5.24195 3.13133 0
M  V30 5546 H 506.178 5.66206 0.899082 0
M  V30 5547 H 504.575 5.99821 0.182857 0
M  V30 5548 H 505.645 4.81324 -0.587821 0
M  V30 5549 N 506.988 0.0434614 1.5754 0
M  V30 5550 C 508.404 -0.313039 1.565 0
M  V30 5551 C 508.604 -1.71954 1.05043 0
M  V30 5552 O 507.66 -2.425 0.703564 0
M  V30 5553 C 508.973 -0.148544 3.00333 0
M  V30 5554 C 510.521 -0.220231 3.12224 0
M  V30 5555 C 510.996 -0.0843565 4.57922 0
M  V30 5556 N 512.487 -0.140881 4.62986 0
M  V30 5557 C 513.222 -0.0597443 5.73369 0
M  V30 5558 N 512.718 0.0733004 6.92761 0
M  V30 5559 N 514.511 -0.11477 5.61983 0
M  V30 5560 H 506.662 0.96303 1.89313 0
M  V30 5561 H 508.925 0.373164 0.871466 0
M  V30 5562 H 508.631 0.820894 3.41986 0
M  V30 5563 H 508.505 -0.912798 3.65989 0
M  V30 5564 H 510.892 -1.18014 2.70475 0
M  V30 5565 H 510.973 0.574646 2.49262 0
M  V30 5566 H 510.617 0.872192 5.00355 0
M  V30 5567 H 510.547 -0.898281 5.18882 0
M  V30 5568 H 513.038 -0.243273 3.77116 0
M  V30 5569 H 513.351 0.128128 7.72694 0
M  V30 5570 H 511.696 0.10828 6.94916 0
M  V30 5571 H 514.887 -0.217212 4.67596 0
M  V30 5572 H 515.06 -0.0480779 6.47982 0
M  V30 5573 N 508.466 -1.55915 -0.229846 0
M  V30 5574 C 509.743 -1.6932 -0.979295 0
M  V30 5575 C 510.123 -0.588321 -2.02736 0
M  V30 5576 O 509.471 0.40586 -2.24867 0
M  V30 5577 C 509.681 -3.10305 -1.59724 0
M  V30 5578 C 511.029 -3.6945 -2.09264 0
M  V30 5579 O 512.053 -3.13214 -1.69633 0
M  V30 5580 O 510.912 -4.68072 -2.82082 0
M  V30 5581 H 508.006 -0.689314 -0.456919 0
M  V30 5582 H 510.552 -1.68238 -0.222283 0
M  V30 5583 H 509.324 -3.82177 -0.840039 0
M  V30 5584 H 508.947 -3.1547 -2.42001 0
M  V30 5585 N 509.944 0.496216 -1.49584 0
M  V30 5586 C 511.221 1.25755 -1.49816 0
M  V30 5587 C 511.601 2.09859 -0.228572 0
M  V30 5588 O 510.949 2.14449 0.788908 0
M  V30 5589 C 511.159 2.11017 -2.7798 0
M  V30 5590 C 512.507 2.70047 -3.27658 0
M  V30 5591 O 513.531 2.21281 -2.79129 0
M  V30 5592 O 512.39 3.58834 -4.1219 0
M  V30 5593 H 509.484 0.569322 -0.599834 0
M  V30 5594 H 512.03 0.510094 -1.61852 0
M  V30 5595 H 510.802 1.48879 -3.61871 0
M  V30 5596 H 510.425 2.92947 -2.68827 0
M  V30 5597 N 511.423 1.38739 0.74761 0
M  V30 5598 C 512.671 1.35007 1.50391 0
M  V30 5599 C 512.992 -0.0574274 1.94915 0
M  V30 5600 O 512.262 -1.00628 1.6808 0
M  V30 5601 H 510.842 0.496784 0.557866 0
M  V30 5602 H 513.504 1.73479 0.888319 0
M  V30 5603 H 512.6 2.00474 2.392 0
M  V30 5604 N 512.901 -0.976442 1.23707 0
M  V30 5605 C 513.831 -2.08749 1.04624 0
M  V30 5606 C 514.812 -1.70057 -0.0380956 0
M  V30 5607 O 515.997 -1.93782 0.127308 0
M  V30 5608 C 513.127 -3.41335 0.640902 0
M  V30 5609 C 512.081 -3.93947 1.67302 0
M  V30 5610 C 511.407 -5.22774 1.12301 0
M  V30 5611 C 512.707 -4.22769 3.06697 0
M  V30 5612 H 514.401 -2.24972 1.97555 0
M  V30 5613 H 511.947 -1.08108 0.951247 0
M  V30 5614 H 513.9 -4.18489 0.494434 0
M  V30 5615 H 512.624 -3.24988 -0.324099 0
M  V30 5616 H 511.283 -3.18941 1.80755 0
M  V30 5617 H 510.931 -5.0278 0.148877 0
M  V30 5618 H 510.631 -5.58942 1.81267 0
M  V30 5619 H 512.155 -6.02546 0.988479 0
M  V30 5620 H 513.569 -4.90659 2.96524 0
M  V30 5621 H 511.966 -4.70147 3.72937 0
M  V30 5622 H 513.036 -3.29885 3.55392 0
M  V30 5623 N 514.379 -1.04941 -1.1758 0
M  V30 5624 C 515.312 -0.592518 -2.20373 0
M  V30 5625 C 516.29 0.377561 -1.58156 0
M  V30 5626 O 517.474 0.28978 -1.86259 0
M  V30 5627 C 514.601 0.133215 -3.38438 0
M  V30 5628 C 513.647 -0.791484 -4.19092 0
M  V30 5629 S 514.48 -2.27925 -4.84572 0
M  V30 5630 C 515.636 -1.56462 -6.06028 0
M  V30 5631 H 515.869 -1.46342 -2.58788 0
M  V30 5632 H 513.402 -0.861148 -1.28155 0
M  V30 5633 H 515.36 0.545746 -4.06856 0
M  V30 5634 H 514.021 0.980124 -2.98416 0
M  V30 5635 H 513.214 -0.230039 -5.03475 0
M  V30 5636 H 512.816 -1.14326 -3.56098 0
M  V30 5637 H 515.108 -0.862539 -6.71987 0
M  V30 5638 H 516.051 -2.38583 -6.66696 0
M  V30 5639 H 516.459 -1.05313 -5.5459 0
M  V30 5640 N 515.857 1.33968 -0.830081 0
M  V30 5641 C 517.087 2.01987 -0.434142 0
M  V30 5642 C 517.495 1.62639 0.96671 0
M  V30 5643 O 516.838 0.831151 1.63822 0
M  V30 5644 C 516.9 3.5648 -0.465018 0
M  V30 5645 C 516.564 4.19176 -1.82045 0
M  V30 5646 C 517.561 4.39181 -2.78237 0
M  V30 5647 C 515.246 4.55792 -2.11089 0
M  V30 5648 C 517.24 4.94937 -4.01642 0
M  V30 5649 C 514.927 5.11258 -3.34752 0
M  V30 5650 C 515.925 5.30775 -4.29845 0
M  V30 5651 O 515.613 5.85064 -5.51322 0
M  V30 5652 H 515.345 0.653847 -0.171639 0
M  V30 5653 H 517.899 1.72066 -1.12171 0
M  V30 5654 H 516.129 3.8569 0.279284 0
M  V30 5655 H 517.818 4.05804 -0.0881334 0
M  V30 5656 H 518.584 4.11249 -2.57097 0
M  V30 5657 H 514.463 4.39901 -1.3787 0
M  V30 5658 H 518.007 5.10086 -4.75876 0
M  V30 5659 H 513.904 5.38619 -3.55753 0
M  V30 5660 H 514.672 6.03489 -5.5294 0
M  V30 5661 N 517.335 0.585699 1.46312 0
M  V30 5662 C 518.581 0.0725284 2.0267 0
M  V30 5663 C 518.914 -1.28523 1.45586 0
M  V30 5664 O 518.189 -1.84283 0.622101 0
M  V30 5665 C 518.472 0.0099788 3.60099 0
M  V30 5666 C 518.325 1.39685 4.27561 0
M  V30 5667 C 519.644 -0.689117 4.34671 0
M  V30 5668 H 516.763 0.0278307 0.736474 0
M  V30 5669 H 519.405 0.753472 1.74421 0
M  V30 5670 H 517.555 -0.56992 3.84297 0
M  V30 5671 H 519.227 2.02215 4.14617 0
M  V30 5672 H 517.47 1.96374 3.86807 0
M  V30 5673 H 518.141 1.30553 5.36339 0
M  V30 5674 H 520.617 -0.196446 4.15636 0
M  V30 5675 H 519.493 -0.701921 5.44393 0
M  V30 5676 H 519.754 -1.75101 4.05946 0
M  V30 5677 N 518.813 -1.54241 0.323641 0
M  V30 5678 C 520.041 -2.04985 -0.280871 0
M  V30 5679 C 520.456 -1.19978 -1.45777 0
M  V30 5680 O 519.813 -0.230471 -1.81039 0
M  V30 5681 C 519.864 -3.54353 -0.715258 0
M  V30 5682 O 519.585 -4.36132 0.414817 0
M  V30 5683 C 521.086 -4.21189 -1.38257 0
M  V30 5684 H 518.306 -0.66851 -0.0577502 0
M  V30 5685 H 520.85 -1.99029 0.469852 0
M  V30 5686 H 519.005 -3.60596 -1.41596 0
M  V30 5687 H 519.419 -5.2445 0.0725227 0
M  V30 5688 H 520.893 -5.27154 -1.63745 0
M  V30 5689 H 521.37 -3.72307 -2.32989 0
M  V30 5690 H 521.976 -4.19085 -0.724447 0
M  V30 5691 N 520.291 -0.0518155 -1.57515 0
M  V30 5692 C 521.707 0.304735 -1.56664 0
M  V30 5693 C 521.907 1.71395 -1.05953 0
M  V30 5694 O 520.963 2.42123 -0.716414 0
M  V30 5695 C 522.276 0.132614 -3.00407 0
M  V30 5696 C 523.824 0.20367 -3.12337 0
M  V30 5697 C 524.299 0.0600706 -4.57961 0
M  V30 5698 N 525.79 0.116326 -4.63054 0
M  V30 5699 C 526.525 0.0293363 -5.73392 0
M  V30 5700 N 526.021 -0.110038 -6.92713 0
M  V30 5701 N 527.814 0.0849651 -5.62036 0
M  V30 5702 H 519.965 -0.973056 -1.888 0
M  V30 5703 H 522.228 -0.377781 -0.869474 0
M  V30 5704 H 521.934 -0.839019 -3.41546 0
M  V30 5705 H 521.808 0.893376 -3.66468 0
M  V30 5706 H 524.195 1.16578 -2.71097 0
M  V30 5707 H 524.276 -0.587857 -2.48954 0
M  V30 5708 H 523.92 -0.898715 -4.99886 0
M  V30 5709 H 523.85 0.87075 -5.19351 0
M  V30 5710 H 526.341 0.22327 -3.7724 0
M  V30 5711 H 526.654 -0.169104 -7.72615 0
M  V30 5712 H 524.999 -0.145132 -6.94848 0
M  V30 5713 H 528.19 0.192411 -4.67704 0
M  V30 5714 H 528.363 0.0137131 -6.47999 0
M  V30 5715 N 521.769 1.56035 0.221574 0
M  V30 5716 C 522.699 1.95434 1.2778 0
M  V30 5717 C 523.68 0.822564 1.48889 0
M  V30 5718 O 524.865 1.08486 1.61072 0
M  V30 5719 C 521.995 2.27102 2.62759 0
M  V30 5720 C 520.949 3.4277 2.56306 0
M  V30 5721 C 520.275 3.60043 3.95314 0
M  V30 5722 C 521.575 4.77742 2.11093 0
M  V30 5723 H 523.269 2.83912 0.950504 0
M  V30 5724 H 520.815 1.36596 0.455791 0
M  V30 5725 H 522.768 2.53256 3.36807 0
M  V30 5726 H 521.492 1.35478 2.97176 0
M  V30 5727 H 520.151 3.16664 1.84715 0
M  V30 5728 H 519.799 2.65794 4.27039 0
M  V30 5729 H 519.499 4.37841 3.91879 0
M  V30 5730 H 521.023 3.88545 4.71025 0
M  V30 5731 H 522.437 5.03102 2.74885 0
M  V30 5732 H 520.834 5.58823 2.18716 0
M  V30 5733 H 521.904 4.731 1.06321 0
M  V30 5734 N 523.247 -0.488276 1.49845 0
M  V30 5735 C 524.663 -0.820566 1.3689 0
M  V30 5736 C 524.863 -1.97248 0.411752 0
M  V30 5737 O 523.919 -2.52042 -0.151931 0
M  V30 5738 C 525.232 -1.1488 2.77891 0
M  V30 5739 C 526.78 -1.25626 2.86683 0
M  V30 5740 C 527.255 -1.61772 4.28479 0
M  V30 5741 N 528.746 -1.68797 4.31349 0
M  V30 5742 C 529.481 -1.98235 5.38043 0
M  V30 5743 N 528.977 -2.2581 6.54967 0
M  V30 5744 N 530.77 -1.99593 5.2547 0
M  V30 5745 H 522.921 0.271123 2.10662 0
M  V30 5746 H 525.184 0.058735 0.946179 0
M  V30 5747 H 524.89 -0.375614 3.49688 0
M  V30 5748 H 524.764 -2.08919 3.14058 0
M  V30 5749 H 527.151 -2.02014 2.15114 0
M  V30 5750 H 527.232 -0.296072 2.54081 0
M  V30 5751 H 526.876 -0.859295 5.00578 0
M  V30 5752 H 526.806 -2.58912 4.58554 0
M  V30 5753 H 529.297 -1.49595 3.4703 0
M  V30 5754 H 529.61 -2.47497 7.32096 0
M  V30 5755 H 527.955 -2.23239 6.58171 0
M  V30 5756 H 531.146 -1.77535 4.33127 0
M  V30 5757 H 531.319 -2.222 6.08713 0
M  V30 5758 N 524.725 -1.39134 -0.740242 0
M  V30 5759 C 525.673 -1.3757 -1.87556 0
M  V30 5760 C 526.667 -0.259593 -1.67399 0
M  V30 5761 O 527.873 -0.429349 -1.74804 0
M  V30 5762 H 524.248 -0.42947 -0.6173 0
M  V30 5763 H 526.219 -2.33345 -1.85991 0
M  V30 5764 C 524.968 -1.23087 -3.25184 0
M  V30 5765 H 524.291 -2.08237 -3.41288 0
M  V30 5766 H 525.731 -1.26049 -4.0483 0
M  V30 5767 C 524.19 0.0611471 -3.36845 0
M  V30 5768 O 524.72 1.03328 -3.88183 0
M  V30 5769 N 522.926 0.122454 -2.90342 0
M  V30 5770 H 522.473 -0.669329 -2.48752 0
M  V30 5771 H 522.431 0.986463 -2.98523 0
M  V30 5772 N 526.204 0.969867 -1.24223 0
M  V30 5773 C 527.45 1.7151 -1.08223 0
M  V30 5774 C 527.783 1.90478 0.37838 0
M  V30 5775 O 527.058 1.4647 1.27971 0
M  V30 5776 C 527.341 3.10714 -1.82013 0
M  V30 5777 C 527.194 2.9925 -3.35811 0
M  V30 5778 C 528.513 4.10332 -1.59108 0
M  V30 5779 H 525.632 0.622499 -0.394543 0
M  V30 5780 H 528.274 1.1284 -1.52863 0
M  V30 5781 H 526.424 3.608 -1.44068 0
M  V30 5782 H 528.096 2.56608 -3.83341 0
M  V30 5783 H 526.339 2.35512 -3.64303 0
M  V30 5784 H 527.01 3.97857 -3.82641 0
M  V30 5785 H 529.486 3.69097 -1.92111 0
M  V30 5786 H 528.362 5.05804 -2.13198 0
M  V30 5787 H 528.623 4.38926 -0.528832 0
M  V30 5788 N 527.682 1.05563 1.17022 0
M  V30 5789 C 528.93 0.76642 1.87004 0
M  V30 5790 C 529.251 -0.708854 1.8166 0
M  V30 5791 O 528.521 -1.51242 1.2451 0
M  V30 5792 H 527.101 0.280516 0.692329 0
M  V30 5793 H 529.763 1.33557 1.41945 0
M  V30 5794 H 528.859 1.08472 2.92644 0
M  V30 5795 N 529.16 -1.33526 0.837174 0
M  V30 5796 C 530.406 -1.9813 0.432704 0
M  V30 5797 C 530.739 -1.66168 -1.00508 0
M  V30 5798 O 530.014 -0.94069 -1.70239 0
M  V30 5799 C 530.297 -3.54151 0.651834 0
M  V30 5800 C 530.15 -3.95806 2.13676 0
M  V30 5801 C 531.469 -4.39993 0.0968937 0
M  V30 5802 H 528.588 -0.719713 0.15869 0
M  V30 5803 H 531.23 -1.58193 1.05237 0
M  V30 5804 H 529.38 -3.88301 0.124369 0
M  V30 5805 H 531.052 -3.71921 2.72896 0
M  V30 5806 H 529.295 -3.45599 2.62191 0
M  V30 5807 H 529.966 -5.0447 2.24084 0
M  V30 5808 H 532.442 -4.12479 0.547733 0
M  V30 5809 H 531.318 -5.48186 0.279917 0
M  V30 5810 H 531.579 -4.3066 -0.9992 0
M  V30 5811 N 530.638 -0.59345 -1.46 0
M  V30 5812 C 531.57 0.171569 -2.28557 0
M  V30 5813 C 532.583 0.845273 -1.39137 0
M  V30 5814 O 533.772 0.713033 -1.6364 0
M  V30 5815 C 530.872 1.26311 -3.14482 0
M  V30 5816 C 530.045 0.679258 -4.32094 0
M  V30 5817 C 529.104 1.65987 -4.99334 0
M  V30 5818 O 528.13 1.19171 -5.56585 0
M  V30 5819 N 529.332 2.99414 -4.97324 0
M  V30 5820 H 532.097 -0.536771 -2.94854 0
M  V30 5821 H 529.658 -0.431954 -1.56031 0
M  V30 5822 H 531.65 1.91863 -3.5633 0
M  V30 5823 H 530.22 1.87416 -2.50188 0
M  V30 5824 H 529.44 -0.153992 -3.93899 0
M  V30 5825 H 530.728 0.26916 -5.08088 0
M  V30 5826 H 530.126 3.40064 -4.52076 0
M  V30 5827 H 528.683 3.60426 -5.4308 0
M  V30 5828 N 532.116 1.54067 -0.331816 0
M  V30 5829 C 533.362 2.01012 0.268667 0
M  V30 5830 C 533.695 1.2195 1.51136 0
M  V30 5831 O 532.97 0.303972 1.9211 0
M  V30 5832 C 533.253 3.55158 0.59456 0
M  V30 5833 C 533.106 4.4494 -0.659409 0
M  V30 5834 C 534.425 4.16939 1.4089 0
M  V30 5835 H 531.544 0.730698 0.0961756 0
M  V30 5836 H 534.186 1.84593 -0.450031 0
M  V30 5837 H 532.336 3.6928 1.20685 0
M  V30 5838 H 534.008 4.42675 -1.29756 0
M  V30 5839 H 532.251 4.1428 -1.28665 0
M  V30 5840 H 532.922 5.50643 -0.386804 0
M  V30 5841 H 535.398 4.06443 0.891272 0
M  V30 5842 H 534.274 5.24889 1.60569 0
M  V30 5843 H 534.535 3.70798 2.40752 0
M  V30 5844 N 533.594 0.0601682 1.57485 0
M  V30 5845 C 534.84 -0.612501 1.93329 0
M  V30 5846 C 535.173 -1.6996 0.939526 0
M  V30 5847 O 534.448 -1.94472 -0.0330957 0
M  V30 5848 C 534.731 -1.20025 3.39508 0
M  V30 5849 C 534.584 -0.12059 4.49638 0
M  V30 5850 C 535.903 -2.10923 3.86264 0
M  V30 5851 H 533.022 -0.221185 0.703027 0
M  V30 5852 H 535.664 0.123768 1.89596 0
M  V30 5853 H 533.814 -1.82774 3.42821 0
M  V30 5854 H 535.486 0.51185 4.58452 0
M  V30 5855 H 533.729 0.550251 4.30296 0
M  V30 5856 H 534.4 -0.572019 5.49028 0
M  V30 5857 H 536.876 -1.58124 3.84884 0
M  V30 5858 H 535.752 -2.48987 4.8918 0
M  V30 5859 H 536.013 -3.01292 3.23536 0
M  V30 5860 N 535.072 -1.5615 -0.213296 0
M  V30 5861 C 536.022 -1.89485 -1.26804 0
M  V30 5862 C 537.006 -0.758713 -1.41889 0
M  V30 5863 O 538.198 -1.02127 -1.44565 0
M  V30 5864 C 535.327 -2.22219 -2.61675 0
M  V30 5865 C 534.413 -3.42245 -2.50458 0
M  V30 5866 N 534.804 -4.60645 -2.089 0
M  V30 5867 C 533.102 -3.46023 -2.81397 0
M  V30 5868 C 533.803 -5.42805 -2.09135 0
M  V30 5869 N 532.779 -4.82732 -2.49941 0
M  V30 5870 H 536.581 -2.78537 -0.937771 0
M  V30 5871 H 534.095 -1.56826 -0.421824 0
M  V30 5872 H 536.092 -2.44278 -3.37837 0
M  V30 5873 H 534.752 -1.34484 -2.95541 0
M  V30 5874 H 535.763 -4.85651 -1.79899 0
M  V30 5875 H 532.44 -2.68654 -3.1958 0
M  V30 5876 H 533.83 -6.47601 -1.79059 0
M  V30 5877 N 536.55 0.480323 -1.50102 0
M  V30 5878 C 537.46 1.60547 -1.71061 0
M  V30 5879 C 538.476 1.63564 -0.593529 0
M  V30 5880 O 539.652 1.81604 -0.870751 0
M  V30 5881 C 536.717 2.96814 -1.79171 0
M  V30 5882 C 535.778 3.04259 -3.02861 0
M  V30 5883 C 535.011 4.34027 -3.10574 0
M  V30 5884 O 535.234 5.24009 -2.25323 0
M  V30 5885 O 534.168 4.46873 -4.03223 0
M  V30 5886 H 537.994 1.45788 -2.6642 0
M  V30 5887 H 535.579 0.658838 -1.34088 0
M  V30 5888 H 537.461 3.77765 -1.86738 0
M  V30 5889 H 536.136 3.11791 -0.869947 0
M  V30 5890 H 535.043 2.22419 -3.008 0
M  V30 5891 H 536.376 2.94216 -3.94586 0
M  V30 5892 N 538.028 1.39524 0.732853 0
M  V30 5893 C 538.978 1.34905 1.83806 0
M  V30 5894 C 539.962 0.229546 1.59254 0
M  V30 5895 O 541.154 0.467255 1.70721 0
M  V30 5896 C 538.283 1.19699 3.21756 0
M  V30 5897 C 537.369 2.36359 3.5213 0
M  V30 5898 N 537.76 3.61834 3.53426 0
M  V30 5899 C 536.058 2.29363 3.82503 0
M  V30 5900 C 536.759 4.38992 3.81655 0
M  V30 5901 N 535.735 3.68606 3.99538 0
M  V30 5902 H 539.537 2.29882 1.83116 0
M  V30 5903 H 537.051 1.33051 0.931194 0
M  V30 5904 H 539.048 1.14472 4.00876 0
M  V30 5905 H 537.708 0.256739 3.23683 0
M  V30 5906 H 538.719 3.95228 3.34686 0
M  V30 5907 H 535.396 1.43612 3.92023 0
M  V30 5908 H 536.786 5.47763 3.89108 0
M  V30 5909 N 539.506 -0.963266 1.24736 0
M  V30 5910 C 540.755 -1.70115 1.08369 0
M  V30 5911 C 541.068 -1.91939 -0.376688 0
M  V30 5912 O 542.274 -2.6334 -0.660624 0
M  V30 5913 C 540.73 -3.06218 1.89099 0
M  V30 5914 C 540.338 -2.92221 3.39574 0
M  V30 5915 C 542.082 -3.83848 1.81275 0
M  V30 5916 C 539.989 -4.23662 4.12631 0
M  V30 5917 H 538.919 -0.637944 0.401924 0
M  V30 5918 H 541.57 -1.07304 1.48856 0
M  V30 5919 H 539.952 -3.69884 1.41429 0
M  V30 5920 H 541.126 -2.37541 3.94856 0
M  V30 5921 H 539.441 -2.28054 3.48397 0
M  V30 5922 H 542.038 -4.81188 2.33158 0
M  V30 5923 H 542.381 -4.08949 0.778895 0
M  V30 5924 H 542.914 -3.26918 2.26649 0
M  V30 5925 H 539.653 -4.03753 5.16395 0
M  V30 5926 H 539.173 -4.78141 3.62135 0
M  V30 5927 H 540.852 -4.92256 4.19873 0
M  V30 5928 N 540.985 -1.06182 -1.16461 0
M  V30 5929 C 541.895 -0.682671 -2.24448 0
M  V30 5930 C 542.911 0.30078 -1.71381 0
M  V30 5931 O 544.087 0.150376 -2.00838 0
M  V30 5932 C 541.152 -0.0737202 -3.46622 0
M  V30 5933 C 540.213 -1.10889 -4.14731 0
M  V30 5934 C 539.446 -0.528908 -5.31073 0
M  V30 5935 O 539.669 0.65868 -5.66584 0
M  V30 5936 O 538.603 -1.26805 -5.88391 0
M  V30 5937 H 542.429 -1.58291 -2.59187 0
M  V30 5938 H 540.014 -0.834013 -1.23954 0
M  V30 5939 H 541.896 0.264192 -4.20571 0
M  V30 5940 H 540.571 0.800015 -3.13658 0
M  V30 5941 H 539.478 -1.49896 -3.42756 0
M  V30 5942 H 540.811 -1.95412 -4.51747 0
M  V30 5943 N 542.463 1.3308 -0.844243 0
M  V30 5944 C 543.74 1.92178 -0.364261 0
M  V30 5945 C 544.12 1.76961 1.15101 0
M  V30 5946 O 543.468 1.16128 1.9679 0
M  V30 5947 C 543.678 3.393 -0.817106 0
M  V30 5948 C 545.026 4.16444 -0.828236 0
M  V30 5949 O 546.05 3.47975 -0.761062 0
M  V30 5950 O 544.909 5.38685 -0.920926 0
M  V30 5951 H 542.003 0.820411 -0.10419 0
M  V30 5952 H 544.549 1.41918 -0.930453 0
M  V30 5953 H 543.321 3.44272 -1.85991 0
M  V30 5954 H 542.944 3.96947 -0.227785 0
M  V30 5955 N 543.941 0.601185 1.45683 0
M  V30 5956 C 545.189 0.0936957 2.01883 0
M  V30 5957 C 545.51 -1.2779 1.47291 0
M  V30 5958 O 544.78 -1.84279 0.664691 0
M  V30 5959 H 543.36 0.0316466 0.746329 0
M  V30 5960 H 546.022 0.781137 1.78562 0
M  V30 5961 H 545.118 0.0386297 3.12076 0
M  V30 5962 N 545.419 -1.53889 0.339982 0
M  V30 5963 C 546.668 -2.00035 -0.258604 0
M  V30 5964 C 546.981 -1.23179 -1.51942 0
M  V30 5965 O 548.187 -1.59784 -2.19503 0
M  V30 5966 C 546.643 -3.56249 -0.511359 0
M  V30 5967 C 546.251 -4.41957 0.733349 0
M  V30 5968 C 547.995 -4.1082 -1.069 0
M  V30 5969 C 545.902 -5.89673 0.451591 0
M  V30 5970 H 544.832 -0.747284 -0.10041 0
M  V30 5971 H 547.483 -1.77776 0.454758 0
M  V30 5972 H 545.865 -3.7456 -1.28533 0
M  V30 5973 H 547.039 -4.35421 1.50815 0
M  V30 5974 H 545.354 -3.9836 1.21237 0
M  V30 5975 H 547.951 -5.18789 -1.2947 0
M  V30 5976 H 548.294 -3.63817 -2.02343 0
M  V30 5977 H 548.827 -3.96205 -0.355817 0
M  V30 5978 H 545.566 -6.40903 1.37565 0
M  V30 5979 H 545.086 -5.99122 -0.285193 0
M  V30 5980 H 546.765 -6.46965 0.0675067 0
M  V30 5981 N 546.897 -0.0685191 -1.57451 0
M  V30 5982 C 547.847 0.909895 -2.09057 0
M  V30 5983 C 548.831 1.26088 -0.999528 0
M  V30 5984 O 550.023 1.24041 -1.26265 0
M  V30 5985 C 547.152 2.17863 -2.65312 0
M  V30 5986 C 546.238 1.85427 -3.81415 0
M  V30 5987 N 546.629 1.23426 -4.9051 0
M  V30 5988 C 544.927 2.15196 -3.90649 0
M  V30 5989 C 545.628 1.09008 -5.71395 0
M  V30 5990 N 544.604 1.59871 -5.1956 0
M  V30 5991 H 548.406 0.426145 -2.90794 0
M  V30 5992 H 545.92 0.135462 -1.61834 0
M  V30 5993 H 547.917 2.88872 -3.00597 0
M  V30 5994 H 546.577 2.66829 -1.85021 0
M  V30 5995 H 547.588 0.904305 -5.09944 0
M  V30 5996 H 544.265 2.66562 -3.21327 0
M  V30 5997 H 545.655 0.607305 -6.6915 0
M  V30 5998 N 548.375 1.56261 0.205012 0
M  V30 5999 C 549.623 1.79684 0.925096 0
M  V30 6000 C 549.944 0.63989 1.84202 0
M  V30 6001 O 549.214 -0.342345 1.92885 0
M  V30 6002 H 547.794 0.662774 0.344587 0
M  V30 6003 H 550.456 1.93734 0.212899 0
M  V30 6004 H 549.552 2.72467 1.52211 0
M  V30 6005 N 549.853 -0.472356 1.50355 0
M  V30 6006 C 550.816 -1.5529 1.68576 0
M  V30 6007 C 551.816 -1.50863 0.556511 0
M  V30 6008 O 553.006 -1.53505 0.823516 0
M  V30 6009 C 550.138 -2.94921 1.70981 0
M  V30 6010 H 551.331 -1.40451 2.64978 0
M  V30 6011 H 548.884 -0.698645 1.39816 0
M  V30 6012 H 549.619 -3.15204 0.762675 0
M  V30 6013 H 549.404 -2.99541 2.53017 0
M  V30 6014 H 550.894 -3.73372 1.87037 0
M  V30 6015 N 551.331 -1.39911 -0.725443 0
M  V30 6016 C 552.261 -1.42138 -1.85254 0
M  V30 6017 C 553.242 -0.283513 -1.67721 0
M  V30 6018 O 554.427 -0.490717 -1.87898 0
M  V30 6019 C 551.557 -1.27354 -3.23107 0
M  V30 6020 C 550.511 -2.3864 -3.55296 0
M  V30 6021 C 549.837 -2.08939 -4.92188 0
M  V30 6022 C 551.137 -3.8097 -3.57295 0
M  V30 6023 H 552.831 -2.36461 -1.83648 0
M  V30 6024 H 550.377 -1.13817 -0.882138 0
M  V30 6025 H 552.33 -1.2753 -4.01639 0
M  V30 6026 H 551.054 -0.295025 -3.25265 0
M  V30 6027 H 549.713 -2.37696 -2.79099 0
M  V30 6028 H 549.361 -1.09502 -4.90936 0
M  V30 6029 H 549.061 -2.83491 -5.14691 0
M  V30 6030 H 550.585 -2.10781 -5.73065 0
M  V30 6031 H 551.999 -3.8379 -4.25885 0
M  V30 6032 H 550.396 -4.5496 -3.9132 0
M  V30 6033 H 551.466 -4.11261 -2.5689 0
M  V30 6034 N 552.809 0.956637 -1.25245 0
M  V30 6035 C 554.034 1.74104 -1.12706 0
M  V30 6036 C 554.459 1.85436 0.315429 0
M  V30 6037 O 553.817 1.33334 1.22848 0
M  V30 6038 C 553.865 3.1338 -1.78396 0
M  V30 6039 O 552.969 3.98485 -1.06224 0
M  V30 6040 H 552.31 0.53476 -0.393609 0
M  V30 6041 H 554.84 1.19924 -1.65769 0
M  V30 6042 H 554.85 3.6385 -1.846 0
M  V30 6043 H 553.525 3.04448 -2.83345 0
M  V30 6044 H 552.102 3.56952 -1.07886 0
M  V30 6045 N 554.287 1.06798 1.15896 0
M  V30 6046 C 555.534 0.787767 1.86549 0
M  V30 6047 C 555.862 -0.685959 1.82002 0
M  V30 6048 O 555.117 -1.5188 1.23414 0
M  V30 6049 C 555.416 1.23414 3.35416 0
M  V30 6050 C 555.082 2.71285 3.6016 0
M  V30 6051 C 553.744 3.11676 3.66622 0
M  V30 6052 C 556.096 3.6676 3.7032 0
M  V30 6053 C 553.424 4.4637 3.8075 0
M  V30 6054 C 555.776 5.01209 3.8597 0
M  V30 6055 C 554.44 5.41229 3.90676 0
M  V30 6056 H 553.71 0.288264 0.682631 0
M  V30 6057 H 556.357 1.338 1.37003 0
M  V30 6058 H 554.662 0.60319 3.87129 0
M  V30 6059 H 556.359 0.994298 3.88477 0
M  V30 6060 H 552.949 2.39015 3.55767 0
M  V30 6061 H 557.133 3.36685 3.64633 0
M  V30 6062 H 552.389 4.76855 3.82648 0
M  V30 6063 H 556.563 5.75067 3.92773 0
M  V30 6064 H 554.19 6.45602 4.01375 0
M  V30 6065 N 555.766 -1.3263 0.851289 0
M  V30 6066 C 556.699 -2.26952 0.238318 0
M  V30 6067 C 557.677 -1.50243 -0.621757 0
M  V30 6068 O 558.861 -1.79378 -0.579298 0
M  V30 6069 C 555.988 -3.32124 -0.664178 0
M  V30 6070 C 555.034 -4.26325 0.122067 0
M  V30 6071 S 555.867 -5.14404 1.48824 0
M  V30 6072 C 557.023 -6.231 0.591372 0
M  V30 6073 H 557.256 -2.78594 1.03791 0
M  V30 6074 H 554.789 -1.4011 0.648731 0
M  V30 6075 H 556.747 -3.93197 -1.17924 0
M  V30 6076 H 555.408 -2.79273 -1.43755 0
M  V30 6077 H 554.601 -5.00821 -0.565181 0
M  V30 6078 H 554.203 -3.69652 0.568602 0
M  V30 6079 H 556.495 -6.77187 -0.205762 0
M  V30 6080 H 557.438 -6.95936 1.30687 0
M  V30 6081 H 557.846 -5.64252 0.167206 0
M  V30 6082 N 557.244 -0.608902 -1.45362 0
M  V30 6083 C 558.472 -0.111013 -2.06602 0
M  V30 6084 C 558.887 1.20516 -1.45332 0
M  V30 6085 O 558.244 1.73437 -0.567978 0
M  V30 6086 C 558.295 0.033688 -3.61484 0
M  V30 6087 O 558.016 -1.23041 -4.20467 0
M  V30 6088 C 559.517 0.562882 -4.39712 0
M  V30 6089 H 556.737 -0.0694453 -0.667397 0
M  V30 6090 H 559.281 -0.837008 -1.86586 0
M  V30 6091 H 557.436 0.710016 -3.80838 0
M  V30 6092 H 557.85 -1.06094 -5.13658 0
M  V30 6093 H 559.324 0.613213 -5.48583 0
M  V30 6094 H 559.801 1.58543 -4.09586 0
M  V30 6095 H 560.407 -0.0794454 -4.25226 0
M  V30 6096 N 558.722 1.53707 -0.348139 0
M  V30 6097 C 559.947 2.05877 0.250883 0
M  V30 6098 C 560.372 1.22115 1.43072 0
M  V30 6099 O 559.73 0.235986 1.79758 0
M  V30 6100 C 559.778 3.54886 0.639416 0
M  V30 6101 O 558.882 3.73948 1.73888 0
M  V30 6102 H 558.223 0.662754 0.040653 0
M  V30 6103 H 560.753 1.98303 -0.503685 0
M  V30 6104 H 560.763 3.97601 0.915295 0
M  V30 6105 H 559.438 4.153 -0.223386 0
M  V30 6106 H 558.015 3.43134 1.45991 0
M  V30 6107 N 560.2 0.0768682 1.57412 0
M  V30 6108 C 561.611 -0.455037 1.8107 0
M  V30 6109 C 561.962 -1.69323 0.991162 0
M  V30 6110 O 561.087 -2.15328 0.215156 0
M  V30 6111 C 561.682 -0.832316 3.28417 0
M  V30 6112 C 560.241 -1.30906 3.52903 0
M  V30 6113 C 559.388 -0.296714 2.75708 0
M  V30 6114 H 562.339 0.302514 1.5579 0
M  V30 6115 H 562.36 -1.69333 3.40744 0
M  V30 6116 H 561.872 0.0690532 3.88039 0
M  V30 6117 H 559.973 -2.22875 2.98592 0
M  V30 6118 H 560.086 -1.28348 4.61588 0
M  V30 6119 H 558.45 -0.775059 2.42621 0
M  V30 6120 H 559.233 0.597015 3.38069 0
M  V30 6121 N 561.678 -1.56367 -0.196722 0
M  V30 6122 C 562.925 -1.80529 -0.917366 0
M  V30 6123 C 563.253 -0.649817 -1.83324 0
M  V30 6124 O 562.508 0.36451 -1.92275 0
M  V30 6125 C 562.807 -3.10663 -1.767 0
M  V30 6126 C 562.473 -4.3962 -1.00225 0
M  V30 6127 C 561.135 -4.74653 -0.791095 0
M  V30 6128 C 563.487 -5.1913 -0.464035 0
M  V30 6129 C 560.815 -5.86692 -0.0302155 0
M  V30 6130 C 563.167 -6.31964 0.283625 0
M  V30 6131 C 561.831 -6.65581 0.505813 0
M  V30 6132 H 561.101 -0.660602 -0.335688 0
M  V30 6133 H 563.748 -1.90615 -0.183844 0
M  V30 6134 H 562.053 -2.95807 -2.56915 0
M  V30 6135 H 563.75 -3.26563 -2.32718 0
M  V30 6136 H 560.34 -4.12127 -1.17684 0
M  V30 6137 H 564.524 -4.9248 -0.614575 0
M  V30 6138 H 559.78 -6.11211 0.151917 0
M  V30 6139 H 563.954 -6.92791 0.708057 0
M  V30 6140 H 561.581 -7.52239 1.0973 0
M  V30 6141 N 563.156 0.464375 -1.50603 0
M  V30 6142 C 564.386 1.23727 -1.65454 0
M  V30 6143 C 564.794 1.86119 -0.340032 0
M  V30 6144 O 564.137 1.70301 0.688706 0
M  V30 6145 C 564.199 2.38153 -2.69301 0
M  V30 6146 C 563.863 1.96345 -4.12671 0
M  V30 6147 C 564.86 1.48215 -4.98326 0
M  V30 6148 C 562.545 2.04861 -4.58625 0
M  V30 6149 C 564.539 1.09152 -6.27985 0
M  V30 6150 C 562.226 1.65409 -5.88288 0
M  V30 6151 C 563.224 1.17634 -6.72794 0
M  V30 6152 O 562.912 0.787312 -8.00035 0
M  V30 6153 H 562.644 0.380075 -0.559034 0
M  V30 6154 H 565.198 0.559919 -1.97621 0
M  V30 6155 H 563.428 3.09081 -2.32392 0
M  V30 6156 H 565.117 3.00099 -2.73304 0
M  V30 6157 H 565.883 1.41052 -4.64036 0
M  V30 6158 H 561.762 2.40996 -3.92991 0
M  V30 6159 H 565.306 0.717909 -6.93896 0
M  V30 6160 H 561.203 1.72233 -6.22098 0
M  V30 6161 H 561.971 0.915567 -8.13363 0
M  V30 6162 N 564.634 1.40294 0.718013 0
M  V30 6163 C 565.564 1.43118 1.84498 0
M  V30 6164 C 566.545 0.292403 1.67568 0
M  V30 6165 O 567.73 0.500675 1.87635 0
M  V30 6166 C 564.86 1.29065 3.22427 0
M  V30 6167 C 563.814 2.40521 3.54025 0
M  V30 6168 C 563.14 2.11546 4.91073 0
M  V30 6169 C 564.44 3.82859 3.55269 0
M  V30 6170 H 566.134 2.37432 1.82391 0
M  V30 6171 H 563.68 1.14283 0.87609 0
M  V30 6172 H 565.633 1.29658 4.00957 0
M  V30 6173 H 564.357 0.312271 3.25104 0
M  V30 6174 H 563.016 2.39173 2.77834 0
M  V30 6175 H 562.664 1.12104 4.90348 0
M  V30 6176 H 562.364 2.86216 5.1318 0
M  V30 6177 H 563.888 2.13817 5.71939 0
M  V30 6178 H 565.302 3.86044 4.23843 0
M  V30 6179 H 563.699 4.57029 3.88902 0
M  V30 6180 H 564.769 4.12617 2.54706 0
M  V30 6181 N 566.112 -0.949982 1.2575 0
M  V30 6182 C 567.528 -1.22191 1.02672 0
M  V30 6183 C 567.728 -1.99898 -0.253588 0
M  V30 6184 O 566.784 -2.33329 -0.965076 0
M  V30 6185 C 568.097 -1.99175 2.25277 0
M  V30 6186 C 569.645 -2.12201 2.30087 0
M  V30 6187 C 570.12 -2.92586 3.5236 0
M  V30 6188 N 571.611 -3.00163 3.52784 0
M  V30 6189 C 572.346 -3.62766 4.44059 0
M  V30 6190 N 571.842 -4.26943 5.45611 0
M  V30 6191 N 573.635 -3.59953 4.3173 0
M  V30 6192 H 565.786 -0.430258 2.07996 0
M  V30 6193 H 568.049 -0.252844 0.91366 0
M  V30 6194 H 567.755 -1.49479 3.18354 0
M  V30 6195 H 567.629 -2.99868 2.28821 0
M  V30 6196 H 570.016 -2.61093 1.3753 0
M  V30 6197 H 570.097 -1.10799 2.30559 0
M  V30 6198 H 569.741 -2.44383 4.45241 0
M  V30 6199 H 569.671 -3.94224 3.49134 0
M  V30 6200 H 572.162 -2.54529 2.79327 0
M  V30 6201 H 572.475 -4.72583 6.11461 0
M  V30 6202 H 570.82 -4.25557 5.49478 0
M  V30 6203 H 574.011 -3.09003 3.51617 0
M  V30 6204 H 574.184 -4.08455 5.03059 0
M  V30 6205 N 567.59 -1.07411 -1.15328 0
M  V30 6206 C 568.52 -0.716472 -2.22236 0
M  V30 6207 C 569.501 0.296373 -1.67498 0
M  V30 6208 O 570.686 0.168989 -1.93463 0
M  V30 6209 C 567.816 -0.114142 -3.47112 0
M  V30 6210 C 566.77 -1.05421 -4.14814 0
M  V30 6211 C 566.096 -0.314604 -5.33774 0
M  V30 6212 C 567.396 -2.38808 -4.64508 0
M  V30 6213 H 569.09 -1.61029 -2.52408 0
M  V30 6214 H 566.636 -0.775702 -1.21321 0
M  V30 6215 H 568.589 0.148001 -4.2114 0
M  V30 6216 H 567.313 0.814755 -3.16274 0
M  V30 6217 H 565.972 -1.30128 -3.42728 0
M  V30 6218 H 565.62 0.617772 -4.99192 0
M  V30 6219 H 565.32 -0.941209 -5.80013 0
M  V30 6220 H 566.844 -0.0602747 -6.1057 0
M  V30 6221 H 568.258 -2.18424 -5.3006 0
M  V30 6222 H 566.655 -2.97069 -5.21412 0
M  V30 6223 H 567.725 -3.01067 -3.80114 0
M  V30 6224 N 569.068 1.32177 -0.85831 0
M  V30 6225 C 570.316 1.96735 -0.462568 0
M  V30 6226 C 570.637 1.6824 0.985911 0
M  V30 6227 O 569.907 0.991564 1.68952 0
M  V30 6228 H 568.487 0.727849 -0.168064 0
M  V30 6229 H 571.149 1.61195 -1.09554 0
M  V30 6230 H 570.245 3.06068 -0.610647 0
M  V30 6231 N 570.547 0.616602 1.45037 0
M  V30 6232 C 571.477 -0.0840787 2.33349 0
M  V30 6233 C 572.458 -0.849641 1.4736 0
M  V30 6234 O 573.643 -0.818407 1.76113 0
M  V30 6235 C 570.773 -1.07604 3.3021 0
M  V30 6236 C 569.727 -0.423096 4.25904 0
M  V30 6237 C 569.053 -1.52394 5.12523 0
M  V30 6238 C 570.353 0.661457 5.18095 0
M  V30 6239 H 572.047 0.653333 2.92185 0
M  V30 6240 H 569.593 0.315634 1.40498 0
M  V30 6241 H 571.546 -1.57485 3.90866 0
M  V30 6242 H 570.27 -1.84416 2.69552 0
M  V30 6243 H 568.929 0.05493 3.66559 0
M  V30 6244 H 568.577 -2.28257 4.48227 0
M  V30 6245 H 568.277 -1.09251 5.77354 0
M  V30 6246 H 569.801 -2.02485 5.76049 0
M  V30 6247 H 571.215 0.246353 5.7277 0
M  V30 6248 H 569.612 1.01517 5.91451 0
M  V30 6249 H 570.682 1.53446 4.59981 0
M  V30 6250 N 572.025 -1.5352 0.356285 0
M  V30 6251 C 573.441 -1.59599 0.00485267 0
M  V30 6252 C 573.641 -1.37179 -1.47595 0
M  V30 6253 O 572.697 -1.17234 -2.23635 0
M  V30 6254 C 574.01 -2.97277 0.452454 0
M  V30 6255 C 575.558 -3.10357 0.405881 0
M  V30 6256 C 576.033 -4.50432 0.829148 0
M  V30 6257 N 577.524 -4.5652 0.783838 0
M  V30 6258 C 578.259 -5.63077 1.08315 0
M  V30 6259 N 577.755 -6.77429 1.45126 0
M  V30 6260 N 579.548 -5.53014 1.00655 0
M  V30 6261 H 571.699 -1.66346 1.32071 0
M  V30 6262 H 573.962 -0.77971 0.539218 0
M  V30 6263 H 573.668 -3.18792 1.48542 0
M  V30 6264 H 573.542 -3.76836 -0.165762 0
M  V30 6265 H 575.929 -2.88558 -0.617934 0
M  V30 6266 H 576.01 -2.32828 1.05947 0
M  V30 6267 H 575.654 -4.72968 1.85103 0
M  V30 6268 H 575.584 -5.26378 0.152906 0
M  V30 6269 H 578.075 -3.74408 0.512513 0
M  V30 6270 H 578.388 -7.54669 1.66415 0
M  V30 6271 H 576.733 -6.78844 1.48983 0
M  V30 6272 H 579.924 -4.62557 0.718215 0
M  V30 6273 H 580.097 -6.35964 1.24315 0
M  V30 6274 N 573.503 -0.0852151 -1.57369 0
M  V30 6275 C 574.752 0.580443 -1.93168 0
M  V30 6276 C 575.065 1.6995 -0.968319 0
M  V30 6277 O 576.271 2.42564 -1.21963 0
M  V30 6278 C 574.727 1.08386 -3.43192 0
M  V30 6279 C 574.335 -0.00491388 -4.48 0
M  V30 6280 C 576.079 1.72281 -3.87968 0
M  V30 6281 C 573.986 0.513299 -5.89168 0
M  V30 6282 H 572.916 0.22059 -0.72101 0
M  V30 6283 H 575.567 -0.159621 -1.82804 0
M  V30 6284 H 573.949 1.8773 -3.48674 0
M  V30 6285 H 575.123 -0.780032 -4.5415 0
M  V30 6286 H 573.438 -0.548453 -4.12772 0
M  V30 6287 H 576.035 2.12108 -4.9083 0
M  V30 6288 H 576.378 2.58811 -3.26071 0
M  V30 6289 H 576.911 0.995359 -3.85146 0
M  V30 6290 H 573.65 -0.315153 -6.54742 0
M  V30 6291 H 573.17 1.25564 -5.8651 0
M  V30 6292 H 574.849 0.985433 -6.39451 0
M  V30 6293 N 574.981 1.5647 0.188427 0
M  V30 6294 C 576.397 1.50204 0.539532 0
M  V30 6295 C 576.597 0.78644 1.85519 0
M  V30 6296 O 575.653 0.339714 2.50204 0
M  V30 6297 C 576.966 2.94893 0.588103 0
M  V30 6298 C 578.514 3.05602 0.67648 0
M  V30 6299 C 578.989 4.51716 0.756101 0
M  V30 6300 N 580.48 4.55894 0.819451 0
M  V30 6301 C 581.215 5.66272 0.90134 0
M  V30 6302 N 580.711 6.86323 0.945118 0
M  V30 6303 N 582.504 5.54201 0.939043 0
M  V30 6304 H 574.655 2.01406 -0.674493 0
M  V30 6305 H 576.918 0.916828 -0.241103 0
M  V30 6306 H 576.624 3.50334 -0.309633 0
M  V30 6307 H 576.498 3.4861 1.44051 0
M  V30 6308 H 578.885 2.50206 1.56465 0
M  V30 6309 H 578.966 2.54999 -0.202262 0
M  V30 6310 H 578.61 5.07739 -0.12774 0
M  V30 6311 H 578.54 5.00058 1.65074 0
M  V30 6312 H 581.031 3.69452 0.794594 0
M  V30 6313 H 581.344 7.66194 1.0083 0
M  V30 6314 H 579.689 6.88968 0.913683 0
M  V30 6315 H 582.88 4.59333 0.901725 0
M  V30 6316 H 583.053 6.40247 0.999402 0
M  V30 6317 N 576.459 -0.456382 1.50847 0
M  V30 6318 C 577.736 -1.21739 1.53098 0
M  V30 6319 C 578.116 -2.09179 0.284132 0
M  V30 6320 O 577.464 -2.16466 -0.731773 0
M  V30 6321 C 577.674 -2.03573 2.83477 0
M  V30 6322 C 579.022 -2.61264 3.34703 0
M  V30 6323 O 580.046 -2.13802 2.84898 0
M  V30 6324 O 578.905 -3.47779 4.21559 0
M  V30 6325 H 575.999 -0.553219 0.614718 0
M  V30 6326 H 578.545 -0.467003 1.63148 0
M  V30 6327 H 577.317 -1.39232 3.65691 0
M  V30 6328 H 576.94 -2.85716 2.76499 0
M  V30 6329 N 577.937 -1.40673 -0.710563 0
M  V30 6330 C 578.87 -1.35742 -1.83438 0
M  V30 6331 C 579.848 -0.226997 -1.61008 0
M  V30 6332 O 581.032 -0.411477 -1.83954 0
M  V30 6333 C 578.159 -1.11374 -3.19865 0
M  V30 6334 C 577.205 -2.26935 -3.61113 0
M  V30 6335 S 578.038 -3.89352 -3.67648 0
M  V30 6336 C 579.194 -3.67258 -5.06826 0
M  V30 6337 H 579.427 -2.30848 -1.87341 0
M  V30 6338 H 576.96 -1.27018 -0.877831 0
M  V30 6339 H 578.918 -0.980004 -3.9863 0
M  V30 6340 H 577.579 -0.179135 -3.13589 0
M  V30 6341 H 576.772 -2.0554 -4.60184 0
M  V30 6342 H 576.374 -2.36638 -2.89618 0
M  V30 6343 H 578.666 -3.26036 -5.93891 0
M  V30 6344 H 579.609 -4.65878 -5.33257 0
M  V30 6345 H 580.017 -3.0084 -4.77656 0
M  V30 6346 N 579.415 0.9433 -1.26252 0
M  V30 6347 C 580.645 1.72117 -1.14277 0
M  V30 6348 C 581.053 1.86726 0.304944 0
M  V30 6349 O 580.396 1.3727 1.22076 0
M  V30 6350 C 580.458 3.14778 -1.73651 0
M  V30 6351 C 580.122 3.23561 -3.22734 0
M  V30 6352 C 581.119 3.07001 -4.19579 0
M  V30 6353 C 578.804 3.47019 -3.63157 0
M  V30 6354 C 580.798 3.13763 -5.54826 0
M  V30 6355 C 578.485 3.53416 -4.98538 0
M  V30 6356 C 579.483 3.36804 -5.94182 0
M  V30 6357 O 579.171 3.42906 -7.27098 0
M  V30 6358 H 578.903 0.545781 -0.398873 0
M  V30 6359 H 581.457 1.19123 -1.67328 0
M  V30 6360 H 579.687 3.69186 -1.1506 0
M  V30 6361 H 581.376 3.74469 -1.56613 0
M  V30 6362 H 582.142 2.88736 -3.89688 0
M  V30 6363 H 578.021 3.59006 -2.89199 0
M  V30 6364 H 581.565 3.00714 -6.29458 0
M  V30 6365 H 577.462 3.71201 -5.28091 0
M  V30 6366 H 578.23 3.59463 -7.35342 0
M  V30 6367 N 580.893 1.08022 1.14757 0
M  V30 6368 C 582.139 0.808705 1.85978 0
M  V30 6369 C 582.472 -0.663764 1.82504 0
M  V30 6370 O 581.747 -1.48765 1.25296 0
M  V30 6371 C 582.03 1.32623 3.34788 0
M  V30 6372 C 581.883 2.86375 3.46856 0
M  V30 6373 C 583.202 0.948291 4.29762 0
M  V30 6374 H 580.321 0.295244 0.675278 0
M  V30 6375 H 582.963 1.33917 1.34783 0
M  V30 6376 H 581.113 0.875002 3.78518 0
M  V30 6377 H 582.785 3.39839 3.11941 0
M  V30 6378 H 581.028 3.24232 2.88194 0
M  V30 6379 H 581.699 3.17658 4.51439 0
M  V30 6380 H 584.175 1.33722 3.94028 0
M  V30 6381 H 583.051 1.33765 5.32352 0
M  V30 6382 H 583.312 -0.145094 4.41862 0
M  V30 6383 N 582.371 -1.3172 0.865308 0
M  V30 6384 C 583.596 -2.01591 0.487415 0
M  V30 6385 C 584.021 -1.6455 -0.911307 0
M  V30 6386 O 583.379 -0.851689 -1.6005 0
M  V30 6387 C 583.427 -3.54759 0.646401 0
M  V30 6388 O 582.531 -4.11185 -0.316284 0
M  V30 6389 H 581.872 -0.634884 0.194468 0
M  V30 6390 H 584.402 -1.68024 1.16744 0
M  V30 6391 H 584.412 -4.04438 0.537932 0
M  V30 6392 H 583.087 -3.8106 1.66632 0
M  V30 6393 H 581.664 -3.72543 -0.163162 0
M  V30 6394 N 583.85 -0.624285 -1.44708 0
M  V30 6395 C 585.096 -0.13473 -2.02953 0
M  V30 6396 C 585.451 1.22724 -1.48178 0
M  V30 6397 O 584.744 1.80109 -0.653542 0
M  V30 6398 C 584.938 -0.0546353 -3.57358 0
M  V30 6399 C 584.767 -1.40729 -4.27113 0
M  V30 6400 C 583.537 -1.99231 -4.64365 0
M  V30 6401 C 585.735 -2.33968 -4.58 0
M  V30 6402 N 583.716 -3.27803 -5.19055 0
M  V30 6403 C 585.088 -3.47149 -5.137 0
M  V30 6404 C 587.143 -2.33132 -4.39948 0
M  V30 6405 C 585.846 -4.59682 -5.53249 0
M  V30 6406 C 587.872 -3.44724 -4.8054 0
M  V30 6407 C 587.234 -4.56629 -5.36348 0
M  V30 6408 H 583.332 -0.0930617 -0.776443 0
M  V30 6409 H 585.917 -0.826286 -1.76297 0
M  V30 6410 H 584.088 0.606183 -3.8364 0
M  V30 6411 H 585.82 0.443116 -4.02267 0
M  V30 6412 H 582.575 -1.52251 -4.4846 0
M  V30 6413 H 582.999 -3.93519 -5.50883 0
M  V30 6414 H 587.641 -1.47868 -3.961 0
M  V30 6415 H 585.359 -5.4566 -5.96054 0
M  V30 6416 H 588.945 -3.45245 -4.68291 0
M  V30 6417 H 587.825 -5.41551 -5.67179 0
M  V30 6418 N 585.328 1.53329 -0.364422 0
M  V30 6419 C 586.258 2.28627 0.474543 0
M  V30 6420 C 587.239 1.31009 1.08492 0
M  V30 6421 O 588.424 1.59878 1.10239 0
M  V30 6422 C 585.554 3.07465 1.61501 0
M  V30 6423 C 584.508 4.1276 1.13194 0
M  V30 6424 C 583.834 4.79674 2.36255 0
M  V30 6425 C 585.134 5.21847 0.217507 0
M  V30 6426 H 586.828 2.99005 -0.153656 0
M  V30 6427 H 584.374 1.43803 -0.0753406 0
M  V30 6428 H 586.327 3.58889 2.20855 0
M  V30 6429 H 585.051 2.34775 2.27042 0
M  V30 6430 H 583.71 3.62281 0.56109 0
M  V30 6431 H 583.358 4.03557 3.00251 0
M  V30 6432 H 583.058 5.50827 2.04606 0
M  V30 6433 H 584.582 5.33892 2.96297 0
M  V30 6434 H 585.996 5.6878 0.718493 0
M  V30 6435 H 584.393 6.00099 -0.00806408 0
M  V30 6436 H 585.463 4.7921 -0.740653 0
M  V30 6437 N 586.806 0.0935595 1.57322 0
M  V30 6438 C 588.083 -0.612692 1.85756 0
M  V30 6439 C 588.463 -1.86439 0.99013 0
M  V30 6440 O 587.811 -2.28416 0.0621362 0
M  V30 6441 C 588.021 -0.929547 3.36393 0
M  V30 6442 C 589.369 -1.29366 4.04413 0
M  V30 6443 O 590.393 -1.02061 3.41265 0
M  V30 6444 O 589.252 -1.80498 5.15832 0
M  V30 6445 H 586.346 -0.306444 0.768128 0
M  V30 6446 H 588.892 0.126141 1.69231 0
M  V30 6447 H 587.664 -0.0414766 3.91278 0
M  V30 6448 H 587.287 -1.72441 3.5826 0
M  V30 6449 N 588.284 -1.56567 -0.180126 0
M  V30 6450 C 589.231 -1.95725 -1.22313 0
M  V30 6451 C 590.201 -0.819911 -1.44453 0
M  V30 6452 O 591.386 -1.07931 -1.57339 0
M  V30 6453 C 588.526 -2.31484 -2.55947 0
M  V30 6454 C 587.639 -3.58354 -2.4126 0
M  V30 6455 C 586.774 -3.83366 -3.67701 0
M  V30 6456 C 585.813 -5.03612 -3.47909 0
M  V30 6457 N 584.95 -5.24802 -4.66398 0
M  V30 6458 H 589.79 -2.84642 -0.882198 0
M  V30 6459 H 587.327 -1.4085 -0.42422 0
M  V30 6460 H 589.285 -2.50237 -3.33822 0
M  V30 6461 H 587.915 -1.45689 -2.88053 0
M  V30 6462 H 586.967 -3.47565 -1.54606 0
M  V30 6463 H 588.279 -4.46386 -2.22577 0
M  V30 6464 H 587.433 -4.02439 -4.54013 0
M  V30 6465 H 586.172 -2.93692 -3.89353 0
M  V30 6466 H 585.177 -4.84447 -2.59983 0
M  V30 6467 H 586.402 -5.94809 -3.27688 0
M  V30 6468 H 584.348 -4.38079 -4.88286 0
M  V30 6469 H 584.265 -6.07041 -4.50596 0
M  V30 6470 H 585.533 -5.48346 -5.54019 0
M  V30 6471 N 589.762 0.448376 -1.51087 0
M  V30 6472 C 590.71 1.56407 -1.72161 0
M  V30 6473 C 591.704 1.58878 -0.587721 0
M  V30 6474 O 592.91 1.62755 -0.768822 0
M  V30 6475 H 589.285 0.519423 -0.543786 0
M  V30 6476 H 591.256 1.35803 -2.65707 0
M  V30 6477 C 590.005 2.94163 -1.85373 0
M  V30 6478 H 589.328 2.9299 -2.72024 0
M  V30 6479 H 590.768 3.71625 -2.04135 0
M  V30 6480 C 589.227 3.31317 -0.610803 0
M  V30 6481 O 589.757 4.00985 0.239636 0
M  V30 6482 N 587.963 2.86966 -0.458127 0
M  V30 6483 H 587.51 2.30443 -1.15124 0
M  V30 6484 H 587.468 3.12188 0.372289 0
M  V30 6485 N 591.24 1.41047 0.703093 0
M  V30 6486 C 592.17 1.45067 1.82969 0
M  V30 6487 C 593.151 0.31016 1.67248 0
M  V30 6488 O 594.336 0.520548 1.87093 0
M  V30 6489 C 591.466 1.32478 3.2104 0
M  V30 6490 C 590.42 2.44262 3.51454 0
M  V30 6491 C 589.746 2.16742 4.88801 0
M  V30 6492 C 591.046 3.86606 3.51189 0
M  V30 6493 H 592.74 2.39353 1.79863 0
M  V30 6494 H 590.286 1.15206 0.863919 0
M  V30 6495 H 592.239 1.33904 3.99559 0
M  V30 6496 H 590.963 0.346735 3.24754 0
M  V30 6497 H 589.622 2.42107 2.75282 0
M  V30 6498 H 589.27 1.17299 4.89132 0
M  V30 6499 H 588.97 2.91643 5.10116 0
M  V30 6500 H 590.494 2.19872 5.69639 0
M  V30 6501 H 591.908 3.90517 4.19725 0
M  V30 6502 H 590.305 4.61128 3.84033 0
M  V30 6503 H 591.375 4.15296 2.50315 0
M  V30 6504 O 592.757 -0.845013 1.37629 0
M  V30 6505 H 593.448 -1.48628 1.24215 0
M  V30 END ATOM
M  V30 BEGIN BOND
M  V30 END BOND
M  V30 END CTAB
M  END
$$$$
