drugbank_target|Q6P3R8 Serine/threonine-protein kinase Nek5 (DB12010)
 OpenBabel12092121173D

  0  0  0     0  0            999 V3000
M  V30 BEGIN CTAB
M  V30 COUNTS 11446 11573 0 0 0
M  V30 BEGIN ATOM
M  V30 1 H -0.908 1.98254 -0.117106 0
M  V30 2 N 0 1.576 0 0
M  V30 3 C 0.933 2.03868 1.02534 0
M  V30 4 C 1.911 0.928543 1.3348 0
M  V30 5 O 3.095 1.19667 1.45644 0
M  V30 6 C 0.222 2.43627 2.35294 0
M  V30 7 C -0.732 3.65373 2.2001 0
M  V30 8 S 0.101 5.13292 1.52614 0
M  V30 9 C 1.257 5.56322 2.86805 0
M  V30 10 H 1.49 2.90518 0.631377 0
M  V30 11 H -0.977 1.52953 0.210867 0
M  V30 12 H 0.981 2.67203 3.11629 0
M  V30 13 H -0.358 1.57376 2.7183 0
M  V30 14 H -1.165 3.90944 3.18086 0
M  V30 15 H -1.563 3.418 1.51819 0
M  V30 16 H 0.729 5.58782 3.83104 0
M  V30 17 H 1.672 6.56266 2.65933 0
M  V30 18 H 2.08 4.83886 2.90714 0
M  V30 19 N 1.4781 -0.272755 1.55222 0
M  V30 20 C 2.7551 -1.02562 1.66555 0
M  V30 21 C 3.1351 -2.04282 0.532189 0
M  V30 22 O 2.4831 -2.23662 -0.467717 0
M  V30 23 C 2.6931 -1.6822 3.05782 0
M  V30 24 C 4.0411 -2.19373 3.63539 0
M  V30 25 O 5.0651 -1.78206 3.08417 0
M  V30 26 O 3.9241 -2.94883 4.60115 0
M  V30 27 H 1.0181 -0.475755 0.676451 0
M  V30 28 H 3.5641 -0.268593 1.67561 0
M  V30 29 H 2.3361 -0.945112 3.79715 0
M  V30 30 H 1.9591 -2.50609 3.08676 0
M  V30 31 N 2.9562 -1.48159 -0.537278 0
M  V30 32 C 3.9032 -1.62138 -1.64256 0
M  V30 33 C 4.8732 -0.463668 -1.59497 0
M  V30 34 O 6.0582 -0.686241 -1.78032 0
M  V30 35 C 3.1982 -1.66028 -3.02537 0
M  V30 36 C 2.3112 -2.92855 -3.17585 0
M  V30 37 C 1.4462 -2.87952 -4.46382 0
M  V30 38 C 0.4852 -4.09516 -4.54932 0
M  V30 39 N -0.3778 -4.02733 -5.75109 0
M  V30 40 H 4.4622 -2.56529 -1.51647 0
M  V30 41 H 1.9992 -1.27224 -0.738414 0
M  V30 42 H 3.9572 -1.66265 -3.82638 0
M  V30 43 H 2.5872 -0.751331 -3.13934 0
M  V30 44 H 1.6392 -3.02395 -2.30784 0
M  V30 45 H 2.9512 -3.82822 -3.19764 0
M  V30 46 H 2.1052 -2.8655 -5.34765 0
M  V30 47 H 0.8442 -1.95702 -4.46712 0
M  V30 48 H -0.1508 -4.11201 -3.64957 0
M  V30 49 H 1.0742 -5.02917 -4.56346 0
M  V30 50 H -0.9798 -3.13299 -5.76351 0
M  V30 51 H -1.0628 -4.86397 -5.78752 0
M  V30 52 H 0.2052 -4.05379 -6.65799 0
M  V30 53 N 4.4343 0.785586 -1.36625 0
M  V30 54 C 5.6643 1.5722 -1.34036 0
M  V30 55 C 6.0723 1.89033 0.0795062 0
M  V30 56 O 5.4153 1.50881 1.04789 0
M  V30 57 C 5.4773 2.91759 -2.10041 0
M  V30 58 C 5.1413 2.82654 -3.59104 0
M  V30 59 C 6.1383 2.54634 -4.53274 0
M  V30 60 C 3.8233 3.01111 -4.02042 0
M  V30 61 C 5.8173 2.45177 -5.88359 0
M  V30 62 C 3.5043 2.91276 -5.37216 0
M  V30 63 C 4.5023 2.63348 -6.30188 0
M  V30 64 O 4.1903 2.53514 -7.6288 0
M  V30 65 H 3.9223 0.494177 -0.461265 0
M  V30 66 H 6.4763 0.982632 -1.8037 0
M  V30 67 H 4.7063 3.52781 -1.58375 0
M  V30 68 H 6.3953 3.53059 -2.00261 0
M  V30 69 H 7.1613 2.40073 -4.21414 0
M  V30 70 H 3.0403 3.21854 -3.30047 0
M  V30 71 H 6.5843 2.23299 -6.60896 0
M  V30 72 H 2.4813 3.054 -5.68684 0
M  V30 73 H 3.2493 2.68967 -7.73045 0
M  V30 74 N 5.9124 1.20967 1.01018 0
M  V30 75 C 7.1894 0.93264 1.71934 0
M  V30 76 C 7.5694 -0.55692 2.03621 0
M  V30 77 O 6.9174 -1.52035 1.7058 0
M  V30 78 C 7.1274 1.81233 2.98254 0
M  V30 79 C 8.4754 2.05804 3.71389 0
M  V30 80 O 9.4994 1.78539 3.08225 0
M  V30 81 O 8.3584 2.51888 4.84989 0
M  V30 82 H 5.4524 0.349272 0.749625 0
M  V30 83 H 7.9984 1.31871 1.06808 0
M  V30 84 H 6.7704 2.82067 2.71208 0
M  V30 85 H 6.3934 1.42674 3.7112 0
M  V30 86 N 7.3905 -1.2043 1.01659 0
M  V30 87 C 8.6365 -1.90079 0.706963 0
M  V30 88 C 8.9695 -1.78648 -0.761474 0
M  V30 89 O 8.2445 -1.17069 -1.55323 0
M  V30 90 C 8.5275 -3.41469 1.14327 0
M  V30 91 C 8.3805 -3.61833 2.67201 0
M  V30 92 C 9.6995 -4.34261 0.714529 0
M  V30 93 H 6.8185 -0.690254 0.2583 0
M  V30 94 H 9.4605 -1.41826 1.26433 0
M  V30 95 H 7.6105 -3.82696 0.669056 0
M  V30 96 H 9.2825 -3.2986 3.22475 0
M  V30 97 H 7.5255 -3.05304 3.08175 0
M  V30 98 H 8.1965 -4.67955 2.92783 0
M  V30 99 H 10.6725 -4.00682 1.12221 0
M  V30 100 H 9.5485 -5.38806 1.04784 0
M  V30 101 H 9.8095 -4.40431 -0.383799 0
M  V30 102 N 8.8686 -0.792821 -1.36206 0
M  V30 103 C 10.1176 -0.363353 -1.984 0
M  V30 104 C 10.4306 1.07172 -1.63626 0
M  V30 105 O 11.6366 1.60362 -2.19081 0
M  V30 106 C 10.0926 -0.59872 -3.54885 0
M  V30 107 C 9.7006 -2.04543 -3.9858 0
M  V30 108 C 11.4446 -0.233926 -4.23855 0
M  V30 109 C 9.3516 -2.22727 -5.47856 0
M  V30 110 H 8.2816 -0.13212 -0.742334 0
M  V30 111 H 10.9326 -0.974935 -1.55458 0
M  V30 112 H 9.3146 0.0826222 -3.95914 0
M  V30 113 H 10.4886 -2.76345 -3.68741 0
M  V30 114 H 8.8036 -2.36879 -3.42458 0
M  V30 115 H 11.4006 -0.348027 -5.33566 0
M  V30 116 H 11.7436 0.818351 -4.08177 0
M  V30 117 H 12.2766 -0.868639 -3.882 0
M  V30 118 H 9.0156 -3.2635 -5.68486 0
M  V30 119 H 8.5356 -1.55434 -5.7931 0
M  V30 120 H 10.2146 -2.03607 -6.14128 0
M  V30 121 N 10.3467 1.47872 -0.545128 0
M  V30 122 C 11.2937 2.29849 0.2093 0
M  V30 123 C 12.2637 1.38313 0.919707 0
M  V30 124 O 13.4487 1.67277 0.917772 0
M  V30 125 C 10.5887 3.22019 1.24088 0
M  V30 126 C 9.7017 4.2864 0.537778 0
M  V30 127 C 8.8367 5.07973 1.5536 0
M  V30 128 C 7.8757 6.06381 0.8348 0
M  V30 129 N 7.0127 6.78717 1.79688 0
M  V30 130 H 11.8527 2.93845 -0.49591 0
M  V30 131 H 9.3897 1.44848 -0.256389 0
M  V30 132 H 11.3477 3.73868 1.85144 0
M  V30 133 H 9.9777 2.59914 1.91428 0
M  V30 134 H 9.0297 3.7994 -0.187046 0
M  V30 135 H 10.3417 4.98793 -0.0258907 0
M  V30 136 H 9.4957 5.63912 2.23803 0
M  V30 137 H 8.2347 4.37693 2.15118 0
M  V30 138 H 7.2397 5.49631 0.136388 0
M  V30 139 H 8.4647 6.78665 0.24313 0
M  V30 140 H 6.4107 6.11177 2.38326 0
M  V30 141 H 6.3277 7.44998 1.28505 0
M  V30 142 H 7.5957 7.39237 2.47282 0
M  V30 143 N 11.8248 0.280983 1.55075 0
M  V30 144 C 12.7878 -0.590896 2.21452 0
M  V30 145 C 13.7878 -1.07682 1.19421 0
M  V30 146 O 14.9778 -0.97605 1.44288 0
M  V30 147 C 12.1098 -1.81587 2.88511 0
M  V30 148 H 13.3028 -0.0112554 2.99898 0
M  V30 149 H 10.8558 0.0316438 1.56268 0
M  V30 150 H 11.5908 -2.43587 2.14093 0
M  V30 151 H 11.3758 -1.4753 3.63287 0
M  V30 152 H 12.8658 -2.43575 3.39206 0
M  V30 153 N 13.3029 -1.57598 0.00835791 0
M  V30 154 C 14.5519 -1.90107 -0.673968 0
M  V30 155 C 14.8649 -0.884275 -1.7447 0
M  V30 156 O 16.0709 -1.09987 -2.48224 0
M  V30 157 C 14.5269 -3.37497 -1.24995 0
M  V30 158 C 14.1349 -4.47491 -0.2136 0
M  V30 159 C 15.8789 -3.79104 -1.90999 0
M  V30 160 C 13.7859 -5.85963 -0.80005 0
M  V30 161 H 12.7159 -0.709393 -0.255495 0
M  V30 162 H 15.3669 -1.83365 0.0702693 0
M  V30 163 H 13.7489 -3.39102 -2.04513 0
M  V30 164 H 14.9229 -4.57414 0.557596 0
M  V30 165 H 13.2379 -4.14956 0.346474 0
M  V30 166 H 15.8349 -4.79901 -2.35795 0
M  V30 167 H 16.1779 -3.1306 -2.74407 0
M  V30 168 H 16.7109 -3.79833 -1.18203 0
M  V30 169 H 13.4499 -6.555 -0.00456708 0
M  V30 170 H 12.9699 -5.79687 -1.54021 0
M  V30 171 H 14.6489 -6.33884 -1.29615 0
M  V30 172 N 14.781 0.264519 -1.55364 0
M  V30 173 C 16.029 0.993021 -1.76021 0
M  V30 174 C 16.35 1.86511 -0.569099 0
M  V30 175 O 15.62 1.91438 0.415735 0
M  V30 176 H 14.2 0.369639 -0.649135 0
M  V30 177 H 16.862 0.286707 -1.9278 0
M  V30 178 H 15.958 1.62502 -2.66457 0
M  V30 179 N 16.2591 1.48442 0.529413 0
M  V30 180 C 17.1911 1.59095 1.64989 0
M  V30 181 C 18.2041 0.475212 1.5571 0
M  V30 182 O 19.3931 0.746081 1.6216 0
M  V30 183 C 16.4931 1.50518 3.0364 0
M  V30 184 C 15.6661 2.77142 3.38395 0
M  V30 185 C 14.7251 2.62012 4.56329 0
M  V30 186 O 13.7511 3.35898 4.59522 0
M  V30 187 N 14.9531 1.71667 5.54536 0
M  V30 188 H 17.7181 2.55723 1.56287 0
M  V30 189 H 15.2791 1.45173 0.716697 0
M  V30 190 H 17.2711 1.38091 3.80412 0
M  V30 191 H 15.8411 0.618627 3.06418 0
M  V30 192 H 15.0611 3.0413 2.50796 0
M  V30 193 H 16.3491 3.61146 3.58401 0
M  V30 194 H 15.7471 1.10841 5.54735 0
M  V30 195 H 14.3041 1.65178 6.30523 0
M  V30 196 N 17.7372 -0.778329 1.37039 0
M  V30 197 C 18.9852 -1.53361 1.31623 0
M  V30 198 C 19.3062 -1.94739 -0.100831 0
M  V30 199 O 18.5762 -1.65797 -1.04347 0
M  V30 200 H 17.1562 -0.568794 0.484234 0
M  V30 201 H 19.8182 -0.926742 1.71457 0
M  V30 202 H 18.9142 -2.43606 1.95096 0
M  V30 203 N 19.2153 -1.21501 -1.00376 0
M  V30 204 C 20.1783 -0.976927 -2.07337 0
M  V30 205 C 21.1783 0.0525322 -1.60714 0
M  V30 206 O 22.3683 -0.184869 -1.73216 0
M  V30 207 C 19.5003 -0.473423 -3.37597 0
M  V30 208 H 20.6933 -1.92587 -2.29892 0
M  V30 209 H 18.2463 -1.03217 -1.17371 0
M  V30 210 H 18.9813 0.480379 -3.20722 0
M  V30 211 H 18.7663 -1.216 -3.72768 0
M  V30 212 H 20.2563 -0.32675 -4.1632 0
M  V30 213 N 20.6934 1.19889 -1.02296 0
M  V30 214 C 21.9404 1.8942 -0.715972 0
M  V30 215 C 22.2684 1.79251 0.754944 0
M  V30 216 O 21.5234 1.17526 1.56481 0
M  V30 217 C 21.8224 3.39883 -1.10518 0
M  V30 218 C 21.4884 3.70254 -2.57337 0
M  V30 219 C 20.1504 3.78254 -2.97452 0
M  V30 220 C 22.5024 3.84052 -3.52354 0
M  V30 221 C 19.8304 3.97514 -4.31509 0
M  V30 222 C 22.1824 4.04824 -4.86108 0
M  V30 223 C 20.8464 4.11054 -5.25919 0
M  V30 224 H 20.1164 0.693138 -0.261993 0
M  V30 225 H 22.7634 1.42012 -1.28472 0
M  V30 226 H 21.0684 3.8915 -0.454953 0
M  V30 227 H 22.7654 3.9199 -0.845261 0
M  V30 228 H 19.3554 3.64632 -2.25258 0
M  V30 229 H 23.5394 3.77221 -3.22518 0
M  V30 230 H 18.7954 4.00574 -4.61898 0
M  V30 231 H 22.9694 4.14442 -5.59653 0
M  V30 232 H 20.5964 4.2573 -6.29808 0
M  V30 233 N 22.1715 0.800033 1.35784 0
M  V30 234 C 23.4195 0.376597 1.9856 0
M  V30 235 C 23.7405 -1.05812 1.63795 0
M  V30 236 O 23.0105 -1.73103 0.917171 0
M  V30 237 H 21.5905 0.136261 0.734467 0
M  V30 238 H 24.2525 1.02442 1.65806 0
M  V30 239 H 23.3485 0.477002 3.08433 0
M  V30 240 N 23.6496 -1.47581 0.552962 0
M  V30 241 C 24.5966 -2.29957 -0.197108 0
M  V30 242 C 25.5666 -1.38799 -0.912359 0
M  V30 243 O 26.7516 -1.67761 -0.908888 0
M  V30 244 C 23.8916 -3.22672 -1.22379 0
M  V30 245 C 23.0046 -4.28919 -0.515038 0
M  V30 246 C 22.1396 -5.0879 -1.52664 0
M  V30 247 C 21.1786 -6.06815 -0.802631 0
M  V30 248 N 20.3156 -6.7966 -1.76086 0
M  V30 249 H 25.1556 -2.93578 0.511486 0
M  V30 250 H 22.6926 -1.4471 0.264067 0
M  V30 251 H 24.6506 -3.74845 -1.83159 0
M  V30 252 H 23.2806 -2.60925 -1.90047 0
M  V30 253 H 22.3326 -3.79835 0.207192 0
M  V30 254 H 23.6446 -4.98773 0.0523425 0
M  V30 255 H 22.7986 -5.65091 -2.20809 0
M  V30 256 H 21.5376 -4.38828 -2.12794 0
M  V30 257 H 20.5426 -5.49695 -0.107238 0
M  V30 258 H 21.7676 -6.78784 -0.207135 0
M  V30 259 H 19.7136 -6.12432 -2.35081 0
M  V30 260 H 19.6306 -7.45669 -1.24552 0
M  V30 261 H 20.8986 -7.40538 -2.43359 0
M  V30 262 N 25.1277 -0.289203 -1.54924 0
M  V30 263 C 26.0907 0.579144 -2.21762 0
M  V30 264 C 27.0907 1.07047 -1.1999 0
M  V30 265 O 28.2807 0.968384 -1.44803 0
M  V30 266 C 25.4127 1.80055 -2.8947 0
M  V30 267 H 26.6057 -0.00464908 -2.999 0
M  V30 268 H 24.1587 -0.0399306 -1.56249 0
M  V30 269 H 24.8937 2.42449 -2.15381 0
M  V30 270 H 24.6787 1.45602 -3.64064 0
M  V30 271 H 26.1687 2.41773 -3.40493 0
M  V30 272 N 26.6058 1.57591 -0.0167156 0
M  V30 273 C 27.8358 1.95292 0.674149 0
M  V30 274 C 28.2438 0.891097 1.66901 0
M  V30 275 O 27.5868 -0.136908 1.83189 0
M  V30 276 C 27.6488 3.29072 1.44747 0
M  V30 277 C 27.3128 4.52879 0.612331 0
M  V30 278 C 28.3098 5.1979 -0.107126 0
M  V30 279 C 25.9948 4.99242 0.553381 0
M  V30 280 C 27.9888 6.31375 -0.874339 0
M  V30 281 C 25.6758 6.10713 -0.217546 0
M  V30 282 C 26.6738 6.76637 -0.930123 0
M  V30 283 O 26.3618 7.85969 -1.68844 0
M  V30 284 H 26.0938 0.648275 0.191615 0
M  V30 285 H 28.6478 2.05284 -0.0690148 0
M  V30 286 H 26.8778 3.15535 2.2355 0
M  V30 287 H 28.5668 3.51764 2.02526 0
M  V30 288 H 29.3328 4.84948 -0.0708392 0
M  V30 289 H 25.2118 4.47744 1.09757 0
M  V30 290 H 28.7558 6.82764 -1.43106 0
M  V30 291 H 24.6528 6.44994 -0.255593 0
M  V30 292 H 25.4208 8.02571 -1.6069 0
M  V30 293 N 28.0839 -0.256276 1.55502 0
M  V30 294 C 29.0139 -1.32102 1.92539 0
M  V30 295 C 29.9949 -1.50684 0.789194 0
M  V30 296 O 31.1799 -1.63449 1.04872 0
M  V30 297 C 28.3099 -2.67752 2.21192 0
M  V30 298 C 27.2639 -2.63878 3.36975 0
M  V30 299 C 26.5899 -4.03236 3.51147 0
M  V30 300 C 27.8899 -2.21682 4.72921 0
M  V30 301 H 29.5839 -1.01351 2.81724 0
M  V30 302 H 27.1299 -0.486105 1.35547 0
M  V30 303 H 29.0829 -3.42365 2.45691 0
M  V30 304 H 27.8069 -3.0012 1.28824 0
M  V30 305 H 26.4659 -1.91722 3.12471 0
M  V30 306 H 26.1139 -4.32854 2.56216 0
M  V30 307 H 25.8139 -4.01535 4.29003 0
M  V30 308 H 27.3379 -4.79563 3.77957 0
M  V30 309 H 28.7519 -2.86023 4.96854 0
M  V30 310 H 27.1489 -2.3111 5.53812 0
M  V30 311 H 28.2189 -1.16833 4.70615 0
M  V30 312 N 29.562 -1.4872 -0.521534 0
M  V30 313 C 30.525 -1.63379 -1.60748 0
M  V30 314 C 31.525 -0.50661 -1.52611 0
M  V30 315 O 32.715 -0.772601 -1.5613 0
M  V30 316 C 29.847 -1.61192 -3.00383 0
M  V30 317 H 31.04 -2.60217 -1.49087 0
M  V30 318 H 28.593 -1.37444 -0.744235 0
M  V30 319 H 29.328 -0.65863 -3.17541 0
M  V30 320 H 29.113 -2.43032 -3.07698 0
M  V30 321 H 30.603 -1.7466 -3.7932 0
M  V30 322 N 31.0401 0.771051 -1.3745 0
M  V30 323 C 31.9871 1.88435 -1.3327 0
M  V30 324 C 32.9571 1.64914 -0.198136 0
M  V30 325 O 34.1421 1.86821 -0.387606 0
M  V30 326 C 31.2821 3.25509 -1.14622 0
M  V30 327 C 30.3951 3.60979 -2.37314 0
M  V30 328 C 29.5301 4.87265 -2.11533 0
M  V30 329 C 28.5691 5.15469 -3.30088 0
M  V30 330 N 27.7061 6.32944 -3.03853 0
M  V30 331 H 32.5461 1.91344 -2.28455 0
M  V30 332 H 30.0831 0.935466 -1.13523 0
M  V30 333 H 32.0411 4.04582 -1.01831 0
M  V30 334 H 30.6711 3.21974 -0.230837 0
M  V30 335 H 29.7231 2.76885 -2.60842 0
M  V30 336 H 31.0351 3.77759 -3.25729 0
M  V30 337 H 30.1891 5.74244 -1.95777 0
M  V30 338 H 28.9281 4.7259 -1.20457 0
M  V30 339 H 27.9331 4.26966 -3.46382 0
M  V30 340 H 29.1581 5.32052 -4.22016 0
M  V30 341 H 27.1041 6.19625 -2.15407 0
M  V30 342 H 27.0211 6.50143 -3.85812 0
M  V30 343 H 28.2891 7.22857 -2.91716 0
M  V30 344 N 32.5182 1.22032 0.997298 0
M  V30 345 C 33.7662 1.04016 1.73278 0
M  V30 346 C 34.0872 -0.426255 1.90284 0
M  V30 347 O 33.3572 -1.30694 1.45931 0
M  V30 348 H 31.9372 0.381897 0.642 0
M  V30 349 H 34.5992 1.5347 1.20137 0
M  V30 350 H 33.6952 1.51441 2.72896 0
M  V30 351 N 33.9963 -1.19345 1.0293 0
M  V30 352 C 34.9433 -2.2258 0.610464 0
M  V30 353 C 35.9133 -1.6179 -0.375946 0
M  V30 354 O 37.0983 -1.88844 -0.272511 0
M  V30 355 C 34.2383 -3.45085 -0.0321473 0
M  V30 356 C 33.3513 -4.20258 1.00035 0
M  V30 357 C 32.4863 -5.3019 0.32746 0
M  V30 358 C 31.5253 -5.97121 1.34584 0
M  V30 359 N 30.6623 -6.98615 0.698726 0
M  V30 360 H 35.5023 -2.57764 1.49538 0
M  V30 361 H 33.0393 -1.26644 0.748311 0
M  V30 362 H 34.9973 -4.15061 -0.421966 0
M  V30 363 H 33.6273 -3.10555 -0.88064 0
M  V30 364 H 32.6793 -3.49223 1.50823 0
M  V30 365 H 33.9913 -4.66175 1.77433 0
M  V30 366 H 33.1453 -6.06587 -0.11718 0
M  V30 367 H 31.8843 -4.85345 -0.478713 0
M  V30 368 H 30.8893 -5.19474 1.80074 0
M  V30 369 H 32.1143 -6.4405 2.15352 0
M  V30 370 H 30.0603 -6.55942 -0.0873471 0
M  V30 371 H 29.9773 -7.42724 1.41058 0
M  V30 372 H 31.2453 -7.79004 0.278102 0
M  V30 373 N 35.4744 -0.807222 -1.35358 0
M  V30 374 C 36.6994 -0.399309 -2.0352 0
M  V30 375 C 37.1244 0.981986 -1.60433 0
M  V30 376 O 36.4824 1.63601 -0.781299 0
M  V30 377 C 36.5304 -0.491552 -3.57234 0
M  V30 378 O 35.6344 0.494754 -4.09421 0
M  V30 379 H 34.9754 -0.166682 -0.642739 0
M  V30 380 H 37.5054 -1.09328 -1.72941 0
M  V30 381 H 37.5154 -0.361588 -4.06395 0
M  V30 382 H 36.1904 -1.49907 -3.87944 0
M  V30 383 H 34.7674 0.324977 -3.71481 0
M  V30 384 N 36.9525 1.47285 -0.560781 0
M  V30 385 C 38.2295 1.9558 0.0277798 0
M  V30 386 C 38.6095 1.5034 1.48192 0
M  V30 387 O 37.9575 0.743882 2.16052 0
M  V30 388 C 38.1675 3.48789 -0.121418 0
M  V30 389 C 39.5155 4.24594 0.0220912 0
M  V30 390 O 40.5395 3.56166 -0.0491439 0
M  V30 391 O 39.3985 5.46217 0.175958 0
M  V30 392 H 36.4925 0.824663 0.0621342 0
M  V30 393 H 39.0385 1.5767 -0.627556 0
M  V30 394 H 37.8105 3.74533 -1.13316 0
M  V30 395 H 37.4335 3.93473 0.571366 0
M  V30 396 N 38.4306 0.297415 1.54768 0
M  V30 397 C 39.6556 -0.318435 2.04941 0
M  V30 398 C 40.0806 -1.4701 1.17345 0
M  V30 399 O 39.4386 -1.80436 0.176758 0
M  V30 400 C 39.4866 -0.755749 3.52592 0
M  V30 401 O 38.5906 -1.86088 3.68028 0
M  V30 402 H 37.9316 -0.062421 0.661059 0
M  V30 403 H 40.4616 0.438215 1.99852 0
M  V30 404 H 40.4716 -1.04552 3.94376 0
M  V30 405 H 39.1466 0.0867233 4.1581 0
M  V30 406 H 37.7236 -1.57193 3.38149 0
M  V30 407 N 39.9087 -1.5758 0.0250728 0
M  V30 408 C 40.8557 -2.09973 -0.958129 0
M  V30 409 C 41.8257 -1.00085 -1.3256 0
M  V30 410 O 43.0107 -1.27481 -1.41962 0
M  V30 411 C 40.1507 -2.62812 -2.2366 0
M  V30 412 C 39.2637 -3.86693 -1.92594 0
M  V30 413 C 38.3987 -4.27941 -3.14707 0
M  V30 414 C 37.4377 -5.44591 -2.79442 0
M  V30 415 N 36.5747 -5.81014 -3.94167 0
M  V30 416 H 41.4147 -2.937 -0.504428 0
M  V30 417 H 38.9517 -1.45172 -0.237392 0
M  V30 418 H 40.9097 -2.91536 -2.98434 0
M  V30 419 H 39.5397 -1.81922 -2.66654 0
M  V30 420 H 38.5917 -3.64723 -1.0808 0
M  V30 421 H 39.9037 -4.71547 -1.62619 0
M  V30 422 H 39.0577 -4.58079 -3.97804 0
M  V30 423 H 37.7967 -3.41845 -3.4784 0
M  V30 424 H 36.8017 -5.1415 -1.94755 0
M  V30 425 H 38.0267 -6.32382 -2.47528 0
M  V30 426 H 35.9727 -4.97874 -4.2715 0
M  V30 427 H 35.8897 -6.60498 -3.67801 0
M  V30 428 H 37.1577 -6.15756 -4.7798 0
M  V30 429 N 41.3868 0.248026 -1.55636 0
M  V30 430 C 42.3368 1.30994 -1.86614 0
M  V30 431 C 43.3208 1.43543 -0.726918 0
M  V30 432 O 44.5128 1.46804 -0.988818 0
M  V30 433 C 41.6418 2.6656 -2.16335 0
M  V30 434 C 40.7278 2.58019 -3.36581 0
M  V30 435 N 41.1188 2.1911 -4.55878 0
M  V30 436 C 39.4168 2.89035 -3.39669 0
M  V30 437 C 40.1178 2.21174 -5.38012 0
M  V30 438 N 39.0938 2.60632 -4.77045 0
M  V30 439 H 42.8958 0.999583 -2.76379 0
M  V30 440 H 40.4098 0.456652 -1.55848 0
M  V30 441 H 42.4068 3.43194 -2.36692 0
M  V30 442 H 41.0668 2.98463 -1.27867 0
M  V30 443 H 42.0778 1.90672 -4.81523 0
M  V30 444 H 38.7548 3.25485 -2.61469 0
M  V30 445 H 40.1448 1.9344 -6.43452 0
M  V30 446 N 42.8649 1.48995 0.513639 0
M  V30 447 C 44.1049 1.59452 1.27885 0
M  V30 448 C 44.4689 0.269479 1.90099 0
M  V30 449 O 45.6699 0.249139 2.67643 0
M  V30 450 C 43.9409 2.71277 2.32688 0
M  V30 451 S 45.4999 3.01604 3.18717 0
M  V30 452 H 42.3179 0.562565 0.434789 0
M  V30 453 H 44.9199 1.86595 0.583301 0
M  V30 454 H 43.6239 3.66089 1.8549 0
M  V30 455 H 43.1549 2.46086 3.06929 0
M  V30 456 H 45.1699 2.42155 4.331 0
M  V30 457 N 44.343 -0.763751 1.37857 0
M  V30 458 C 45.589 -1.52483 1.33704 0
M  V30 459 C 45.922 -1.94051 -0.0759612 0
M  V30 460 O 45.197 -1.64675 -1.03501 0
M  V30 461 C 45.48 -2.78441 2.28348 0
M  V30 462 C 45.333 -2.43075 3.78463 0
M  V30 463 C 46.652 -3.80415 2.21298 0
M  V30 464 H 43.771 -0.553169 0.487005 0
M  V30 465 H 46.413 -0.875562 1.68624 0
M  V30 466 H 44.563 -3.33842 1.987 0
M  V30 467 H 46.235 -1.93527 4.18742 0
M  V30 468 H 44.478 -1.75666 3.96641 0
M  V30 469 H 45.149 -3.33149 4.40132 0
M  V30 470 H 47.625 -3.34527 2.47449 0
M  V30 471 H 46.501 -4.66257 2.89647 0
M  V30 472 H 46.762 -4.25262 1.20849 0
M  V30 473 N 45.8211 -1.22559 -0.990812 0
M  V30 474 C 47.0701 -1.04553 -1.72486 0
M  V30 475 C 47.3831 0.419349 -1.91052 0
M  V30 476 O 48.5891 0.719121 -2.61803 0
M  V30 477 C 47.0451 -1.82231 -3.10355 0
M  V30 478 C 46.6531 -3.32981 -2.99713 0
M  V30 479 C 48.3971 -1.7268 -3.87791 0
M  V30 480 C 46.3041 -4.03091 -4.32748 0
M  V30 481 H 45.2341 -0.387614 -0.646739 0
M  V30 482 H 47.8851 -1.46429 -1.10593 0
M  V30 483 H 46.2671 -1.33155 -3.72942 0
M  V30 484 H 47.4411 -3.89466 -2.46278 0
M  V30 485 H 45.7561 -3.43231 -2.35758 0
M  V30 486 H 48.3531 -2.22381 -4.86262 0
M  V30 487 H 48.6961 -0.687607 -4.10582 0
M  V30 488 H 49.2291 -2.1931 -3.31885 0
M  V30 489 H 45.9681 -5.07273 -4.15156 0
M  V30 490 H 45.4881 -3.51394 -4.86089 0
M  V30 491 H 47.1671 -4.08804 -5.01486 0
M  V30 492 N 47.2992 1.18797 -1.03562 0
M  V30 493 C 48.2462 2.22253 -0.622259 0
M  V30 494 C 49.2162 1.61987 0.36736 0
M  V30 495 O 50.4012 1.88986 0.262492 0
M  V30 496 C 47.5412 3.45097 0.0138462 0
M  V30 497 C 46.6542 4.19722 -1.02263 0
M  V30 498 C 45.7892 5.30009 -0.355573 0
M  V30 499 C 44.8282 5.96399 -1.37749 0
M  V30 500 N 43.9652 6.98234 -0.735766 0
M  V30 501 H 48.8052 2.56968 -1.50903 0
M  V30 502 H 46.3422 1.26245 -0.755017 0
M  V30 503 H 48.3002 4.15279 0.399948 0
M  V30 504 H 46.9302 3.11018 0.864158 0
M  V30 505 H 45.9822 3.48418 -1.52673 0
M  V30 506 H 47.2942 4.65227 -1.79903 0
M  V30 507 H 46.4482 6.0664 0.0850095 0
M  V30 508 H 45.1872 4.85592 0.452967 0
M  V30 509 H 44.1922 5.18512 -1.82826 0
M  V30 510 H 45.4172 6.42899 -2.18764 0
M  V30 511 H 43.3632 6.55979 0.0525597 0
M  V30 512 H 43.2802 7.41965 -1.44995 0
M  V30 513 H 44.5482 7.78845 -0.31941 0
M  V30 514 N 48.7773 0.814389 1.34928 0
M  V30 515 C 49.6873 0.231978 2.3345 0
M  V30 516 C 50.7033 -0.629139 1.62228 0
M  V30 517 O 51.8793 -0.539052 1.94052 0
M  V30 518 C 48.9443 -0.603482 3.41407 0
M  V30 519 C 48.0053 0.279037 4.28392 0
M  V30 520 C 47.2383 -0.516643 5.31193 0
M  V30 521 O 47.4613 -1.75068 5.4287 0
M  V30 522 O 46.3953 0.0965652 6.01823 0
M  V30 523 H 50.2213 1.04721 2.85074 0
M  V30 524 H 47.8063 0.576343 1.37836 0
M  V30 525 H 49.6883 -1.07908 4.0735 0
M  V30 526 H 48.3633 -1.39618 2.92042 0
M  V30 527 H 47.2703 0.801948 3.65403 0
M  V30 528 H 48.6033 1.03588 4.81176 0
M  V30 529 N 50.2554 -1.46986 0.568584 0
M  V30 530 C 51.5044 -2.01646 0.0465894 0
M  V30 531 C 51.8174 -1.44721 -1.31587 0
M  V30 532 O 53.0234 -1.91113 -1.92842 0
M  V30 533 C 51.4794 -3.59885 0.032752 0
M  V30 534 C 51.0874 -4.25804 1.39266 0
M  V30 535 C 52.8314 -4.22255 -0.436038 0
M  V30 536 C 50.7384 -5.76081 1.33732 0
M  V30 537 H 49.6684 -0.753876 0.013647 0
M  V30 538 H 52.3194 -1.68864 0.718131 0
M  V30 539 H 50.7014 -3.8968 -0.704669 0
M  V30 540 H 51.8754 -4.07637 2.1487 0
M  V30 541 H 50.1904 -3.7547 1.80032 0
M  V30 542 H 52.7874 -5.32394 -0.49602 0
M  V30 543 H 53.1304 -3.90212 -1.45053 0
M  V30 544 H 53.6634 -3.97033 0.246877 0
M  V30 545 H 50.4024 -6.12761 2.32817 0
M  V30 546 H 49.9224 -5.96553 0.623267 0
M  V30 547 H 51.6014 -6.38518 1.0442 0
M  V30 548 N 51.7335 -0.305618 -1.54608 0
M  V30 549 C 52.6815 0.584119 -2.25146 0
M  V30 550 C 53.6755 1.13326 -1.25911 0
M  V30 551 O 54.8815 1.08337 -1.43747 0
M  V30 552 H 51.2565 0.206983 -0.722954 0
M  V30 553 H 53.2275 -0.033291 -2.98381 0
M  V30 554 C 51.9765 1.74225 -3.009 0
M  V30 555 H 51.2995 1.32892 -3.77067 0
M  V30 556 H 52.7395 2.34077 -3.53531 0
M  V30 557 C 51.1985 2.64914 -2.0814 0
M  V30 558 O 51.7285 3.66137 -1.65246 0
M  V30 559 N 49.9345 2.3275 -1.74 0
M  V30 560 H 49.4815 1.50479 -2.09078 0
M  V30 561 H 49.4395 2.93694 -1.12211 0
M  V30 562 N 53.2116 1.57565 -0.0334293 0
M  V30 563 C 54.4586 1.91978 0.644272 0
M  V30 564 C 54.7866 0.910231 1.71887 0
M  V30 565 O 54.0416 -0.0801961 1.95536 0
M  V30 566 C 54.3406 3.33112 1.29504 0
M  V30 567 C 54.0066 4.49537 0.350388 0
M  V30 568 C 52.6686 4.81115 0.0903974 0
M  V30 569 C 55.0206 5.20347 -0.298032 0
M  V30 570 C 52.3486 5.8086 -0.825746 0
M  V30 571 C 54.7006 6.2107 -1.20226 0
M  V30 572 C 53.3646 6.51088 -1.4711 0
M  V30 573 H 52.6346 0.702496 0.235756 0
M  V30 574 H 55.2816 1.91259 -0.0961176 0
M  V30 575 H 53.5866 3.30113 2.11028 0
M  V30 576 H 55.2836 3.57011 1.82603 0
M  V30 577 H 51.8736 4.24883 0.563205 0
M  V30 578 H 56.0576 4.96178 -0.110234 0
M  V30 579 H 51.3136 6.02461 -1.04169 0
M  V30 580 H 55.4876 6.75057 -1.71086 0
M  V30 581 H 53.1146 7.28193 -2.18264 0
M  V30 582 N 54.6897 -0.239769 1.55765 0
M  V30 583 C 55.5997 -1.31831 1.94056 0
M  V30 584 C 56.6157 -1.52275 0.841925 0
M  V30 585 O 57.7917 -1.65759 1.14394 0
M  V30 586 C 54.8567 -2.65156 2.23368 0
M  V30 587 C 53.9177 -2.53173 3.46701 0
M  V30 588 C 53.1507 -3.8014 3.74606 0
M  V30 589 O 53.3737 -4.82343 3.04469 0
M  V30 590 O 52.3077 -3.78344 4.68123 0
M  V30 591 H 56.1337 -1.02347 2.85935 0
M  V30 592 H 53.7187 -0.441123 1.42739 0
M  V30 593 H 55.6007 -3.43929 2.43497 0
M  V30 594 H 54.2757 -2.94358 1.34666 0
M  V30 595 H 53.1827 -1.72662 3.31871 0
M  V30 596 H 54.5157 -2.28915 4.35728 0
M  V30 597 N 56.1678 -1.49265 -0.50573 0
M  V30 598 C 57.1148 -1.65585 -1.6078 0
M  V30 599 C 58.0848 -0.497396 -1.58478 0
M  V30 600 O 59.2698 -0.72385 -1.76536 0
M  V30 601 C 56.4098 -1.72408 -2.98948 0
M  V30 602 C 55.5228 -2.99525 -3.11301 0
M  V30 603 C 54.6578 -2.97356 -4.40174 0
M  V30 604 C 53.6968 -4.19074 -4.46143 0
M  V30 605 N 52.8338 -4.14841 -5.66437 0
M  V30 606 H 57.6738 -2.59688 -1.46172 0
M  V30 607 H 55.2108 -1.28761 -0.711261 0
M  V30 608 H 57.1688 -1.74344 -3.79025 0
M  V30 609 H 55.7988 -0.817753 -3.1227 0
M  V30 610 H 54.8508 -3.07222 -2.24318 0
M  V30 611 H 56.1628 -3.89518 -3.11572 0
M  V30 612 H 55.3168 -2.97829 -5.28567 0
M  V30 613 H 54.0558 -2.05133 -4.42461 0
M  V30 614 H 53.0608 -4.1885 -3.56153 0
M  V30 615 H 54.2858 -5.12483 -4.45575 0
M  V30 616 H 52.2318 -3.25453 -5.69575 0
M  V30 617 H 52.1488 -4.98564 -5.68304 0
M  V30 618 H 53.4168 -4.1941 -6.57051 0
M  V30 619 N 57.6459 0.756429 -1.3826 0
M  V30 620 C 58.5789 1.87802 -1.29637 0
M  V30 621 C 59.5569 1.61667 -0.173939 0
M  V30 622 O 60.7409 1.85208 -0.350775 0
M  V30 623 C 57.8679 3.23354 -1.00797 0
M  V30 624 C 56.9139 3.68379 -2.14939 0
M  V30 625 S 57.7469 3.8025 -3.77054 0
M  V30 626 C 58.9029 5.18626 -3.50396 0
M  V30 627 H 59.1359 1.94829 -2.24564 0
M  V30 628 H 56.6689 0.919117 -1.24063 0
M  V30 629 H 58.6269 4.01637 -0.848413 0
M  V30 630 H 57.2879 3.14008 -0.0759369 0
M  V30 631 H 56.4809 4.66693 -1.90299 0
M  V30 632 H 56.0829 2.97242 -2.26988 0
M  V30 633 H 58.3749 6.04289 -3.06334 0
M  V30 634 H 59.3179 5.48286 -4.48094 0
M  V30 635 H 59.7259 4.87289 -2.84973 0
M  V30 636 N 59.124 1.23083 0.984299 0
M  V30 637 C 60.535 1.05609 1.5396 0
M  V30 638 C 60.886 -0.377793 1.92528 0
M  V30 639 O 60.011 -1.26398 1.75649 0
M  V30 640 C 60.606 1.91087 2.7977 0
M  V30 641 C 59.165 1.77885 3.31713 0
M  V30 642 C 58.312 1.87028 2.04733 0
M  V30 643 H 61.263 1.36802 0.804419 0
M  V30 644 H 61.284 1.43336 3.5247 0
M  V30 645 H 60.796 2.9544 2.51668 0
M  V30 646 H 58.897 0.762995 3.64704 0
M  V30 647 H 59.01 2.61047 4.01735 0
M  V30 648 H 57.374 1.30565 2.18689 0
M  V30 649 H 58.157 2.92929 1.79017 0
M  V30 650 N 60.6021 -1.18246 1.0419 0
M  V30 651 C 61.8511 -1.87588 0.741194 0
M  V30 652 C 62.1641 -1.81303 -0.734066 0
M  V30 653 O 63.3701 -2.46019 -1.14834 0
M  V30 654 C 61.8261 -3.36538 1.27555 0
M  V30 655 C 61.4341 -3.51349 2.77953 0
M  V30 656 C 63.1781 -4.11273 1.05143 0
M  V30 657 C 61.0851 -4.94265 3.2474 0
M  V30 658 H 60.0151 -0.702622 0.273565 0
M  V30 659 H 62.6661 -1.33601 1.25789 0
M  V30 660 H 61.0481 -3.9 0.686703 0
M  V30 661 H 62.2221 -3.08153 3.42605 0
M  V30 662 H 60.5371 -2.90022 2.98791 0
M  V30 663 H 63.1341 -5.16689 1.37611 0
M  V30 664 H 63.4771 -4.16298 -0.0112774 0
M  V30 665 H 64.0101 -3.63987 1.60495 0
M  V30 666 H 60.7491 -4.94408 4.30396 0
M  V30 667 H 60.2691 -5.38172 2.64823 0
M  V30 668 H 61.9481 -5.62987 3.18834 0
M  V30 669 N 62.0802 -0.821533 -1.34494 0
M  V30 670 C 63.0122 -0.199946 -2.28326 0
M  V30 671 C 64.0252 0.609377 -1.50965 0
M  V30 672 O 65.2142 0.439285 -1.7301 0
M  V30 673 C 62.3142 0.738431 -3.30757 0
M  V30 674 C 61.4872 -0.0277632 -4.37391 0
M  V30 675 C 60.5462 0.831332 -5.19591 0
M  V30 676 O 59.5722 0.276822 -5.68526 0
M  V30 677 N 60.7742 2.15132 -5.39165 0
M  V30 678 H 63.5392 -1.00609 -2.82308 0
M  V30 679 H 61.1002 -0.678366 -1.47003 0
M  V30 680 H 63.0922 1.31773 -3.82646 0
M  V30 681 H 61.6622 1.44533 -2.7718 0
M  V30 682 H 60.8822 -0.788359 -3.86236 0
M  V30 683 H 62.1702 -0.555251 -5.05761 0
M  V30 684 H 61.5682 2.62559 -5.01078 0
M  V30 685 H 60.1252 2.6795 -5.94177 0
M  V30 686 N 63.5583 1.46682 -0.576371 0
M  V30 687 C 64.4683 2.34032 0.163141 0
M  V30 688 C 65.4843 1.49367 0.892501 0
M  V30 689 O 66.6603 1.82252 0.857106 0
M  V30 690 C 63.7253 3.26435 1.16795 0
M  V30 691 C 62.7863 4.26998 0.443944 0
M  V30 692 C 62.0193 5.14986 1.40088 0
M  V30 693 O 62.2423 5.05785 2.637 0
M  V30 694 O 61.1763 5.94906 0.914917 0
M  V30 695 H 65.0023 2.98607 -0.55388 0
M  V30 696 H 62.5873 1.45554 -0.336821 0
M  V30 697 H 64.4693 3.83459 1.74748 0
M  V30 698 H 63.1443 2.64465 1.86655 0
M  V30 699 H 62.0513 3.7368 -0.177271 0
M  V30 700 H 63.3843 4.91736 -0.213566 0
M  V30 701 N 65.0364 0.313813 1.54444 0
M  V30 702 C 65.9834 -0.55655 2.23989 0
M  V30 703 C 66.9534 -1.11943 1.22711 0
M  V30 704 O 68.1384 -1.16158 1.51367 0
M  V30 705 C 65.2784 -1.71635 2.99392 0
M  V30 706 C 64.3914 -1.18364 4.15468 0
M  V30 707 C 63.5264 -2.30834 4.78424 0
M  V30 708 C 62.5654 -1.74762 5.86622 0
M  V30 709 N 61.7024 -2.80855 6.43479 0
M  V30 710 H 66.5424 0.0430893 2.97969 0
M  V30 711 H 64.0794 0.0330359 1.47063 0
M  V30 712 H 66.0374 -2.39868 3.41349 0
M  V30 713 H 64.6674 -2.28742 2.27765 0
M  V30 714 H 63.7194 -0.393163 3.78363 0
M  V30 715 H 65.0314 -0.733262 4.93381 0
M  V30 716 H 64.1854 -3.0699 5.23299 0
M  V30 717 H 62.9244 -2.79204 3.99871 0
M  V30 718 H 61.9294 -0.970995 5.41158 0
M  V30 719 H 63.1544 -1.2728 6.67066 0
M  V30 720 H 61.1004 -3.28535 5.67804 0
M  V30 721 H 61.0174 -2.40351 7.16776 0
M  V30 722 H 62.2854 -3.5687 6.93011 0
M  V30 723 N 66.5145 -1.57545 0.0417849 0
M  V30 724 C 67.4245 -2.14451 -0.951213 0
M  V30 725 C 68.4405 -1.09992 -1.34825 0
M  V30 726 O 69.6165 -1.42114 -1.42708 0
M  V30 727 C 66.6815 -2.67063 -2.21084 0
M  V30 728 C 65.7425 -3.86284 -1.87304 0
M  V30 729 C 64.9755 -4.36378 -3.07261 0
M  V30 730 O 65.1985 -3.85587 -4.20332 0
M  V30 731 O 64.1325 -5.28077 -2.88822 0
M  V30 732 H 67.9585 -2.99601 -0.497287 0
M  V30 733 H 65.5435 -1.48317 -0.179567 0
M  V30 734 H 67.4255 -3.00914 -2.95006 0
M  V30 735 H 66.1005 -1.84989 -2.65633 0
M  V30 736 H 65.0075 -3.57338 -1.10727 0
M  V30 737 H 66.3405 -4.6956 -1.47562 0
M  V30 738 N 67.9926 0.231505 -1.5589 0
M  V30 739 C 68.9556 1.27028 -1.90779 0
M  V30 740 C 69.9556 1.40308 -0.785507 0
M  V30 741 O 71.1456 1.38744 -1.05336 0
M  V30 742 C 68.2776 2.64566 -2.14983 0
M  V30 743 H 69.4706 0.973017 -2.83677 0
M  V30 744 H 67.0236 0.471486 -1.49019 0
M  V30 745 H 67.7586 2.99406 -1.24604 0
M  V30 746 H 67.5436 2.56305 -2.96732 0
M  V30 747 H 69.0336 3.39543 -2.43105 0
M  V30 748 N 69.4707 1.49531 0.497807 0
M  V30 749 C 70.6957 1.63159 1.28039 0
M  V30 750 C 71.1207 0.30418 1.85624 0
M  V30 751 O 70.4787 -0.728618 1.66015 0
M  V30 752 C 70.5267 2.70537 2.38416 0
M  V30 753 O 69.6307 2.29931 3.42353 0
M  V30 754 H 68.9717 0.546001 0.377861 0
M  V30 755 H 71.5017 1.9574 0.59558 0
M  V30 756 H 71.5117 2.92802 2.84132 0
M  V30 757 H 70.1867 3.6689 1.95869 0
M  V30 758 H 68.7637 2.18009 3.02533 0
M  V30 759 N 70.9488 -0.749086 1.3866 0
M  V30 760 C 71.8958 -1.86291 1.36251 0
M  V30 761 C 72.8658 -1.64578 0.224347 0
M  V30 762 O 74.0508 -1.86181 0.417279 0
M  V30 763 C 71.1908 -3.23644 1.19786 0
M  V30 764 C 70.3038 -3.57158 2.43027 0
M  V30 765 C 69.4388 -4.83838 2.19258 0
M  V30 766 C 68.4778 -5.10152 3.38247 0
M  V30 767 N 67.6148 -6.28029 3.13884 0
M  V30 768 H 72.4548 -1.87685 2.3147 0
M  V30 769 H 69.9918 -0.917287 1.14997 0
M  V30 770 H 71.9498 -4.0291 1.08254 0
M  V30 771 H 70.5798 -3.21566 0.282031 0
M  V30 772 H 69.6318 -2.72701 2.65214 0
M  V30 773 H 70.9438 -3.7253 3.31697 0
M  V30 774 H 70.0978 -5.71057 2.04888 0
M  V30 775 H 68.8368 -4.70614 1.2796 0
M  V30 776 H 67.8418 -4.21401 3.53131 0
M  V30 777 H 69.0668 -5.25271 4.30427 0
M  V30 778 H 67.0128 -6.1612 2.25238 0
M  V30 779 H 66.9298 -6.43922 3.96106 0
M  V30 780 H 68.1978 -7.18124 3.03179 0
M  V30 781 N 72.4269 -1.23603 -0.977757 0
M  V30 782 C 73.3739 -1.01954 -2.07061 0
M  V30 783 C 74.3439 0.0638697 -1.65977 0
M  V30 784 O 75.5289 -0.0887624 -1.90593 0
M  V30 785 C 72.6689 -0.619658 -3.39491 0
M  V30 786 C 71.7819 -1.77547 -3.93829 0
M  V30 787 C 70.9169 -1.32212 -5.14484 0
M  V30 788 C 69.9559 -2.44852 -5.60994 0
M  V30 789 N 69.0929 -2.00456 -6.72876 0
M  V30 790 H 73.9329 -1.95495 -2.24913 0
M  V30 791 H 71.4699 -0.973861 -1.10247 0
M  V30 792 H 73.4279 -0.368898 -4.15566 0
M  V30 793 H 72.0579 0.278752 -3.21594 0
M  V30 794 H 71.1099 -2.14016 -3.14486 0
M  V30 795 H 72.4219 -2.62219 -4.24314 0
M  V30 796 H 71.5759 -1.02965 -5.97899 0
M  V30 797 H 70.3149 -0.445808 -4.85658 0
M  V30 798 H 69.3199 -2.74871 -4.76157 0
M  V30 799 H 70.5449 -3.33024 -5.91837 0
M  V30 800 H 68.4909 -1.15208 -6.45804 0
M  V30 801 H 68.4079 -2.78687 -7.02759 0
M  V30 802 H 69.6759 -1.7432 -7.59758 0
M  V30 803 N 73.905 1.17692 -1.04816 0
M  V30 804 C 74.815 2.25229 -0.65643 0
M  V30 805 C 75.831 1.71018 0.320761 0
M  V30 806 O 77.007 2.00649 0.173805 0
M  V30 807 C 74.072 3.46684 -0.0332629 0
M  V30 808 C 73.133 4.15997 -1.06042 0
M  V30 809 C 72.366 5.31654 -0.466893 0
M  V30 810 O 72.589 5.65777 0.724758 0
M  V30 811 O 71.523 5.89831 -1.1993 0
M  V30 812 H 75.349 2.61016 -1.55255 0
M  V30 813 H 72.934 1.24919 -0.81949 0
M  V30 814 H 74.816 4.20234 0.313256 0
M  V30 815 H 73.491 3.12703 0.836566 0
M  V30 816 H 72.398 3.44482 -1.45886 0
M  V30 817 H 73.731 4.53996 -1.90127 0
M  V30 818 N 75.3831 0.828654 1.34056 0
M  V30 819 C 76.6291 0.42008 1.98402 0
M  V30 820 C 76.9621 -1.01564 1.65525 0
M  V30 821 O 76.2371 -1.70834 0.929831 0
M  V30 822 C 76.5201 0.62927 3.54559 0
M  V30 823 C 76.3731 2.11152 3.97159 0
M  V30 824 C 77.6921 0.0688756 4.40046 0
M  V30 825 H 74.8111 0.154104 0.720709 0
M  V30 826 H 77.4531 1.04228 1.5886 0
M  V30 827 H 75.6031 0.0996418 3.88372 0
M  V30 828 H 77.2751 2.70522 3.73651 0
M  V30 829 H 75.5181 2.59985 3.47261 0
M  V30 830 H 76.1891 2.20868 5.05887 0
M  V30 831 H 78.6651 0.521458 4.1282 0
M  V30 832 H 77.5411 0.245006 5.48353 0
M  V30 833 H 77.8021 -1.0266 4.30015 0
M  V30 834 N 76.8612 -1.46375 0.584142 0
M  V30 835 C 78.1102 -2.01585 0.0679741 0
M  V30 836 C 78.4232 -1.46109 -1.30045 0
M  V30 837 O 79.6292 -1.93148 -1.90804 0
M  V30 838 C 78.0852 -3.5983 0.0709207 0
M  V30 839 C 77.6932 -4.24303 1.43775 0
M  V30 840 C 79.4372 -4.22693 -0.391228 0
M  V30 841 C 77.3442 -5.74631 1.39834 0
M  V30 842 H 76.2742 -0.753689 0.0216421 0
M  V30 843 H 78.9252 -1.68093 0.736001 0
M  V30 844 H 77.3072 -3.90405 -0.663299 0
M  V30 845 H 78.4812 -4.05335 2.19181 0
M  V30 846 H 76.7962 -3.73539 1.84004 0
M  V30 847 H 79.3932 -5.3289 -0.439524 0
M  V30 848 H 79.7362 -3.91728 -1.40906 0
M  V30 849 H 80.2692 -3.96749 0.288974 0
M  V30 850 H 77.0082 -6.10258 2.39303 0
M  V30 851 H 76.5282 -5.95858 0.686505 0
M  V30 852 H 78.2072 -6.37375 1.11187 0
M  V30 853 N 78.3393 -0.321999 -1.54275 0
M  V30 854 C 79.2693 0.537411 -2.27231 0
M  V30 855 C 80.2503 1.12064 -1.27968 0
M  V30 856 O 81.4353 1.14606 -1.56777 0
M  V30 857 C 78.5653 1.69919 -3.02894 0
M  V30 858 C 77.5193 1.24534 -4.09482 0
M  V30 859 C 76.8453 2.49394 -4.72977 0
M  V30 860 C 78.1453 0.361335 -5.21049 0
M  V30 861 H 79.8393 -0.0711406 -2.99315 0
M  V30 862 H 77.3853 -0.0356555 -1.43956 0
M  V30 863 H 79.3383 2.30668 -3.52662 0
M  V30 864 H 78.0623 2.33431 -2.28424 0
M  V30 865 H 76.7213 0.660782 -3.60596 0
M  V30 866 H 76.3693 3.11265 -3.95124 0
M  V30 867 H 76.0693 2.19718 -5.44975 0
M  V30 868 H 77.5933 3.10908 -5.25517 0
M  V30 869 H 79.0073 0.875072 -5.66582 0
M  V30 870 H 77.4043 0.157428 -5.99893 0
M  V30 871 H 78.4743 -0.60822 -4.8107 0
M  V30 872 N 79.8174 1.5752 -0.0501392 0
M  V30 873 C 80.7474 2.14502 0.922566 0
M  V30 874 C 81.7284 1.06642 1.3252 0
M  V30 875 O 82.9134 1.34577 1.4001 0
M  V30 876 C 80.0434 2.68916 2.19776 0
M  V30 877 C 78.9974 3.8175 1.93523 0
M  V30 878 C 78.3234 4.22677 3.27487 0
M  V30 879 C 79.6234 5.06932 1.25765 0
M  V30 880 H 81.3174 2.9603 0.447952 0
M  V30 881 H 78.8634 1.42401 0.214024 0
M  V30 882 H 80.8164 3.07419 2.88222 0
M  V30 883 H 79.5404 1.84578 2.69441 0
M  V30 884 H 78.1994 3.43718 1.27489 0
M  V30 885 H 77.8474 3.35291 3.74952 0
M  V30 886 H 77.5474 4.98725 3.1072 0
M  V30 887 H 79.0714 4.63779 3.97166 0
M  V30 888 H 80.4854 5.42888 1.84244 0
M  V30 889 H 78.8824 5.88116 1.19328 0
M  V30 890 H 79.9524 4.84337 0.233536 0
M  V30 891 N 81.2955 -0.223234 1.56011 0
M  V30 892 C 82.2055 -1.29766 1.95443 0
M  V30 893 C 83.2215 -1.51373 0.858028 0
M  V30 894 O 84.3975 -1.64536 1.16146 0
M  V30 895 C 81.4625 -2.62772 2.26167 0
M  V30 896 C 80.5235 -2.49482 3.49367 0
M  V30 897 C 79.7565 -3.76145 3.78616 0
M  V30 898 O 79.9795 -4.79087 3.09568 0
M  V30 899 O 78.9135 -3.73358 4.72109 0
M  V30 900 H 82.7395 -0.99309 2.87004 0
M  V30 901 H 80.3245 -0.425958 1.43199 0
M  V30 902 H 82.2065 -3.41327 2.47131 0
M  V30 903 H 80.8815 -2.92913 1.37781 0
M  V30 904 H 79.7885 -1.69133 3.33684 0
M  V30 905 H 81.1215 -2.2428 4.38131 0
M  V30 906 N 82.7736 -1.49793 -0.48987 0
M  V30 907 C 83.7206 -1.67281 -1.59014 0
M  V30 908 C 84.6906 -0.514177 -1.57941 0
M  V30 909 O 85.8756 -0.742533 -1.75759 0
M  V30 910 C 83.0156 -1.75569 -2.97102 0
M  V30 911 C 82.1286 -3.0281 -3.08107 0
M  V30 912 C 81.2636 -3.02008 -4.36995 0
M  V30 913 C 80.3026 -4.23782 -4.41673 0
M  V30 914 N 79.4396 -4.20826 -5.62005 0
M  V30 915 H 84.2796 -2.61224 -1.43409 0
M  V30 916 H 81.8166 -1.29508 -0.697565 0
M  V30 917 H 83.7746 -1.78354 -3.77155 0
M  V30 918 H 82.4046 -0.850827 -3.11385 0
M  V30 919 H 81.4566 -3.09584 -2.21047 0
M  V30 920 H 82.7686 -3.92801 -3.07423 0
M  V30 921 H 81.9226 -3.03418 -5.25378 0
M  V30 922 H 80.6616 -2.09815 -4.4026 0
M  V30 923 H 79.6666 -4.22604 -3.5169 0
M  V30 924 H 80.8916 -5.17181 -4.40115 0
M  V30 925 H 78.8376 -3.31476 -5.66091 0
M  V30 926 H 78.7546 -5.04564 -5.62984 0
M  V30 927 H 80.0226 -4.26355 -6.52565 0
M  V30 928 N 84.2517 0.741722 -1.39055 0
M  V30 929 C 85.1847 1.86416 -1.31622 0
M  V30 930 C 86.1627 1.61473 -0.191076 0
M  V30 931 O 87.3467 1.84825 -0.370399 0
M  V30 932 C 84.4737 3.22266 -1.04221 0
M  V30 933 C 83.5197 3.66079 -2.18834 0
M  V30 934 S 84.3527 3.7623 -3.81066 0
M  V30 935 C 85.5087 5.14881 -3.55877 0
M  V30 936 H 85.7417 1.92437 -2.26617 0
M  V30 937 H 83.2747 0.905907 -1.25031 0
M  V30 938 H 85.2327 4.00714 -0.890964 0
M  V30 939 H 83.8937 3.1391 -0.109237 0
M  V30 940 H 83.0867 4.64648 -1.95238 0
M  V30 941 H 82.6887 2.94817 -2.30128 0
M  V30 942 H 84.9807 6.01006 -3.12726 0
M  V30 943 H 85.9237 5.43503 -4.53884 0
M  V30 944 H 86.3317 4.84239 -2.90126 0
M  V30 945 N 85.7298 1.2412 0.971189 0
M  V30 946 C 86.6768 1.0305 2.06517 0
M  V30 947 C 87.6468 -0.0550666 1.66009 0
M  V30 948 O 88.8318 0.0988688 1.90544 0
M  V30 949 C 85.9718 0.637653 3.39158 0
M  V30 950 C 85.0848 1.79633 3.92882 0
M  V30 951 C 84.2198 1.34939 5.13775 0
M  V30 952 C 83.2588 2.47823 5.59687 0
M  V30 953 N 82.3958 2.04022 6.71803 0
M  V30 954 H 87.2358 1.96685 2.23873 0
M  V30 955 H 84.7728 0.979694 1.09729 0
M  V30 956 H 86.7308 0.390931 4.15364 0
M  V30 957 H 85.3608 -0.261693 3.21737 0
M  V30 958 H 84.4128 2.15681 3.13346 0
M  V30 959 H 85.7248 2.64466 4.22918 0
M  V30 960 H 84.8788 1.06134 5.97345 0
M  V30 961 H 83.6178 0.471557 4.85415 0
M  V30 962 H 82.6228 2.77392 4.74693 0
M  V30 963 H 83.8478 3.36158 5.90063 0
M  V30 964 H 81.7938 1.18632 6.45184 0
M  V30 965 H 81.7108 2.82409 7.01271 0
M  V30 966 H 82.9788 1.78347 7.58823 0
M  V30 967 N 87.2079 -1.17134 1.05439 0
M  V30 968 C 88.1579 -2.1919 0.627675 0
M  V30 969 C 89.1419 -1.57328 -0.337147 0
M  V30 970 O 90.3339 -1.76329 -0.153976 0
M  V30 971 C 87.4629 -3.43299 0.00651435 0
M  V30 972 C 86.5489 -4.12255 0.995312 0
M  V30 973 N 86.9399 -4.56997 2.16765 0
M  V30 974 C 85.2379 -4.38316 0.824336 0
M  V30 975 C 85.9389 -5.10239 2.7934 0
M  V30 976 N 84.9149 -5.02595 2.07122 0
M  V30 977 H 88.7169 -2.5149 1.52086 0
M  V30 978 H 86.2309 -1.33491 0.924868 0
M  V30 979 H 88.2279 -4.15693 -0.316965 0
M  V30 980 H 86.8879 -3.1249 -0.882033 0
M  V30 981 H 87.8989 -4.51006 2.54587 0
M  V30 982 H 84.5759 -4.17498 -0.0129526 0
M  V30 983 H 85.9659 -5.54961 3.78772 0
M  V30 984 N 88.686 -0.835752 -1.33615 0
M  V30 985 C 90.097 -0.487099 -1.80234 0
M  V30 986 C 90.448 0.993627 -1.69179 0
M  V30 987 O 89.573 1.77403 -1.23924 0
M  V30 988 C 90.168 -0.877385 -3.27242 0
M  V30 989 C 88.727 -0.580915 -3.7189 0
M  V30 990 C 87.874 -1.0874 -2.5509 0
M  V30 991 H 90.825 -1.02474 -1.2118 0
M  V30 992 H 90.846 -0.186195 -3.80044 0
M  V30 993 H 90.358 -1.95512 -3.35256 0
M  V30 994 H 88.459 0.486881 -3.69405 0
M  V30 995 H 88.572 -1.13396 -4.65487 0
M  V30 996 H 86.936 -0.508392 -2.49575 0
M  V30 997 H 87.719 -2.17184 -2.65868 0
M  V30 998 N 90.1641 1.46063 -0.591896 0
M  V30 999 C 91.1121 2.32124 0.148739 0
M  V30 1000 C 92.1061 1.45035 0.875286 0
M  V30 1001 O 93.3121 1.61609 0.792632 0
M  V30 1002 H 89.6871 0.749024 0.066832 0
M  V30 1003 H 91.6581 2.92392 -0.595783 0
M  V30 1004 C 90.4071 3.28373 1.1431 0
M  V30 1005 H 89.7301 3.95371 0.59346 0
M  V30 1006 H 91.1701 3.91352 1.63155 0
M  V30 1007 C 89.6291 2.54393 2.20875 0
M  V30 1008 O 90.1591 2.31373 3.28374 0
M  V30 1009 N 88.3651 2.14797 1.95731 0
M  V30 1010 H 87.9121 2.33719 1.08319 0
M  V30 1011 H 87.8701 1.65619 2.67241 0
M  V30 1012 N 91.6422 0.330177 1.54103 0
M  V30 1013 C 92.8912 -0.271336 1.99867 0
M  V30 1014 C 93.2042 -1.52723 1.22209 0
M  V30 1015 O 94.4102 -2.20515 1.58383 0
M  V30 1016 C 92.8662 -0.534032 3.55916 0
M  V30 1017 C 92.4742 0.705193 4.42415 0
M  V30 1018 C 94.2182 -1.09514 4.1013 0
M  V30 1019 C 92.1252 0.414035 5.89949 0
M  V30 1020 H 91.0552 -0.105166 0.74663 0
M  V30 1021 H 93.7062 0.443429 1.78062 0
M  V30 1022 H 92.0882 -1.30915 3.73734 0
M  V30 1023 H 93.2622 1.4804 4.36372 0
M  V30 1024 H 91.5772 1.18698 3.99124 0
M  V30 1025 H 94.1742 -1.3277 5.17954 0
M  V30 1026 H 94.5172 -2.04656 3.62521 0
M  V30 1027 H 95.0502 -0.381038 3.95971 0
M  V30 1028 H 91.7892 1.33481 6.41766 0
M  V30 1029 H 91.3092 -0.323336 5.98928 0
M  V30 1030 H 92.9882 0.0263105 6.46995 0
M  V30 1031 N 93.1203 -1.57491 0.0584922 0
M  V30 1032 C 94.3663 -1.93264 -0.614558 0
M  V30 1033 C 94.6993 -0.937717 -1.7006 0
M  V30 1034 O 93.9743 0.0351652 -1.94468 0
M  V30 1035 C 94.2573 -3.3938 -1.20386 0
M  V30 1036 C 94.1103 -4.49625 -0.125375 0
M  V30 1037 C 95.4293 -3.86039 -2.11334 0
M  V30 1038 H 92.5483 -0.702791 -0.221933 0
M  V30 1039 H 95.1903 -1.8961 0.12175 0
M  V30 1040 H 93.3403 -3.42626 -1.83139 0
M  V30 1041 H 95.0123 -4.58506 0.506971 0
M  V30 1042 H 93.2553 -4.30354 0.545672 0
M  V30 1043 H 93.9263 -5.48967 -0.577861 0
M  V30 1044 H 96.4023 -3.84716 -1.58534 0
M  V30 1045 H 95.2783 -4.88914 -2.49507 0
M  V30 1046 H 95.5393 -3.23215 -3.01636 0
M  V30 1047 N 94.5984 0.214957 -1.56127 0
M  V30 1048 C 95.5614 1.24997 -1.92116 0
M  V30 1049 C 96.5614 1.39467 -0.800344 0
M  V30 1050 O 97.7514 1.37619 -1.06802 0
M  V30 1051 C 94.8834 2.62271 -2.17777 0
M  V30 1052 H 96.0764 0.942875 -2.84693 0
M  V30 1053 H 93.6294 0.455654 -1.49511 0
M  V30 1054 H 94.3644 2.98068 -1.27773 0
M  V30 1055 H 94.1494 2.53143 -2.99434 0
M  V30 1056 H 95.6394 3.36946 -2.46693 0
M  V30 1057 N 96.0765 1.50051 0.48192 0
M  V30 1058 C 97.3235 1.60498 1.23477 0
M  V30 1059 C 97.6515 0.300331 1.92167 0
M  V30 1060 O 96.9065 -0.713094 1.82246 0
M  V30 1061 C 97.2055 2.72717 2.30998 0
M  V30 1062 C 96.8715 4.13572 1.79636 0
M  V30 1063 C 95.5335 4.519 1.65348 0
M  V30 1064 C 97.8855 5.01649 1.41412 0
M  V30 1065 C 95.2135 5.76057 1.11244 0
M  V30 1066 C 97.5655 6.26343 0.887538 0
M  V30 1067 C 96.2295 6.63483 0.731207 0
M  V30 1068 H 95.4995 0.587303 0.451836 0
M  V30 1069 H 98.1465 1.83948 0.532468 0
M  V30 1070 H 96.4515 2.43312 3.07094 0
M  V30 1071 H 98.1485 2.78006 2.88988 0
M  V30 1072 H 94.7385 3.83329 1.91721 0
M  V30 1073 H 98.9225 4.72679 1.51289 0
M  V30 1074 H 94.1785 6.03516 0.978686 0
M  V30 1075 H 98.3525 6.93958 0.582654 0
M  V30 1076 H 95.9795 7.59568 0.309806 0
M  V30 1077 N 97.5546 -0.734337 1.39446 0
M  V30 1078 C 98.8016 -1.49391 1.36706 0
M  V30 1079 C 99.1296 -1.94465 -0.0367813 0
M  V30 1080 O 98.3846 -1.67154 -1.01774 0
M  V30 1081 C 98.6836 -2.74711 2.28623 0
M  V30 1082 C 98.3496 -2.48501 3.76242 0
M  V30 1083 C 97.0116 -2.41062 4.16464 0
M  V30 1084 C 99.3636 -2.26098 4.69606 0
M  V30 1085 C 96.6916 -2.09262 5.48112 0
M  V30 1086 C 99.0436 -1.95814 6.01531 0
M  V30 1087 C 97.7076 -1.86845 6.40816 0
M  V30 1088 H 96.9776 -0.546661 0.500243 0
M  V30 1089 H 99.6246 -0.842788 1.71957 0
M  V30 1090 H 97.9296 -3.44569 1.86492 0
M  V30 1091 H 99.6266 -3.32741 2.23796 0
M  V30 1092 H 96.2166 -2.55169 3.44364 0
M  V30 1093 H 100.401 -2.30812 4.39363 0
M  V30 1094 H 95.6566 -2.00841 5.77471 0
M  V30 1095 H 99.8306 -1.77488 6.73403 0
M  V30 1096 H 97.4576 -1.6197 7.42745 0
M  V30 1097 N 99.0327 -1.24633 -0.964593 0
M  V30 1098 C 99.9807 -1.03917 -2.08096 0
M  V30 1099 C 100.975 0.0268581 -1.69379 0
M  V30 1100 O 102.181 -0.127952 -1.79545 0
M  V30 1101 H 98.5557 -0.319044 -0.680966 0
M  V30 1102 H 100.527 -1.98581 -2.22729 0
M  V30 1103 C 99.2757 -0.663983 -3.41301 0
M  V30 1104 H 98.5987 -1.47605 -3.71555 0
M  V30 1105 H 100.039 -0.558663 -4.20303 0
M  V30 1106 C 98.4977 0.629169 -3.30973 0
M  V30 1107 O 99.0277 1.67404 -3.65156 0
M  V30 1108 N 97.2337 0.611057 -2.84103 0
M  V30 1109 H 96.7807 -0.239593 -2.56483 0
M  V30 1110 H 96.7387 1.47647 -2.77575 0
M  V30 1111 N 100.511 1.16574 -1.06058 0
M  V30 1112 C 101.736 1.91493 -0.796562 0
M  V30 1113 C 102.161 1.76773 0.642868 0
M  V30 1114 O 101.519 1.09142 1.44768 0
M  V30 1115 C 101.567 3.40293 -1.19303 0
M  V30 1116 O 100.671 4.11074 -0.330394 0
M  V30 1117 H 100.012 0.596678 -0.291326 0
M  V30 1118 H 102.542 1.47708 -1.41575 0
M  V30 1119 H 102.552 3.91057 -1.16356 0
M  V30 1120 H 101.227 3.50326 -2.24153 0
M  V30 1121 H 99.8038 3.70513 -0.421225 0
M  V30 1122 N 101.989 0.842826 1.3317 0
M  V30 1123 C 103.236 0.440447 1.97652 0
M  V30 1124 C 103.564 -1.00123 1.6675 0
M  V30 1125 O 102.819 -1.7155 0.941761 0
M  V30 1126 C 103.118 0.612607 3.52111 0
M  V30 1127 C 102.784 2.02297 4.02972 0
M  V30 1128 C 101.446 2.40874 4.16573 0
M  V30 1129 C 103.798 2.94402 4.30089 0
M  V30 1130 C 101.126 3.70852 4.54627 0
M  V30 1131 C 103.478 4.23865 4.69597 0
M  V30 1132 C 102.142 4.62392 4.81404 0
M  V30 1133 H 101.412 0.161171 0.72326 0
M  V30 1134 H 104.059 1.07061 1.58777 0
M  V30 1135 H 102.364 -0.100849 3.9167 0
M  V30 1136 H 104.061 0.2815 4.00011 0
M  V30 1137 H 100.651 1.71338 3.92863 0
M  V30 1138 H 104.835 2.65835 4.19101 0
M  V30 1139 H 100.091 4.00501 4.61962 0
M  V30 1140 H 104.265 4.95306 4.89536 0
M  V30 1141 H 101.892 5.63154 5.10648 0
M  V30 1142 N 103.467 -1.45747 0.599634 0
M  V30 1143 C 104.399 -2.28628 -0.161879 0
M  V30 1144 C 105.412 -1.39494 -0.839367 0
M  V30 1145 O 106.601 -1.63941 -0.706089 0
M  V30 1146 C 103.701 -3.15014 -1.24976 0
M  V30 1147 C 102.874 -4.32378 -0.660935 0
M  V30 1148 C 101.933 -5.00033 -1.63869 0
M  V30 1149 O 100.959 -5.57085 -1.1681 0
M  V30 1150 N 102.161 -4.98589 -2.97303 0
M  V30 1151 H 104.926 -2.94624 0.549265 0
M  V30 1152 H 102.487 -1.55847 0.438565 0
M  V30 1153 H 104.479 -3.5714 -1.9035 0
M  V30 1154 H 103.049 -2.5098 -1.86354 0
M  V30 1155 H 102.269 -3.9383 0.170688 0
M  V30 1156 H 103.557 -5.08197 -0.247619 0
M  V30 1157 H 102.955 -4.53514 -3.38145 0
M  V30 1158 H 101.512 -5.44603 -3.58121 0
M  V30 1159 N 104.945 -0.338344 -1.53925 0
M  V30 1160 C 105.855 0.529421 -2.28548 0
M  V30 1161 C 106.871 1.11645 -1.3346 0
M  V30 1162 O 108.047 1.13325 -1.66492 0
M  V30 1163 C 105.112 1.66713 -3.03987 0
M  V30 1164 C 104.173 1.11041 -4.14691 0
M  V30 1165 C 103.406 2.19389 -4.86522 0
M  V30 1166 O 103.629 3.40013 -4.57982 0
M  V30 1167 O 102.563 1.83976 -5.73094 0
M  V30 1168 H 106.389 -0.0770399 -3.03602 0
M  V30 1169 H 103.974 -0.103555 -1.49041 0
M  V30 1170 H 105.856 2.32918 -3.5118 0
M  V30 1171 H 104.531 2.25949 -2.31794 0
M  V30 1172 H 103.438 0.413024 -3.71813 0
M  V30 1173 H 104.771 0.562975 -4.8897 0
M  V30 1174 N 106.423 1.57458 -0.0668435 0
M  V30 1175 C 107.371 2.13639 0.919851 0
M  V30 1176 C 108.365 1.07204 1.31163 0
M  V30 1177 O 109.571 1.25591 1.28945 0
M  V30 1178 H 105.946 0.683048 0.314562 0
M  V30 1179 H 107.917 2.95415 0.421047 0
M  V30 1180 C 106.666 2.70892 2.17975 0
M  V30 1181 H 105.989 3.5246 1.88711 0
M  V30 1182 H 107.429 3.13803 2.85138 0
M  V30 1183 C 105.888 1.65414 2.93496 0
M  V30 1184 O 106.418 1.07619 3.87015 0
M  V30 1185 N 104.624 1.36564 2.56512 0
M  V30 1186 H 104.171 1.83751 1.80536 0
M  V30 1187 H 104.129 0.66223 3.07347 0
M  V30 1188 N 107.901 -0.206675 1.56239 0
M  V30 1189 C 109.149 -0.927007 1.79586 0
M  V30 1190 C 109.47 -1.8427 0.637929 0
M  V30 1191 O 108.74 -1.92849 -0.344398 0
M  V30 1192 H 107.32 -0.345292 0.662407 0
M  V30 1193 H 109.982 -0.21496 1.93711 0
M  V30 1194 H 109.078 -1.52501 2.72305 0
M  V30 1195 N 109.379 -1.50304 -0.473955 0
M  V30 1196 C 110.795 -1.37667 -0.807466 0
M  V30 1197 C 110.995 -0.430555 -1.96846 0
M  V30 1198 O 110.051 0.127874 -2.52176 0
M  V30 1199 C 111.364 -2.78974 -1.12223 0
M  V30 1200 C 112.912 -2.87868 -1.22885 0
M  V30 1201 C 113.387 -4.30003 -1.57676 0
M  V30 1202 N 114.878 -4.3294 -1.64673 0
M  V30 1203 C 115.613 -5.3991 -1.93091 0
M  V30 1204 N 115.109 -6.57092 -2.1955 0
M  V30 1205 N 116.902 -5.27351 -1.94569 0
M  V30 1206 H 109.053 -2.10394 0.291212 0
M  V30 1207 H 111.316 -0.945575 0.0677609 0
M  V30 1208 H 111.022 -3.50031 -0.342229 0
M  V30 1209 H 110.896 -3.16038 -2.05913 0
M  V30 1210 H 113.283 -2.17032 -1.99953 0
M  V30 1211 H 113.364 -2.54352 -0.271814 0
M  V30 1212 H 113.008 -5.01375 -0.81149 0
M  V30 1213 H 112.938 -4.61004 -2.54525 0
M  V30 1214 H 115.429 -3.48441 -1.46277 0
M  V30 1215 H 115.742 -7.34425 -2.405 0
M  V30 1216 H 114.087 -6.60272 -2.16948 0
M  V30 1217 H 117.278 -4.34801 -1.73394 0
M  V30 1218 H 117.451 -6.10805 -2.16381 0
M  V30 1219 N 110.857 0.726932 -1.39834 0
M  V30 1220 C 111.787 1.85405 -1.41941 0
M  V30 1221 C 112.768 1.67751 -0.281728 0
M  V30 1222 O 113.953 1.8795 -0.488717 0
M  V30 1223 C 111.083 3.23243 -1.2701 0
M  V30 1224 C 110.037 3.55549 -2.38262 0
M  V30 1225 C 109.363 4.9241 -2.08415 0
M  V30 1226 C 110.663 3.577 -3.80589 0
M  V30 1227 H 112.357 1.83899 -2.36266 0
M  V30 1228 H 109.903 0.883349 -1.13723 0
M  V30 1229 H 111.856 4.01775 -1.27103 0
M  V30 1230 H 110.58 3.25296 -0.291564 0
M  V30 1231 H 109.239 2.79351 -2.37399 0
M  V30 1232 H 108.887 4.91052 -1.0898 0
M  V30 1233 H 108.587 5.14992 -2.82943 0
M  V30 1234 H 110.111 5.73289 -2.10171 0
M  V30 1235 H 111.525 4.26293 -3.83337 0
M  V30 1236 H 109.922 3.91804 -4.54543 0
M  V30 1237 H 110.992 2.57328 -4.10987 0
M  V30 1238 N 112.336 1.25143 0.95797 0
M  V30 1239 C 113.583 1.09692 1.70217 0
M  V30 1240 C 113.911 -0.362654 1.91089 0
M  V30 1241 O 113.166 -1.28386 1.47701 0
M  V30 1242 C 113.465 1.79272 3.09187 0
M  V30 1243 C 113.131 3.29196 3.08125 0
M  V30 1244 C 111.793 3.70096 3.07543 0
M  V30 1245 C 114.145 4.24995 3.0171 0
M  V30 1246 C 111.473 5.05213 2.9829 0
M  V30 1247 C 113.825 5.60132 2.93999 0
M  V30 1248 C 112.489 6.00365 2.9175 0
M  V30 1249 H 111.759 0.401393 0.622868 0
M  V30 1250 H 114.406 1.55372 1.11945 0
M  V30 1251 H 112.711 1.26014 3.70982 0
M  V30 1252 H 114.408 1.64773 3.65583 0
M  V30 1253 H 110.998 2.96651 3.09348 0
M  V30 1254 H 115.182 3.9439 3.01281 0
M  V30 1255 H 110.438 5.35569 2.94916 0
M  V30 1256 H 114.612 6.3406 2.87996 0
M  V30 1257 H 112.239 7.05023 2.84336 0
M  V30 1258 N 113.814 -1.1601 1.06675 0
M  V30 1259 C 115.063 -1.85973 0.780818 0
M  V30 1260 C 115.376 -1.82819 -0.695444 0
M  V30 1261 O 116.582 -2.484 -1.09589 0
M  V30 1262 C 115.038 -3.33757 1.34665 0
M  V30 1263 C 114.646 -3.45374 2.85343 0
M  V30 1264 C 116.39 -4.0895 1.13843 0
M  V30 1265 C 114.297 -4.87266 3.35151 0
M  V30 1266 H 113.227 -0.696661 0.288407 0
M  V30 1267 H 115.878 -1.30903 1.28595 0
M  V30 1268 H 114.26 -3.88456 0.769274 0
M  V30 1269 H 115.434 -3.00816 3.49065 0
M  V30 1270 H 113.749 -2.83619 3.04876 0
M  V30 1271 H 116.346 -5.13654 1.4854 0
M  V30 1272 H 116.689 -4.16229 0.0770282 0
M  V30 1273 H 117.222 -3.605 1.68179 0
M  V30 1274 H 113.961 -4.85168 4.40786 0
M  V30 1275 H 113.481 -5.32433 2.76179 0
M  V30 1276 H 115.16 -5.56097 3.30704 0
M  V30 1277 N 115.292 -0.849877 -1.32721 0
M  V30 1278 C 116.538 -0.451591 -1.97708 0
M  V30 1279 C 116.871 0.989175 -1.6712 0
M  V30 1280 O 116.146 1.69334 -0.956891 0
M  V30 1281 C 116.429 -0.685598 -3.53513 0
M  V30 1282 C 116.282 -2.17444 -3.93749 0
M  V30 1283 C 117.601 -0.138874 -4.39881 0
M  V30 1284 H 114.72 -0.16555 -0.718166 0
M  V30 1285 H 117.362 -1.06742 -1.57182 0
M  V30 1286 H 115.512 -0.161416 -3.88165 0
M  V30 1287 H 117.184 -2.76433 -3.693 0
M  V30 1288 H 115.427 -2.65476 -3.43081 0
M  V30 1289 H 116.098 -2.28888 -5.02309 0
M  V30 1290 H 118.574 -0.587068 -4.11938 0
M  V30 1291 H 117.45 -0.332213 -5.47894 0
M  V30 1292 H 117.711 0.95806 -4.31594 0
M  V30 1293 N 116.77 1.45427 -0.607355 0
M  V30 1294 C 117.703 2.27635 0.160482 0
M  V30 1295 C 118.681 1.37122 0.873857 0
M  V30 1296 O 119.865 1.66551 0.882775 0
M  V30 1297 C 116.992 3.15486 1.23231 0
M  V30 1298 C 116.038 4.21939 0.622097 0
M  V30 1299 S 116.871 5.32459 -0.569852 0
M  V30 1300 C 118.027 6.23879 0.502577 0
M  V30 1301 H 118.26 2.9241 -0.536983 0
M  V30 1302 H 115.793 1.49265 -0.394868 0
M  V30 1303 H 117.751 3.66659 1.84585 0
M  V30 1304 H 116.412 2.49977 1.90185 0
M  V30 1305 H 115.605 4.8333 1.42856 0
M  V30 1306 H 115.207 3.73906 0.0837063 0
M  V30 1307 H 117.499 6.63261 1.38171 0
M  V30 1308 H 118.442 7.0806 -0.0751759 0
M  V30 1309 H 118.85 5.58545 0.8178 0
M  V30 1310 N 118.248 0.346503 1.53744 0
M  V30 1311 C 119.158 -0.517293 2.28826 0
M  V30 1312 C 120.174 -1.10935 1.3405 0
M  V30 1313 O 121.35 -1.1244 1.6709 0
M  V30 1314 C 118.415 -1.65098 3.04866 0
M  V30 1315 C 117.476 -1.0884 4.15274 0
M  V30 1316 C 116.709 -2.16806 4.87679 0
M  V30 1317 O 116.932 -3.3758 4.59778 0
M  V30 1318 O 115.866 -1.80934 5.74061 0
M  V30 1319 H 119.692 0.0931396 3.03557 0
M  V30 1320 H 117.277 0.111458 1.48984 0
M  V30 1321 H 119.159 -2.31053 3.5241 0
M  V30 1322 H 117.834 -2.24717 2.32989 0
M  V30 1323 H 116.741 -0.3933 3.72027 0
M  V30 1324 H 118.074 -0.537036 4.89261 0
M  V30 1325 N 119.726 -1.57421 0.075193 0
M  V30 1326 C 120.956 -1.97659 -0.601203 0
M  V30 1327 C 121.364 -0.952427 -1.63479 0
M  V30 1328 O 120.707 0.0688241 -1.83571 0
M  V30 1329 C 120.769 -3.34218 -1.32434 0
M  V30 1330 C 120.433 -4.5484 -0.443826 0
M  V30 1331 C 121.43 -5.19034 0.299969 0
M  V30 1332 C 119.115 -5.00952 -0.367709 0
M  V30 1333 C 121.109 -6.27695 1.10807 0
M  V30 1334 C 118.796 -6.09484 0.444058 0
M  V30 1335 C 119.794 -6.72719 1.18061 0
M  V30 1336 O 119.482 -7.79161 1.97898 0
M  V30 1337 H 119.214 -0.65494 -0.167422 0
M  V30 1338 H 121.768 -2.04886 0.145157 0
M  V30 1339 H 119.998 -3.23615 -2.11685 0
M  V30 1340 H 121.687 -3.59038 -1.89331 0
M  V30 1341 H 122.453 -4.84351 0.250776 0
M  V30 1342 H 118.332 -4.51509 -0.930638 0
M  V30 1343 H 121.876 -6.76982 1.68347 0
M  V30 1344 H 117.773 -6.43601 0.494803 0
M  V30 1345 H 118.541 -7.96055 1.90367 0
M  V30 1346 N 121.204 0.198386 -1.56346 0
M  V30 1347 C 122.444 0.92609 -1.82217 0
M  V30 1348 C 122.808 1.80584 -0.652195 0
M  V30 1349 O 124.009 2.56907 -0.790716 0
M  V30 1350 C 122.28 1.72354 -3.13096 0
M  V30 1351 S 123.839 2.50371 -3.6036 0
M  V30 1352 H 120.657 0.310677 -0.639532 0
M  V30 1353 H 123.259 0.189755 -1.94577 0
M  V30 1354 H 121.963 1.0678 -3.96265 0
M  V30 1355 H 121.494 2.50175 -3.03605 0
M  V30 1356 H 123.509 3.74488 -3.25535 0
M  V30 1357 N 122.682 1.50554 0.465978 0
M  V30 1358 C 123.959 1.5232 1.22712 0
M  V30 1359 C 124.339 0.270807 2.09356 0
M  V30 1360 O 123.687 -0.745541 2.15995 0
M  V30 1361 C 123.897 2.82175 2.05374 0
M  V30 1362 C 125.245 3.33033 2.6339 0
M  V30 1363 O 126.269 2.83531 2.15612 0
M  V30 1364 O 125.128 4.19336 3.50456 0
M  V30 1365 H 122.222 0.611183 0.557122 0
M  V30 1366 H 124.768 1.62847 0.477381 0
M  V30 1367 H 123.54 3.64797 1.41558 0
M  V30 1368 H 123.163 2.74675 2.87471 0
M  V30 1369 N 124.16 -0.719506 1.40217 0
M  V30 1370 C 125.408 -1.47641 1.3801 0
M  V30 1371 C 125.729 -1.94992 -0.018145 0
M  V30 1372 O 124.999 -1.70073 -0.972207 0
M  V30 1373 H 123.579 -0.547744 0.507923 0
M  V30 1374 H 126.241 -0.853187 1.75233 0
M  V30 1375 H 125.337 -2.35112 2.05253 0
M  V30 1376 N 125.638 -1.25649 -0.95132 0
M  V30 1377 C 126.886 -1.10375 -1.69298 0
M  V30 1378 C 127.207 0.355339 -1.91735 0
M  V30 1379 O 126.477 1.25188 -1.50681 0
M  V30 1380 H 125.057 -0.405461 -0.627384 0
M  V30 1381 H 127.719 -1.57823 -1.14358 0
M  V30 1382 H 126.815 -1.61465 -2.67087 0
M  V30 1383 N 127.117 1.15442 -1.07289 0
M  V30 1384 C 128.394 1.82306 -0.708792 0
M  V30 1385 C 128.774 1.94991 0.808807 0
M  V30 1386 O 128.122 1.50085 1.72298 0
M  V30 1387 C 128.332 3.18695 -1.42247 0
M  V30 1388 C 129.68 3.94341 -1.57417 0
M  V30 1389 O 130.704 3.28247 -1.38319 0
M  V30 1390 O 129.563 5.12839 -1.88834 0
M  V30 1391 H 126.657 0.787628 -0.252132 0
M  V30 1392 H 129.203 1.22559 -1.17377 0
M  V30 1393 H 127.975 3.04557 -2.45684 0
M  V30 1394 H 127.598 3.86128 -0.948223 0
M  V30 1395 N 128.595 0.856903 1.32268 0
M  V30 1396 C 129.525 0.31858 2.31316 0
M  V30 1397 C 130.506 -0.583487 1.59779 0
M  V30 1398 O 131.691 -0.503259 1.87566 0
M  V30 1399 C 128.821 -0.491979 3.43798 0
M  V30 1400 C 127.775 0.315849 4.26833 0
M  V30 1401 C 127.101 -0.619586 5.31098 0
M  V30 1402 C 128.401 1.54282 4.98993 0
M  V30 1403 H 130.095 1.14621 2.76591 0
M  V30 1404 H 127.641 0.552613 1.32974 0
M  V30 1405 H 129.594 -0.879012 4.1213 0
M  V30 1406 H 128.318 -1.35299 2.97257 0
M  V30 1407 H 126.977 0.684664 3.6015 0
M  V30 1408 H 126.625 -1.47751 4.8081 0
M  V30 1409 H 126.325 -0.0830621 5.87541 0
M  V30 1410 H 127.849 -1.00375 6.02293 0
M  V30 1411 H 129.263 1.22796 5.59995 0
M  V30 1412 H 127.66 2.01745 5.65172 0
M  V30 1413 H 128.73 2.30285 4.26728 0
M  V30 1414 N 130.073 -1.45103 0.615059 0
M  V30 1415 C 131.006 -2.27717 -0.148408 0
M  V30 1416 C 131.984 -1.37584 -0.866572 0
M  V30 1417 O 133.168 -1.67017 -0.87393 0
M  V30 1418 C 130.295 -3.16136 -1.21557 0
M  V30 1419 C 129.341 -4.22263 -0.599712 0
M  V30 1420 S 130.174 -5.3215 0.598081 0
M  V30 1421 C 131.33 -6.24137 -0.469484 0
M  V30 1422 H 131.563 -2.92121 0.552483 0
M  V30 1423 H 129.096 -1.49054 0.402778 0
M  V30 1424 H 131.054 -3.67633 -1.82638 0
M  V30 1425 H 129.715 -2.50982 -1.88857 0
M  V30 1426 H 128.908 -4.84081 -1.4029 0
M  V30 1427 H 128.51 -3.73945 -0.063876 0
M  V30 1428 H 130.802 -6.63984 -1.34652 0
M  V30 1429 H 131.745 -7.0801 0.112725 0
M  V30 1430 H 132.153 -5.58971 -0.788168 0
M  V30 1431 N 131.551 -0.354651 -1.53558 0
M  V30 1432 C 132.498 0.496968 -2.25386 0
M  V30 1433 C 133.468 1.0865 -1.25636 0
M  V30 1434 O 134.653 1.12104 -1.54394 0
M  V30 1435 C 131.793 1.63637 -3.03837 0
M  V30 1436 C 130.906 1.07307 -4.18461 0
M  V30 1437 C 130.041 2.18068 -4.84376 0
M  V30 1438 C 129.08 1.59147 -5.91049 0
M  V30 1439 N 128.217 2.63695 -6.50699 0
M  V30 1440 H 133.057 -0.122075 -2.9775 0
M  V30 1441 H 130.594 -0.0720154 -1.46924 0
M  V30 1442 H 132.552 2.30734 -3.47589 0
M  V30 1443 H 131.182 2.22623 -2.33749 0
M  V30 1444 H 130.234 0.292708 -3.79272 0
M  V30 1445 H 131.546 0.602193 -4.95152 0
M  V30 1446 H 130.7 2.93007 -5.31255 0
M  V30 1447 H 129.439 2.68504 -4.07133 0
M  V30 1448 H 128.444 0.827175 -5.43542 0
M  V30 1449 H 129.669 1.09549 -6.70206 0
M  V30 1450 H 127.615 3.13365 -5.76315 0
M  V30 1451 H 127.532 2.21263 -7.22896 0
M  V30 1452 H 128.8 3.3837 -7.02229 0
M  V30 1453 N 133.029 1.57378 -0.0835403 0
M  V30 1454 C 134.445 1.57246 0.273109 0
M  V30 1455 C 134.645 1.09385 1.69225 0
M  V30 1456 O 133.701 0.765051 2.40631 0
M  V30 1457 C 135.014 3.00614 0.0720628 0
M  V30 1458 C 136.562 3.12684 0.1407 0
M  V30 1459 C 137.037 4.57989 -0.0322094 0
M  V30 1460 N 138.528 4.63194 0.0230085 0
M  V30 1461 C 139.263 5.73335 -0.0861941 0
M  V30 1462 N 138.759 6.9235 -0.24958 0
M  V30 1463 N 140.552 5.62093 -0.0282886 0
M  V30 1464 H 132.703 1.86801 -1.0109 0
M  V30 1465 H 134.966 0.861687 -0.395222 0
M  V30 1466 H 134.672 3.39786 -0.907662 0
M  V30 1467 H 134.546 3.68193 0.81936 0
M  V30 1468 H 136.933 2.73391 1.11092 0
M  V30 1469 H 137.014 2.47719 -0.637896 0
M  V30 1470 H 136.658 4.97973 -0.999247 0
M  V30 1471 H 136.588 5.21 0.765937 0
M  V30 1472 H 139.079 3.77613 0.14722 0
M  V30 1473 H 139.392 7.72117 -0.324733 0
M  V30 1474 H 137.737 6.94415 -0.285097 0
M  V30 1475 H 140.928 4.67997 0.0981408 0
M  V30 1476 H 141.101 6.47895 -0.116845 0
M  V30 1477 N 134.507 -0.190092 1.56449 0
M  V30 1478 C 135.756 -0.907912 1.80111 0
M  V30 1479 C 136.069 -1.84214 0.657619 0
M  V30 1480 O 137.275 -2.60094 0.778663 0
M  V30 1481 C 135.731 -1.66485 3.19078 0
M  V30 1482 C 135.339 -0.7752 4.41242 0
M  V30 1483 C 137.083 -2.37201 3.52045 0
M  V30 1484 C 134.99 -1.53129 5.71231 0
M  V30 1485 H 133.92 -0.34276 0.671589 0
M  V30 1486 H 136.571 -0.161109 1.82791 0
M  V30 1487 H 134.953 -2.45572 3.10661 0
M  V30 1488 H 136.127 -0.0226298 4.60794 0
M  V30 1489 H 134.442 -0.178627 4.16017 0
M  V30 1490 H 137.039 -2.94329 4.46402 0
M  V30 1491 H 137.382 -3.11632 2.76028 0
M  V30 1492 H 137.915 -1.65075 3.61932 0
M  V30 1493 H 134.654 -0.82967 6.50228 0
M  V30 1494 H 134.174 -2.25767 5.55688 0
M  V30 1495 H 135.853 -2.08377 6.12526 0
M  V30 1496 N 135.985 -1.50799 -0.457987 0
M  V30 1497 C 136.933 -1.71162 -1.575 0
M  V30 1498 C 137.927 -0.577592 -1.59249 0
M  V30 1499 O 139.133 -0.758443 -1.63241 0
M  V30 1500 H 135.508 -0.540468 -0.522875 0
M  V30 1501 H 137.479 -2.64837 -1.37492 0
M  V30 1502 C 136.228 -1.83496 -2.95338 0
M  V30 1503 H 135.551 -2.70153 -2.94716 0
M  V30 1504 H 136.991 -2.01765 -3.72917 0
M  V30 1505 C 135.45 -0.589694 -3.31699 0
M  V30 1506 O 135.98 0.265163 -4.00824 0
M  V30 1507 N 134.186 -0.439845 -2.87252 0
M  V30 1508 H 133.733 -1.13655 -2.31172 0
M  V30 1509 H 133.691 0.392159 -3.11945 0
M  V30 1510 N 137.463 0.71206 -1.40597 0
M  V30 1511 C 138.879 1.02058 -1.22704 0
M  V30 1512 C 139.079 2.01228 -0.104729 0
M  V30 1513 O 138.135 2.4674 0.53624 0
M  V30 1514 C 139.448 1.56094 -2.57012 0
M  V30 1515 C 140.996 1.6806 -2.64054 0
M  V30 1516 C 141.471 2.25501 -3.9864 0
M  V30 1517 N 142.962 2.32882 -4.004 0
M  V30 1518 C 143.697 2.78317 -5.01325 0
M  V30 1519 N 143.193 3.23478 -6.12645 0
M  V30 1520 N 144.986 2.77733 -4.88693 0
M  V30 1521 H 137.137 0.0547896 -2.12329 0
M  V30 1522 H 139.4 0.0869027 -0.944008 0
M  V30 1523 H 139.106 0.906865 -3.39807 0
M  V30 1524 H 138.98 2.54564 -2.78347 0
M  V30 1525 H 141.367 2.32583 -1.81629 0
M  V30 1526 H 141.448 0.681802 -2.46546 0
M  V30 1527 H 141.092 1.61598 -4.81506 0
M  V30 1528 H 141.022 3.26102 -4.13479 0
M  V30 1529 H 143.513 2.00991 -3.20017 0
M  V30 1530 H 143.826 3.56725 -6.85542 0
M  V30 1531 H 142.171 3.21429 -6.16205 0
M  V30 1532 H 145.362 2.4179 -4.00818 0
M  V30 1533 H 145.535 3.12826 -5.67489 0
M  V30 1534 N 138.941 1.26152 0.944643 0
M  V30 1535 C 139.873 1.03199 2.04652 0
M  V30 1536 C 140.886 -0.00642356 1.62799 0
M  V30 1537 O 142.075 0.233263 1.76969 0
M  V30 1538 C 139.175 0.540111 3.34568 0
M  V30 1539 C 138.348 1.64697 4.05208 0
M  V30 1540 C 137.407 1.15374 5.13396 0
M  V30 1541 O 136.433 1.85013 5.38293 0
M  V30 1542 N 137.635 0.00031529 5.805 0
M  V30 1543 H 140.4 1.9808 2.2491 0
M  V30 1544 H 137.961 1.17491 1.11389 0
M  V30 1545 H 139.953 0.194401 4.04233 0
M  V30 1546 H 138.523 -0.315021 3.11009 0
M  V30 1547 H 137.743 2.16379 3.29506 0
M  V30 1548 H 139.031 2.3903 4.49157 0
M  V30 1549 H 138.429 -0.581336 5.62705 0
M  V30 1550 H 136.986 -0.286346 6.51171 0
M  V30 1551 N 140.419 -1.14872 1.07899 0
M  V30 1552 C 141.835 -1.37776 0.805606 0
M  V30 1553 C 142.035 -1.92743 -0.587555 0
M  V30 1554 O 141.091 -2.13678 -1.34528 0
M  V30 1555 C 142.404 -2.34361 1.88402 0
M  V30 1556 C 143.952 -2.48012 1.90942 0
M  V30 1557 C 144.427 -3.47893 2.97883 0
M  V30 1558 N 145.918 -3.55433 2.97021 0
M  V30 1559 C 146.653 -4.32553 3.76412 0
M  V30 1560 N 146.149 -5.12959 4.65666 0
M  V30 1561 N 147.942 -4.27697 3.64735 0
M  V30 1562 H 140.093 -0.775365 1.97742 0
M  V30 1563 H 142.356 -0.403521 0.857831 0
M  V30 1564 H 142.062 -2.01098 2.88535 0
M  V30 1565 H 141.936 -3.34206 1.74889 0
M  V30 1566 H 144.323 -2.8057 0.914579 0
M  V30 1567 H 144.404 -1.48147 2.08534 0
M  V30 1568 H 144.048 -3.16069 3.97571 0
M  V30 1569 H 143.978 -4.47527 2.77538 0
M  V30 1570 H 146.469 -2.98048 2.32326 0
M  V30 1571 H 146.782 -5.69065 5.22862 0
M  V30 1572 H 145.127 -5.12245 4.69712 0
M  V30 1573 H 148.318 -3.63949 2.94378 0
M  V30 1574 H 148.491 -4.8755 4.26848 0
M  V30 1575 N 141.898 -0.863906 -1.31812 0
M  V30 1576 C 143.146 -0.470904 -1.96537 0
M  V30 1577 C 143.467 0.978771 -1.68657 0
M  V30 1578 O 142.737 1.6853 -0.998717 0
M  V30 1579 H 141.317 -0.171148 -0.72713 0
M  V30 1580 H 143.979 -1.10236 -1.60729 0
M  V30 1581 H 143.075 -0.623616 -3.05806 0
M  V30 1582 N 143.376 1.44774 -0.622745 0
M  V30 1583 C 144.622 2.0242 -0.124083 0
M  V30 1584 C 144.955 1.4881 1.24777 0
M  V30 1585 O 144.23 0.668799 1.8264 0
M  V30 1586 C 144.513 3.59957 -0.101619 0
M  V30 1587 C 144.366 4.23867 -1.50521 0
M  V30 1588 C 145.685 4.36284 0.578272 0
M  V30 1589 H 142.804 0.735528 -0.0465645 0
M  V30 1590 H 145.446 1.72447 -0.797617 0
M  V30 1591 H 143.596 3.85623 0.471934 0
M  V30 1592 H 145.268 4.09336 -2.12701 0
M  V30 1593 H 143.511 3.81684 -2.06154 0
M  V30 1594 H 144.182 5.32843 -1.4416 0
M  V30 1595 H 146.658 4.16001 0.0906057 0
M  V30 1596 H 145.534 5.46004 0.563149 0
M  V30 1597 H 145.795 4.10271 1.64713 0
M  V30 1598 N 144.854 0.36279 1.53368 0
M  V30 1599 C 145.784 -0.476976 2.28576 0
M  V30 1600 C 146.765 -1.08631 1.30894 0
M  V30 1601 O 147.95 -1.10409 1.59761 0
M  V30 1602 C 145.08 -1.61828 3.07293 0
M  V30 1603 C 144.034 -1.13633 4.1264 0
M  V30 1604 C 143.36 -2.36766 4.79423 0
M  V30 1605 C 144.66 -0.223061 5.21823 0
M  V30 1606 H 146.354 0.150474 2.99022 0
M  V30 1607 H 143.9 0.0738103 1.43811 0
M  V30 1608 H 145.853 -2.21237 3.58653 0
M  V30 1609 H 144.577 -2.27292 2.34533 0
M  V30 1610 H 143.236 -0.564945 3.62221 0
M  V30 1611 H 142.884 -3.0068 4.03238 0
M  V30 1612 H 142.584 -2.05192 5.50609 0
M  V30 1613 H 144.108 -2.96865 5.33576 0
M  V30 1614 H 145.522 -0.724545 5.68703 0
M  V30 1615 H 143.919 0.001678 6.001 0
M  V30 1616 H 144.989 0.735553 4.79289 0
M  V30 1617 N 146.332 -1.57332 0.0918853 0
M  V30 1618 C 147.579 -1.94236 -0.572577 0
M  V30 1619 C 147.907 -0.973398 -1.6839 0
M  V30 1620 O 147.162 0.00756912 -1.95699 0
M  V30 1621 C 147.461 -3.37689 -1.17051 0
M  V30 1622 C 147.127 -4.50527 -0.183304 0
M  V30 1623 C 145.789 -4.81119 0.0882276 0
M  V30 1624 C 148.141 -5.18883 0.49095 0
M  V30 1625 C 145.469 -5.77395 1.04076 0
M  V30 1626 C 147.821 -6.1618 1.43193 0
M  V30 1627 C 146.485 -6.45179 1.71173 0
M  V30 1628 H 145.755 -0.710762 -0.209521 0
M  V30 1629 H 148.402 -1.9077 0.167036 0
M  V30 1630 H 146.707 -3.37718 -1.9863 0
M  V30 1631 H 148.404 -3.63543 -1.69227 0
M  V30 1632 H 144.994 -4.26681 -0.405124 0
M  V30 1633 H 149.178 -4.95427 0.294312 0
M  V30 1634 H 144.434 -5.98179 1.26457 0
M  V30 1635 H 148.608 -6.68243 1.96023 0
M  V30 1636 H 146.235 -7.1959 2.4514 0
M  V30 1637 N 147.81 0.181792 -1.56548 0
M  V30 1638 C 149.035 0.920019 -1.85877 0
M  V30 1639 C 149.46 1.75494 -0.677021 0
M  V30 1640 O 148.818 1.77399 0.374056 0
M  V30 1641 C 148.866 1.78112 -3.13542 0
M  V30 1642 O 147.97 2.88152 -2.95029 0
M  V30 1643 H 147.311 0.258334 -0.611686 0
M  V30 1644 H 149.841 0.183092 -2.03779 0
M  V30 1645 H 149.851 2.18314 -3.44678 0
M  V30 1646 H 148.526 1.16777 -3.99169 0
M  V30 1647 H 147.103 2.51609 -2.75222 0
M  V30 1648 N 149.288 1.51039 0.449983 0
M  V30 1649 C 150.198 1.74261 1.57067 0
M  V30 1650 C 151.214 0.626363 1.62335 0
M  V30 1651 O 152.39 0.907162 1.79812 0
M  V30 1652 C 149.455 1.85114 2.93144 0
M  V30 1653 C 148.516 3.0893 2.98095 0
M  V30 1654 C 147.749 3.19256 4.27681 0
M  V30 1655 O 147.972 2.35835 5.19363 0
M  V30 1656 O 146.906 4.12144 4.38658 0
M  V30 1657 H 150.732 2.69303 1.40391 0
M  V30 1658 H 148.317 1.35389 0.631688 0
M  V30 1659 H 150.199 1.94311 3.73926 0
M  V30 1660 H 148.874 0.932588 3.09975 0
M  V30 1661 H 147.781 3.0522 2.16314 0
M  V30 1662 H 149.114 4.00433 2.86206 0
M  V30 1663 N 150.766 -0.704594 1.40972 0
M  V30 1664 C 152.043 -1.45847 1.30338 0
M  V30 1665 C 152.423 -2.10973 -0.0732344 0
M  V30 1666 O 151.771 -2.00997 -1.08685 0
M  V30 1667 C 151.981 -2.48525 2.45023 0
M  V30 1668 C 153.329 -3.1404 2.8577 0
M  V30 1669 O 154.353 -2.58848 2.44696 0
M  V30 1670 O 153.212 -4.13981 3.56766 0
M  V30 1671 H 150.306 -0.649092 0.512454 0
M  V30 1672 H 152.852 -0.735836 1.52917 0
M  V30 1673 H 151.624 -1.98994 3.36923 0
M  V30 1674 H 151.247 -3.2831 2.24272 0
M  V30 1675 N 152.244 -1.26651 -0.937939 0
M  V30 1676 C 153.176 -1.04283 -2.04102 0
M  V30 1677 C 154.189 -0.00221014 -1.628 0
M  V30 1678 O 155.378 -0.242645 -1.76843 0
M  V30 1679 C 152.478 -0.557846 -3.34277 0
M  V30 1680 C 151.651 -1.66843 -4.04329 0
M  V30 1681 C 150.71 -1.18095 -5.12777 0
M  V30 1682 O 149.736 -1.87865 -5.37304 0
M  V30 1683 N 150.938 -0.0311006 -5.80492 0
M  V30 1684 H 153.703 -1.9927 -2.23856 0
M  V30 1685 H 151.264 -1.1808 -1.10764 0
M  V30 1686 H 153.256 -0.215836 -4.04124 0
M  V30 1687 H 151.826 0.298523 -3.11171 0
M  V30 1688 H 151.046 -2.18123 -3.28353 0
M  V30 1689 H 152.334 -2.41408 -4.47883 0
M  V30 1690 H 151.732 0.551486 -5.63005 0
M  V30 1691 H 150.289 0.251809 -6.51313 0
M  V30 1692 N 153.722 1.14298 -1.08507 0
M  V30 1693 C 154.971 1.84708 -0.810305 0
M  V30 1694 C 155.284 1.83903 0.666271 0
M  V30 1695 O 156.49 2.50112 1.05624 0
M  V30 1696 C 154.946 3.31572 -1.39957 0
M  V30 1697 C 154.554 3.40791 -2.90801 0
M  V30 1698 C 156.298 4.07087 -1.20334 0
M  V30 1699 C 154.205 4.81872 -3.4286 0
M  V30 1700 H 153.135 0.691985 -0.299454 0
M  V30 1701 H 155.786 1.28841 -1.30661 0
M  V30 1702 H 154.168 3.87183 -0.830976 0
M  V30 1703 H 155.342 2.95225 -3.53806 0
M  V30 1704 H 153.657 2.78732 -3.0935 0
M  V30 1705 H 156.254 5.11225 -1.56693 0
M  V30 1706 H 156.597 4.16054 -0.143237 0
M  V30 1707 H 157.13 3.57779 -1.73893 0
M  V30 1708 H 153.869 4.78094 -4.48449 0
M  V30 1709 H 153.389 5.27972 -2.84615 0
M  V30 1710 H 155.068 5.50765 -3.39509 0
M  V30 1711 N 155.201 0.870884 1.31352 0
M  V30 1712 C 156.131 0.343096 2.30966 0
M  V30 1713 C 157.112 -0.566507 1.60389 0
M  V30 1714 O 158.297 -0.483336 1.88089 0
M  V30 1715 C 155.427 -0.455487 3.443 0
M  V30 1716 C 154.381 0.361103 4.26474 0
M  V30 1717 C 153.707 -0.563221 5.31725 0
M  V30 1718 C 155.007 1.59566 4.97329 0
M  V30 1719 H 156.701 1.17548 2.75359 0
M  V30 1720 H 154.247 0.566686 1.32381 0
M  V30 1721 H 156.2 -0.83525 4.13039 0
M  V30 1722 H 154.924 -1.32139 2.98675 0
M  V30 1723 H 153.583 0.722825 3.59403 0
M  V30 1724 H 153.231 -1.42643 4.82351 0
M  V30 1725 H 152.931 -0.0207409 5.87596 0
M  V30 1726 H 154.455 -0.939808 6.03324 0
M  V30 1727 H 155.869 1.28728 5.58661 0
M  V30 1728 H 154.266 2.07728 5.63 0
M  V30 1729 H 155.336 2.34798 4.24262 0
M  V30 1730 N 156.679 -1.44442 0.630414 0
M  V30 1731 C 157.927 -2.01653 0.134351 0
M  V30 1732 C 158.248 -1.49836 -1.24796 0
M  V30 1733 O 157.518 -0.701684 -1.82902 0
M  V30 1734 H 156.098 -0.74554 0.0466769 0
M  V30 1735 H 158.76 -1.76952 0.816955 0
M  V30 1736 H 157.856 -3.11935 0.101498 0
M  V30 1737 N 158.157 -0.370918 -1.53173 0
M  V30 1738 C 159.403 0.209976 -2.02313 0
M  V30 1739 C 159.758 1.45987 -1.25322 0
M  V30 1740 O 159.051 1.8856 -0.339965 0
M  V30 1741 C 159.245 0.549696 -3.53147 0
M  V30 1742 C 159.074 -0.665721 -4.44745 0
M  V30 1743 C 157.844 -1.17942 -4.91343 0
M  V30 1744 C 160.042 -1.53255 -4.90935 0
M  V30 1745 N 158.024 -2.35431 -5.66962 0
M  V30 1746 C 159.395 -2.55403 -5.64951 0
M  V30 1747 C 161.45 -1.5548 -4.73002 0
M  V30 1748 C 160.153 -3.5964 -6.22938 0
M  V30 1749 C 162.179 -2.58613 -5.31858 0
M  V30 1750 C 161.541 -3.59485 -6.05764 0
M  V30 1751 H 157.64 0.0394095 -0.781006 0
M  V30 1752 H 160.224 -0.516666 -1.8772 0
M  V30 1753 H 158.395 1.24541 -3.67891 0
M  V30 1754 H 160.127 1.11614 -3.89004 0
M  V30 1755 H 156.882 -0.743228 -4.67732 0
M  V30 1756 H 157.306 -2.94827 -6.09431 0
M  V30 1757 H 161.948 -0.788457 -4.15383 0
M  V30 1758 H 159.666 -4.37153 -6.79649 0
M  V30 1759 H 163.252 -2.61195 -5.19873 0
M  V30 1760 H 162.132 -4.3798 -6.50495 0
M  V30 1761 N 159.635 1.57281 -0.100228 0
M  V30 1762 C 160.882 1.94537 0.562268 0
M  V30 1763 C 161.21 0.982315 1.67871 0
M  V30 1764 O 160.465 0.00280936 1.957 0
M  V30 1765 C 160.764 3.38305 1.15259 0
M  V30 1766 C 160.43 4.50618 0.159409 0
M  V30 1767 C 159.092 4.81066 -0.113741 0
M  V30 1768 C 161.444 5.18615 -0.518461 0
M  V30 1769 C 158.772 5.76835 -1.07137 0
M  V30 1770 C 161.124 6.15412 -1.46459 0
M  V30 1771 C 159.788 6.44262 -1.74592 0
M  V30 1772 H 159.058 0.711863 0.205748 0
M  V30 1773 H 161.705 1.90679 -0.17715 0
M  V30 1774 H 160.01 3.38766 1.96836 0
M  V30 1775 H 161.707 3.64435 1.67297 0
M  V30 1776 H 158.297 4.2689 0.382491 0
M  V30 1777 H 162.481 4.95264 -0.320581 0
M  V30 1778 H 157.737 5.975 -1.29628 0
M  V30 1779 H 161.911 6.67194 -1.99564 0
M  V30 1780 H 159.538 7.1828 -2.48953 0
M  V30 1781 N 161.113 -0.173488 1.56642 0
M  V30 1782 C 162.359 -0.891784 1.8214 0
M  V30 1783 C 162.692 -1.8199 0.677736 0
M  V30 1784 O 161.967 -1.91842 -0.320446 0
M  V30 1785 C 162.25 -1.68933 3.18015 0
M  V30 1786 C 162.103 -0.784487 4.42906 0
M  V30 1787 C 163.422 -2.65748 3.50808 0
M  V30 1788 H 160.541 -0.322761 0.662567 0
M  V30 1789 H 163.183 -0.158095 1.89341 0
M  V30 1790 H 161.333 -2.31482 3.12007 0
M  V30 1791 H 163.005 -0.172046 4.60979 0
M  V30 1792 H 161.248 -0.0924117 4.33702 0
M  V30 1793 H 161.919 -1.37799 5.34524 0
M  V30 1794 H 164.395 -2.13327 3.57255 0
M  V30 1795 H 163.271 -3.18619 4.4696 0
M  V30 1796 H 163.532 -3.45842 2.75401 0
M  V30 1797 N 162.591 -1.51276 -0.441967 0
M  V30 1798 C 163.523 -1.68444 -1.55433 0
M  V30 1799 C 164.536 -0.565187 -1.52674 0
M  V30 1800 O 165.725 -0.839356 -1.57534 0
M  V30 1801 C 162.825 -1.67966 -2.94348 0
M  V30 1802 C 161.998 -2.964 -3.21661 0
M  V30 1803 C 161.057 -2.88171 -4.40277 0
M  V30 1804 O 160.083 -3.62119 -4.39157 0
M  V30 1805 N 161.285 -2.03706 -5.43584 0
M  V30 1806 H 164.05 -2.644 -1.41112 0
M  V30 1807 H 161.611 -1.49104 -0.630838 0
M  V30 1808 H 163.603 -1.60035 -3.71713 0
M  V30 1809 H 162.173 -0.796225 -3.0229 0
M  V30 1810 H 161.393 -3.18234 -2.32638 0
M  V30 1811 H 162.681 -3.81427 -3.36736 0
M  V30 1812 H 162.079 -1.42995 -5.47329 0
M  V30 1813 H 160.636 -2.01658 -6.1982 0
M  V30 1814 N 164.069 0.697108 -1.41344 0
M  V30 1815 C 165.318 1.45279 -1.39918 0
M  V30 1816 C 165.631 1.95597 -0.0109624 0
M  V30 1817 O 166.837 2.71208 0.125919 0
M  V30 1818 C 165.293 2.62695 -2.46007 0
M  V30 1819 C 164.901 2.19169 -3.90729 0
M  V30 1820 C 166.645 3.40336 -2.53715 0
M  V30 1821 C 164.552 3.33535 -4.88373 0
M  V30 1822 H 163.482 0.545692 -0.520323 0
M  V30 1823 H 166.133 0.756929 -1.67161 0
M  V30 1824 H 164.515 3.34541 -2.11892 0
M  V30 1825 H 165.689 1.54623 -4.34083 0
M  V30 1826 H 164.004 1.54525 -3.86666 0
M  V30 1827 H 166.601 4.2547 -3.2385 0
M  V30 1828 H 166.944 3.85418 -1.5735 0
M  V30 1829 H 167.477 2.75546 -2.86913 0
M  V30 1830 H 164.216 2.93468 -5.86137 0
M  V30 1831 H 163.736 3.96936 -4.49668 0
M  V30 1832 H 165.415 3.99335 -5.09059 0
M  V30 1833 N 165.547 1.27147 0.931209 0
M  V30 1834 C 166.772 1.16191 1.71797 0
M  V30 1835 C 167.197 -0.278004 1.86034 0
M  V30 1836 O 166.555 -1.20137 1.35782 0
M  V30 1837 C 166.603 1.84673 3.09723 0
M  V30 1838 O 165.707 1.14231 3.96264 0
M  V30 1839 H 165.048 0.404303 0.526721 0
M  V30 1840 H 167.578 1.68152 1.1656 0
M  V30 1841 H 167.588 1.91893 3.60057 0
M  V30 1842 H 166.263 2.89421 2.98677 0
M  V30 1843 H 164.84 1.15056 3.54706 0
M  V30 1844 N 167.025 -1.13721 1.09112 0
M  V30 1845 C 167.955 -2.21148 0.749385 0
M  V30 1846 C 168.936 -1.6792 -0.271475 0
M  V30 1847 O 170.121 -1.93693 -0.140251 0
M  V30 1848 C 167.251 -3.46905 0.165659 0
M  V30 1849 C 166.205 -4.13203 1.11567 0
M  V30 1850 C 165.531 -5.33248 0.393809 0
M  V30 1851 C 166.831 -4.60912 2.45678 0
M  V30 1852 H 168.525 -2.4999 1.64758 0
M  V30 1853 H 166.071 -1.20156 0.793626 0
M  V30 1854 H 168.024 -4.21313 -0.085466 0
M  V30 1855 H 166.748 -3.17449 -0.767714 0
M  V30 1856 H 165.407 -3.40758 1.35202 0
M  V30 1857 H 165.055 -5.00054 -0.543599 0
M  V30 1858 H 164.755 -5.78552 1.02721 0
M  V30 1859 H 166.279 -6.10413 0.150908 0
M  V30 1860 H 167.693 -5.26759 2.26269 0
M  V30 1861 H 166.09 -5.16944 3.04776 0
M  V30 1862 H 167.16 -3.75603 3.06677 0
M  V30 1863 N 168.503 -0.877838 -1.30888 0
M  V30 1864 C 169.751 -0.491723 -1.96027 0
M  V30 1865 C 170.072 0.960827 -1.69685 0
M  V30 1866 O 169.342 1.67462 -1.01654 0
M  V30 1867 H 167.922 -0.17885 -0.725273 0
M  V30 1868 H 170.584 -1.11935 -1.59551 0
M  V30 1869 H 169.68 -0.656016 -3.05128 0
M  V30 1870 N 169.982 1.44106 -0.638065 0
M  V30 1871 C 170.912 2.33448 0.0494287 0
M  V30 1872 C 171.893 1.48606 0.827672 0
M  V30 1873 O 173.078 1.77308 0.792173 0
M  V30 1874 C 170.208 3.31771 1.02691 0
M  V30 1875 C 169.162 4.26485 0.359823 0
M  V30 1876 C 168.488 5.14729 1.44769 0
M  V30 1877 C 169.788 5.17056 -0.738296 0
M  V30 1878 H 171.482 2.91183 -0.696636 0
M  V30 1879 H 169.028 1.40014 -0.336456 0
M  V30 1880 H 170.981 3.93161 1.51666 0
M  V30 1881 H 169.705 2.7226 1.80395 0
M  V30 1882 H 168.364 3.66437 -0.10934 0
M  V30 1883 H 168.012 4.51566 2.21578 0
M  V30 1884 H 167.712 5.78913 1.00668 0
M  V30 1885 H 169.236 5.78991 1.93911 0
M  V30 1886 H 170.65 5.72342 -0.331354 0
M  V30 1887 H 169.047 5.89879 -1.10286 0
M  V30 1888 H 170.117 4.57652 -1.60258 0
M  V30 1889 N 171.46 0.379036 1.52974 0
M  V30 1890 C 172.407 -0.461048 2.26148 0
M  V30 1891 C 173.377 -1.06637 1.27349 0
M  V30 1892 O 174.562 -1.09633 1.56157 0
M  V30 1893 C 171.702 -1.58782 3.06402 0
M  V30 1894 C 170.815 -1.00636 4.20115 0
M  V30 1895 C 169.95 -2.10334 4.87784 0
M  V30 1896 C 168.989 -1.49724 5.93506 0
M  V30 1897 N 168.126 -2.5331 6.54812 0
M  V30 1898 H 172.966 0.169429 2.97518 0
M  V30 1899 H 170.503 0.0953806 1.4679 0
M  V30 1900 H 172.461 -2.25174 3.51215 0
M  V30 1901 H 171.091 -2.18876 2.37261 0
M  V30 1902 H 170.143 -0.232332 3.7969 0
M  V30 1903 H 171.455 -0.523343 4.96047 0
M  V30 1904 H 170.609 -2.84519 5.35849 0
M  V30 1905 H 169.348 -2.61992 4.11353 0
M  V30 1906 H 168.353 -0.740598 5.44789 0
M  V30 1907 H 169.578 -0.988732 6.71864 0
M  V30 1908 H 167.524 -3.04156 5.81227 0
M  V30 1909 H 167.441 -2.09734 7.26325 0
M  V30 1910 H 168.709 -3.27155 7.07524 0
M  V30 1911 N 172.938 -1.57226 0.108567 0
M  V30 1912 C 173.888 -2.11305 -0.856396 0
M  V30 1913 C 174.872 -1.03129 -1.23504 0
M  V30 1914 O 176.064 -1.29381 -1.20787 0
M  V30 1915 C 173.193 -2.70771 -2.11041 0
M  V30 1916 C 172.279 -3.86011 -1.7566 0
M  V30 1917 N 172.67 -4.93492 -1.10902 0
M  V30 1918 C 170.968 -3.95999 -2.05185 0
M  V30 1919 C 171.669 -5.73984 -0.944308 0
M  V30 1920 N 170.645 -5.2346 -1.46596 0
M  V30 1921 H 174.447 -2.91784 -0.352002 0
M  V30 1922 H 171.961 -1.62126 -0.0942324 0
M  V30 1923 H 173.958 -3.07851 -2.81128 0
M  V30 1924 H 172.618 -1.91751 -2.62034 0
M  V30 1925 H 173.629 -5.1208 -0.774235 0
M  V30 1926 H 170.306 -3.28007 -2.58298 0
M  V30 1927 H 171.696 -6.70479 -0.436813 0
M  V30 1928 N 174.416 0.165178 -1.56732 0
M  V30 1929 C 175.665 0.879143 -1.81532 0
M  V30 1930 C 175.978 1.83144 -0.686842 0
M  V30 1931 O 177.184 2.58823 -0.819944 0
M  V30 1932 C 175.64 1.61388 -3.21686 0
M  V30 1933 C 175.248 0.704904 -4.4242 0
M  V30 1934 C 176.992 2.3157 -3.55774 0
M  V30 1935 C 174.899 1.44022 -5.73595 0
M  V30 1936 H 173.829 0.332033 -0.676957 0
M  V30 1937 H 176.48 0.132008 -1.83025 0
M  V30 1938 H 174.862 2.40599 -3.14529 0
M  V30 1939 H 176.036 -0.0506815 -4.60772 0
M  V30 1940 H 174.351 0.112419 -4.16248 0
M  V30 1941 H 176.948 2.8719 -4.51028 0
M  V30 1942 H 177.291 3.07201 -2.8095 0
M  V30 1943 H 177.824 1.59297 -3.64513 0
M  V30 1944 H 174.563 0.72612 -6.51466 0
M  V30 1945 H 174.083 2.16898 -5.5921 0
M  V30 1946 H 175.762 1.98606 -6.15764 0
M  V30 1947 N 175.894 1.51508 0.433938 0
M  V30 1948 C 176.844 1.69451 1.52546 0
M  V30 1949 C 177.828 0.548474 1.51263 0
M  V30 1950 O 179.02 0.804529 1.57659 0
M  V30 1951 C 176.149 1.82604 2.90707 0
M  V30 1952 C 175.235 3.03002 2.96733 0
M  V30 1953 N 175.626 4.26121 2.72496 0
M  V30 1954 C 173.924 3.02327 3.27894 0
M  V30 1955 C 174.625 5.07407 2.84452 0
M  V30 1956 N 173.601 4.42126 3.16269 0
M  V30 1957 H 177.403 2.62305 1.32564 0
M  V30 1958 H 174.917 1.49202 0.641297 0
M  V30 1959 H 176.914 1.93569 3.69238 0
M  V30 1960 H 175.574 0.909339 3.11707 0
M  V30 1961 H 176.585 4.55009 2.4736 0
M  V30 1962 H 173.262 2.20301 3.54646 0
M  V30 1963 H 174.652 6.15422 2.69639 0
M  V30 1964 N 177.372 -0.689602 1.41712 0
M  V30 1965 C 178.649 -1.44457 1.31877 0
M  V30 1966 C 179.029 -2.11039 -0.0508537 0
M  V30 1967 O 178.377 -2.02138 -1.06547 0
M  V30 1968 C 178.587 -2.45913 2.47645 0
M  V30 1969 C 179.935 -3.10991 2.89084 0
M  V30 1970 O 180.959 -2.56238 2.47428 0
M  V30 1971 O 179.818 -4.10174 3.61137 0
M  V30 1972 H 176.912 -0.64362 0.519309 0
M  V30 1973 H 179.458 -0.719576 1.53689 0
M  V30 1974 H 178.23 -1.95409 3.39015 0
M  V30 1975 H 177.853 -3.25913 2.27742 0
M  V30 1976 N 178.85 -1.27639 -0.924453 0
M  V30 1977 C 180.266 -1.05113 -1.20097 0
M  V30 1978 C 180.466 0.213262 -2.00368 0
M  V30 1979 O 179.522 0.91787 -2.35226 0
M  V30 1980 C 180.835 -2.29244 -1.94596 0
M  V30 1981 C 182.383 -2.34315 -2.07522 0
M  V30 1982 C 182.858 -3.58183 -2.85427 0
M  V30 1983 N 184.349 -3.5876 -2.92994 0
M  V30 1984 C 185.084 -4.51277 -3.53746 0
M  V30 1985 N 184.58 -5.54102 -4.15863 0
M  V30 1986 N 186.373 -4.38894 -3.51181 0
M  V30 1987 H 178.524 -2.08821 -0.388264 0
M  V30 1988 H 180.787 -0.918568 -0.234385 0
M  V30 1989 H 180.493 -3.21301 -1.43034 0
M  V30 1990 H 180.367 -2.34816 -2.95197 0
M  V30 1991 H 182.754 -1.42762 -2.58269 0
M  V30 1992 H 182.835 -2.32744 -1.06131 0
M  V30 1993 H 182.479 -4.50074 -2.35363 0
M  V30 1994 H 182.409 -3.57006 -3.8711 0
M  V30 1995 H 184.9 -2.84398 -2.4885 0
M  V30 1996 H 185.213 -6.20859 -4.60168 0
M  V30 1997 H 183.558 -5.57941 -4.144 0
M  V30 1998 H 186.749 -3.57772 -3.01856 0
M  V30 1999 H 186.922 -5.11186 -3.98237 0
M  V30 2000 N 180.328 1.1314 -1.09713 0
M  V30 2001 C 181.275 2.18642 -0.739196 0
M  V30 2002 C 182.245 1.63706 0.280978 0
M  V30 2003 O 183.43 1.90111 0.161946 0
M  V30 2004 C 180.57 3.44685 -0.169102 0
M  V30 2005 C 179.683 4.13711 -1.24367 0
M  V30 2006 C 178.818 5.27379 -0.636019 0
M  V30 2007 C 177.857 5.88259 -1.69169 0
M  V30 2008 N 176.994 6.93352 -1.10485 0
M  V30 2009 H 181.834 2.48607 -1.64312 0
M  V30 2010 H 179.371 1.22066 -0.820875 0
M  V30 2011 H 181.329 4.16815 0.179256 0
M  V30 2012 H 179.959 3.15161 0.698079 0
M  V30 2013 H 179.011 3.39835 -1.70927 0
M  V30 2014 H 180.323 4.55037 -2.04311 0
M  V30 2015 H 179.477 6.06238 -0.236677 0
M  V30 2016 H 178.216 4.8731 0.194928 0
M  V30 2017 H 177.221 5.08092 -2.10055 0
M  V30 2018 H 178.446 6.30399 -2.52536 0
M  V30 2019 H 176.392 6.55335 -0.295234 0
M  V30 2020 H 176.309 7.33236 -1.84121 0
M  V30 2021 H 177.577 7.76057 -0.73181 0
M  V30 2022 N 181.806 0.884767 1.30421 0
M  V30 2023 C 183.055 0.499164 1.95426 0
M  V30 2024 C 183.368 -0.95645 1.70621 0
M  V30 2025 O 184.574 -1.44889 2.29607 0
M  V30 2026 C 183.03 0.84177 3.49917 0
M  V30 2027 C 182.638 2.31514 3.83543 0
M  V30 2028 C 184.382 0.525355 4.21237 0
M  V30 2029 C 182.289 2.59939 5.31212 0
M  V30 2030 H 181.219 0.182944 0.73147 0
M  V30 2031 H 183.87 1.07971 1.48373 0
M  V30 2032 H 182.252 0.190311 3.95542 0
M  V30 2033 H 183.426 3.0109 3.48829 0
M  V30 2034 H 181.741 2.59907 3.25326 0
M  V30 2035 H 184.338 0.714762 5.29901 0
M  V30 2036 H 184.681 -0.535222 4.12845 0
M  V30 2037 H 185.214 1.134 3.81294 0
M  V30 2038 H 181.953 3.64736 5.44654 0
M  V30 2039 H 181.473 1.94972 5.67227 0
M  V30 2040 H 183.152 2.45429 5.98643 0
M  V30 2041 N 183.284 -1.43765 0.645699 0
M  V30 2042 C 184.214 -2.33471 -0.0370477 0
M  V30 2043 C 185.195 -1.49042 -0.819779 0
M  V30 2044 O 186.38 -1.77726 -0.782758 0
M  V30 2045 C 183.51 -3.32311 -1.0093 0
M  V30 2046 C 182.464 -4.2667 -0.337201 0
M  V30 2047 C 181.79 -5.1549 -1.42037 0
M  V30 2048 C 183.09 -5.16657 0.765706 0
M  V30 2049 H 184.784 -2.90809 0.712069 0
M  V30 2050 H 182.33 -1.39834 0.343876 0
M  V30 2051 H 184.283 -3.9396 -1.49578 0
M  V30 2052 H 183.007 -2.73213 -1.78948 0
M  V30 2053 H 181.666 -3.66374 0.128771 0
M  V30 2054 H 181.314 -4.52735 -2.1918 0
M  V30 2055 H 181.014 -5.79438 -0.975966 0
M  V30 2056 H 182.538 -5.80012 -1.90838 0
M  V30 2057 H 183.952 -5.72158 0.361702 0
M  V30 2058 H 182.349 -5.89286 1.13413 0
M  V30 2059 H 183.419 -4.56796 1.62683 0
M  V30 2060 N 184.763 -0.387143 -1.52771 0
M  V30 2061 C 185.713 0.465942 -2.23188 0
M  V30 2062 C 186.697 1.03138 -1.23496 0
M  V30 2063 O 187.889 0.957845 -1.48843 0
M  V30 2064 C 185.018 1.59384 -3.04059 0
M  V30 2065 C 184.104 1.04024 -4.11144 0
M  V30 2066 N 184.495 0.211416 -5.05358 0
M  V30 2067 C 182.793 1.31295 -4.26237 0
M  V30 2068 C 183.494 -0.0941698 -5.81624 0
M  V30 2069 N 182.47 0.509207 -5.4121 0
M  V30 2070 H 186.272 -0.173856 -2.93385 0
M  V30 2071 H 183.786 -0.19633 -1.61209 0
M  V30 2072 H 185.783 2.21738 -3.53041 0
M  V30 2073 H 184.443 2.23648 -2.35397 0
M  V30 2074 H 185.454 -0.151151 -5.17679 0
M  V30 2075 H 182.131 1.95679 -3.68803 0
M  V30 2076 H 183.521 -0.765572 -6.67524 0
M  V30 2077 N 186.241 1.57166 -0.116904 0
M  V30 2078 C 187.657 1.5779 0.239693 0
M  V30 2079 C 187.857 1.1295 1.66867 0
M  V30 2080 O 186.913 0.81592 2.38954 0
M  V30 2081 C 188.226 3.00699 0.00828202 0
M  V30 2082 C 189.774 3.12912 0.0743438 0
M  V30 2083 C 190.249 4.57817 -0.129348 0
M  V30 2084 N 191.74 4.63139 -0.075247 0
M  V30 2085 C 192.475 5.73023 -0.207788 0
M  V30 2086 N 191.971 6.91665 -0.396382 0
M  V30 2087 N 193.764 5.61906 -0.14751 0
M  V30 2088 H 185.915 1.84615 -1.05029 0
M  V30 2089 H 188.178 0.85311 -0.41341 0
M  V30 2090 H 187.884 3.37784 -0.979531 0
M  V30 2091 H 187.758 3.69848 0.741077 0
M  V30 2092 H 190.145 2.75686 1.05268 0
M  V30 2093 H 190.226 2.4631 -0.690297 0
M  V30 2094 H 189.87 4.95742 -1.10465 0
M  V30 2095 H 189.8 5.22507 0.655253 0
M  V30 2096 H 192.291 3.7784 0.0670898 0
M  V30 2097 H 192.604 7.71255 -0.488437 0
M  V30 2098 H 190.949 6.93654 -0.432329 0
M  V30 2099 H 194.14 4.681 -0.00115036 0
M  V30 2100 H 194.313 6.47501 -0.254247 0
M  V30 2101 N 187.719 -0.156864 1.56817 0
M  V30 2102 C 188.996 -0.899244 1.73704 0
M  V30 2103 C 189.376 -1.99771 0.682254 0
M  V30 2104 O 188.724 -2.26515 -0.300522 0
M  V30 2105 C 188.934 -1.45075 3.17418 0
M  V30 2106 C 190.282 -1.91802 3.7881 0
M  V30 2107 O 191.306 -1.54838 3.20786 0
M  V30 2108 O 190.165 -2.5994 4.80722 0
M  V30 2109 H 187.259 -0.424267 0.709878 0
M  V30 2110 H 189.805 -0.143561 1.69092 0
M  V30 2111 H 188.577 -0.660846 3.85679 0
M  V30 2112 H 188.2 -2.27021 3.26416 0
M  V30 2113 N 189.197 -1.51736 -0.425897 0
M  V30 2114 C 190.446 -1.64201 -1.17136 0
M  V30 2115 C 190.759 -0.369705 -1.92074 0
M  V30 2116 O 191.965 -0.373898 -2.68913 0
M  V30 2117 C 190.421 -2.90035 -2.13091 0
M  V30 2118 C 190.029 -4.24312 -1.43747 0
M  V30 2119 C 191.773 -3.1186 -2.87999 0
M  V30 2120 C 189.68 -5.41285 -2.38253 0
M  V30 2121 H 188.61 -0.611624 -0.440944 0
M  V30 2122 H 191.261 -1.78212 -0.437328 0
M  V30 2123 H 189.643 -2.69684 -2.89977 0
M  V30 2124 H 190.817 -4.55086 -0.723408 0
M  V30 2125 H 189.132 -4.08456 -0.809465 0
M  V30 2126 H 191.729 -3.96427 -3.58817 0
M  V30 2127 H 192.072 -2.25403 -3.49999 0
M  V30 2128 H 192.605 -3.32605 -2.18217 0
M  V30 2129 H 189.344 -6.30037 -1.80925 0
M  V30 2130 H 188.864 -5.14872 -3.0768 0
M  V30 2131 H 190.543 -5.73694 -2.99139 0
M  V30 2132 N 190.675 0.682077 -1.42076 0
M  V30 2133 C 191.622 1.79578 -1.44984 0
M  V30 2134 C 192.592 1.6332 -0.302614 0
M  V30 2135 O 193.777 1.83978 -0.505633 0
M  V30 2136 C 190.917 3.1756 -1.35091 0
M  V30 2137 C 190.03 3.45156 -2.59791 0
M  V30 2138 C 189.165 4.72826 -2.42093 0
M  V30 2139 C 188.204 4.93433 -3.62202 0
M  V30 2140 N 187.341 6.12338 -3.43491 0
M  V30 2141 H 192.181 1.76427 -2.40161 0
M  V30 2142 H 189.718 0.861376 -1.19242 0
M  V30 2143 H 191.676 3.97287 -1.27354 0
M  V30 2144 H 190.306 3.19854 -0.435133 0
M  V30 2145 H 189.358 2.59736 -2.77923 0
M  V30 2146 H 190.67 3.5628 -3.49094 0
M  V30 2147 H 189.824 5.60631 -2.319 0
M  V30 2148 H 188.563 4.63973 -1.50268 0
M  V30 2149 H 187.568 4.04073 -3.72834 0
M  V30 2150 H 188.793 5.04136 -4.54998 0
M  V30 2151 H 186.739 6.04672 -2.54377 0
M  V30 2152 H 186.656 6.2429 -4.26377 0
M  V30 2153 H 187.924 7.02841 -3.37097 0
M  V30 2154 N 192.153 1.28127 0.917671 0
M  V30 2155 C 193.116 1.11744 2.00115 0
M  V30 2156 C 194.116 0.0583052 1.60694 0
M  V30 2157 O 195.306 0.303755 1.71531 0
M  V30 2158 C 192.438 0.704862 3.33533 0
M  V30 2159 H 193.631 2.07966 2.16079 0
M  V30 2160 H 191.184 1.11058 1.09981 0
M  V30 2161 H 191.919 -0.258299 3.2327 0
M  V30 2162 H 191.704 1.4699 3.63505 0
M  V30 2163 H 193.194 0.612768 4.1308 0
M  V30 2164 N 193.631 -1.12557 1.10312 0
M  V30 2165 C 194.563 -2.17971 0.708625 0
M  V30 2166 C 195.576 -1.60806 -0.254027 0
M  V30 2167 O 196.765 -1.78458 -0.0386891 0
M  V30 2168 C 193.865 -3.38891 0.0248198 0
M  V30 2169 C 193.038 -4.25548 1.01132 0
M  V30 2170 C 192.097 -5.24972 0.35924 0
M  V30 2171 O 191.123 -5.60174 1.00965 0
M  V30 2172 N 192.325 -5.73747 -0.882847 0
M  V30 2173 H 195.09 -2.52427 1.61557 0
M  V30 2174 H 192.651 -1.27967 0.991771 0
M  V30 2175 H 194.643 -4.02485 -0.422852 0
M  V30 2176 H 193.213 -3.02596 -0.784514 0
M  V30 2177 H 192.433 -3.58589 1.6373 0
M  V30 2178 H 193.721 -4.80294 1.67914 0
M  V30 2179 H 193.119 -5.4731 -1.43065 0
M  V30 2180 H 191.676 -6.39234 -1.27369 0
M  V30 2181 N 195.109 -0.891671 -1.2995 0
M  V30 2182 C 196.057 -0.353066 -2.29905 0
M  V30 2183 C 197.051 0.543509 -1.60444 0
M  V30 2184 O 198.257 0.4272 -1.74857 0
M  V30 2185 H 194.632 -0.095531 -0.745907 0
M  V30 2186 H 196.603 -1.20961 -2.72784 0
M  V30 2187 C 195.352 0.411475 -3.45257 0
M  V30 2188 H 194.675 -0.269182 -3.98893 0
M  V30 2189 H 196.115 0.753328 -4.17254 0
M  V30 2190 C 194.574 1.6111 -2.9588 0
M  V30 2191 O 195.104 2.71045 -2.96475 0
M  V30 2192 N 193.31 1.45054 -2.51809 0
M  V30 2193 H 192.857 0.556175 -2.51524 0
M  V30 2194 H 192.815 2.25453 -2.1913 0
M  V30 2195 N 196.587 1.43421 -0.653314 0
M  V30 2196 C 197.836 2.01032 -0.164076 0
M  V30 2197 C 198.149 1.52147 1.22926 0
M  V30 2198 O 199.355 2.02031 1.81371 0
M  V30 2199 C 197.811 3.59082 -0.24252 0
M  V30 2200 C 197.419 4.1696 -1.63855 0
M  V30 2201 C 199.163 4.24079 0.18911 0
M  V30 2202 C 197.07 5.67304 -1.67092 0
M  V30 2203 H 196 0.751798 -0.0575769 0
M  V30 2204 H 198.651 1.6439 -0.815362 0
M  V30 2205 H 197.033 3.93125 0.476276 0
M  V30 2206 H 198.207 3.94416 -2.38271 0
M  V30 2207 H 196.522 3.64335 -2.01616 0
M  V30 2208 H 199.119 5.34381 0.184775 0
M  V30 2209 H 199.462 3.98005 1.22056 0
M  V30 2210 H 199.995 3.94918 -0.477938 0
M  V30 2211 H 196.734 5.98145 -2.68146 0
M  V30 2212 H 196.254 5.91904 -0.970014 0
M  V30 2213 H 197.933 6.31344 -1.4147 0
M  V30 2214 N 198.065 0.39524 1.52563 0
M  V30 2215 C 199.312 -0.185044 2.01653 0
M  V30 2216 C 199.64 -1.46317 1.28146 0
M  V30 2217 O 198.895 -1.9213 0.372074 0
M  V30 2218 C 199.194 -0.493444 3.53977 0
M  V30 2219 C 198.86 0.69384 4.4553 0
M  V30 2220 C 197.522 1.01954 4.70275 0
M  V30 2221 C 199.874 1.48785 4.99512 0
M  V30 2222 C 197.202 2.14069 5.46252 0
M  V30 2223 C 199.554 2.59965 5.76716 0
M  V30 2224 C 198.218 2.93037 5.99738 0
M  V30 2225 H 197.488 -0.0677123 0.7379 0
M  V30 2226 H 200.135 0.533807 1.8391 0
M  V30 2227 H 198.44 -1.29369 3.69825 0
M  V30 2228 H 200.137 -0.955163 3.89458 0
M  V30 2229 H 196.727 0.429987 4.26438 0
M  V30 2230 H 200.911 1.24946 4.80315 0
M  V30 2231 H 196.167 2.40056 5.62302 0
M  V30 2232 H 200.341 3.21887 6.17545 0
M  V30 2233 H 197.968 3.8003 6.58393 0
M  V30 2234 N 199.544 -1.57102 0.125237 0
M  V30 2235 C 200.474 -2.18659 -0.819174 0
M  V30 2236 C 201.455 -1.12843 -1.27281 0
M  V30 2237 O 202.64 -1.41104 -1.33429 0
M  V30 2238 C 199.77 -2.79096 -2.06695 0
M  V30 2239 C 198.724 -3.90548 -1.75088 0
M  V30 2240 C 198.05 -4.37821 -3.06948 0
M  V30 2241 C 199.35 -5.12356 -1.01435 0
M  V30 2242 H 201.044 -2.9783 -0.306202 0
M  V30 2243 H 198.59 -1.4326 -0.145839 0
M  V30 2244 H 200.543 -3.2082 -2.73226 0
M  V30 2245 H 199.267 -1.97223 -2.60328 0
M  V30 2246 H 197.926 -3.49409 -1.10944 0
M  V30 2247 H 197.574 -3.52799 -3.58527 0
M  V30 2248 H 197.274 -5.12982 -2.86571 0
M  V30 2249 H 198.798 -4.822 -3.74587 0
M  V30 2250 H 200.212 -5.5106 -1.58132 0
M  V30 2251 H 198.609 -5.9314 -0.911319 0
M  V30 2252 H 199.679 -4.849 -0.00218681 0
M  V30 2253 N 201.022 0.148545 -1.56898 0
M  V30 2254 C 202.247 0.880385 -1.87787 0
M  V30 2255 C 202.672 1.74018 -0.714093 0
M  V30 2256 O 202.03 1.78153 0.336343 0
M  V30 2257 C 202.078 1.71422 -3.17249 0
M  V30 2258 O 201.182 2.8183 -3.01074 0
M  V30 2259 H 200.523 0.245301 -0.617028 0
M  V30 2260 H 203.053 0.139826 -2.04122 0
M  V30 2261 H 203.063 2.10954 -3.49231 0
M  V30 2262 H 201.738 1.08284 -4.01556 0
M  V30 2263 H 200.315 2.45715 -2.80497 0
M  V30 2264 N 202.5 1.5196 0.417844 0
M  V30 2265 C 203.447 1.74678 1.50852 0
M  V30 2266 C 204.417 0.588947 1.55308 0
M  V30 2267 O 205.602 0.825544 1.72016 0
M  V30 2268 C 202.742 1.89544 2.88387 0
M  V30 2269 C 201.855 3.17166 2.93309 0
M  V30 2270 C 200.99 3.22513 4.22088 0
M  V30 2271 C 200.029 4.44372 4.20951 0
M  V30 2272 N 199.166 4.47161 5.41287 0
M  V30 2273 H 204.006 2.67768 1.30783 0
M  V30 2274 H 201.543 1.32689 0.63498 0
M  V30 2275 H 203.501 1.96146 3.68216 0
M  V30 2276 H 202.131 0.998424 3.06971 0
M  V30 2277 H 201.183 3.19778 2.06024 0
M  V30 2278 H 202.495 4.07021 2.88332 0
M  V30 2279 H 201.649 3.28139 5.10303 0
M  V30 2280 H 200.388 2.30581 4.29748 0
M  V30 2281 H 199.393 4.38902 3.31127 0
M  V30 2282 H 200.618 5.3759 4.14938 0
M  V30 2283 H 198.564 3.58108 5.49632 0
M  V30 2284 H 198.481 5.3085 5.3827 0
M  V30 2285 H 199.749 4.57005 6.3148 0
M  V30 2286 N 203.978 -0.674533 1.42435 0
M  V30 2287 C 204.926 -1.80934 1.46169 0
M  V30 2288 C 205.92 -1.66006 0.3374 0
M  V30 2289 O 207.126 -1.72611 0.510425 0
M  V30 2290 H 203.501 -0.596594 0.457798 0
M  V30 2291 H 205.472 -1.74903 2.41767 0
M  V30 2292 C 204.221 -3.19088 1.38123 0
M  V30 2293 H 203.544 -3.31203 2.23931 0
M  V30 2294 H 204.984 -3.9851 1.44797 0
M  V30 2295 C 203.443 -3.36763 0.0960517 0
M  V30 2296 O 203.973 -3.92581 -0.851073 0
M  V30 2297 N 202.179 -2.90597 0.0131186 0
M  V30 2298 H 201.726 -2.45359 0.784639 0
M  V30 2299 H 201.684 -3.028 -0.846133 0
M  V30 2300 N 205.456 -1.28612 -0.910864 0
M  V30 2301 C 206.704 -1.15705 -1.65701 0
M  V30 2302 C 207.025 0.29416 -1.92769 0
M  V30 2303 O 206.295 1.20331 -1.54588 0
M  V30 2304 H 204.875 -0.425216 -0.614167 0
M  V30 2305 H 207.537 -1.61381 -1.0928 0
M  V30 2306 H 206.633 -1.6988 -2.61815 0
M  V30 2307 N 206.934 1.1197 -1.10907 0
M  V30 2308 C 207.867 2.16998 -0.706192 0
M  V30 2309 C 208.845 1.59903 0.294897 0
M  V30 2310 O 210.029 1.87513 0.192636 0
M  V30 2311 C 207.156 3.38673 -0.0427664 0
M  V30 2312 C 206.202 4.14414 -1.00811 0
M  V30 2313 S 207.035 4.72079 -2.52789 0
M  V30 2314 C 208.191 5.97083 -1.87731 0
M  V30 2315 H 208.424 2.50837 -1.59587 0
M  V30 2316 H 205.957 1.23508 -0.926555 0
M  V30 2317 H 207.915 4.09142 0.333668 0
M  V30 2318 H 206.576 3.03105 0.823788 0
M  V30 2319 H 205.769 5.016 -0.491259 0
M  V30 2320 H 205.371 3.49678 -1.3267 0
M  V30 2321 H 207.663 6.66599 -1.21044 0
M  V30 2322 H 208.606 6.53403 -2.72892 0
M  V30 2323 H 209.014 5.4837 -1.33979 0
M  V30 2324 N 208.412 0.89855 1.29475 0
M  V30 2325 C 209.658 0.524658 1.95896 0
M  V30 2326 C 209.991 -0.926468 1.70676 0
M  V30 2327 O 209.266 -1.65665 1.01908 0
M  V30 2328 C 209.549 0.81633 3.50725 0
M  V30 2329 C 209.402 2.31907 3.85408 0
M  V30 2330 C 210.721 0.302038 4.39062 0
M  V30 2331 H 207.84 0.19209 0.711527 0
M  V30 2332 H 210.482 1.12502 1.53112 0
M  V30 2333 H 208.632 0.305369 3.87298 0
M  V30 2334 H 210.304 2.89949 3.58786 0
M  V30 2335 H 208.547 2.78027 3.32992 0
M  V30 2336 H 209.218 2.47373 4.93468 0
M  V30 2337 H 211.694 0.739551 4.09475 0
M  V30 2338 H 210.57 0.535331 5.46283 0
M  V30 2339 H 210.831 -0.797216 4.34853 0
M  V30 2340 N 209.89 -1.43072 0.660911 0
M  V30 2341 C 210.853 -2.29194 -0.0166406 0
M  V30 2342 C 211.853 -1.42609 -0.742912 0
M  V30 2343 O 213.043 -1.64155 -0.583004 0
M  V30 2344 C 210.175 -3.24831 -1.0343 0
M  V30 2345 H 211.368 -2.90596 0.741208 0
M  V30 2346 H 208.921 -1.5048 0.422532 0
M  V30 2347 H 209.656 -2.68339 -1.82111 0
M  V30 2348 H 209.441 -3.88676 -0.517082 0
M  V30 2349 H 210.931 -3.89451 -1.50723 0
M  V30 2350 N 211.368 -0.403325 -1.52352 0
M  V30 2351 C 212.315 0.425011 -2.26853 0
M  V30 2352 C 213.285 1.04598 -1.29029 0
M  V30 2353 O 214.47 1.07135 -1.57882 0
M  V30 2354 C 211.61 1.53888 -3.08889 0
M  V30 2355 C 210.723 0.939396 -4.21663 0
M  V30 2356 C 209.858 2.02547 -4.91068 0
M  V30 2357 C 208.897 1.40263 -5.95813 0
M  V30 2358 N 208.034 2.4286 -6.58759 0
M  V30 2359 H 212.874 -0.21674 -2.97211 0
M  V30 2360 H 210.411 -0.118722 -1.4662 0
M  V30 2361 H 212.369 2.19558 -3.54753 0
M  V30 2362 H 210.999 2.15074 -2.40714 0
M  V30 2363 H 210.051 0.171898 -3.80011 0
M  V30 2364 H 211.363 0.44436 -4.96817 0
M  V30 2365 H 210.517 2.75958 -5.40308 0
M  V30 2366 H 209.256 2.55415 -4.15469 0
M  V30 2367 H 208.261 0.653833 -5.45898 0
M  V30 2368 H 209.486 0.881719 -6.73352 0
M  V30 2369 H 207.432 2.94871 -5.85992 0
M  V30 2370 H 207.349 1.98152 -7.2957 0
M  V30 2371 H 208.617 3.15858 -7.12639 0
M  V30 2372 N 212.846 1.57033 -0.133567 0
M  V30 2373 C 213.776 2.1909 0.807567 0
M  V30 2374 C 214.757 1.13517 1.26681 0
M  V30 2375 O 215.942 1.41809 1.32679 0
M  V30 2376 C 213.072 2.80188 2.05212 0
M  V30 2377 C 212.026 3.91471 1.73015 0
M  V30 2378 C 211.352 4.39443 3.04622 0
M  V30 2379 C 212.652 5.12886 0.987168 0
M  V30 2380 H 214.346 2.97988 0.290403 0
M  V30 2381 H 211.892 1.43335 0.138239 0
M  V30 2382 H 213.845 3.22264 2.71521 0
M  V30 2383 H 212.569 1.98601 2.59278 0
M  V30 2384 H 211.228 3.49993 1.0909 0
M  V30 2385 H 210.876 3.54695 3.56651 0
M  V30 2386 H 210.576 5.14495 2.83847 0
M  V30 2387 H 212.1 4.8418 3.72024 0
M  V30 2388 H 213.514 5.51891 1.55208 0
M  V30 2389 H 211.911 5.93615 0.87985 0
M  V30 2390 H 212.981 4.84894 -0.0235286 0
M  V30 2391 N 214.325 -0.140222 1.56975 0
M  V30 2392 C 215.573 -0.850005 1.83356 0
M  V30 2393 C 215.894 -1.81399 0.71551 0
M  V30 2394 O 215.164 -1.94136 -0.262294 0
M  V30 2395 H 213.744 -0.316886 0.676456 0
M  V30 2396 H 216.406 -0.132608 1.94448 0
M  V30 2397 H 215.502 -1.40814 2.78528 0
M  V30 2398 N 215.803 -1.52179 -0.40978 0
M  V30 2399 C 217.08 -1.56769 -1.16974 0
M  V30 2400 C 217.46 -0.348322 -2.08206 0
M  V30 2401 O 216.808 0.664862 -2.18613 0
M  V30 2402 C 217.018 -2.89603 -1.9476 0
M  V30 2403 C 218.366 -3.42579 -2.50849 0
M  V30 2404 O 219.39 -2.91338 -2.04941 0
M  V30 2405 O 218.249 -4.32054 -3.34652 0
M  V30 2406 H 215.343 -0.631439 -0.534054 0
M  V30 2407 H 217.889 -1.64507 -0.416613 0
M  V30 2408 H 216.661 -3.698 -1.27921 0
M  V30 2409 H 216.284 -2.85155 -2.77079 0
M  V30 2410 N 217.281 0.66697 -1.42791 0
M  V30 2411 C 218.528 1.42699 -1.43678 0
M  V30 2412 C 218.856 1.94419 -0.0560425 0
M  V30 2413 O 218.111 1.7182 0.936831 0
M  V30 2414 C 218.41 2.6349 -2.4147 0
M  V30 2415 C 218.076 2.30267 -3.8767 0
M  V30 2416 C 216.738 2.20918 -4.27491 0
M  V30 2417 C 219.09 2.03435 -4.79858 0
M  V30 2418 C 216.418 1.82873 -5.57471 0
M  V30 2419 C 218.77 1.66892 -6.10188 0
M  V30 2420 C 217.434 1.56058 -6.49001 0
M  V30 2421 H 216.704 0.522171 -0.525755 0
M  V30 2422 H 219.351 0.759785 -1.75783 0
M  V30 2423 H 217.656 3.35279 -2.0272 0
M  V30 2424 H 219.353 3.21684 -2.39417 0
M  V30 2425 H 215.943 2.38449 -3.56146 0
M  V30 2426 H 220.127 2.09586 -4.49875 0
M  V30 2427 H 215.383 1.7306 -5.86396 0
M  V30 2428 H 219.557 1.45157 -6.81104 0
M  V30 2429 H 217.184 1.26348 -7.49627 0
M  V30 2430 N 218.759 1.29093 0.90403 0
M  V30 2431 C 220.007 1.16583 1.65085 0
M  V30 2432 C 220.328 -0.283933 1.92922 0
M  V30 2433 O 219.598 -1.19509 1.55224 0
M  V30 2434 H 218.178 0.428467 0.611903 0
M  V30 2435 H 220.84 1.61959 1.08422 0
M  V30 2436 H 219.936 1.71266 2.6091 0
M  V30 2437 N 220.237 -1.11381 1.11499 0
M  V30 2438 C 221.486 -1.82494 0.858993 0
M  V30 2439 C 221.799 -1.85605 -0.617278 0
M  V30 2440 O 223.005 -2.52824 -0.989552 0
M  V30 2441 C 221.461 -3.27745 1.48699 0
M  V30 2442 C 221.069 -3.32961 2.99735 0
M  V30 2443 C 222.813 -4.03754 1.31085 0
M  V30 2444 C 220.72 -4.72612 3.55516 0
M  V30 2445 H 219.65 -0.683802 0.317696 0
M  V30 2446 H 222.301 -1.25331 1.34031 0
M  V30 2447 H 220.683 -3.84844 0.933339 0
M  V30 2448 H 221.857 -2.85741 3.61509 0
M  V30 2449 H 220.172 -2.70433 3.16631 0
M  V30 2450 H 222.769 -5.06891 1.70192 0
M  V30 2451 H 223.112 -4.15527 0.253496 0
M  V30 2452 H 223.645 -3.53043 1.83318 0
M  V30 2453 H 220.384 -4.66036 4.60967 0
M  V30 2454 H 219.904 -5.2024 2.98513 0
M  V30 2455 H 221.583 -5.4157 3.53992 0
M  V30 2456 N 221.715 -0.905404 -1.28997 0
M  V30 2457 C 222.678 -0.392253 -2.25819 0
M  V30 2458 C 223.678 0.476753 -1.5357 0
M  V30 2459 O 224.868 0.280994 -1.71919 0
M  V30 2460 C 222 0.438588 -3.38067 0
M  V30 2461 H 223.193 -1.24743 -2.72725 0
M  V30 2462 H 220.746 -0.684051 -1.40536 0
M  V30 2463 H 221.481 1.31352 -2.96508 0
M  V30 2464 H 221.266 -0.184167 -3.91667 0
M  V30 2465 H 222.756 0.78873 -4.10084 0
M  V30 2466 N 223.193 1.4272 -0.668489 0
M  V30 2467 C 224.609 1.55992 -0.33745 0
M  V30 2468 C 224.809 1.64933 1.15756 0
M  V30 2469 O 223.865 1.61278 1.94282 0
M  V30 2470 C 225.178 2.81314 -1.06222 0
M  V30 2471 C 226.726 2.95078 -1.04394 0
M  V30 2472 C 227.201 4.23252 -1.74991 0
M  V30 2473 N 228.692 4.3015 -1.71829 0
M  V30 2474 C 229.427 5.28127 -2.23315 0
M  V30 2475 N 228.923 6.32293 -2.83156 0
M  V30 2476 N 230.716 5.19882 -2.13726 0
M  V30 2477 H 222.867 1.3516 -1.63846 0
M  V30 2478 H 225.13 0.650174 -0.689912 0
M  V30 2479 H 224.836 2.80823 -2.11734 0
M  V30 2480 H 224.71 3.72012 -0.62344 0
M  V30 2481 H 227.097 2.951 0.0028244 0
M  V30 2482 H 227.178 2.05627 -1.52155 0
M  V30 2483 H 226.822 4.2399 -2.79633 0
M  V30 2484 H 226.752 5.11626 -1.24685 0
M  V30 2485 H 229.243 3.55499 -1.28175 0
M  V30 2486 H 229.556 7.03398 -3.20079 0
M  V30 2487 H 227.901 6.32873 -2.87223 0
M  V30 2488 H 231.092 4.37423 -1.66669 0
M  V30 2489 H 231.265 5.96077 -2.54158 0
M  V30 2490 N 224.671 0.411399 1.52136 0
M  V30 2491 C 225.917 -0.163888 2.02137 0
M  V30 2492 C 226.25 -1.44597 1.29636 0
M  V30 2493 O 225.525 -1.90272 0.403353 0
M  V30 2494 C 225.808 -0.40927 3.57767 0
M  V30 2495 C 225.661 0.889643 4.40914 0
M  V30 2496 C 226.98 -1.19042 4.23694 0
M  V30 2497 H 224.099 -0.0580896 0.734707 0
M  V30 2498 H 226.741 0.54531 1.82007 0
M  V30 2499 H 224.891 -1.0134 3.7505 0
M  V30 2500 H 226.563 1.52575 4.35337 0
M  V30 2501 H 224.806 1.50011 4.07037 0
M  V30 2502 H 225.477 0.672314 5.4789 0
M  V30 2503 H 227.953 -0.678942 4.10524 0
M  V30 2504 H 226.829 -1.33086 5.32522 0
M  V30 2505 H 227.09 -2.21166 3.82803 0
M  V30 2506 N 226.149 -1.5696 0.141893 0
M  V30 2507 C 227.079 -2.19516 -0.795936 0
M  V30 2508 C 228.06 -1.14187 -1.26077 0
M  V30 2509 O 229.245 -1.42511 -1.31925 0
M  V30 2510 C 226.375 -2.81272 -2.03723 0
M  V30 2511 C 225.329 -3.92384 -1.70936 0
M  V30 2512 C 224.655 -4.41052 -3.02287 0
M  V30 2513 C 225.955 -5.13403 -0.959954 0
M  V30 2514 H 227.649 -2.98138 -0.274596 0
M  V30 2515 H 225.195 -1.43406 -0.130636 0
M  V30 2516 H 227.148 -3.237 -2.69808 0
M  V30 2517 H 225.872 -1.99973 -2.58221 0
M  V30 2518 H 224.531 -3.50566 -1.07232 0
M  V30 2519 H 224.179 -3.56582 -3.54765 0
M  V30 2520 H 223.879 -5.15993 -2.81114 0
M  V30 2521 H 225.403 -4.86146 -3.69451 0
M  V30 2522 H 226.817 -5.52706 -1.52279 0
M  V30 2523 H 225.214 -5.94073 -0.848357 0
M  V30 2524 H 226.284 -4.84875 0.0492434 0
M  V30 2525 N 227.627 0.131896 -1.57047 0
M  V30 2526 C 228.575 1.18146 -2.0036 0
M  V30 2527 C 229.569 1.43614 -0.898406 0
M  V30 2528 O 230.775 1.43729 -1.08361 0
M  V30 2529 H 227.15 0.398042 -0.638018 0
M  V30 2530 H 229.121 0.789564 -2.87765 0
M  V30 2531 C 227.87 2.50341 -2.41298 0
M  V30 2532 H 227.193 2.31578 -3.25902 0
M  V30 2533 H 228.633 3.22371 -2.75414 0
M  V30 2534 C 227.092 3.11984 -1.27153 0
M  V30 2535 O 227.622 3.97484 -0.580459 0
M  V30 2536 N 225.828 2.71662 -1.03189 0
M  V30 2537 H 225.375 2.02231 -1.59564 0
M  V30 2538 H 225.333 3.13238 -0.270077 0
M  V30 2539 N 229.106 1.52395 0.401703 0
M  V30 2540 C 230.054 1.7689 1.51039 0
M  V30 2541 C 231.048 0.636298 1.56996 0
M  V30 2542 O 232.254 0.818507 1.60314 0
M  V30 2543 H 228.629 0.559502 0.502456 0
M  V30 2544 H 230.6 2.69757 1.27568 0
M  V30 2545 C 229.349 1.94331 2.88324 0
M  V30 2546 H 228.672 2.80905 2.84486 0
M  V30 2547 H 230.112 2.15466 3.65172 0
M  V30 2548 C 228.571 0.712396 3.29282 0
M  V30 2549 O 229.101 -0.116218 4.01532 0
M  V30 2550 N 227.307 0.546154 2.85422 0
M  V30 2551 H 226.854 1.22156 2.26794 0
M  V30 2552 H 226.812 -0.276113 3.13185 0
M  V30 2553 N 230.584 -0.659388 1.43143 0
M  V30 2554 C 231.809 -1.45221 1.48073 0
M  V30 2555 C 232.234 -1.87845 0.097995 0
M  V30 2556 O 231.592 -1.56985 -0.90694 0
M  V30 2557 C 231.64 -2.66748 2.42647 0
M  V30 2558 O 230.744 -3.65583 1.90848 0
M  V30 2559 H 230.085 -0.435669 0.501088 0
M  V30 2560 H 232.615 -0.807432 1.87994 0
M  V30 2561 H 232.625 -3.14637 2.59745 0
M  V30 2562 H 231.3 -2.35067 3.43098 0
M  V30 2563 H 229.877 -3.24693 1.83381 0
M  V30 2564 N 232.062 -1.29571 -0.897171 0
M  V30 2565 C 232.995 -1.0924 -2.00354 0
M  V30 2566 C 233.973 -0.00354011 -1.626 0
M  V30 2567 O 235.157 -0.15473 -1.87864 0
M  V30 2568 C 232.284 -0.66352 -3.32137 0
M  V30 2569 C 231.33 -1.75146 -3.88878 0
M  V30 2570 S 232.163 -3.35124 -4.17674 0
M  V30 2571 C 233.319 -2.9411 -5.52494 0
M  V30 2572 H 233.552 -2.02907 -2.17292 0
M  V30 2573 H 231.085 -1.13746 -1.04408 0
M  V30 2574 H 233.043 -0.422791 -4.08317 0
M  V30 2575 H 231.704 0.253588 -3.13075 0
M  V30 2576 H 230.897 -1.40337 -4.84068 0
M  V30 2577 H 230.499 -1.94584 -3.19395 0
M  V30 2578 H 232.791 -2.41312 -6.33068 0
M  V30 2579 H 233.734 -3.88161 -5.9223 0
M  V30 2580 H 234.142 -2.32332 -5.14473 0
M  V30 2581 N 233.54 1.10788 -1.12088 0
M  V30 2582 C 234.45 2.20599 -0.798338 0
M  V30 2583 C 235.466 1.72712 0.21135 0
M  V30 2584 O 236.642 2.01348 0.0458477 0
M  V30 2585 C 233.707 3.45771 -0.253674 0
M  V30 2586 C 232.768 4.08411 -1.32283 0
M  V30 2587 C 232.001 5.27608 -0.80406 0
M  V30 2588 O 232.224 5.69241 0.363478 0
M  V30 2589 O 231.158 5.8101 -1.57198 0
M  V30 2590 H 234.984 2.50614 -1.7154 0
M  V30 2591 H 232.569 1.19454 -0.897275 0
M  V30 2592 H 234.451 4.21376 0.0453691 0
M  V30 2593 H 233.126 3.1739 0.636005 0
M  V30 2594 H 232.033 3.34507 -1.67499 0
M  V30 2595 H 233.366 4.40986 -2.18614 0
M  V30 2596 N 235.018 0.912232 1.28515 0
M  V30 2597 C 235.948 0.416403 2.29757 0
M  V30 2598 C 236.929 -0.515194 1.6211 0
M  V30 2599 O 238.114 -0.423253 1.89532 0
M  V30 2600 C 235.244 -0.34572 3.45575 0
M  V30 2601 C 234.198 0.496599 4.25109 0
M  V30 2602 C 233.524 -0.393771 5.33248 0
M  V30 2603 C 234.824 1.75307 4.92001 0
M  V30 2604 H 236.518 1.26249 2.7148 0
M  V30 2605 H 234.064 0.608515 1.30511 0
M  V30 2606 H 236.017 -0.703422 4.15488 0
M  V30 2607 H 234.741 -1.2257 3.02728 0
M  V30 2608 H 233.4 0.8368 3.56922 0
M  V30 2609 H 233.048 -1.27225 4.86644 0
M  V30 2610 H 232.748 0.166209 5.87365 0
M  V30 2611 H 234.272 -0.747389 6.06009 0
M  V30 2612 H 235.686 1.46437 5.54283 0
M  V30 2613 H 234.083 2.25534 5.56106 0
M  V30 2614 H 235.153 2.48176 4.16577 0
M  V30 2615 N 236.496 -1.42363 0.676048 0
M  V30 2616 C 237.459 -2.29199 0.00766941 0
M  V30 2617 C 238.459 -1.43389 -0.727745 0
M  V30 2618 O 239.649 -1.64764 -0.56556 0
M  V30 2619 C 236.781 -3.2591 -0.999785 0
M  V30 2620 H 237.974 -2.89794 0.771988 0
M  V30 2621 H 235.527 -1.50024 0.438468 0
M  V30 2622 H 236.262 -2.70256 -1.79255 0
M  V30 2623 H 236.047 -3.89202 -0.475829 0
M  V30 2624 H 237.537 -3.91028 -1.46583 0
M  V30 2625 N 237.974 -0.419461 -1.51915 0
M  V30 2626 C 239.39 -0.0708431 -1.59443 0
M  V30 2627 C 239.59 1.41796 -1.43164 0
M  V30 2628 O 238.646 2.18596 -1.26381 0
M  V30 2629 C 239.959 -0.574991 -2.95151 0
M  V30 2630 C 241.507 -0.533867 -3.08413 0
M  V30 2631 C 241.982 -1.01469 -4.46618 0
M  V30 2632 N 243.473 -0.971939 -4.52888 0
M  V30 2633 C 244.208 -1.31505 -5.58116 0
M  V30 2634 N 243.704 -1.73014 -6.70849 0
M  V30 2635 N 245.497 -1.23436 -5.48379 0
M  V30 2636 H 237.648 -1.38836 -1.60743 0
M  V30 2637 H 239.911 -0.570998 -0.756747 0
M  V30 2638 H 239.617 -1.61597 -3.12377 0
M  V30 2639 H 239.491 0.00979777 -3.77199 0
M  V30 2640 H 241.878 0.498086 -2.90866 0
M  V30 2641 H 241.959 -1.15484 -2.28248 0
M  V30 2642 H 241.603 -2.04502 -4.6491 0
M  V30 2643 H 241.533 -0.370433 -5.25295 0
M  V30 2644 H 244.024 -0.666893 -3.71969 0
M  V30 2645 H 244.337 -1.97479 -7.47143 0
M  V30 2646 H 242.682 -1.76926 -6.72103 0
M  V30 2647 H 245.873 -0.908869 -4.59192 0
M  V30 2648 H 246.046 -1.50506 -6.30279 0
M  V30 2649 N 239.452 1.56882 -0.150215 0
M  V30 2650 C 240.68 2.00593 0.506948 0
M  V30 2651 C 241.095 1.03033 1.58208 0
M  V30 2652 O 240.452 0.0278396 1.82479 0
M  V30 2653 C 240.503 3.44209 1.10465 0
M  V30 2654 O 240.224 4.3804 0.0724636 0
M  V30 2655 C 241.725 4.03214 1.84211 0
M  V30 2656 H 238.945 0.65795 0.13169 0
M  V30 2657 H 241.489 2.03018 -0.245743 0
M  V30 2658 H 239.644 3.42625 1.80795 0
M  V30 2659 H 240.058 5.22007 0.510793 0
M  V30 2660 H 241.532 5.0569 2.21318 0
M  V30 2661 H 242.009 3.44107 2.72923 0
M  V30 2662 H 242.615 4.08437 1.18572 0
M  V30 2663 N 240.93 -0.123565 1.57115 0
M  V30 2664 C 242.17 -0.838097 1.86428 0
M  V30 2665 C 242.534 -1.77266 0.737611 0
M  V30 2666 O 243.735 -2.52842 0.912389 0
M  V30 2667 C 242.006 -1.57219 3.20962 0
M  V30 2668 S 243.565 -2.32893 3.71896 0
M  V30 2669 H 240.383 -0.279811 0.653626 0
M  V30 2670 H 242.985 -0.0967034 1.95261 0
M  V30 2671 H 241.689 -0.877522 4.00909 0
M  V30 2672 H 241.22 -2.35405 3.15195 0
M  V30 2673 H 243.235 -3.5853 3.43032 0
M  V30 2674 N 242.408 -1.52605 -0.393616 0
M  V30 2675 C 243.657 -1.66649 -1.13627 0
M  V30 2676 C 243.97 -0.410364 -1.91247 0
M  V30 2677 O 245.176 -0.430854 -2.68059 0
M  V30 2678 C 243.632 -2.9449 -2.06891 0
M  V30 2679 C 243.24 -4.27266 -1.34714 0
M  V30 2680 C 244.984 -3.17899 -2.81319 0
M  V30 2681 C 242.891 -5.46217 -2.26717 0
M  V30 2682 H 241.821 -0.62084 -0.427871 0
M  V30 2683 H 244.472 -1.791 -0.399428 0
M  V30 2684 H 242.854 -2.75774 -2.84191 0
M  V30 2685 H 244.028 -4.56518 -0.626714 0
M  V30 2686 H 242.343 -4.10081 -0.722643 0
M  V30 2687 H 244.94 -4.03949 -3.50328 0
M  V30 2688 H 245.283 -2.32777 -3.45139 0
M  V30 2689 H 245.816 -3.37159 -2.11113 0
M  V30 2690 H 242.555 -6.33733 -1.67521 0
M  V30 2691 H 242.075 -5.21283 -2.96689 0
M  V30 2692 H 243.754 -5.7991 -2.86903 0
M  V30 2693 N 243.887 0.651787 -1.4349 0
M  V30 2694 C 245.135 1.40888 -1.44897 0
M  V30 2695 C 245.456 1.94856 -0.0749086 0
M  V30 2696 O 244.726 1.74518 0.889956 0
M  V30 2697 H 243.306 0.522887 -0.533478 0
M  V30 2698 H 245.968 0.768609 -1.79104 0
M  V30 2699 H 245.064 2.25052 -2.16236 0
M  V30 2700 N 245.365 1.30045 0.890287 0
M  V30 2701 C 246.593 1.21472 1.67487 0
M  V30 2702 C 247.008 -0.223241 1.87476 0
M  V30 2703 O 246.365 -1.14828 1.41847 0
M  V30 2704 C 246.416 1.93394 3.05419 0
M  V30 2705 O 246.137 3.31576 2.86337 0
M  V30 2706 C 247.638 1.91414 3.99844 0
M  V30 2707 H 244.858 0.420604 0.522813 0
M  V30 2708 H 247.402 1.7158 1.11268 0
M  V30 2709 H 245.557 1.47099 3.58386 0
M  V30 2710 H 245.971 3.67929 3.73802 0
M  V30 2711 H 247.445 2.46285 4.94012 0
M  V30 2712 H 247.922 0.891833 4.3005 0
M  V30 2713 H 248.528 2.37496 3.52811 0
M  V30 2714 N 246.843 -1.10192 1.12674 0
M  V30 2715 C 248.254 -1.63707 0.897604 0
M  V30 2716 C 248.605 -1.87812 -0.567546 0
M  V30 2717 O 247.73 -1.62196 -1.43253 0
M  V30 2718 C 248.325 -2.974 1.62292 0
M  V30 2719 C 246.884 -3.47772 1.43986 0
M  V30 2720 C 246.031 -2.22332 1.65722 0
M  V30 2721 H 248.982 -0.936587 1.28116 0
M  V30 2722 H 249.003 -3.64986 1.07541 0
M  V30 2723 H 248.515 -2.79824 2.68924 0
M  V30 2724 H 246.616 -3.70487 0.396206 0
M  V30 2725 H 246.729 -4.25723 2.19765 0
M  V30 2726 H 245.093 -2.30599 1.08149 0
M  V30 2727 H 245.876 -2.07285 2.73657 0
M  V30 2728 N 248.321 -0.919034 -1.28029 0
M  V30 2729 C 249.551 -0.570143 -1.98577 0
M  V30 2730 C 249.959 0.854172 -1.68821 0
M  V30 2731 O 249.302 1.57807 -0.940351 0
M  V30 2732 C 249.364 -0.705734 -3.52505 0
M  V30 2733 C 249.028 -2.10057 -4.05863 0
M  V30 2734 C 250.025 -3.07385 -4.19298 0
M  V30 2735 C 247.71 -2.41517 -4.40426 0
M  V30 2736 C 249.704 -4.34287 -4.66555 0
M  V30 2737 C 247.391 -3.68657 -4.87376 0
M  V30 2738 C 248.389 -4.64856 -5.00398 0
M  V30 2739 O 248.077 -5.89735 -5.46322 0
M  V30 2740 H 247.809 -0.215592 -0.6407 0
M  V30 2741 H 250.363 -1.23583 -1.64062 0
M  V30 2742 H 248.593 0.0170414 -3.86696 0
M  V30 2743 H 250.282 -0.363172 -4.04272 0
M  V30 2744 H 251.048 -2.84398 -3.92865 0
M  V30 2745 H 246.927 -1.67389 -4.29537 0
M  V30 2746 H 250.471 -5.09377 -4.76635 0
M  V30 2747 H 246.368 -3.91466 -5.13249 0
M  V30 2748 H 247.136 -5.92599 -5.64596 0
M  V30 2749 N 249.799 1.42003 -0.683588 0
M  V30 2750 C 251.029 2.05448 -0.217866 0
M  V30 2751 C 251.437 1.51491 1.13346 0
M  V30 2752 O 250.78 0.653048 1.717 0
M  V30 2753 C 250.842 3.59399 -0.0850118 0
M  V30 2754 C 250.506 4.36093 -1.36645 0
M  V30 2755 C 251.503 4.66169 -2.30179 0
M  V30 2756 C 249.188 4.75578 -1.61649 0
M  V30 2757 C 251.182 5.34676 -3.46988 0
M  V30 2758 C 248.869 5.43824 -2.78745 0
M  V30 2759 C 249.867 5.73299 -3.71238 0
M  V30 2760 O 249.555 6.40142 -4.86285 0
M  V30 2761 H 249.287 0.668344 -0.101454 0
M  V30 2762 H 251.841 1.82974 -0.933248 0
M  V30 2763 H 250.071 3.80566 0.686031 0
M  V30 2764 H 251.76 4.04457 0.341973 0
M  V30 2765 H 252.526 4.36156 -2.12115 0
M  V30 2766 H 248.405 4.52025 -0.905243 0
M  V30 2767 H 251.949 5.57599 -4.19201 0
M  V30 2768 H 247.846 5.73254 -2.96732 0
M  V30 2769 H 248.614 6.58636 -4.85944 0
M  V30 2770 N 251.277 0.427512 1.51691 0
M  V30 2771 C 252.207 -0.3796 2.30394 0
M  V30 2772 C 253.188 -1.02982 1.35384 0
M  V30 2773 O 254.373 -1.03534 1.643 0
M  V30 2774 C 251.503 -1.48649 3.1388 0
M  V30 2775 C 250.457 -0.960294 4.17088 0
M  V30 2776 C 249.783 -2.16219 4.89033 0
M  V30 2777 C 251.083 -0.00153679 5.223 0
M  V30 2778 H 252.777 0.277164 2.98114 0
M  V30 2779 H 250.323 0.134739 1.43368 0
M  V30 2780 H 252.276 -2.05826 3.67714 0
M  V30 2781 H 251 -2.1714 2.43962 0
M  V30 2782 H 249.659 -0.410806 3.64291 0
M  V30 2783 H 249.307 -2.83307 4.15628 0
M  V30 2784 H 249.007 -1.81654 5.58816 0
M  V30 2785 H 250.531 -2.73968 5.45687 0
M  V30 2786 H 251.945 -0.482687 5.71264 0
M  V30 2787 H 250.342 0.256199 5.99553 0
M  V30 2788 H 251.412 0.938174 4.75738 0
M  V30 2789 N 252.755 -1.56801 0.158532 0
M  V30 2790 C 253.98 -2.01295 -0.499516 0
M  V30 2791 C 254.405 -1.03799 -1.56867 0
M  V30 2792 O 253.763 -0.0155162 -1.81293 0
M  V30 2793 C 253.811 -3.44469 -1.06647 0
M  V30 2794 O 252.915 -3.50012 -2.18095 0
M  V30 2795 H 252.256 -0.652884 -0.12099 0
M  V30 2796 H 254.786 -2.02958 0.258661 0
M  V30 2797 H 254.796 -3.8351 -1.39227 0
M  V30 2798 H 253.471 -4.14932 -0.283581 0
M  V30 2799 H 252.048 -3.22822 -1.86656 0
M  V30 2800 N 254.233 0.115231 -1.57178 0
M  V30 2801 C 255.644 0.67197 -1.74188 0
M  V30 2802 C 255.995 1.80125 -0.777777 0
M  V30 2803 O 255.12 2.16346 0.0484376 0
M  V30 2804 C 255.715 1.22573 -3.1585 0
M  V30 2805 C 254.274 1.72872 -3.34353 0
M  V30 2806 C 253.421 0.629972 -2.70049 0
M  V30 2807 H 256.372 -0.110712 -1.58313 0
M  V30 2808 H 256.393 2.09535 -3.17609 0
M  V30 2809 H 255.905 0.403598 -3.85996 0
M  V30 2810 H 254.006 2.5755 -2.69256 0
M  V30 2811 H 254.119 1.83557 -4.42542 0
M  V30 2812 H 252.483 1.0645 -2.31388 0
M  V30 2813 H 253.266 -0.181241 -3.42821 0
M  V30 2814 N 255.711 1.52812 0.385517 0
M  V30 2815 C 256.621 1.80766 1.49535 0
M  V30 2816 C 257.637 0.694651 1.59532 0
M  V30 2817 O 258.813 0.982611 1.75803 0
M  V30 2818 C 255.878 1.97381 2.85029 0
M  V30 2819 C 254.939 3.21295 2.84724 0
M  V30 2820 C 254.172 3.37108 4.13756 0
M  V30 2821 O 254.395 2.5765 5.08893 0
M  V30 2822 O 253.329 4.30378 4.20783 0
M  V30 2823 H 257.155 2.75015 1.28842 0
M  V30 2824 H 254.74 1.37946 0.573697 0
M  V30 2825 H 256.622 2.09996 3.65349 0
M  V30 2826 H 255.297 1.06322 3.05741 0
M  V30 2827 H 254.204 3.1412 2.03174 0
M  V30 2828 H 255.537 4.12212 2.68965 0
M  V30 2829 N 257.189 -0.644168 1.43834 0
M  V30 2830 C 258.438 -1.39985 1.45214 0
M  V30 2831 C 258.751 -1.95421 0.0835494 0
M  V30 2832 O 259.957 -2.71488 -0.0251748 0
M  V30 2833 C 258.413 -2.53384 2.55587 0
M  V30 2834 C 258.021 -2.04517 3.98594 0
M  V30 2835 C 259.765 -3.30685 2.66172 0
M  V30 2836 C 257.672 -3.1518 5.00416 0
M  V30 2837 H 256.602 -0.526005 0.540218 0
M  V30 2838 H 259.253 -0.694367 1.69855 0
M  V30 2839 H 257.635 -3.26446 2.24163 0
M  V30 2840 H 258.809 -1.38405 4.39523 0
M  V30 2841 H 257.124 -1.40068 3.92135 0
M  V30 2842 H 259.721 -4.13158 3.39418 0
M  V30 2843 H 260.064 -3.79312 1.71546 0
M  V30 2844 H 260.597 -2.64708 2.96942 0
M  V30 2845 H 257.336 -2.71511 5.96625 0
M  V30 2846 H 256.856 -3.79974 4.64091 0
M  V30 2847 H 258.535 -3.80166 5.23529 0
M  V30 2848 N 258.668 -1.30515 -0.883378 0
M  V30 2849 C 259.908 -1.20716 -1.64946 0
M  V30 2850 C 260.272 0.234072 -1.90568 0
M  V30 2851 O 261.473 0.455335 -2.64915 0
M  V30 2852 C 259.744 -2.01444 -2.9522 0
M  V30 2853 S 261.303 -2.0836 -3.86175 0
M  V30 2854 H 258.121 -0.430165 -0.566109 0
M  V30 2855 H 260.723 -1.65011 -1.04841 0
M  V30 2856 H 259.427 -3.05268 -2.74298 0
M  V30 2857 H 258.958 -1.57817 -3.60357 0
M  V30 2858 H 260.973 -1.21215 -4.81167 0
M  V30 2859 N 260.146 1.09593 -1.13257 0
M  V30 2860 C 261.078 2.16015 -0.766167 0
M  V30 2861 C 262.091 1.61423 0.211303 0
M  V30 2862 O 263.28 1.78498 -0.00863946 0
M  V30 2863 C 260.38 3.38706 -0.114662 0
M  V30 2864 C 259.553 4.22717 -1.12379 0
M  V30 2865 C 258.612 5.23835 -0.498301 0
M  V30 2866 O 257.638 5.573 -1.15781 0
M  V30 2867 N 258.84 5.75886 0.730417 0
M  V30 2868 H 261.605 2.48055 -1.68193 0
M  V30 2869 H 259.166 1.25292 -1.02535 0
M  V30 2870 H 261.158 4.03464 0.315991 0
M  V30 2871 H 259.728 3.04569 0.704011 0
M  V30 2872 H 258.948 3.54122 -1.73179 0
M  V30 2873 H 260.236 4.75673 -1.80589 0
M  V30 2874 H 259.634 5.50911 1.28504 0
M  V30 2875 H 258.191 6.42387 1.10376 0
M  V30 2876 N 261.624 0.925811 1.2754 0
M  V30 2877 C 262.572 0.413897 2.28888 0
M  V30 2878 C 263.566 -0.500779 1.61829 0
M  V30 2879 O 264.772 -0.38069 1.75928 0
M  V30 2880 H 261.147 0.115274 0.743112 0
M  V30 2881 H 263.118 1.28151 2.69481 0
M  V30 2882 C 261.867 -0.319792 3.46226 0
M  V30 2883 H 261.19 0.374846 3.98039 0
M  V30 2884 H 262.63 -0.642435 4.19105 0
M  V30 2885 C 261.089 -1.53209 3.00048 0
M  V30 2886 O 261.619 -2.6309 3.03557 0
M  V30 2887 N 259.825 -1.38326 2.55566 0
M  V30 2888 H 259.372 -0.489292 2.5291 0
M  V30 2889 H 259.33 -2.19564 2.25031 0
M  V30 2890 N 263.102 -1.41638 0.69111 0
M  V30 2891 C 264.049 -2.30789 0.0229705 0
M  V30 2892 C 265.019 -1.46863 -0.775911 0
M  V30 2893 O 266.204 -1.75661 -0.74485 0
M  V30 2894 C 263.344 -3.32868 -0.910666 0
M  V30 2895 C 262.457 -4.31875 -0.103874 0
M  V30 2896 C 261.592 -5.21024 -1.03475 0
M  V30 2897 C 260.631 -6.11702 -0.220598 0
M  V30 2898 N 259.768 -6.93349 -1.10504 0
M  V30 2899 H 264.608 -2.87366 0.788978 0
M  V30 2900 H 262.145 -1.41535 0.400794 0
M  V30 2901 H 264.103 -3.90596 -1.46597 0
M  V30 2902 H 262.733 -2.77851 -1.64312 0
M  V30 2903 H 261.785 -3.76131 0.568285 0
M  V30 2904 H 263.097 -4.96003 0.527504 0
M  V30 2905 H 262.251 -5.83565 -1.65943 0
M  V30 2906 H 260.99 -4.57112 -1.69999 0
M  V30 2907 H 259.995 -5.48215 0.417187 0
M  V30 2908 H 261.22 -6.77668 0.440784 0
M  V30 2909 H 259.166 -6.3205 -1.75638 0
M  V30 2910 H 259.083 -7.54146 -0.529125 0
M  V30 2911 H 260.351 -7.60362 -1.71667 0
M  V30 2912 N 264.58 -0.43555 -1.51462 0
M  V30 2913 C 265.991 0.0279871 -1.86679 0
M  V30 2914 C 266.342 1.42104 -1.35281 0
M  V30 2915 O 265.467 2.04667 -0.702878 0
M  V30 2916 C 266.062 0.0575626 -3.38751 0
M  V30 2917 C 264.621 0.465507 -3.7351 0
M  V30 2918 C 263.768 -0.342996 -2.75171 0
M  V30 2919 H 266.719 -0.651473 -1.44712 0
M  V30 2920 H 266.74 0.867421 -3.70481 0
M  V30 2921 H 266.252 -0.956448 -3.7613 0
M  V30 2922 H 264.353 1.48519 -3.41721 0
M  V30 2923 H 264.466 0.191546 -4.78717 0
M  V30 2924 H 262.83 0.198442 -2.53926 0
M  V30 2925 H 263.613 -1.35585 -3.15391 0
M  V30 2926 N 266.058 1.56714 -0.166846 0
M  V30 2927 C 267.288 2.00828 0.48494 0
M  V30 2928 C 267.696 1.04612 1.57648 0
M  V30 2929 O 267.039 0.0383201 1.8366 0
M  V30 2930 C 267.101 3.4137 1.12723 0
M  V30 2931 C 266.765 4.56654 0.177886 0
M  V30 2932 C 267.762 5.16402 -0.60207 0
M  V30 2933 C 265.447 5.02244 0.0750139 0
M  V30 2934 C 267.441 6.20167 -1.47215 0
M  V30 2935 C 265.128 6.05859 -0.798649 0
M  V30 2936 C 266.126 6.64691 -1.57082 0
M  V30 2937 O 265.814 7.66297 -2.42989 0
M  V30 2938 H 265.546 0.663587 0.128953 0
M  V30 2939 H 268.1 2.03692 -0.264365 0
M  V30 2940 H 266.33 3.35406 1.92457 0
M  V30 2941 H 268.019 3.69466 1.68076 0
M  V30 2942 H 268.785 4.82065 -0.53274 0
M  V30 2943 H 264.664 4.56167 0.665812 0
M  V30 2944 H 268.208 6.66016 -2.07531 0
M  V30 2945 H 264.105 6.39621 -0.869199 0
M  V30 2946 H 264.873 7.83601 -2.36455 0
M  V30 2947 N 267.536 -0.106894 1.57237 0
M  V30 2948 C 268.484 -1.14944 2.02215 0
M  V30 2949 C 269.478 -1.42167 0.92114 0
M  V30 2950 O 270.684 -1.41987 1.10634 0
M  V30 2951 H 267.059 -0.387841 0.64427 0
M  V30 2952 H 269.03 -0.743683 2.88984 0
M  V30 2953 C 267.779 -2.4647 2.4525 0
M  V30 2954 H 267.102 -2.26363 3.29545 0
M  V30 2955 H 268.542 -3.17948 2.80508 0
M  V30 2956 C 267.001 -3.09921 1.321 0
M  V30 2957 O 267.531 -3.9651 0.643622 0
M  V30 2958 N 265.737 -2.69986 1.07497 0
M  V30 2959 H 265.284 -1.99667 1.62761 0
M  V30 2960 H 265.242 -3.12769 0.319876 0
M  V30 2961 N 269.014 -1.53014 -0.377408 0
M  V30 2962 C 269.962 -1.7927 -1.48206 0
M  V30 2963 C 270.956 -0.661195 -1.55963 0
M  V30 2964 O 272.162 -0.843908 -1.58991 0
M  V30 2965 H 268.537 -0.567425 -0.493491 0
M  V30 2966 H 270.508 -2.71753 -1.2326 0
M  V30 2967 C 269.257 -1.98894 -2.85196 0
M  V30 2968 H 268.58 -2.85395 -2.79981 0
M  V30 2969 H 270.02 -2.21249 -3.61698 0
M  V30 2970 C 268.479 -0.764691 -3.28107 0
M  V30 2971 O 269.009 0.0523226 -4.01666 0
M  V30 2972 N 267.215 -0.591493 -2.84517 0
M  V30 2973 H 266.762 -1.25749 -2.24822 0
M  V30 2974 H 266.72 0.226253 -3.13585 0
M  V30 2975 N 270.492 0.636531 -1.44174 0
M  V30 2976 C 271.439 1.74875 -1.50624 0
M  V30 2977 C 272.409 1.62275 -0.35442 0
M  V30 2978 O 273.594 1.82276 -0.563908 0
M  V30 2979 C 270.734 3.13102 -1.45125 0
M  V30 2980 C 269.847 3.36717 -2.7064 0
M  V30 2981 C 268.982 4.64885 -2.57013 0
M  V30 2982 C 268.021 4.8166 -3.77717 0
M  V30 2983 N 267.158 6.01101 -3.62798 0
M  V30 2984 H 271.998 1.68697 -2.45653 0
M  V30 2985 H 269.535 0.823004 -1.21922 0
M  V30 2986 H 271.493 3.93034 -1.39929 0
M  V30 2987 H 270.123 3.18308 -0.536671 0
M  V30 2988 H 269.175 2.50763 -2.86046 0
M  V30 2989 H 270.487 3.44993 -3.60252 0
M  V30 2990 H 269.641 5.52969 -2.49619 0
M  V30 2991 H 268.38 4.58957 -1.64953 0
M  V30 2992 H 267.385 3.92007 -3.85501 0
M  V30 2993 H 268.61 4.89406 -4.70807 0
M  V30 2994 H 266.556 5.96273 -2.73486 0
M  V30 2995 H 266.473 6.10409 -4.46023 0
M  V30 2996 H 267.741 6.91761 -3.59286 0
M  V30 2997 N 271.97 1.30982 0.876444 0
M  V30 2998 C 273.198 1.23242 1.6619 0
M  V30 2999 C 273.613 -0.203345 1.87702 0
M  V30 3000 O 272.97 -1.13317 1.43057 0
M  V30 3001 C 273.021 1.96623 3.03351 0
M  V30 3002 O 272.742 3.34594 2.82804 0
M  V30 3003 C 274.243 1.95644 3.97792 0
M  V30 3004 H 271.463 0.426126 0.518322 0
M  V30 3005 H 274.007 1.7275 1.09442 0
M  V30 3006 H 272.162 1.50892 3.56806 0
M  V30 3007 H 272.576 3.71873 3.69879 0
M  V30 3008 H 274.05 2.51511 4.91372 0
M  V30 3009 H 274.527 0.937395 4.2908 0
M  V30 3010 H 275.133 2.41225 3.50272 0
M  V30 3011 N 273.449 -1.08991 1.13837 0
M  V30 3012 C 274.726 -1.77863 0.813876 0
M  V30 3013 C 275.106 -1.99375 -0.693746 0
M  V30 3014 O 274.454 -1.59875 -1.63255 0
M  V30 3015 C 274.664 -3.0986 1.60586 0
M  V30 3016 C 276.012 -3.84493 1.8014 0
M  V30 3017 O 277.036 -3.19624 1.57222 0
M  V30 3018 O 275.895 -5.00957 2.18413 0
M  V30 3019 H 272.989 -0.771589 0.297624 0
M  V30 3020 H 275.535 -1.15507 1.24323 0
M  V30 3021 H 274.307 -2.89715 2.63022 0
M  V30 3022 H 273.93 -3.79942 1.17173 0
M  V30 3023 N 274.927 -0.932562 -1.27047 0
M  V30 3024 C 276.176 -0.571351 -1.93439 0
M  V30 3025 C 276.489 0.892467 -1.74053 0
M  V30 3026 O 277.695 1.36267 -2.34826 0
M  V30 3027 C 276.151 -0.97106 -3.46552 0
M  V30 3028 C 275.759 -2.4559 -3.74686 0
M  V30 3029 C 277.503 -0.681333 -4.18997 0
M  V30 3030 C 275.41 -2.79475 -5.21198 0
M  V30 3031 H 274.34 -0.209966 -0.724176 0
M  V30 3032 H 276.991 -1.13403 -1.44263 0
M  V30 3033 H 275.373 -0.336983 -3.94564 0
M  V30 3034 H 276.547 -3.13829 -3.37414 0
M  V30 3035 H 274.862 -2.71802 -3.15456 0
M  V30 3036 H 277.459 -0.910939 -5.26883 0
M  V30 3037 H 277.802 0.381628 -4.14547 0
M  V30 3038 H 278.335 -1.27473 -3.76823 0
M  V30 3039 H 275.074 -3.847 -5.30741 0
M  V30 3040 H 274.594 -2.1589 -5.596 0
M  V30 3041 H 276.273 -2.67478 -5.89122 0
M  V30 3042 N 276.405 1.4127 -0.698611 0
M  V30 3043 C 277.651 2.01979 -0.239972 0
M  V30 3044 C 278.006 1.54353 1.14861 0
M  V30 3045 O 277.299 0.746218 1.76471 0
M  V30 3046 C 277.493 3.56592 -0.240192 0
M  V30 3047 C 277.322 4.19226 -1.62726 0
M  V30 3048 C 276.092 4.53389 -2.23084 0
M  V30 3049 C 278.29 4.45228 -2.57443 0
M  V30 3050 N 276.272 5.01327 -3.54323 0
M  V30 3051 C 277.643 4.94973 -3.73365 0
M  V30 3052 C 279.698 4.27243 -2.55671 0
M  V30 3053 C 278.401 5.28624 -4.878 0
M  V30 3054 C 280.427 4.61985 -3.69221 0
M  V30 3055 C 279.789 5.11904 -4.83873 0
M  V30 3056 H 275.888 0.770561 -0.133269 0
M  V30 3057 H 278.472 1.71767 -0.916748 0
M  V30 3058 H 276.643 3.86271 0.406082 0
M  V30 3059 H 278.375 4.04025 0.23356 0
M  V30 3060 H 275.13 4.39946 -1.75341 0
M  V30 3061 H 275.554 5.29697 -4.21604 0
M  V30 3062 H 280.196 3.87884 -1.68243 0
M  V30 3063 H 277.914 5.66905 -5.75885 0
M  V30 3064 H 281.5 4.49725 -3.69105 0
M  V30 3065 H 280.38 5.38282 -5.70282 0
M  V30 3066 N 277.883 0.443576 1.51229 0
M  V30 3067 C 279.108 -0.121648 2.07043 0
M  V30 3068 C 279.533 -1.35156 1.30823 0
M  V30 3069 O 278.891 -1.7793 0.347934 0
M  V30 3070 C 278.939 -0.41624 3.5819 0
M  V30 3071 O 278.043 -1.50163 3.8409 0
M  V30 3072 H 277.384 0.000871367 0.663999 0
M  V30 3073 H 279.914 0.626706 1.94765 0
M  V30 3074 H 279.924 -0.664867 4.02546 0
M  V30 3075 H 278.599 0.482653 4.1309 0
M  V30 3076 H 277.176 -1.24248 3.51592 0
M  V30 3077 N 279.361 -1.56624 0.175154 0
M  V30 3078 C 280.291 -2.21155 -0.749195 0
M  V30 3079 C 281.272 -1.16836 -1.23626 0
M  V30 3080 O 282.457 -1.45277 -1.28873 0
M  V30 3081 C 279.587 -2.8553 -1.97711 0
M  V30 3082 C 278.541 -3.95921 -1.62575 0
M  V30 3083 C 277.867 -4.47365 -2.92864 0
M  V30 3084 C 279.167 -5.15323 -0.850838 0
M  V30 3085 H 280.861 -2.98653 -0.211295 0
M  V30 3086 H 278.407 -1.43651 -0.100188 0
M  V30 3087 H 280.36 -3.2935 -2.62881 0
M  V30 3088 H 279.084 -2.05406 -2.53921 0
M  V30 3089 H 277.743 -3.52762 -0.997719 0
M  V30 3090 H 277.391 -3.64027 -3.47122 0
M  V30 3091 H 277.091 -5.21839 -2.70106 0
M  V30 3092 H 278.615 -4.93873 -3.59056 0
M  V30 3093 H 280.029 -5.55812 -1.40521 0
M  V30 3094 H 278.426 -5.95739 -0.722154 0
M  V30 3095 H 279.496 -4.84661 0.152082 0
M  V30 3096 N 280.839 0.0985539 -1.57292 0
M  V30 3097 C 282.087 0.801092 -1.85545 0
M  V30 3098 C 282.408 1.79438 -0.763353 0
M  V30 3099 O 281.678 1.94763 0.21073 0
M  V30 3100 H 280.258 0.29884 -0.684619 0
M  V30 3101 H 282.92 0.0810064 -1.94732 0
M  V30 3102 H 282.016 1.3338 -2.82163 0
M  V30 3103 N 282.317 1.53212 0.369288 0
M  V30 3104 C 283.557 1.70915 1.12105 0
M  V30 3105 C 283.921 0.449444 1.86665 0
M  V30 3106 O 285.122 0.503105 2.6405 0
M  V30 3107 C 283.393 2.9222 2.05772 0
M  V30 3108 S 284.952 3.30609 2.88519 0
M  V30 3109 H 281.77 0.601445 0.379189 0
M  V30 3110 H 284.372 1.91306 0.402794 0
M  V30 3111 H 283.076 3.82103 1.49752 0
M  V30 3112 H 282.607 2.7422 2.82076 0
M  V30 3113 H 284.622 2.82333 4.08047 0
M  V30 3114 N 283.795 -0.628877 1.44509 0
M  V30 3115 C 285.041 -1.39045 1.47629 0
M  V30 3116 C 285.374 -1.93892 0.109343 0
M  V30 3117 O 284.649 -1.7379 -0.87334 0
M  V30 3118 C 284.932 -2.55408 2.53848 0
M  V30 3119 C 284.785 -2.05896 3.99909 0
M  V30 3120 C 286.104 -3.5759 2.56549 0
M  V30 3121 H 283.223 -0.504232 0.537512 0
M  V30 3122 H 285.865 -0.710854 1.76201 0
M  V30 3123 H 284.015 -3.13384 2.29615 0
M  V30 3124 H 285.687 -1.52734 4.35282 0
M  V30 3125 H 283.93 -1.37061 4.11578 0
M  V30 3126 H 284.601 -2.89681 4.69882 0
M  V30 3127 H 287.077 -3.09419 2.78207 0
M  V30 3128 H 285.953 -4.36527 3.32769 0
M  V30 3129 H 286.214 -4.11808 1.60832 0
M  V30 3130 N 285.273 -1.31445 -0.869486 0
M  V30 3131 C 286.203 -1.21727 -1.99261 0
M  V30 3132 C 287.184 -0.104359 -1.6978 0
M  V30 3133 O 288.369 -0.289038 -1.92037 0
M  V30 3134 C 285.499 -0.924317 -3.34774 0
M  V30 3135 C 284.453 -1.99685 -3.78563 0
M  V30 3136 C 283.779 -1.55658 -5.11541 0
M  V30 3137 C 285.079 -3.41003 -3.95619 0
M  V30 3138 H 286.773 -2.1569 -2.07649 0
M  V30 3139 H 284.319 -1.03839 -0.997675 0
M  V30 3140 H 286.272 -0.842934 -4.12883 0
M  V30 3141 H 284.996 0.0509793 -3.2656 0
M  V30 3142 H 283.655 -2.06813 -3.02694 0
M  V30 3143 H 283.303 -0.569132 -4.9977 0
M  V30 3144 H 283.003 -2.27409 -5.41811 0
M  V30 3145 H 284.527 -1.48928 -5.92159 0
M  V30 3146 H 285.941 -3.36547 -4.64122 0
M  V30 3147 H 284.338 -4.10975 -4.37286 0
M  V30 3148 H 285.408 -3.81754 -2.98985 0
M  V30 3149 N 286.751 1.08385 -1.14413 0
M  V30 3150 C 287.981 1.8425 -0.934644 0
M  V30 3151 C 288.389 1.81907 0.520234 0
M  V30 3152 O 287.732 1.22126 1.37226 0
M  V30 3153 C 287.794 3.32853 -1.35828 0
M  V30 3154 C 287.458 3.5893 -2.82875 0
M  V30 3155 C 288.455 3.53756 -3.80989 0
M  V30 3156 C 286.14 3.86934 -3.20293 0
M  V30 3157 C 288.134 3.76216 -5.14529 0
M  V30 3158 C 285.821 4.09047 -4.54008 0
M  V30 3159 C 286.819 4.03682 -5.50936 0
M  V30 3160 O 286.507 4.25214 -6.82238 0
M  V30 3161 H 286.239 0.588502 -0.332628 0
M  V30 3162 H 288.793 1.37792 -1.52324 0
M  V30 3163 H 287.023 3.8007 -0.713019 0
M  V30 3164 H 288.712 3.90154 -1.11957 0
M  V30 3165 H 289.478 3.32135 -3.53428 0
M  V30 3166 H 285.357 3.9023 -2.45442 0
M  V30 3167 H 288.901 3.71943 -5.90173 0
M  V30 3168 H 284.798 4.30151 -4.8129 0
M  V30 3169 H 285.566 4.42619 -6.88499 0
M  V30 3170 N 288.23 0.939286 1.26551 0
M  V30 3171 C 289.14 0.453432 2.30176 0
M  V30 3172 C 290.156 -0.471649 1.67486 0
M  V30 3173 O 291.332 -0.35164 1.98306 0
M  V30 3174 C 288.397 -0.275326 3.45605 0
M  V30 3175 C 287.458 0.686084 4.23782 0
M  V30 3176 C 286.691 -0.00798994 5.33699 0
M  V30 3177 O 286.914 -1.22528 5.57085 0
M  V30 3178 O 285.848 0.669746 5.98162 0
M  V30 3179 H 289.674 1.31416 2.73795 0
M  V30 3180 H 287.259 0.705095 1.31715 0
M  V30 3181 H 289.141 -0.685911 4.1578 0
M  V30 3182 H 287.816 -1.11147 3.0402 0
M  V30 3183 H 286.723 1.14658 3.56096 0
M  V30 3184 H 288.056 1.48979 4.69112 0
M  V30 3185 N 289.708 -1.40897 0.706093 0
M  V30 3186 C 290.638 -2.33418 0.0620085 0
M  V30 3187 C 291.619 -1.52385 -0.755827 0
M  V30 3188 O 292.804 -1.80886 -0.706674 0
M  V30 3189 C 289.934 -3.36293 -0.867445 0
M  V30 3190 C 288.888 -4.27716 -0.155932 0
M  V30 3191 C 288.214 -5.2105 -1.20046 0
M  V30 3192 C 289.514 -5.12944 0.984149 0
M  V30 3193 H 291.208 -2.87527 0.83477 0
M  V30 3194 H 288.754 -1.38249 0.402875 0
M  V30 3195 H 290.707 -3.99949 -1.32735 0
M  V30 3196 H 289.431 -2.80556 -1.67199 0
M  V30 3197 H 288.09 -3.65498 0.284047 0
M  V30 3198 H 287.738 -4.61624 -1.99781 0
M  V30 3199 H 287.438 -5.83056 -0.729328 0
M  V30 3200 H 288.962 -5.87584 -1.66066 0
M  V30 3201 H 290.376 -5.70109 0.604048 0
M  V30 3202 H 288.773 -5.83945 1.38304 0
M  V30 3203 H 289.843 -4.49485 1.81911 0
M  V30 3204 N 291.186 -0.45159 -1.50991 0
M  V30 3205 C 292.426 0.109066 -2.04109 0
M  V30 3206 C 292.79 1.38716 -1.32747 0
M  V30 3207 O 293.991 2.02896 -1.76314 0
M  V30 3208 C 292.262 0.308354 -3.56067 0
M  V30 3209 S 293.821 0.830369 -4.30872 0
M  V30 3210 H 290.639 0.0251531 -0.710555 0
M  V30 3211 H 293.241 -0.614264 -1.85599 0
M  V30 3212 H 291.945 -0.627962 -4.05567 0
M  V30 3213 H 291.476 1.05836 -3.78896 0
M  V30 3214 H 293.491 2.10626 -4.49279 0
M  V30 3215 N 292.664 1.56529 -0.183458 0
M  V30 3216 C 293.892 2.01623 0.464285 0
M  V30 3217 C 294.307 1.06366 1.55986 0
M  V30 3218 O 293.664 0.0665398 1.82379 0
M  V30 3219 C 293.715 3.46475 1.03139 0
M  V30 3220 O 293.436 4.38095 -0.0204675 0
M  V30 3221 C 294.937 4.0703 1.75617 0
M  V30 3222 H 292.157 0.660596 0.117704 0
M  V30 3223 H 294.701 2.02451 -0.288751 0
M  V30 3224 H 292.856 3.46383 1.73486 0
M  V30 3225 H 293.27 5.22973 0.399952 0
M  V30 3226 H 294.744 5.10271 2.10542 0
M  V30 3227 H 295.221 3.49819 2.65563 0
M  V30 3228 H 295.827 4.1086 1.09882 0
M  V30 3229 N 294.142 -0.090211 1.57342 0
M  V30 3230 C 295.072 -1.10976 2.05443 0
M  V30 3231 C 296.053 -1.41482 0.944284 0
M  V30 3232 O 297.238 -1.51428 1.21586 0
M  V30 3233 C 294.368 -2.42831 2.48295 0
M  V30 3234 C 293.322 -2.26721 3.63018 0
M  V30 3235 C 292.648 -3.63796 3.91863 0
M  V30 3236 C 293.948 -1.7037 4.93732 0
M  V30 3237 H 295.642 -0.709564 2.9087 0
M  V30 3238 H 293.188 -0.339874 1.39932 0
M  V30 3239 H 295.141 -3.14431 2.80555 0
M  V30 3240 H 293.865 -2.84795 1.59873 0
M  V30 3241 H 292.524 -1.57565 3.31012 0
M  V30 3242 H 292.172 -4.03297 3.00601 0
M  V30 3243 H 291.872 -3.53861 4.69101 0
M  V30 3244 H 293.396 -4.36855 4.26603 0
M  V30 3245 H 294.81 -2.31816 5.24342 0
M  V30 3246 H 293.207 -1.71181 5.75167 0
M  V30 3247 H 294.277 -0.663542 4.80339 0
M  V30 3248 N 295.62 -1.53406 -0.361157 0
M  V30 3249 C 296.567 -1.80156 -1.44265 0
M  V30 3250 C 297.537 -0.646183 -1.53015 0
M  V30 3251 O 298.722 -0.888818 -1.68833 0
M  V30 3252 C 295.862 -2.00116 -2.81154 0
M  V30 3253 C 294.975 -3.27833 -2.81335 0
M  V30 3254 C 294.11 -3.37957 -4.09828 0
M  V30 3255 C 293.149 -4.59689 -4.04168 0
M  V30 3256 N 292.286 -4.66942 -5.24318 0
M  V30 3257 H 297.126 -2.72438 -1.20754 0
M  V30 3258 H 294.663 -1.34954 -0.585296 0
M  V30 3259 H 296.621 -2.09677 -3.60682 0
M  V30 3260 H 295.251 -1.11167 -3.03054 0
M  V30 3261 H 294.303 -3.27204 -1.94014 0
M  V30 3262 H 295.615 -4.17442 -2.73027 0
M  V30 3263 H 294.769 -3.46853 -4.97773 0
M  V30 3264 H 293.508 -2.46372 -4.20894 0
M  V30 3265 H 292.513 -4.50889 -3.14609 0
M  V30 3266 H 293.738 -5.5262 -3.947 0
M  V30 3267 H 291.684 -3.7826 -5.35962 0
M  V30 3268 H 291.601 -5.50462 -5.18197 0
M  V30 3269 H 292.869 -4.80127 -6.14084 0
M  V30 3270 N 297.098 0.621204 -1.44841 0
M  V30 3271 C 298.048 1.72663 -1.48901 0
M  V30 3272 C 299.032 1.56964 -0.353702 0
M  V30 3273 O 300.224 1.66532 -0.599669 0
M  V30 3274 C 297.353 3.11381 -1.44557 0
M  V30 3275 C 296.439 3.32514 -2.6324 0
M  V30 3276 N 296.83 3.23969 -3.8843 0
M  V30 3277 C 295.128 3.63343 -2.58647 0
M  V30 3278 C 295.829 3.46062 -4.67564 0
M  V30 3279 N 294.805 3.69407 -3.98797 0
M  V30 3280 H 298.607 1.64529 -2.43531 0
M  V30 3281 H 296.121 0.82401 -1.39942 0
M  V30 3282 H 298.118 3.90667 -1.4555 0
M  V30 3283 H 296.778 3.20674 -0.509731 0
M  V30 3284 H 297.789 3.02669 -4.20252 0
M  V30 3285 H 294.466 3.79556 -1.73906 0
M  V30 3286 H 295.856 3.44963 -5.76585 0
M  V30 3287 N 298.576 1.31904 0.862503 0
M  V30 3288 C 299.987 1.19803 1.43193 0
M  V30 3289 C 300.338 -0.192567 1.95253 0
M  V30 3290 O 299.463 -1.09081 1.86896 0
M  V30 3291 C 300.058 2.16883 2.60283 0
M  V30 3292 C 298.617 2.08692 3.13248 0
M  V30 3293 C 297.764 2.05691 1.85975 0
M  V30 3294 H 300.715 1.43846 0.670365 0
M  V30 3295 H 300.736 1.76278 3.37204 0
M  V30 3296 H 300.248 3.18083 2.22363 0
M  V30 3297 H 298.349 1.10713 3.55771 0
M  V30 3298 H 298.462 2.9815 3.75025 0
M  V30 3299 H 296.826 1.50814 2.05249 0
M  V30 3300 H 297.609 3.08659 1.50282 0
M  V30 3301 N 300.054 -1.07777 1.14986 0
M  V30 3302 C 301.301 -1.8029 0.922056 0
M  V30 3303 C 301.629 -1.86531 -0.55105 0
M  V30 3304 O 300.884 -1.34189 -1.42449 0
M  V30 3305 C 301.183 -3.25495 1.47608 0
M  V30 3306 C 300.849 -3.39361 2.96893 0
M  V30 3307 C 299.511 -3.42852 3.37647 0
M  V30 3308 C 301.863 -3.42512 3.92854 0
M  V30 3309 C 299.191 -3.47094 4.73015 0
M  V30 3310 C 301.543 -3.4829 5.28088 0
M  V30 3311 C 300.207 -3.50058 5.68345 0
M  V30 3312 H 299.477 -0.659727 0.337404 0
M  V30 3313 H 302.124 -1.26854 1.43459 0
M  V30 3314 H 300.429 -3.81683 0.88463 0
M  V30 3315 H 302.126 -3.80168 1.27568 0
M  V30 3316 H 298.716 -3.37339 2.64387 0
M  V30 3317 H 302.9 -3.3904 3.62444 0
M  V30 3318 H 298.156 -3.46758 5.03556 0
M  V30 3319 H 302.33 -3.49675 6.02246 0
M  V30 3320 H 299.957 -3.53097 6.73221 0
M  V30 3321 N 301.532 -0.945985 -1.26051 0
M  V30 3322 C 302.442 -0.465633 -2.29933 0
M  V30 3323 C 303.458 0.462761 -1.67733 0
M  V30 3324 O 304.634 0.341118 -1.9849 0
M  V30 3325 C 301.699 0.256994 -3.45746 0
M  V30 3326 C 300.76 -0.708549 -4.23412 0
M  V30 3327 C 299.993 -0.0203135 -5.33696 0
M  V30 3328 O 300.216 1.19571 -5.57726 0
M  V30 3329 O 299.15 -0.701459 -5.97799 0
M  V30 3330 H 302.976 -1.32866 -2.73094 0
M  V30 3331 H 300.561 -0.712071 -1.31339 0
M  V30 3332 H 302.443 0.663852 -4.16138 0
M  V30 3333 H 301.118 1.09533 -3.04605 0
M  V30 3334 H 300.025 -1.16545 -3.55483 0
M  V30 3335 H 301.358 -1.51465 -4.68315 0
M  V30 3336 N 303.011 1.40521 -0.713556 0
M  V30 3337 C 304.259 2.00527 -0.251692 0
M  V30 3338 C 304.58 1.56857 1.15848 0
M  V30 3339 O 303.85 0.807127 1.785 0
M  V30 3340 H 302.43 0.741551 -0.0900646 0
M  V30 3341 H 305.092 1.71887 -0.918733 0
M  V30 3342 H 304.188 3.10813 -0.283192 0
M  V30 3343 N 304.489 0.459591 1.5075 0
M  V30 3344 C 305.437 -0.354678 2.2988 0
M  V30 3345 C 306.431 -1.00086 1.36672 0
M  V30 3346 O 307.637 -0.933277 1.53915 0
M  V30 3347 H 304.012 -0.13321 0.740107 0
M  V30 3348 H 305.983 0.333269 2.96533 0
M  V30 3349 C 304.732 -1.43073 3.169 0
M  V30 3350 H 304.055 -0.942882 3.88523 0
M  V30 3351 H 305.495 -1.97328 3.75284 0
M  V30 3352 C 303.954 -2.42633 2.33732 0
M  V30 3353 O 304.484 -3.47658 2.01238 0
M  V30 3354 N 302.69 -2.14066 1.9653 0
M  V30 3355 H 302.237 -1.28685 2.23155 0
M  V30 3356 H 302.195 -2.80917 1.41185 0
M  V30 3357 N 305.967 -1.56429 0.191757 0
M  V30 3358 C 306.915 -2.20273 -0.747174 0
M  V30 3359 C 307.909 -1.17288 -1.22229 0
M  V30 3360 O 309.115 -1.35441 -1.18557 0
M  V30 3361 H 305.49 -0.705885 -0.259289 0
M  V30 3362 H 307.461 -2.97826 -0.184963 0
M  V30 3363 C 306.21 -2.87356 -1.95759 0
M  V30 3364 H 305.533 -3.66341 -1.60106 0
M  V30 3365 H 306.973 -3.3547 -2.59299 0
M  V30 3366 C 305.432 -1.88213 -2.79423 0
M  V30 3367 O 305.962 -1.38033 -3.7724 0
M  V30 3368 N 304.168 -1.56516 -2.44849 0
M  V30 3369 H 303.715 -1.97516 -1.65364 0
M  V30 3370 H 303.673 -0.904369 -3.01112 0
M  V30 3371 N 307.445 0.0818655 -1.57387 0
M  V30 3372 C 308.375 1.09885 -2.06028 0
M  V30 3373 C 309.356 1.4098 -0.951774 0
M  V30 3374 O 310.541 1.50781 -1.22387 0
M  V30 3375 C 307.671 2.4151 -2.4958 0
M  V30 3376 C 306.625 2.24792 -3.64215 0
M  V30 3377 C 305.951 3.61712 -3.93787 0
M  V30 3378 C 307.251 1.67749 -4.94629 0
M  V30 3379 H 308.945 0.694128 -2.91243 0
M  V30 3380 H 306.491 0.332448 -1.4011 0
M  V30 3381 H 308.444 3.12939 -2.82219 0
M  V30 3382 H 307.168 2.83943 -1.61381 0
M  V30 3383 H 305.827 1.55807 -3.31843 0
M  V30 3384 H 305.475 4.01697 -3.02735 0
M  V30 3385 H 305.175 3.51368 -4.70971 0
M  V30 3386 H 306.699 4.34587 -4.28913 0
M  V30 3387 H 308.113 2.29032 -5.25564 0
M  V30 3388 H 306.51 1.68128 -5.76067 0
M  V30 3389 H 307.58 0.638059 -4.80684 0
M  V30 3390 N 308.923 1.53595 0.353017 0
M  V30 3391 C 309.855 1.77219 1.45348 0
M  V30 3392 C 310.868 0.65324 1.49119 0
M  V30 3393 O 312.057 0.929775 1.52373 0
M  V30 3394 C 309.157 1.84841 2.84055 0
M  V30 3395 C 308.33 3.14649 3.03833 0
M  V30 3396 C 307.389 3.13351 4.22727 0
M  V30 3397 O 306.415 3.87107 4.17297 0
M  V30 3398 N 307.617 2.35052 5.30783 0
M  V30 3399 H 310.382 2.72178 1.25457 0
M  V30 3400 H 307.943 1.52528 0.542833 0
M  V30 3401 H 309.935 1.81435 3.61751 0
M  V30 3402 H 308.505 0.971114 2.97133 0
M  V30 3403 H 307.725 3.31256 2.13689 0
M  V30 3404 H 309.013 4.00411 3.13925 0
M  V30 3405 H 308.411 1.74663 5.38061 0
M  V30 3406 H 306.968 2.37453 6.07009 0
M  V30 3407 N 310.401 -0.613514 1.45168 0
M  V30 3408 C 311.333 -1.73825 1.4939 0
M  V30 3409 C 312.346 -1.58175 0.385304 0
M  V30 3410 O 313.535 -1.66165 0.652036 0
M  V30 3411 C 310.635 -3.11758 1.32891 0
M  V30 3412 C 309.808 -3.53704 2.57317 0
M  V30 3413 C 308.867 -4.70579 2.35462 0
M  V30 3414 O 307.893 -4.77996 3.09044 0
M  V30 3415 N 309.095 -5.63454 1.39644 0
M  V30 3416 H 311.86 -1.70669 2.46358 0
M  V30 3417 H 309.421 -0.79862 1.40832 0
M  V30 3418 H 311.413 -3.87692 1.1609 0
M  V30 3419 H 309.983 -3.09456 0.442218 0
M  V30 3420 H 309.203 -2.67794 2.89275 0
M  V30 3421 H 310.491 -3.78486 3.40038 0
M  V30 3422 H 309.889 -5.6017 0.789062 0
M  V30 3423 H 308.446 -6.38944 1.28816 0
M  V30 3424 N 311.879 -1.3236 -0.855495 0
M  V30 3425 C 312.809 -1.23833 -1.97958 0
M  V30 3426 C 313.79 -0.122361 -1.69659 0
M  V30 3427 O 314.975 -0.30939 -1.9172 0
M  V30 3428 C 312.105 -0.959772 -3.33775 0
M  V30 3429 C 311.059 -2.03689 -3.76424 0
M  V30 3430 C 310.385 -1.61075 -5.09862 0
M  V30 3431 C 311.685 -3.4518 -3.9198 0
M  V30 3432 H 313.379 -2.1788 -2.0535 0
M  V30 3433 H 310.925 -1.04891 -0.986605 0
M  V30 3434 H 312.878 -0.886678 -4.11966 0
M  V30 3435 H 311.602 0.0163404 -3.26596 0
M  V30 3436 H 310.261 -2.10012 -3.00484 0
M  V30 3437 H 309.909 -0.622107 -4.99138 0
M  V30 3438 H 309.609 -2.33143 -5.39368 0
M  V30 3439 H 311.133 -1.55201 -5.90546 0
M  V30 3440 H 312.547 -3.4145 -4.60526 0
M  V30 3441 H 310.944 -4.1559 -4.32903 0
M  V30 3442 H 312.014 -3.84903 -2.94919 0
M  V30 3443 N 313.357 1.07166 -1.15556 0
M  V30 3444 C 314.603 1.80065 -0.932984 0
M  V30 3445 C 314.936 1.86586 0.53845 0
M  V30 3446 O 314.211 1.35098 1.39924 0
M  V30 3447 C 314.494 3.25022 -1.55025 0
M  V30 3448 C 314.347 3.26634 -3.09242 0
M  V30 3449 C 315.666 4.22341 -1.2376 0
M  V30 3450 H 312.785 0.653697 -0.340366 0
M  V30 3451 H 315.427 1.25389 -1.4275 0
M  V30 3452 H 313.577 3.71712 -1.12972 0
M  V30 3453 H 315.249 2.88173 -3.60214 0
M  V30 3454 H 313.492 2.65539 -3.43033 0
M  V30 3455 H 314.163 4.28854 -3.47546 0
M  V30 3456 H 316.639 3.8405 -1.60139 0
M  V30 3457 H 315.515 5.22053 -1.69564 0
M  V30 3458 H 315.776 4.41828 -0.154938 0
M  V30 3459 N 314.835 0.952656 1.25548 0
M  V30 3460 C 315.765 0.489287 2.28316 0
M  V30 3461 C 316.746 -0.463359 1.63667 0
M  V30 3462 O 317.931 -0.36274 1.90782 0
M  V30 3463 C 315.061 -0.235603 3.465 0
M  V30 3464 C 314.015 0.631593 4.23314 0
M  V30 3465 C 313.341 -0.223923 5.34231 0
M  V30 3466 C 314.641 1.90871 4.86174 0
M  V30 3467 H 316.335 1.34822 2.67326 0
M  V30 3468 H 313.881 0.649728 1.28509 0
M  V30 3469 H 315.834 -0.570882 4.17515 0
M  V30 3470 H 314.558 -1.12877 3.06474 0
M  V30 3471 H 313.217 0.949929 3.54079 0
M  V30 3472 H 312.865 -1.11678 4.90446 0
M  V30 3473 H 312.565 0.35299 5.86539 0
M  V30 3474 H 314.089 -0.554214 6.0808 0
M  V30 3475 H 315.503 1.63997 5.49343 0
M  V30 3476 H 313.9 2.43112 5.4865 0
M  V30 3477 H 314.97 2.61304 4.08471 0
M  V30 3478 N 316.313 -1.40141 0.720998 0
M  V30 3479 C 317.26 -2.30688 0.071919 0
M  V30 3480 C 318.23 -1.48476 -0.744584 0
M  V30 3481 O 319.415 -1.77201 -0.707423 0
M  V30 3482 C 316.555 -3.34724 -0.839855 0
M  V30 3483 C 315.668 -4.31998 -0.0122438 0
M  V30 3484 C 314.803 -5.23102 -0.923995 0
M  V30 3485 C 313.842 -6.12033 -0.0907969 0
M  V30 3486 N 312.979 -6.95537 -0.957718 0
M  V30 3487 H 317.819 -2.85628 0.849755 0
M  V30 3488 H 315.356 -1.40653 0.430726 0
M  V30 3489 H 317.314 -3.93618 -1.38279 0
M  V30 3490 H 315.944 -2.81274 -1.58381 0
M  V30 3491 H 314.996 -3.74841 0.64794 0
M  V30 3492 H 316.308 -4.94772 0.632595 0
M  V30 3493 H 315.462 -5.86953 -1.53527 0
M  V30 3494 H 314.201 -4.60615 -1.60264 0
M  V30 3495 H 313.206 -5.47207 0.533377 0
M  V30 3496 H 314.431 -6.76581 0.584428 0
M  V30 3497 H 312.377 -6.35633 -1.62192 0
M  V30 3498 H 312.294 -7.55099 -0.36904 0
M  V30 3499 H 313.562 -7.63832 -1.555 0
M  V30 3500 N 317.792 -0.46758 -1.50504 0
M  V30 3501 C 319.041 0.0902868 -2.01498 0
M  V30 3502 C 319.354 1.411 -1.35463 0
M  V30 3503 O 320.56 2.0536 -1.77594 0
M  V30 3504 C 319.016 0.21142 -3.59278 0
M  V30 3505 C 318.624 -1.10065 -4.34269 0
M  V30 3506 C 320.368 0.721433 -4.18325 0
M  V30 3507 C 318.275 -0.943505 -5.83825 0
M  V30 3508 H 317.205 0.037517 -0.753066 0
M  V30 3509 H 319.856 -0.601943 -1.73346 0
M  V30 3510 H 318.238 0.967352 -3.84003 0
M  V30 3511 H 319.412 -1.86726 -4.21272 0
M  V30 3512 H 317.727 -1.5415 -3.86816 0
M  V30 3513 H 320.324 0.85598 -5.27804 0
M  V30 3514 H 320.667 1.71186 -3.79475 0
M  V30 3515 H 321.2 0.0229843 -3.97793 0
M  V30 3516 H 317.939 -1.90719 -6.27141 0
M  V30 3517 H 317.459 -0.217213 -5.99407 0
M  V30 3518 H 319.138 -0.608715 -6.4413 0
M  V30 3519 N 319.27 1.56325 -0.20005 0
M  V30 3520 C 320.51 1.99619 0.439519 0
M  V30 3521 C 320.874 1.08423 1.58456 0
M  V30 3522 O 322.075 1.40973 2.28867 0
M  V30 3523 C 320.346 3.46314 0.883258 0
M  V30 3524 S 321.905 4.11634 1.51997 0
M  V30 3525 H 318.723 0.697007 0.140363 0
M  V30 3526 H 321.325 1.93118 -0.304282 0
M  V30 3527 H 320.029 4.10381 0.0398967 0
M  V30 3528 H 319.56 3.56643 1.6604 0
M  V30 3529 H 321.575 4.09049 2.8088 0
M  V30 3530 N 320.748 -0.0735177 1.57428 0
M  V30 3531 C 321.68 -1.11423 2.00294 0
M  V30 3532 C 322.693 -1.35084 0.908637 0
M  V30 3533 O 323.882 -1.33355 1.18654 0
M  V30 3534 C 320.982 -2.46548 2.32523 0
M  V30 3535 C 320.155 -2.42867 3.63778 0
M  V30 3536 C 319.214 -3.60087 3.83697 0
M  V30 3537 O 318.24 -3.41595 4.55304 0
M  V30 3538 N 319.442 -4.80372 3.25919 0
M  V30 3539 H 322.207 -0.749206 2.90184 0
M  V30 3540 H 319.768 -0.262195 1.59763 0
M  V30 3541 H 321.76 -3.23607 2.43024 0
M  V30 3542 H 320.33 -2.75059 1.48531 0
M  V30 3543 H 319.55 -1.51206 3.64047 0
M  V30 3544 H 320.838 -2.37506 4.49965 0
M  V30 3545 H 320.236 -4.983 2.67795 0
M  V30 3546 H 318.793 -5.54948 3.41871 0
M  V30 3547 N 322.226 -1.5378 -0.344866 0
M  V30 3548 C 323.189 -1.80981 -1.40637 0
M  V30 3549 C 324.189 -0.680816 -1.45676 0
M  V30 3550 O 325.379 -0.949095 -1.46075 0
M  V30 3551 C 322.511 -1.95063 -2.79577 0
M  V30 3552 H 323.704 -2.75803 -1.17783 0
M  V30 3553 H 321.257 -1.45173 -0.579181 0
M  V30 3554 H 321.992 -1.02379 -3.07716 0
M  V30 3555 H 321.777 -2.77198 -2.77315 0
M  V30 3556 H 323.267 -2.17629 -3.56409 0
M  V30 3557 N 323.704 0.605807 -1.45491 0
M  V30 3558 C 324.654 1.71074 -1.50724 0
M  V30 3559 C 325.638 1.5658 -0.37033 0
M  V30 3560 O 326.83 1.65887 -0.617299 0
M  V30 3561 C 323.959 3.0983 -1.47852 0
M  V30 3562 C 323.045 3.29704 -2.66751 0
M  V30 3563 N 323.436 3.19831 -3.91844 0
M  V30 3564 C 321.734 3.60579 -2.62486 0
M  V30 3565 C 322.435 3.41083 -4.71208 0
M  V30 3566 N 321.411 3.65157 -4.02693 0
M  V30 3567 H 325.213 1.61937 -2.45263 0
M  V30 3568 H 322.727 0.80912 -1.40808 0
M  V30 3569 H 324.724 3.89101 -1.49686 0
M  V30 3570 H 323.384 3.20115 -0.543714 0
M  V30 3571 H 324.395 2.98194 -4.23439 0
M  V30 3572 H 321.072 3.7769 -1.77922 0
M  V30 3573 H 322.462 3.38828 -5.80211 0
M  V30 3574 N 325.182 1.32811 0.848464 0
M  V30 3575 C 326.429 1.23724 1.60308 0
M  V30 3576 C 326.757 -0.1994 1.93475 0
M  V30 3577 O 326.012 -1.15406 1.5805 0
M  V30 3578 C 326.311 2.04831 2.92881 0
M  V30 3579 C 325.977 3.54125 2.79117 0
M  V30 3580 C 324.639 3.94829 2.7507 0
M  V30 3581 C 326.991 4.49036 2.64606 0
M  V30 3582 C 324.319 5.28675 2.544 0
M  V30 3583 C 326.671 5.83033 2.4547 0
M  V30 3584 C 325.335 6.22931 2.39819 0
M  V30 3585 H 324.605 0.452737 0.586609 0
M  V30 3586 H 327.252 1.64301 0.983743 0
M  V30 3587 H 325.557 1.57001 3.58968 0
M  V30 3588 H 327.254 1.95164 3.50303 0
M  V30 3589 H 323.844 3.21801 2.83094 0
M  V30 3590 H 328.028 4.18505 2.66772 0
M  V30 3591 H 323.284 5.58637 2.48465 0
M  V30 3592 H 327.458 6.56186 2.33222 0
M  V30 3593 H 325.085 7.26584 2.23562 0
M  V30 3594 N 326.66 -1.06551 1.16123 0
M  V30 3595 C 327.623 -2.12132 0.867906 0
M  V30 3596 C 328.623 -1.60224 -0.135944 0
M  V30 3597 O 329.813 -1.73943 0.0946422 0
M  V30 3598 C 326.945 -3.396 0.297419 0
M  V30 3599 H 328.138 -2.39586 1.80385 0
M  V30 3600 H 325.691 -1.22574 0.969812 0
M  V30 3601 H 326.426 -3.17794 -0.64633 0
M  V30 3602 H 326.211 -3.78581 1.02073 0
M  V30 3603 H 327.701 -4.17455 0.110052 0
M  V30 3604 N 328.138 -0.959301 -1.25041 0
M  V30 3605 C 329.549 -0.65667 -1.74771 0
M  V30 3606 C 329.9 0.827852 -1.77879 0
M  V30 3607 O 329.025 1.64783 -1.40269 0
M  V30 3608 C 329.62 -1.1853 -3.1739 0
M  V30 3609 C 328.179 -0.932734 -3.6466 0
M  V30 3610 C 327.326 -1.32558 -2.43564 0
M  V30 3611 H 330.277 -1.13558 -1.10862 0
M  V30 3612 H 330.298 -0.547582 -3.76539 0
M  V30 3613 H 329.81 -2.26576 -3.15095 0
M  V30 3614 H 327.911 0.13257 -3.72364 0
M  V30 3615 H 328.024 -1.57248 -4.52559 0
M  V30 3616 H 326.388 -0.743956 -2.43593 0
M  V30 3617 H 327.171 -2.41537 -2.43957 0
M  V30 3618 N 329.616 1.39756 -0.72842 0
M  V30 3619 C 330.865 1.99879 -0.270407 0
M  V30 3620 C 331.178 1.58449 1.14688 0
M  V30 3621 O 332.384 2.11362 1.70407 0
M  V30 3622 C 330.84 3.57292 -0.43252 0
M  V30 3623 C 330.448 4.07688 -1.85727 0
M  V30 3624 C 332.192 4.24485 -0.0359507 0
M  V30 3625 C 330.099 5.5765 -1.96928 0
M  V30 3626 H 329.029 0.747689 -0.0973472 0
M  V30 3627 H 331.68 1.59837 -0.901355 0
M  V30 3628 H 330.062 3.95097 0.267219 0
M  V30 3629 H 331.236 3.81231 -2.58843 0
M  V30 3630 H 329.551 3.53135 -2.20646 0
M  V30 3631 H 332.148 5.34609 -0.0987484 0
M  V30 3632 H 332.491 4.03915 1.00787 0
M  V30 3633 H 333.024 3.9183 -0.686604 0
M  V30 3634 H 329.763 5.8309 -2.99476 0
M  V30 3635 H 329.283 5.8593 -1.28241 0
M  V30 3636 H 330.962 6.22957 -1.74737 0
M  V30 3637 N 331.094 0.475555 1.50254 0
M  V30 3638 C 332.319 -0.0777042 2.07254 0
M  V30 3639 C 332.744 -1.3235 1.3366 0
M  V30 3640 O 332.102 -1.77152 0.385597 0
M  V30 3641 C 332.15 -0.340169 3.58992 0
M  V30 3642 O 331.254 -1.41982 3.87188 0
M  V30 3643 H 330.595 0.0149556 0.663832 0
M  V30 3644 H 333.125 0.667878 1.93392 0
M  V30 3645 H 333.135 -0.579332 4.03866 0
M  V30 3646 H 331.81 0.570167 4.11973 0
M  V30 3647 H 330.387 -1.16762 3.54148 0
M  V30 3648 N 332.573 -1.56217 0.208337 0
M  V30 3649 C 333.984 -1.84243 -0.301904 0
M  V30 3650 C 334.335 -1.12939 -1.60434 0
M  V30 3651 O 333.46 -0.39461 -2.12772 0
M  V30 3652 C 334.055 -3.34231 -0.554543 0
M  V30 3653 C 332.614 -3.62621 -1.00912 0
M  V30 3654 C 331.761 -2.77224 -0.064933 0
M  V30 3655 H 334.712 -1.52712 0.431833 0
M  V30 3656 H 334.733 -3.5372 -1.40223 0
M  V30 3657 H 334.245 -3.86099 0.393561 0
M  V30 3658 H 332.346 -3.16197 -1.97104 0
M  V30 3659 H 332.459 -4.7071 -0.892674 0
M  V30 3660 H 330.823 -2.48256 -0.56929 0
M  V30 3661 H 331.606 -3.31887 0.877851 0
M  V30 3662 N 334.051 0.0651679 -1.57465 0
M  V30 3663 C 335.299 0.761555 -1.87202 0
M  V30 3664 C 335.62 1.77778 -0.801243 0
M  V30 3665 O 334.89 1.95166 0.16937 0
M  V30 3666 H 333.47 0.284251 -0.690804 0
M  V30 3667 H 336.132 0.0396827 -1.9486 0
M  V30 3668 H 335.228 1.27365 -2.84929 0
M  V30 3669 N 335.529 1.53961 0.336706 0
M  V30 3670 C 336.776 1.71536 1.07618 0
M  V30 3671 C 337.104 0.482125 1.8843 0
M  V30 3672 O 336.359 -0.536142 1.88213 0
M  V30 3673 C 336.658 2.93493 2.03953 0
M  V30 3674 C 336.324 4.28811 1.39399 0
M  V30 3675 C 334.986 4.65602 1.21523 0
M  V30 3676 C 337.338 5.12844 0.929541 0
M  V30 3677 C 334.666 5.84037 0.558312 0
M  V30 3678 C 337.018 6.31951 0.286505 0
M  V30 3679 C 335.682 6.67432 0.0954869 0
M  V30 3680 H 334.952 0.627696 0.393801 0
M  V30 3681 H 337.599 1.88186 0.354715 0
M  V30 3682 H 335.904 2.71475 2.82504 0
M  V30 3683 H 337.601 3.04285 2.61174 0
M  V30 3684 H 334.191 3.99858 1.54311 0
M  V30 3685 H 338.375 4.84947 1.05548 0
M  V30 3686 H 333.631 6.10097 0.398995 0
M  V30 3687 H 337.805 6.96352 -0.0814376 0
M  V30 3688 H 335.432 7.59063 -0.415579 0
M  V30 3689 N 337.007 -0.598083 1.45811 0
M  V30 3690 C 338.232 -1.3881 1.54099 0
M  V30 3691 C 338.657 -1.8726 0.177578 0
M  V30 3692 O 338.015 -1.6069 -0.839541 0
M  V30 3693 C 338.063 -2.56217 2.53743 0
M  V30 3694 O 337.167 -3.5716 2.06182 0
M  V30 3695 H 336.508 -0.414024 0.519115 0
M  V30 3696 H 339.038 -0.726971 1.91249 0
M  V30 3697 H 339.048 -3.03337 2.72856 0
M  V30 3698 H 337.723 -2.20303 3.5276 0
M  V30 3699 H 336.3 -3.16624 1.96987 0
M  V30 3700 N 338.485 -1.33259 -0.841409 0
M  V30 3701 C 339.901 -1.12538 -1.13169 0
M  V30 3702 C 340.101 0.0854037 -2.01319 0
M  V30 3703 O 339.157 0.766417 -2.40587 0
M  V30 3704 C 340.47 -2.41156 -1.79623 0
M  V30 3705 C 342.018 -2.47038 -1.922 0
M  V30 3706 C 342.493 -3.7561 -2.6207 0
M  V30 3707 N 343.984 -3.76667 -2.69585 0
M  V30 3708 C 344.719 -4.72861 -3.2433 0
M  V30 3709 N 344.215 -5.79428 -3.79783 0
M  V30 3710 N 346.008 -4.6034 -3.22558 0
M  V30 3711 H 338.159 -2.10868 -0.254676 0
M  V30 3712 H 340.422 -0.931615 -0.175493 0
M  V30 3713 H 340.128 -3.29747 -1.22311 0
M  V30 3714 H 340.002 -2.53114 -2.79666 0
M  V30 3715 H 342.389 -1.58898 -2.48667 0
M  V30 3716 H 342.47 -2.39022 -0.911148 0
M  V30 3717 H 342.114 -4.64131 -2.06263 0
M  V30 3718 H 342.044 -3.80902 -3.63622 0
M  V30 3719 H 344.535 -2.99648 -2.30259 0
M  V30 3720 H 344.848 -6.48867 -4.19752 0
M  V30 3721 H 343.193 -5.83166 -3.78078 0
M  V30 3722 H 346.384 -3.76244 -2.78492 0
M  V30 3723 H 346.557 -5.35478 -3.64921 0
M  V30 3724 N 339.963 1.05934 -1.16686 0
M  V30 3725 C 340.873 2.17014 -0.891183 0
M  V30 3726 C 341.889 1.73453 0.137907 0
M  V30 3727 O 343.065 2.01361 -0.039592 0
M  V30 3728 C 340.13 3.44384 -0.400099 0
M  V30 3729 C 339.191 4.02433 -1.49486 0
M  V30 3730 C 338.424 5.23723 -1.02711 0
M  V30 3731 O 338.647 5.7027 0.121716 0
M  V30 3732 O 337.581 5.7382 -1.81699 0
M  V30 3733 H 341.407 2.43113 -1.82015 0
M  V30 3734 H 338.992 1.15541 -0.947132 0
M  V30 3735 H 340.874 4.21189 -0.133392 0
M  V30 3736 H 339.549 3.19802 0.500817 0
M  V30 3737 H 338.456 3.27102 -1.81535 0
M  V30 3738 H 339.789 4.31317 -2.37121 0
M  V30 3739 N 341.441 0.965919 1.2453 0
M  V30 3740 C 342.371 0.513476 2.27784 0
M  V30 3741 C 343.352 -0.445974 1.6415 0
M  V30 3742 O 344.537 -0.342485 1.91156 0
M  V30 3743 C 341.667 -0.198839 3.4673 0
M  V30 3744 C 340.621 0.676456 4.2262 0
M  V30 3745 C 339.947 -0.167248 5.34438 0
M  V30 3746 C 341.247 1.96017 4.84123 0
M  V30 3747 H 342.941 1.3765 2.65881 0
M  V30 3748 H 340.487 0.663321 1.27813 0
M  V30 3749 H 342.44 -0.526567 4.18097 0
M  V30 3750 H 341.164 -1.0962 3.07654 0
M  V30 3751 H 339.823 0.98743 3.53052 0
M  V30 3752 H 339.471 -1.0647 4.91603 0
M  V30 3753 H 339.171 0.415181 5.86131 0
M  V30 3754 H 340.695 -0.489688 6.08633 0
M  V30 3755 H 342.109 1.69814 5.47573 0
M  V30 3756 H 340.506 2.48918 5.4604 0
M  V30 3757 H 341.576 2.65622 4.05676 0
M  V30 3758 N 342.919 -1.39368 0.735821 0
M  V30 3759 C 343.869 -2.27885 0.0724287 0
M  V30 3760 C 344.853 -1.44301 -0.711756 0
M  V30 3761 O 346.045 -1.67206 -0.58063 0
M  V30 3762 C 343.174 -3.33029 -0.833454 0
M  V30 3763 C 342.26 -4.24078 -0.0433749 0
M  V30 3764 N 342.651 -4.96138 0.983903 0
M  V30 3765 C 340.949 -4.45164 -0.272905 0
M  V30 3766 C 341.65 -5.63069 1.4604 0
M  V30 3767 N 340.626 -5.37991 0.778857 0
M  V30 3768 H 344.428 -2.81052 0.859467 0
M  V30 3769 H 341.942 -1.5206 0.570227 0
M  V30 3770 H 343.939 -3.95311 -1.32419 0
M  V30 3771 H 342.599 -2.81421 -1.61964 0
M  V30 3772 H 343.61 -4.9958 1.36528 0
M  V30 3773 H 340.287 -4.04497 -1.03383 0
M  V30 3774 H 341.677 -6.30755 2.31511 0
M  V30 3775 N 344.397 -0.483516 -1.5 0
M  V30 3776 C 345.622 0.0667119 -2.07293 0
M  V30 3777 C 346.047 1.3164 -1.3436 0
M  V30 3778 O 345.405 1.76945 -0.394987 0
M  V30 3779 C 345.453 0.321126 -3.59167 0
M  V30 3780 O 344.557 1.39927 -3.87936 0
M  V30 3781 H 343.898 -0.0184758 -0.663743 0
M  V30 3782 H 346.428 -0.678125 -1.93035 0
M  V30 3783 H 346.438 0.557906 -4.04168 0
M  V30 3784 H 345.113 -0.592007 -4.11665 0
M  V30 3785 H 343.69 1.14882 -3.54763 0
M  V30 3786 N 345.875 1.56104 -0.216619 0
M  V30 3787 C 346.805 2.23063 0.690296 0
M  V30 3788 C 347.786 1.20072 1.20485 0
M  V30 3789 O 348.971 1.48643 1.24976 0
M  V30 3790 C 346.101 2.90672 1.90072 0
M  V30 3791 C 345.055 4.00092 1.5202 0
M  V30 3792 C 344.381 4.54972 2.80899 0
M  V30 3793 C 345.681 5.17398 0.71391 0
M  V30 3794 H 347.375 2.99109 0.132038 0
M  V30 3795 H 344.921 1.43866 0.0620664 0
M  V30 3796 H 346.874 3.36204 2.54057 0
M  V30 3797 H 345.598 2.12066 2.48386 0
M  V30 3798 H 344.257 3.55283 0.903839 0
M  V30 3799 H 343.905 3.73102 3.37348 0
M  V30 3800 H 343.605 5.28817 2.56176 0
M  V30 3801 H 345.129 5.0322 3.45836 0
M  V30 3802 H 346.543 5.59342 1.25735 0
M  V30 3803 H 344.94 5.97444 0.563951 0
M  V30 3804 H 346.01 4.84088 -0.280527 0
M  V30 3805 N 347.353 -0.0568162 1.57498 0
M  V30 3806 C 348.602 -0.752001 1.87157 0
M  V30 3807 C 348.915 -1.77978 0.811375 0
M  V30 3808 O 350.121 -2.52559 0.996293 0
M  V30 3809 C 348.577 -1.38844 3.3204 0
M  V30 3810 C 348.185 -0.398456 4.46225 0
M  V30 3811 C 349.929 -2.06512 3.70882 0
M  V30 3812 C 347.836 -1.04166 5.82154 0
M  V30 3813 H 346.766 -0.28461 0.698222 0
M  V30 3814 H 349.417 -0.00561272 1.83499 0
M  V30 3815 H 347.799 -2.1836 3.30356 0
M  V30 3816 H 348.973 0.367977 4.59328 0
M  V30 3817 H 347.288 0.174592 4.16034 0
M  V30 3818 H 349.885 -2.55437 4.6974 0
M  V30 3819 H 350.228 -2.87117 3.01445 0
M  V30 3820 H 350.761 -1.33808 3.7462 0
M  V30 3821 H 347.5 -0.275614 6.5492 0
M  V30 3822 H 347.02 -1.7786 5.72823 0
M  V30 3823 H 348.699 -1.55715 6.27982 0
M  V30 3824 N 348.832 -1.54138 -0.328536 0
M  V30 3825 C 350.057 -1.76378 -1.09112 0
M  V30 3826 C 350.482 -0.508596 -1.81094 0
M  V30 3827 O 349.84 0.539598 -1.73084 0
M  V30 3828 C 349.888 -2.95358 -2.06872 0
M  V30 3829 O 348.992 -2.66556 -3.14677 0
M  V30 3830 H 348.333 -0.584614 -0.314838 0
M  V30 3831 H 350.863 -2.01146 -0.374348 0
M  V30 3832 H 350.873 -3.22566 -2.4983 0
M  V30 3833 H 349.548 -3.86385 -1.5388 0
M  V30 3834 H 348.125 -2.50282 -2.7643 0
M  V30 3835 N 350.31 0.590341 -1.46126 0
M  V30 3836 C 351.242 1.71427 -1.52136 0
M  V30 3837 C 352.255 1.57542 -0.41042 0
M  V30 3838 O 353.444 1.65106 -0.678389 0
M  V30 3839 C 350.544 3.09605 -1.37834 0
M  V30 3840 C 349.717 3.49566 -2.62912 0
M  V30 3841 C 348.776 4.66773 -2.42918 0
M  V30 3842 O 347.802 4.73019 -3.1661 0
M  V30 3843 N 349.004 5.61161 -1.4859 0
M  V30 3844 H 351.769 1.66728 -2.49042 0
M  V30 3845 H 349.33 0.776113 -1.42085 0
M  V30 3846 H 351.322 3.85796 -1.22243 0
M  V30 3847 H 349.892 3.08714 -0.491393 0
M  V30 3848 H 349.112 2.63158 -2.93499 0
M  V30 3849 H 350.4 3.73028 -3.46017 0
M  V30 3850 H 349.798 5.58844 -0.87808 0
M  V30 3851 H 348.355 6.36814 -1.38965 0
M  V30 3852 N 351.788 1.33704 0.83433 0
M  V30 3853 C 352.718 1.26967 1.95963 0
M  V30 3854 C 353.699 0.149337 1.69443 0
M  V30 3855 O 354.884 0.339852 1.91203 0
M  V30 3856 C 352.014 1.01275 3.32206 0
M  V30 3857 C 350.968 2.09652 3.73136 0
M  V30 3858 C 350.294 1.69166 5.07235 0
M  V30 3859 C 351.594 3.51372 3.86439 0
M  V30 3860 H 353.288 2.2112 2.01857 0
M  V30 3861 H 350.834 1.06447 0.969793 0
M  V30 3862 H 352.787 0.952106 4.10503 0
M  V30 3863 H 351.511 0.0356203 3.26581 0
M  V30 3864 H 350.17 2.14766 2.97104 0
M  V30 3865 H 349.818 0.701437 4.98085 0
M  V30 3866 H 349.518 2.41694 5.35591 0
M  V30 3867 H 351.042 1.64576 5.88003 0
M  V30 3868 H 352.456 3.48734 4.55036 0
M  V30 3869 H 350.853 4.22425 4.26236 0
M  V30 3870 H 351.923 3.89546 2.88759 0
M  V30 3871 N 353.266 -1.05314 1.17247 0
M  V30 3872 C 354.513 -1.78293 0.960091 0
M  V30 3873 C 354.841 -1.87658 -0.51136 0
M  V30 3874 O 354.096 -1.3718 -1.39571 0
M  V30 3875 C 354.395 -3.2229 1.54479 0
M  V30 3876 C 354.061 -3.32987 3.04024 0
M  V30 3877 C 352.723 -3.35613 3.44844 0
M  V30 3878 C 355.075 -3.34102 4.00031 0
M  V30 3879 C 352.403 -3.36982 4.8027 0
M  V30 3880 C 354.755 -3.3701 5.35357 0
M  V30 3881 C 353.419 -3.37923 5.75642 0
M  V30 3882 H 352.689 -0.652422 0.351322 0
M  V30 3883 H 355.336 -1.23782 1.46117 0
M  V30 3884 H 353.641 -3.7972 0.965391 0
M  V30 3885 H 355.338 -3.77376 1.35603 0
M  V30 3886 H 351.928 -3.31655 2.71483 0
M  V30 3887 H 356.112 -3.31276 3.69554 0
M  V30 3888 H 351.368 -3.35999 5.10798 0
M  V30 3889 H 355.542 -3.36822 6.09528 0
M  V30 3890 H 353.169 -3.38738 6.80559 0
M  V30 3891 N 354.744 -0.972509 -1.24016 0
M  V30 3892 C 355.676 -0.464375 -2.24446 0
M  V30 3893 C 356.689 0.4295 -1.57032 0
M  V30 3894 O 357.878 0.234902 -1.76948 0
M  V30 3895 C 354.978 0.348385 -3.37105 0
M  V30 3896 C 354.151 -0.53673 -4.34094 0
M  V30 3897 C 353.21 0.220838 -5.25736 0
M  V30 3898 O 352.236 -0.386867 -5.67884 0
M  V30 3899 N 353.438 1.50907 -5.60542 0
M  V30 3900 H 356.203 -1.32788 -2.68677 0
M  V30 3901 H 353.764 -0.844877 -1.38107 0
M  V30 3902 H 355.756 0.863341 -3.95384 0
M  V30 3903 H 354.326 1.11285 -2.92121 0
M  V30 3904 H 353.546 -1.23261 -3.74433 0
M  V30 3905 H 354.834 -1.14022 -4.95859 0
M  V30 3906 H 354.232 2.02444 -5.28236 0
M  V30 3907 H 352.789 1.96962 -6.21329 0
M  V30 3908 N 356.222 1.38976 -0.743202 0
M  V30 3909 C 357.468 2.0064 -0.295189 0
M  V30 3910 C 357.801 1.5885 1.11716 0
M  V30 3911 O 357.076 0.821181 1.76315 0
M  V30 3912 C 357.359 3.578 -0.406318 0
M  V30 3913 C 357.212 4.09586 -1.85903 0
M  V30 3914 C 358.531 4.39616 0.206439 0
M  V30 3915 H 355.65 0.728935 -0.108733 0
M  V30 3916 H 358.292 1.65067 -0.940897 0
M  V30 3917 H 356.442 3.88235 0.143419 0
M  V30 3918 H 358.114 3.89837 -2.46627 0
M  V30 3919 H 356.357 3.6284 -2.3776 0
M  V30 3920 H 357.028 5.18708 -1.888 0
M  V30 3921 H 359.504 4.15273 -0.262283 0
M  V30 3922 H 358.38 5.48812 0.0983819 0
M  V30 3923 H 358.641 4.22754 1.2935 0
M  V30 3924 N 357.7 0.491464 1.49741 0
M  V30 3925 C 358.925 -0.0557177 2.07325 0
M  V30 3926 C 359.35 -1.30925 1.35056 0
M  V30 3927 O 358.708 -1.76733 0.404365 0
M  V30 3928 C 358.756 -0.302074 3.59333 0
M  V30 3929 O 357.86 -1.37868 3.88672 0
M  V30 3930 H 357.201 0.0219956 0.663636 0
M  V30 3931 H 359.731 0.688352 1.92673 0
M  V30 3932 H 359.741 -0.536464 4.04458 0
M  V30 3933 H 358.416 0.61383 4.11345 0
M  V30 3934 H 356.993 -1.12999 3.55367 0
M  V30 3935 N 359.178 -1.55987 0.224894 0
M  V30 3936 C 360.589 -1.84553 -0.282345 0
M  V30 3937 C 360.94 -1.14634 -1.59227 0
M  V30 3938 O 360.065 -0.417155 -2.12341 0
M  V30 3939 C 360.66 -3.348 -0.519062 0
M  V30 3940 C 359.219 -3.63671 -0.970604 0
M  V30 3941 C 358.366 -2.77277 -0.0355261 0
M  V30 3942 H 361.317 -1.52245 0.448006 0
M  V30 3943 H 361.338 -3.55187 -1.36463 0
M  V30 3944 H 360.85 -3.8566 0.43449 0
M  V30 3945 H 358.951 -3.1827 -1.9374 0
M  V30 3946 H 359.064 -4.71631 -0.842698 0
M  V30 3947 H 357.428 -2.48846 -0.542927 0
M  V30 3948 H 358.211 -3.30937 0.913003 0
M  V30 3949 N 360.656 0.0484629 -1.57525 0
M  V30 3950 C 362.072 0.40375 -1.54409 0
M  V30 3951 C 362.272 1.77786 -0.948384 0
M  V30 3952 O 361.328 2.46189 -0.560983 0
M  V30 3953 C 362.641 0.323394 -2.98956 0
M  V30 3954 C 364.189 0.401892 -3.10409 0
M  V30 3955 C 364.664 0.351195 -4.56652 0
M  V30 3956 N 366.155 0.410576 -4.61377 0
M  V30 3957 C 366.89 0.393933 -5.72045 0
M  V30 3958 N 366.386 0.330724 -6.9201 0
M  V30 3959 N 368.179 0.442227 -5.60358 0
M  V30 3960 H 360.33 -0.851016 -1.94606 0
M  V30 3961 H 362.593 -0.321721 -0.89174 0
M  V30 3962 H 362.299 -0.62011 -3.4619 0
M  V30 3963 H 362.173 1.12463 -3.60044 0
M  V30 3964 H 364.56 1.33582 -2.63134 0
M  V30 3965 H 364.641 -0.428342 -2.52188 0
M  V30 3966 H 364.285 -0.578987 -5.04589 0
M  V30 3967 H 364.215 1.19928 -5.12762 0
M  V30 3968 H 366.706 0.462729 -3.75056 0
M  V30 3969 H 367.019 0.322592 -7.72126 0
M  V30 3970 H 365.364 0.29706 -6.94365 0
M  V30 3971 H 368.555 0.489464 -4.65534 0
M  V30 3972 H 368.728 0.425788 -6.466 0
M  V30 3973 N 362.134 1.5431 0.320358 0
M  V30 3974 C 363.411 1.63322 1.07635 0
M  V30 3975 C 363.791 0.46912 2.05821 0
M  V30 3976 O 363.139 -0.536274 2.22118 0
M  V30 3977 C 363.349 3.00465 1.77544 0
M  V30 3978 C 364.697 3.56621 2.30449 0
M  V30 3979 O 365.721 3.02791 1.87606 0
M  V30 3980 O 364.58 4.5083 3.08892 0
M  V30 3981 H 361.674 0.661502 0.496331 0
M  V30 3982 H 364.22 1.66656 0.319992 0
M  V30 3983 H 362.992 3.76629 1.06143 0
M  V30 3984 H 362.615 3.00824 2.59982 0
M  V30 3985 N 363.613 -0.582584 1.46437 0
M  V30 3986 C 365.029 -0.905962 1.31394 0
M  V30 3987 C 365.229 -1.99468 0.285476 0
M  V30 3988 O 364.285 -2.50566 -0.311914 0
M  V30 3989 C 365.598 -1.3232 2.70022 0
M  V30 3990 C 367.146 -1.43604 2.78113 0
M  V30 3991 C 367.621 -1.88694 4.17323 0
M  V30 3992 N 369.112 -1.95887 4.19741 0
M  V30 3993 C 369.847 -2.32051 5.24347 0
M  V30 3994 N 369.343 -2.67006 6.39281 0
M  V30 3995 N 371.136 -2.32606 5.11713 0
M  V30 3996 H 363.287 0.1366 2.1196 0
M  V30 3997 H 365.55 -0.00155736 0.947999 0
M  V30 3998 H 365.256 -0.597242 3.46592 0
M  V30 3999 H 365.13 -2.28469 3.00136 0
M  V30 4000 H 367.517 -2.15286 2.01832 0
M  V30 4001 H 367.598 -0.457059 2.51684 0
M  V30 4002 H 367.242 -1.1759 4.941 0
M  V30 4003 H 367.172 -2.8755 4.4116 0
M  V30 4004 H 369.663 -1.71362 3.36814 0
M  V30 4005 H 369.976 -2.93554 7.14875 0
M  V30 4006 H 368.321 -2.64644 6.42642 0
M  V30 4007 H 371.512 -2.04721 4.2096 0
M  V30 4008 H 371.685 -2.60462 5.93349 0
M  V30 4009 N 365.091 -1.34144 -0.827227 0
M  V30 4010 C 366.502 -1.23557 -1.39966 0
M  V30 4011 C 366.853 0.140731 -1.95695 0
M  V30 4012 O 365.978 1.04087 -1.89723 0
M  V30 4013 C 366.573 -2.23708 -2.54441 0
M  V30 4014 C 365.132 -2.16924 -3.07605 0
M  V30 4015 C 364.279 -2.10549 -1.80456 0
M  V30 4016 H 367.23 -1.45573 -0.631991 0
M  V30 4017 H 367.251 -1.85157 -3.32411 0
M  V30 4018 H 366.763 -3.23866 -2.13851 0
M  V30 4019 H 364.864 -1.20107 -3.52711 0
M  V30 4020 H 364.977 -3.07988 -3.66988 0
M  V30 4021 H 363.341 -1.56203 -2.01178 0
M  V30 4022 H 364.124 -3.12535 -1.42046 0
M  V30 4023 N 366.569 1.04691 -1.17803 0
M  V30 4024 C 367.794 1.81984 -0.994813 0
M  V30 4025 C 368.219 1.82586 0.452112 0
M  V30 4026 O 367.577 1.23854 1.324 0
M  V30 4027 C 367.625 3.2575 -1.54659 0
M  V30 4028 O 366.729 4.05267 -0.763728 0
M  V30 4029 H 366.07 0.562483 -0.352857 0
M  V30 4030 H 368.6 1.3189 -1.56417 0
M  V30 4031 H 368.61 3.76541 -1.57102 0
M  V30 4032 H 367.285 3.24627 -2.59981 0
M  V30 4033 H 365.862 3.63972 -0.811108 0
M  V30 4034 N 368.047 0.979072 1.23499 0
M  V30 4035 C 369.296 0.642751 1.91185 0
M  V30 4036 C 369.609 -0.827253 1.77245 0
M  V30 4037 O 370.815 -1.27458 2.39722 0
M  V30 4038 C 369.271 1.09901 3.42709 0
M  V30 4039 C 368.879 2.59327 3.65313 0
M  V30 4040 C 370.623 0.836371 4.16179 0
M  V30 4041 C 368.53 2.98627 5.10467 0
M  V30 4042 H 367.46 0.236698 0.715884 0
M  V30 4043 H 370.111 1.1868 1.39955 0
M  V30 4044 H 368.493 0.48319 3.93041 0
M  V30 4045 H 369.667 3.26136 3.25533 0
M  V30 4046 H 367.982 2.83323 3.05151 0
M  V30 4047 H 370.579 1.10586 5.23139 0
M  V30 4048 H 370.922 -0.227509 4.15678 0
M  V30 4049 H 371.455 1.41371 3.71832 0
M  V30 4050 H 368.194 4.04133 5.16098 0
M  V30 4051 H 367.714 2.3651 5.51201 0
M  V30 4052 H 369.393 2.89159 5.78788 0
M  V30 4053 N 369.525 -1.3858 0.750561 0
M  V30 4054 C 370.473 -2.32339 0.110162 0
M  V30 4055 C 371.467 -1.53864 -0.708674 0
M  V30 4056 O 372.673 -1.69417 -0.608112 0
M  V30 4057 H 369.048 -0.751812 0.0168275 0
M  V30 4058 H 371.019 -2.83959 0.917053 0
M  V30 4059 C 369.768 -3.39043 -0.771067 0
M  V30 4060 H 369.091 -3.99517 -0.150374 0
M  V30 4061 H 370.531 -4.07061 -1.1865 0
M  V30 4062 C 368.99 -2.77365 -1.91234 0
M  V30 4063 O 369.52 -2.66434 -3.00626 0
M  V30 4064 N 367.726 -2.35219 -1.70646 0
M  V30 4065 H 367.273 -2.4431 -0.81673 0
M  V30 4066 H 367.231 -1.94294 -2.47178 0
M  V30 4067 N 371.003 -0.499398 -1.49478 0
M  V30 4068 C 372.228 0.044722 -2.07352 0
M  V30 4069 C 372.653 1.30207 -1.35749 0
M  V30 4070 O 372.011 1.76516 -0.413732 0
M  V30 4071 C 372.059 0.283013 -3.59488 0
M  V30 4072 O 371.163 1.35804 -3.89398 0
M  V30 4073 H 370.504 -0.0255147 -0.66351 0
M  V30 4074 H 373.034 -0.698561 -1.92305 0
M  V30 4075 H 373.044 0.515007 -4.04737 0
M  V30 4076 H 371.719 -0.635636 -4.11014 0
M  V30 4077 H 370.296 1.11113 -3.55961 0
M  V30 4078 N 372.481 1.55866 -0.233164 0
M  V30 4079 C 373.73 1.97779 0.39579 0
M  V30 4080 C 374.043 1.12419 1.60066 0
M  V30 4081 O 375.249 1.44283 2.29988 0
M  V30 4082 C 373.705 3.5188 0.755556 0
M  V30 4083 C 373.313 4.45959 -0.427152 0
M  V30 4084 C 375.057 4.02479 1.34946 0
M  V30 4085 C 372.964 5.91383 -0.0443043 0
M  V30 4086 H 371.894 0.738592 0.15165 0
M  V30 4087 H 374.545 1.80486 -0.331212 0
M  V30 4088 H 372.927 3.64816 1.5403 0
M  V30 4089 H 374.101 4.44776 -1.20462 0
M  V30 4090 H 372.416 4.05765 -0.935068 0
M  V30 4091 H 375.013 5.08637 1.649 0
M  V30 4092 H 375.356 3.49014 2.26925 0
M  V30 4093 H 375.889 3.92813 0.62791 0
M  V30 4094 H 372.628 6.48857 -0.930874 0
M  V30 4095 H 372.148 5.95734 0.697238 0
M  V30 4096 H 373.827 6.45893 0.378334 0
M  V30 4097 N 373.959 -0.0401083 1.57549 0
M  V30 4098 C 374.889 -1.04384 2.08869 0
M  V30 4099 C 375.87 -1.38407 0.988817 0
M  V30 4100 O 377.055 -1.47483 1.26342 0
M  V30 4101 C 374.185 -2.34808 2.55895 0
M  V30 4102 C 373.139 -2.15057 3.70047 0
M  V30 4103 C 372.465 -3.51145 4.03239 0
M  V30 4104 C 373.765 -1.54576 4.98902 0
M  V30 4105 H 375.459 -0.616666 2.92981 0
M  V30 4106 H 373.005 -0.295184 1.40942 0
M  V30 4107 H 374.958 -3.05346 2.90417 0
M  V30 4108 H 373.682 -2.79565 1.68853 0
M  V30 4109 H 372.341 -1.46954 3.35857 0
M  V30 4110 H 371.989 -3.93529 3.13279 0
M  V30 4111 H 371.689 -3.38758 4.80122 0
M  V30 4112 H 373.213 -4.23062 4.40285 0
M  V30 4113 H 374.627 -2.15017 5.31451 0
M  V30 4114 H 373.024 -1.52796 5.80322 0
M  V30 4115 H 374.094 -0.51039 4.82206 0
M  V30 4116 N 375.437 -1.54477 -0.31217 0
M  V30 4117 C 376.384 -1.84655 -1.38461 0
M  V30 4118 C 377.354 -0.694536 -1.50882 0
M  V30 4119 O 378.539 -0.942081 -1.6592 0
M  V30 4120 C 375.679 -2.0896 -2.74645 0
M  V30 4121 C 374.792 -3.36618 -2.70763 0
M  V30 4122 C 373.927 -3.50824 -3.98868 0
M  V30 4123 C 372.966 -4.72315 -3.89339 0
M  V30 4124 N 372.103 -4.83387 -5.09197 0
M  V30 4125 H 376.943 -2.76142 -1.12026 0
M  V30 4126 H 374.48 -1.36748 -0.542065 0
M  V30 4127 H 376.438 -2.21045 -3.53829 0
M  V30 4128 H 375.068 -1.20752 -2.99364 0
M  V30 4129 H 374.12 -3.33211 -1.83506 0
M  V30 4130 H 375.432 -4.25917 -2.59608 0
M  V30 4131 H 374.586 -3.62513 -4.86486 0
M  V30 4132 H 373.325 -2.59638 -4.12843 0
M  V30 4133 H 372.33 -4.6067 -3.00105 0
M  V30 4134 H 373.555 -5.64897 -3.76919 0
M  V30 4135 H 371.501 -3.9512 -5.23657 0
M  V30 4136 H 371.418 -5.66669 -5.00422 0
M  V30 4137 H 372.686 -4.9942 -5.98498 0
M  V30 4138 N 376.915 0.57481 -1.46744 0
M  V30 4139 C 378.331 0.898981 -1.31873 0
M  V30 4140 C 378.531 1.99313 -0.29605 0
M  V30 4141 O 377.587 2.50728 0.298621 0
M  V30 4142 C 378.9 1.30886 -2.7072 0
M  V30 4143 C 380.448 1.42127 -2.78871 0
M  V30 4144 C 380.923 1.86478 -4.18318 0
M  V30 4145 N 382.414 1.93658 -4.20774 0
M  V30 4146 C 383.149 2.29267 -5.2557 0
M  V30 4147 N 382.645 2.63612 -6.40688 0
M  V30 4148 N 384.438 2.29889 -5.1294 0
M  V30 4149 H 376.589 -0.147839 -2.11885 0
M  V30 4150 H 378.852 -0.00347013 -0.947994 0
M  V30 4151 H 378.558 0.578853 -3.46904 0
M  V30 4152 H 378.432 2.26874 -3.01343 0
M  V30 4153 H 380.819 2.14213 -2.0297 0
M  V30 4154 H 380.9 0.443705 -2.51922 0
M  V30 4155 H 380.544 1.14968 -4.94717 0
M  V30 4156 H 380.474 2.85207 -4.42679 0
M  V30 4157 H 382.965 1.69574 -3.37718 0
M  V30 4158 H 383.278 2.89759 -7.16421 0
M  V30 4159 H 381.623 2.61232 -6.44036 0
M  V30 4160 H 384.814 2.02485 -4.22039 0
M  V30 4161 H 384.987 2.57312 -5.94722 0
M  V30 4162 N 378.394 1.34581 0.820102 0
M  V30 4163 C 379.805 1.24298 1.39309 0
M  V30 4164 C 380.156 -0.130351 1.95767 0
M  V30 4165 O 379.281 -1.0308 1.90272 0
M  V30 4166 C 379.876 2.25054 2.53251 0
M  V30 4167 C 378.435 2.18552 3.0645 0
M  V30 4168 C 377.582 2.11503 1.79337 0
M  V30 4169 H 380.533 1.45906 0.624262 0
M  V30 4170 H 380.554 1.86917 3.31425 0
M  V30 4171 H 380.066 3.24996 2.1213 0
M  V30 4172 H 378.167 1.21976 3.52069 0
M  V30 4173 H 378.28 3.0993 3.65349 0
M  V30 4174 H 376.644 1.57268 2.00347 0
M  V30 4175 H 377.427 3.13284 1.40386 0
M  V30 4176 N 379.872 -1.04064 1.18357 0
M  V30 4177 C 381.119 -1.77265 0.978947 0
M  V30 4178 C 381.447 -1.88189 -0.491428 0
M  V30 4179 O 380.702 -1.38653 -1.38108 0
M  V30 4180 C 381.001 -3.20634 1.57888 0
M  V30 4181 C 380.667 -3.29743 3.07539 0
M  V30 4182 C 379.329 -3.31937 3.48384 0
M  V30 4183 C 381.681 -3.29841 4.03552 0
M  V30 4184 C 379.009 -3.3187 4.83818 0
M  V30 4185 C 381.361 -3.31313 5.38901 0
M  V30 4186 C 380.025 -3.31799 5.79194 0
M  V30 4187 H 379.295 -0.648659 0.358222 0
M  V30 4188 H 381.942 -1.22225 1.47422 0
M  V30 4189 H 380.247 -3.78675 1.00561 0
M  V30 4190 H 381.944 -3.75917 1.39598 0
M  V30 4191 H 378.534 -3.28757 2.74986 0
M  V30 4192 H 382.718 -3.27337 3.73047 0
M  V30 4193 H 377.974 -3.30562 5.14333 0
M  V30 4194 H 382.148 -3.30338 6.13066 0
M  V30 4195 H 379.775 -3.315 6.84114 0
M  V30 4196 N 381.35 -0.985608 -1.22978 0
M  V30 4197 C 382.28 -0.549649 -2.26939 0
M  V30 4198 C 383.261 0.419803 -1.64838 0
M  V30 4199 O 384.446 0.31203 -1.91677 0
M  V30 4200 C 381.576 0.143652 -3.47003 0
M  V30 4201 C 380.53 -0.743606 -4.21491 0
M  V30 4202 C 379.856 0.0822027 -5.34637 0
M  V30 4203 C 381.156 -2.03694 -4.80943 0
M  V30 4204 H 382.85 -1.41862 -2.63658 0
M  V30 4205 H 380.396 -0.683571 -1.26741 0
M  V30 4206 H 382.349 0.459985 -4.18882 0
M  V30 4207 H 381.073 1.04711 -3.09359 0
M  V30 4208 H 379.732 -1.04347 -3.51436 0
M  V30 4209 H 379.38 0.986359 -4.93234 0
M  V30 4210 H 379.08 -0.508377 -5.85397 0
M  V30 4211 H 380.604 0.392797 -6.09335 0
M  V30 4212 H 382.018 -1.78504 -5.44802 0
M  V30 4213 H 380.415 -2.57573 -5.42011 0
M  V30 4214 H 381.485 -2.72042 -4.01399 0
M  V30 4215 N 382.828 1.3818 -0.7579 0
M  V30 4216 C 383.738 2.3421 -0.135247 0
M  V30 4217 C 384.754 1.59487 0.695683 0
M  V30 4218 O 385.93 1.91657 0.618832 0
M  V30 4219 C 382.995 3.3862 0.744139 0
M  V30 4220 C 382.056 4.2918 -0.101658 0
M  V30 4221 C 381.289 5.28603 0.735851 0
M  V30 4222 O 381.512 5.35166 1.97366 0
M  V30 4223 O 380.446 6.01707 0.152372 0
M  V30 4224 H 384.272 2.8916 -0.928436 0
M  V30 4225 H 381.857 1.40101 -0.518855 0
M  V30 4226 H 383.739 4.02539 1.2466 0
M  V30 4227 H 382.414 2.86019 1.51575 0
M  V30 4228 H 381.321 3.68407 -0.650167 0
M  V30 4229 H 382.654 4.85048 -0.836024 0
M  V30 4230 N 384.306 0.507319 1.49211 0
M  V30 4231 C 385.254 -0.281364 2.30892 0
M  V30 4232 C 386.248 -0.95687 1.39787 0
M  V30 4233 O 387.454 -0.883838 1.56807 0
M  V30 4234 H 383.829 -0.109597 0.743971 0
M  V30 4235 H 385.8 0.42744 2.95323 0
M  V30 4236 C 384.549 -1.32918 3.21291 0
M  V30 4237 H 383.872 -0.818799 3.91326 0
M  V30 4238 H 385.312 -1.85288 3.81372 0
M  V30 4239 C 383.771 -2.35074 2.41333 0
M  V30 4240 O 384.301 -3.4108 2.12197 0
M  V30 4241 N 382.507 -2.07705 2.03241 0
M  V30 4242 H 382.054 -1.2152 2.27136 0
M  V30 4243 H 382.012 -2.76283 1.50051 0
M  V30 4244 N 385.784 -1.5574 0.241426 0
M  V30 4245 C 386.714 -2.24133 -0.654722 0
M  V30 4246 C 387.695 -1.21974 -1.1856 0
M  V30 4247 O 388.88 -1.50612 -1.22595 0
M  V30 4248 C 386.01 -2.93659 -1.85423 0
M  V30 4249 C 384.964 -4.0246 -1.45636 0
M  V30 4250 C 384.29 -4.59383 -2.73626 0
M  V30 4251 C 385.59 -5.18468 -0.631506 0
M  V30 4252 H 387.284 -2.99281 -0.0844353 0
M  V30 4253 H 384.83 -1.43947 -0.0391707 0
M  V30 4254 H 386.783 -3.40203 -2.48676 0
M  V30 4255 H 385.507 -2.15991 -2.44981 0
M  V30 4256 H 384.166 -3.56676 -0.847202 0
M  V30 4257 H 383.814 -3.78422 -3.3137 0
M  V30 4258 H 383.514 -5.32826 -2.4773 0
M  V30 4259 H 385.038 -5.08658 -3.37786 0
M  V30 4260 H 386.452 -5.61272 -1.1682 0
M  V30 4261 H 384.849 -5.98266 -0.468831 0
M  V30 4262 H 385.919 -4.8358 0.357506 0
M  V30 4263 N 387.262 0.0317525 -1.57568 0
M  V30 4264 C 388.511 0.722131 -1.8833 0
M  V30 4265 C 388.824 1.76664 -0.839587 0
M  V30 4266 O 390.03 2.50942 -1.03635 0
M  V30 4267 C 388.486 1.33544 -3.34207 0
M  V30 4268 C 388.094 0.327415 -4.46802 0
M  V30 4269 C 389.838 2.00585 -3.7412 0
M  V30 4270 C 387.745 0.948915 -5.83738 0
M  V30 4271 H 386.675 0.273466 -0.702661 0
M  V30 4272 H 389.326 -0.0235811 -1.83485 0
M  V30 4273 H 387.708 2.13077 -3.33788 0
M  V30 4274 H 388.882 -0.441006 -4.58685 0
M  V30 4275 H 387.197 -0.240758 -4.15703 0
M  V30 4276 H 389.794 2.47932 -4.73744 0
M  V30 4277 H 390.137 2.82285 -3.05975 0
M  V30 4278 H 390.67 1.27831 -3.76702 0
M  V30 4279 H 387.409 0.171387 -6.55276 0
M  V30 4280 H 386.929 1.68724 -5.7558 0
M  V30 4281 H 388.608 1.45705 -6.3038 0
M  V30 4282 N 388.74 1.54641 0.303973 0
M  V30 4283 C 390.151 1.64811 0.877163 0
M  V30 4284 C 390.502 0.554838 1.88191 0
M  V30 4285 O 389.627 -0.309033 2.14182 0
M  V30 4286 C 390.222 2.9876 1.59775 0
M  V30 4287 C 388.781 3.11061 2.11938 0
M  V30 4288 C 387.928 2.60479 0.951097 0
M  V30 4289 H 390.879 1.58493 0.0810486 0
M  V30 4290 H 390.9 2.90017 2.46314 0
M  V30 4291 H 390.412 3.7831 0.866226 0
M  V30 4292 H 388.513 2.36225 2.88146 0
M  V30 4293 H 388.626 4.17171 2.35595 0
M  V30 4294 H 386.99 2.16859 1.33583 0
M  V30 4295 H 387.773 3.42504 0.233581 0
M  V30 4296 N 390.218 -0.567019 1.47046 0
M  V30 4297 C 391.165 -1.67489 1.58796 0
M  V30 4298 C 392.135 -1.60399 0.43144 0
M  V30 4299 O 393.32 -1.79378 0.650233 0
M  V30 4300 C 390.46 -3.05821 1.59899 0
M  V30 4301 C 389.573 -3.2342 2.86397 0
M  V30 4302 C 388.708 -4.52093 2.789 0
M  V30 4303 C 387.747 -4.6309 4.00267 0
M  V30 4304 N 386.884 -5.83106 3.91064 0
M  V30 4305 H 391.724 -1.56785 2.53422 0
M  V30 4306 H 389.261 -0.763896 1.2571 0
M  V30 4307 H 391.219 -3.8591 1.58522 0
M  V30 4308 H 389.849 -3.15384 0.687929 0
M  V30 4309 H 388.901 -2.3683 2.97684 0
M  V30 4310 H 390.213 -3.27412 3.76301 0
M  V30 4311 H 389.367 -5.4043 2.75718 0
M  V30 4312 H 388.106 -4.50565 1.86662 0
M  V30 4313 H 387.111 -3.73168 4.03765 0
M  V30 4314 H 388.336 -4.66386 4.93621 0
M  V30 4315 H 386.282 -5.82546 3.01623 0
M  V30 4316 H 386.199 -5.88434 4.74638 0
M  V30 4317 H 387.467 -6.73831 3.91882 0
M  V30 4318 N 391.696 -1.35014 -0.812953 0
M  V30 4319 C 392.926 -1.30841 -1.59888 0
M  V30 4320 C 393.334 0.117576 -1.88834 0
M  V30 4321 O 392.677 1.07807 -1.48739 0
M  V30 4322 C 392.739 -2.0412 -2.95931 0
M  V30 4323 C 392.403 -3.53336 -2.89832 0
M  V30 4324 C 393.4 -4.48052 -2.63714 0
M  V30 4325 C 391.085 -3.95894 -3.0915 0
M  V30 4326 C 393.079 -5.833 -2.56982 0
M  V30 4327 C 390.766 -5.31239 -3.0204 0
M  V30 4328 C 391.764 -6.24754 -2.75991 0
M  V30 4329 O 391.452 -7.57617 -2.68833 0
M  V30 4330 H 391.184 -0.451215 -0.50337 0
M  V30 4331 H 393.738 -1.78354 -1.01877 0
M  V30 4332 H 391.968 -1.51235 -3.559 0
M  V30 4333 H 393.657 -1.93107 -3.57022 0
M  V30 4334 H 394.423 -4.16492 -2.48515 0
M  V30 4335 H 390.302 -3.23495 -3.28438 0
M  V30 4336 H 393.846 -6.56263 -2.36569 0
M  V30 4337 H 389.743 -5.62415 -3.16796 0
M  V30 4338 H 390.511 -7.67469 -2.84487 0
M  V30 4339 N 393.175 1.03435 -1.18907 0
M  V30 4340 C 394.105 2.13503 -0.945448 0
M  V30 4341 C 395.086 1.69682 0.119189 0
M  V30 4342 O 396.271 1.94169 -0.034707 0
M  V30 4343 C 393.401 3.44004 -0.477316 0
M  V30 4344 C 392.355 4.0148 -1.48316 0
M  V30 4345 C 391.681 5.27537 -0.872311 0
M  V30 4346 C 392.981 4.36921 -2.86177 0
M  V30 4347 H 394.675 2.34141 -1.86597 0
M  V30 4348 H 392.221 1.12523 -0.898584 0
M  V30 4349 H 394.174 4.20372 -0.294204 0
M  V30 4350 H 392.898 3.23072 0.478786 0
M  V30 4351 H 391.557 3.27201 -1.65332 0
M  V30 4352 H 391.205 5.02917 0.0911752 0
M  V30 4353 H 390.905 5.66954 -1.54393 0
M  V30 4354 H 392.429 6.06576 -0.699871 0
M  V30 4355 H 393.843 5.04248 -2.72776 0
M  V30 4356 H 392.24 4.87405 -3.50081 0
M  V30 4357 H 393.31 3.46466 -3.39248 0
M  V30 4358 N 394.653 0.992116 1.22453 0
M  V30 4359 C 395.881 0.685944 1.95198 0
M  V30 4360 C 396.296 -0.749233 1.73297 0
M  V30 4361 O 395.653 -1.50549 1.03156 0
M  V30 4362 C 395.704 0.981395 3.47924 0
M  V30 4363 O 395.425 2.36018 3.6909 0
M  V30 4364 C 396.926 0.692815 4.37853 0
M  V30 4365 H 394.146 0.253821 0.621141 0
M  V30 4366 H 396.69 1.32668 1.55626 0
M  V30 4367 H 394.845 0.386481 3.85467 0
M  V30 4368 H 395.259 2.45884 4.63294 0
M  V30 4369 H 396.733 0.949818 5.43767 0
M  V30 4370 H 397.21 -0.373181 4.37612 0
M  V30 4371 H 397.816 1.26874 4.05935 0
M  V30 4372 N 396.131 -1.37776 0.765217 0
M  V30 4373 C 397.542 -1.82521 0.392819 0
M  V30 4374 C 397.893 -1.63789 -1.08017 0
M  V30 4375 O 397.018 -1.14542 -1.83601 0
M  V30 4376 C 397.613 -3.31358 0.706214 0
M  V30 4377 C 396.172 -3.74406 0.386952 0
M  V30 4378 C 395.319 -2.60394 0.953422 0
M  V30 4379 H 398.27 -1.2634 0.960412 0
M  V30 4380 H 398.291 -3.80498 -0.0114706 0
M  V30 4381 H 397.803 -3.44959 1.77833 0
M  V30 4382 H 395.904 -3.66377 -0.678112 0
M  V30 4383 H 396.017 -4.70749 0.890636 0
M  V30 4384 H 394.381 -2.51878 0.378064 0
M  V30 4385 H 395.164 -2.76791 2.03081 0
M  V30 4386 N 397.609 -0.515225 -1.4894 0
M  V30 4387 C 398.519 0.259774 -2.33157 0
M  V30 4388 C 399.535 0.953501 -1.45548 0
M  V30 4389 O 400.711 0.931735 -1.78552 0
M  V30 4390 C 397.776 1.30193 -3.21326 0
M  V30 4391 C 396.837 0.620129 -4.24797 0
M  V30 4392 C 396.07 1.61263 -5.08753 0
M  V30 4393 O 396.293 2.84389 -4.94448 0
M  V30 4394 O 395.227 1.16013 -5.90614 0
M  V30 4395 H 399.053 -0.429932 -3.00641 0
M  V30 4396 H 396.638 -0.276346 -1.46822 0
M  V30 4397 H 398.52 1.90455 -3.75905 0
M  V30 4398 H 397.195 1.97431 -2.56521 0
M  V30 4399 H 396.102 -0.0226019 -3.74093 0
M  V30 4400 H 397.435 -0.0100493 -4.92199 0
M  V30 4401 N 399.087 1.5561 -0.249682 0
M  V30 4402 C 400.333 1.99306 0.374841 0
M  V30 4403 C 400.666 1.13767 1.57387 0
M  V30 4404 O 399.941 0.201711 1.93451 0
M  V30 4405 C 400.224 3.51507 0.781986 0
M  V30 4406 C 400.077 4.4781 -0.422629 0
M  V30 4407 C 401.396 4.08884 1.62793 0
M  V30 4408 H 398.515 0.724572 0.134773 0
M  V30 4409 H 401.157 1.86719 -0.351549 0
M  V30 4410 H 399.307 3.62363 1.4009 0
M  V30 4411 H 400.979 4.48931 -1.06108 0
M  V30 4412 H 399.222 4.20518 -1.06524 0
M  V30 4413 H 399.893 5.51919 -0.0943766 0
M  V30 4414 H 402.369 4.01147 1.10547 0
M  V30 4415 H 401.245 5.1564 1.88166 0
M  V30 4416 H 401.506 3.57515 2.60068 0
M  V30 4417 N 400.565 -0.0233959 1.57583 0
M  V30 4418 C 401.814 -0.712133 1.8871 0
M  V30 4419 C 402.127 -1.76217 0.848944 0
M  V30 4420 O 403.333 -2.50389 1.04964 0
M  V30 4421 C 401.789 -1.3177 3.3491 0
M  V30 4422 C 401.397 -0.303715 4.46969 0
M  V30 4423 C 403.141 -1.98598 3.75179 0
M  V30 4424 C 401.048 -0.917945 5.84233 0
M  V30 4425 H 399.978 -0.269735 0.704101 0
M  V30 4426 H 402.629 0.0333114 1.8347 0
M  V30 4427 H 401.011 -2.11304 3.34913 0
M  V30 4428 H 402.185 0.465325 4.58445 0
M  V30 4429 H 400.5 0.2628 4.1557 0
M  V30 4430 H 403.097 -2.45416 4.75053 0
M  V30 4431 H 403.44 -2.80659 3.07468 0
M  V30 4432 H 403.973 -1.25831 3.77374 0
M  V30 4433 H 400.712 -0.136633 6.55358 0
M  V30 4434 H 400.232 -1.65669 5.76467 0
M  V30 4435 H 401.911 -1.4236 6.31144 0
M  V30 4436 N 402.043 -1.548 -0.295768 0
M  V30 4437 C 402.975 -1.82492 -1.3867 0
M  V30 4438 C 403.988 -0.708134 -1.46592 0
M  V30 4439 O 405.177 -0.985686 -1.48817 0
M  V30 4440 C 402.277 -1.95256 -2.76999 0
M  V30 4441 C 401.45 -3.25709 -2.91946 0
M  V30 4442 C 400.509 -3.28824 -4.10806 0
M  V30 4443 O 399.535 -4.02328 -4.02643 0
M  V30 4444 N 400.737 -2.5459 -5.21694 0
M  V30 4445 H 403.502 -2.76646 -1.15269 0
M  V30 4446 H 401.063 -1.54438 -0.485849 0
M  V30 4447 H 403.055 -1.94736 -3.54768 0
M  V30 4448 H 401.625 -1.08072 -2.93324 0
M  V30 4449 H 400.845 -3.38959 -2.01247 0
M  V30 4450 H 402.133 -4.11786 -2.98847 0
M  V30 4451 H 401.531 -1.94512 -5.31208 0
M  V30 4452 H 400.088 -2.59818 -5.97778 0
M  V30 4453 N 403.521 0.559213 -1.47345 0
M  V30 4454 C 404.431 1.69388 -1.62311 0
M  V30 4455 C 405.447 1.6648 -0.505993 0
M  V30 4456 O 406.623 1.85964 -0.773262 0
M  V30 4457 C 403.688 3.05894 -1.63185 0
M  V30 4458 C 402.749 3.19885 -2.86307 0
M  V30 4459 C 401.982 4.49879 -2.87131 0
M  V30 4460 O 402.205 5.35217 -1.97229 0
M  V30 4461 O 401.139 4.67618 -3.78968 0
M  V30 4462 H 404.965 1.59706 -2.58317 0
M  V30 4463 H 402.55 0.728989 -1.30407 0
M  V30 4464 H 404.432 3.87133 -1.66451 0
M  V30 4465 H 403.107 3.15964 -0.70345 0
M  V30 4466 H 402.014 2.38052 -2.88587 0
M  V30 4467 H 403.347 3.14718 -3.78435 0
M  V30 4468 N 404.999 1.35443 0.805782 0
M  V30 4469 C 405.909 1.30546 1.94923 0
M  V30 4470 C 406.925 0.210233 1.72725 0
M  V30 4471 O 408.101 0.43975 1.9654 0
M  V30 4472 C 405.166 1.07782 3.29521 0
M  V30 4473 C 404.227 2.26625 3.64609 0
M  V30 4474 C 403.46 2.04938 4.92784 0
M  V30 4475 O 403.683 1.01624 5.61274 0
M  V30 4476 O 402.617 2.9232 5.26149 0
M  V30 4477 H 406.443 2.26779 2.02002 0
M  V30 4478 H 404.028 1.15823 0.943682 0
M  V30 4479 H 405.91 0.969392 4.10098 0
M  V30 4480 H 404.585 0.146003 3.23371 0
M  V30 4481 H 403.492 2.43033 2.84404 0
M  V30 4482 H 404.825 3.18257 3.75464 0
M  V30 4483 N 406.477 -1.02803 1.19454 0
M  V30 4484 C 407.724 -1.76217 0.997693 0
M  V30 4485 C 408.052 -1.887 -0.47144 0
M  V30 4486 O 407.307 -1.4011 -1.3663 0
M  V30 4487 C 407.606 -3.18941 1.6128 0
M  V30 4488 C 407.272 -3.26463 3.11019 0
M  V30 4489 C 405.934 -3.28223 3.51885 0
M  V30 4490 C 408.286 -3.25542 4.07028 0
M  V30 4491 C 405.614 -3.26719 4.8731 0
M  V30 4492 C 407.966 -3.25579 5.42385 0
M  V30 4493 C 406.63 -3.25637 5.82681 0
M  V30 4494 H 405.9 -0.644823 0.365082 0
M  V30 4495 H 408.547 -1.20655 1.4871 0
M  V30 4496 H 406.852 -3.77587 1.04572 0
M  V30 4497 H 408.549 -3.74415 1.43577 0
M  V30 4498 H 405.139 -3.25822 2.78457 0
M  V30 4499 H 409.323 -3.23362 3.76498 0
M  V30 4500 H 404.579 -3.25089 5.1781 0
M  V30 4501 H 408.753 -3.23817 6.16535 0
M  V30 4502 H 406.38 -3.24226 6.87591 0
M  V30 4503 N 407.956 -0.998596 -1.21925 0
M  V30 4504 C 409.181 -0.696015 -1.95372 0
M  V30 4505 C 409.606 0.733826 -1.73195 0
M  V30 4506 O 408.964 1.50242 -1.01474 0
M  V30 4507 C 409.012 -1.01466 -3.4603 0
M  V30 4508 O 408.116 -0.116415 -4.12236 0
M  V30 4509 H 407.457 -0.259938 -0.611006 0
M  V30 4510 H 409.987 -1.33711 -1.54863 0
M  V30 4511 H 409.997 -0.958855 -3.96573 0
M  V30 4512 H 408.672 -2.05653 -3.61497 0
M  V30 4513 H 407.249 -0.228193 -3.72201 0
M  V30 4514 N 409.434 1.37368 -0.772513 0
M  V30 4515 C 410.384 2.27613 -0.132823 0
M  V30 4516 C 411.368 1.46138 0.673247 0
M  V30 4517 O 412.56 1.68686 0.536095 0
M  V30 4518 C 409.689 3.35122 0.744864 0
M  V30 4519 C 408.775 4.24044 -0.0690771 0
M  V30 4520 N 409.166 4.93355 -1.1151 0
M  V30 4521 C 407.464 4.45731 0.154782 0
M  V30 4522 C 408.165 5.59 -1.60917 0
M  V30 4523 N 407.141 5.35737 -0.921222 0
M  V30 4524 H 410.943 2.78675 -0.933681 0
M  V30 4525 H 408.457 1.50494 -0.610342 0
M  V30 4526 H 410.454 3.98683 1.21892 0
M  V30 4527 H 409.114 2.85616 1.54446 0
M  V30 4528 H 410.125 4.95785 -1.49726 0
M  V30 4529 H 406.802 4.07096 0.926224 0
M  V30 4530 H 408.192 6.24395 -2.48153 0
M  V30 4531 N 410.912 0.523116 1.48665 0
M  V30 4532 C 411.845 -0.290518 2.26343 0
M  V30 4533 C 412.823 -0.950913 1.31895 0
M  V30 4534 O 414.007 -0.976662 1.61225 0
M  V30 4535 C 411.134 -1.41088 3.07915 0
M  V30 4536 C 410.18 -0.862597 4.17686 0
M  V30 4537 S 411.013 0.264135 5.34848 0
M  V30 4538 C 412.169 -0.858864 6.19979 0
M  V30 4539 H 412.402 0.368726 2.95005 0
M  V30 4540 H 409.935 0.30878 1.51281 0
M  V30 4541 H 411.893 -2.0527 3.55492 0
M  V30 4542 H 410.554 -2.04182 2.38681 0
M  V30 4543 H 409.747 -1.70287 4.74361 0
M  V30 4544 H 409.349 -0.297595 3.72814 0
M  V30 4545 H 411.641 -1.7591 6.54264 0
M  V30 4546 H 412.584 -0.330244 7.07329 0
M  V30 4547 H 412.992 -1.13617 5.52948 0
M  V30 4548 N 412.39 -1.55475 0.257931 0
M  V30 4549 C 413.32 -2.24815 -0.630912 0
M  V30 4550 C 414.301 -1.23224 -1.17259 0
M  V30 4551 O 415.486 -1.51904 -1.20991 0
M  V30 4552 C 412.616 -2.95609 -1.82298 0
M  V30 4553 C 411.57 -4.03982 -1.41359 0
M  V30 4554 C 410.896 -4.6226 -2.68738 0
M  V30 4555 C 412.196 -5.19109 -0.57648 0
M  V30 4556 H 413.89 -2.99354 -0.0526878 0
M  V30 4557 H 411.436 -1.4398 -0.023901 0
M  V30 4558 H 413.389 -3.42822 -2.45054 0
M  V30 4559 H 412.113 -2.18577 -2.42676 0
M  V30 4560 H 410.772 -3.57555 -0.809324 0
M  V30 4561 H 410.42 -3.81915 -3.27338 0
M  V30 4562 H 410.12 -5.35424 -2.42065 0
M  V30 4563 H 411.644 -5.12212 -3.32372 0
M  V30 4564 H 413.058 -5.62479 -1.10861 0
M  V30 4565 H 411.455 -5.98729 -0.405351 0
M  V30 4566 H 412.525 -4.83174 0.408776 0
M  V30 4567 N 413.868 0.0150385 -1.57593 0
M  V30 4568 C 415.117 0.702115 -1.89085 0
M  V30 4569 C 415.43 1.75764 -0.858277 0
M  V30 4570 O 416.636 2.49829 -1.0629 0
M  V30 4571 C 415.092 1.29992 -3.35604 0
M  V30 4572 C 414.7 0.280007 -4.47124 0
M  V30 4573 C 416.444 1.96606 -3.76227 0
M  V30 4574 C 414.351 0.886949 -5.84711 0
M  V30 4575 H 413.281 0.265997 -0.705522 0
M  V30 4576 H 415.932 -0.0430408 -1.8345 0
M  V30 4577 H 414.314 2.09525 -3.36029 0
M  V30 4578 H 415.488 -0.489631 -4.58191 0
M  V30 4579 H 413.803 -0.284835 -4.15425 0
M  V30 4580 H 416.4 2.42893 -4.76347 0
M  V30 4581 H 416.743 2.79024 -3.08952 0
M  V30 4582 H 417.276 1.23828 -3.78036 0
M  V30 4583 H 414.015 0.101876 -6.55421 0
M  V30 4584 H 413.535 1.6261 -5.77337 0
M  V30 4585 H 415.214 1.39011 -6.3189 0
M  V30 4586 N 415.346 1.54954 0.287554 0
M  V30 4587 C 416.586 1.76617 1.02887 0
M  V30 4588 C 416.95 0.547759 1.84021 0
M  V30 4589 O 418.151 0.642365 2.61012 0
M  V30 4590 C 416.422 3.02717 1.89993 0
M  V30 4591 S 417.981 3.45438 2.70588 0
M  V30 4592 H 414.799 0.6207 0.346775 0
M  V30 4593 H 417.401 1.93172 0.30082 0
M  V30 4594 H 416.105 3.89503 1.29287 0
M  V30 4595 H 415.636 2.88787 2.67144 0
M  V30 4596 H 417.651 3.03566 3.92508 0
M  V30 4597 N 416.824 -0.551391 1.4764 0
M  V30 4598 C 418.24 -0.877887 1.33287 0
M  V30 4599 C 418.44 -1.98817 0.327721 0
M  V30 4600 O 417.496 -2.51171 -0.258695 0
M  V30 4601 C 418.809 -1.26563 2.72768 0
M  V30 4602 C 420.357 -1.37673 2.81097 0
M  V30 4603 C 420.832 -1.79799 4.21232 0
M  V30 4604 N 422.323 -1.8694 4.23802 0
M  V30 4605 C 423.058 -2.20876 5.29151 0
M  V30 4606 N 422.554 -2.53386 6.448 0
M  V30 4607 N 424.347 -2.217 5.16532 0
M  V30 4608 H 416.498 0.18153 2.11623 0
M  V30 4609 H 418.761 0.0185514 0.947818 0
M  V30 4610 H 418.467 -0.523591 3.47781 0
M  V30 4611 H 418.341 -2.22052 3.04915 0
M  V30 4612 H 420.728 -2.10956 2.06353 0
M  V30 4613 H 420.809 -0.40357 2.52596 0
M  V30 4614 H 420.453 -1.07083 4.96483 0
M  V30 4615 H 420.383 -2.78128 4.4716 0
M  V30 4616 H 422.874 -1.64179 3.40373 0
M  V30 4617 H 423.187 -2.78325 7.20941 0
M  V30 4618 H 421.532 -2.50953 6.48111 0
M  V30 4619 H 424.723 -1.95745 4.25207 0
M  V30 4620 H 424.896 -2.47818 5.98741 0
M  V30 4621 N 418.302 -1.35869 -0.798587 0
M  V30 4622 C 419.265 -1.29307 -1.89242 0
M  V30 4623 C 420.265 -0.202747 -1.59517 0
M  V30 4624 O 421.455 -0.456957 -1.681 0
M  V30 4625 C 418.587 -1.00229 -3.25833 0
M  V30 4626 H 419.78 -2.26576 -1.96478 0
M  V30 4627 H 417.333 -1.20509 -0.995358 0
M  V30 4628 H 418.068 -0.033801 -3.24282 0
M  V30 4629 H 417.853 -1.79121 -3.48795 0
M  V30 4630 H 419.343 -0.98219 -4.05885 0
M  V30 4631 N 419.78 1.02168 -1.19998 0
M  V30 4632 C 421.028 1.75338 -1.00504 0
M  V30 4633 C 421.349 1.89387 0.464506 0
M  V30 4634 O 420.619 1.43268 1.33608 0
M  V30 4635 H 419.199 0.649564 -0.368885 0
M  V30 4636 H 421.861 1.23205 -1.51018 0
M  V30 4637 H 420.957 2.75892 -1.45912 0
M  V30 4638 N 421.258 1.00505 1.21394 0
M  V30 4639 C 422.221 0.570459 2.21987 0
M  V30 4640 C 423.221 -0.353211 1.56873 0
M  V30 4641 O 424.411 -0.14349 1.73608 0
M  V30 4642 C 421.543 -0.168555 3.40483 0
M  V30 4643 H 422.736 1.46021 2.6195 0
M  V30 4644 H 420.289 0.793565 1.34656 0
M  V30 4645 H 421.024 -1.07374 3.06009 0
M  V30 4646 H 420.809 0.494823 3.88965 0
M  V30 4647 H 422.299 -0.460362 4.15055 0
M  V30 4648 N 422.737 -1.36956 0.779787 0
M  V30 4649 C 424.148 -1.82094 0.412156 0
M  V30 4650 C 424.499 -1.64926 -1.06273 0
M  V30 4651 O 423.624 -1.16483 -1.82375 0
M  V30 4652 C 424.219 -3.3059 0.741319 0
M  V30 4653 C 422.778 -3.73974 0.426641 0
M  V30 4654 C 421.925 -2.59368 0.980987 0
M  V30 4655 H 424.876 -1.25314 0.973758 0
M  V30 4656 H 424.897 -3.80489 0.028887 0
M  V30 4657 H 424.409 -3.43054 1.81482 0
M  V30 4658 H 422.51 -3.67076 -0.639215 0
M  V30 4659 H 422.623 -4.69778 0.940515 0
M  V30 4660 H 420.987 -2.51463 0.404757 0
M  V30 4661 H 421.77 -2.74621 2.06005 0
M  V30 4662 N 424.215 -0.530993 -1.48385 0
M  V30 4663 C 425.178 0.220497 -2.28137 0
M  V30 4664 C 426.178 0.866851 -1.35434 0
M  V30 4665 O 427.368 0.726746 -1.58316 0
M  V30 4666 C 424.5 1.31921 -3.1434 0
M  V30 4667 H 425.693 -0.479714 -2.96038 0
M  V30 4668 H 423.246 -0.286968 -1.53643 0
M  V30 4669 H 423.981 2.05264 -2.51072 0
M  V30 4670 H 423.766 0.86085 -3.82533 0
M  V30 4671 H 425.256 1.84776 -3.74497 0
M  V30 4672 N 425.693 1.55336 -0.266172 0
M  V30 4673 C 426.918 2.04258 0.359661 0
M  V30 4674 C 427.343 1.14359 1.49344 0
M  V30 4675 O 426.701 0.140369 1.80756 0
M  V30 4676 C 426.749 3.50997 0.826635 0
M  V30 4677 O 425.853 3.64204 1.93466 0
M  V30 4678 H 425.194 0.659668 0.075727 0
M  V30 4679 H 427.724 2.00694 -0.39786 0
M  V30 4680 H 427.734 3.9219 1.12477 0
M  V30 4681 H 426.409 4.159 -0.00293032 0
M  V30 4682 H 424.986 3.34913 1.63974 0
M  V30 4683 N 427.171 -0.0066808 1.57599 0
M  V30 4684 C 428.587 -0.36267 1.55425 0
M  V30 4685 C 428.787 -1.75209 0.995187 0
M  V30 4686 O 427.843 -2.44616 0.626058 0
M  V30 4687 C 429.156 -0.244017 2.99708 0
M  V30 4688 C 430.704 -0.319451 3.11366 0
M  V30 4689 C 431.179 -0.229998 4.57422 0
M  V30 4690 N 432.67 -0.288105 4.62303 0
M  V30 4691 C 433.405 -0.242127 5.72889 0
M  V30 4692 N 432.901 -0.147133 6.92644 0
M  V30 4693 N 434.694 -0.293502 5.61333 0
M  V30 4694 H 426.845 0.902314 1.92281 0
M  V30 4695 H 429.108 0.34525 0.882896 0
M  V30 4696 H 428.814 0.711678 3.44424 0
M  V30 4697 H 428.688 -1.02877 3.629 0
M  V30 4698 H 431.075 -1.26559 2.66584 0
M  V30 4699 H 431.156 0.495055 2.50964 0
M  V30 4700 H 430.8 0.712566 5.02877 0
M  V30 4701 H 430.73 -1.0629 5.15761 0
M  V30 4702 H 433.221 -0.363126 3.76151 0
M  V30 4703 H 433.534 -0.117763 7.7271 0
M  V30 4704 H 431.879 -0.112857 6.94908 0
M  V30 4705 H 435.07 -0.365864 4.66668 0
M  V30 4706 H 435.243 -0.254204 6.47501 0
M  V30 4707 N 428.649 -1.55105 -0.279332 0
M  V30 4708 C 429.599 -1.83937 -1.34727 0
M  V30 4709 C 430.583 -0.69785 -1.44979 0
M  V30 4710 O 431.775 -0.95904 -1.48766 0
M  V30 4711 C 428.904 -2.1092 -2.70864 0
M  V30 4712 C 427.99 -3.31314 -2.64748 0
M  V30 4713 N 428.381 -4.51371 -2.2825 0
M  V30 4714 C 426.679 -3.33777 -2.95819 0
M  V30 4715 C 427.38 -5.33447 -2.31969 0
M  V30 4716 N 426.356 -4.71697 -2.7019 0
M  V30 4717 H 430.158 -2.74309 -1.05506 0
M  V30 4718 H 427.672 -1.54896 -0.487959 0
M  V30 4719 H 429.669 -2.2973 -3.47893 0
M  V30 4720 H 428.329 -1.21828 -3.00979 0
M  V30 4721 H 429.34 -4.77584 -2.00335 0
M  V30 4722 H 426.017 -2.54858 -3.30687 0
M  V30 4723 H 427.407 -6.39424 -2.06365 0
M  V30 4724 N 430.127 0.543554 -1.4793 0
M  V30 4725 C 431.09 1.63156 -1.60975 0
M  V30 4726 C 432.09 1.53346 -0.483899 0
M  V30 4727 O 433.28 1.5726 -0.749339 0
M  V30 4728 C 430.412 3.02743 -1.56716 0
M  V30 4729 H 431.605 1.52934 -2.57975 0
M  V30 4730 H 429.158 0.764557 -1.36324 0
M  V30 4731 H 429.893 3.18484 -0.611418 0
M  V30 4732 H 429.678 3.11272 -2.38438 0
M  V30 4733 H 431.168 3.81871 -1.6901 0
M  V30 4734 N 431.605 1.3629 0.791371 0
M  V30 4735 C 432.853 1.30154 1.5461 0
M  V30 4736 C 433.174 -0.119409 1.94634 0
M  V30 4737 O 432.444 -1.05924 1.64794 0
M  V30 4738 H 431.024 0.478784 0.573389 0
M  V30 4739 H 433.686 1.70565 0.94306 0
M  V30 4740 H 432.782 1.92762 2.45457 0
M  V30 4741 N 433.083 -1.0153 1.20538 0
M  V30 4742 C 434.03 -2.10098 0.955383 0
M  V30 4743 C 435 -1.65702 -0.114878 0
M  V30 4744 O 436.185 -1.90776 0.0301118 0
M  V30 4745 C 433.325 -3.41236 0.514969 0
M  V30 4746 C 432.438 -3.99102 1.65353 0
M  V30 4747 C 431.573 -5.18306 1.16329 0
M  V30 4748 C 430.612 -5.68258 2.27485 0
M  V30 4749 N 429.749 -6.78722 1.7967 0
M  V30 4750 H 434.589 -2.30818 1.88486 0
M  V30 4751 H 432.126 -1.13189 0.939499 0
M  V30 4752 H 434.084 -4.16504 0.240935 0
M  V30 4753 H 432.714 -3.20585 -0.377512 0
M  V30 4754 H 431.766 -3.20918 2.04245 0
M  V30 4755 H 433.078 -4.32177 2.49047 0
M  V30 4756 H 432.232 -6.00782 0.845302 0
M  V30 4757 H 430.971 -4.86799 0.296254 0
M  V30 4758 H 429.976 -4.84385 2.60099 0
M  V30 4759 H 431.201 -6.01798 3.14667 0
M  V30 4760 H 429.147 -6.49042 0.95295 0
M  V30 4761 H 429.064 -7.10996 2.56944 0
M  V30 4762 H 430.332 -7.64759 1.50875 0
M  V30 4763 N 434.561 -1.01147 -1.20859 0
M  V30 4764 C 435.807 -0.698899 -1.90377 0
M  V30 4765 C 436.14 0.76904 -1.78324 0
M  V30 4766 O 435.415 1.55817 -1.16409 0
M  V30 4767 C 435.698 -1.12878 -3.41951 0
M  V30 4768 C 435.551 -2.65665 -3.62963 0
M  V30 4769 C 436.87 -0.696114 -4.3456 0
M  V30 4770 H 433.989 -0.255372 -0.691342 0
M  V30 4771 H 436.631 -1.25831 -1.42361 0
M  V30 4772 H 434.781 -0.652827 -3.82976 0
M  V30 4773 H 436.453 -3.21074 -3.31224 0
M  V30 4774 H 434.696 -3.06878 -3.06608 0
M  V30 4775 H 435.367 -2.90797 -4.69192 0
M  V30 4776 H 437.843 -1.10521 -4.01154 0
M  V30 4777 H 436.719 -1.025 -5.39245 0
M  V30 4778 H 436.98 0.402465 -4.40264 0
M  V30 4779 N 436.039 1.36541 -0.78704 0
M  V30 4780 C 437.285 1.99599 -0.358872 0
M  V30 4781 C 437.618 1.62323 1.06606 0
M  V30 4782 O 436.893 0.876858 1.73613 0
M  V30 4783 C 437.176 3.56327 -0.519944 0
M  V30 4784 C 437.029 4.03464 -1.98839 0
M  V30 4785 C 438.348 4.4005 0.0664737 0
M  V30 4786 H 435.467 0.725107 -0.131869 0
M  V30 4787 H 438.109 1.6199 -0.992936 0
M  V30 4788 H 436.259 3.88495 0.0198321 0
M  V30 4789 H 437.931 3.81793 -2.58905 0
M  V30 4790 H 436.174 3.55092 -2.49183 0
M  V30 4791 H 436.845 5.12439 -2.05207 0
M  V30 4792 H 439.321 4.14228 -0.394267 0
M  V30 4793 H 438.197 5.48847 -0.0762682 0
M  V30 4794 H 438.458 4.26655 1.15835 0
M  V30 4795 N 437.518 0.538854 1.48102 0
M  V30 4796 C 438.45 -0.256278 2.27763 0
M  V30 4797 C 439.463 -0.89633 1.35904 0
M  V30 4798 O 440.652 -0.773275 1.60881 0
M  V30 4799 C 437.752 -1.37896 3.09577 0
M  V30 4800 C 436.925 -0.839159 4.29275 0
M  V30 4801 C 435.984 -1.84405 4.9283 0
M  V30 4802 O 435.01 -1.39746 5.51779 0
M  V30 4803 N 436.212 -3.17666 4.85869 0
M  V30 4804 H 438.977 0.426968 2.96643 0
M  V30 4805 H 436.538 0.373747 1.57527 0
M  V30 4806 H 438.53 -2.04955 3.48963 0
M  V30 4807 H 437.1 -1.96572 2.4306 0
M  V30 4808 H 436.32 0.00769287 3.94199 0
M  V30 4809 H 437.608 -0.457548 5.06739 0
M  V30 4810 H 437.006 -3.56609 4.39143 0
M  V30 4811 H 435.563 -3.80334 5.29329 0
M  V30 4812 N 438.996 -1.55193 0.274407 0
M  V30 4813 C 439.943 -2.225 -0.613374 0
M  V30 4814 C 440.913 -1.19823 -1.15029 0
M  V30 4815 O 442.098 -1.48362 -1.19973 0
M  V30 4816 C 439.238 -2.94927 -1.79199 0
M  V30 4817 C 438.351 -4.12322 -1.28899 0
M  V30 4818 C 437.486 -4.72394 -2.42934 0
M  V30 4819 C 436.525 -5.81984 -1.89634 0
M  V30 4820 N 435.662 -6.36123 -2.9714 0
M  V30 4821 H 440.502 -2.97982 -0.032756 0
M  V30 4822 H 438.039 -1.47099 -0.00440146 0
M  V30 4823 H 439.997 -3.35134 -2.48478 0
M  V30 4824 H 438.627 -2.2187 -2.34465 0
M  V30 4825 H 437.679 -3.7724 -0.489327 0
M  V30 4826 H 438.991 -4.91355 -0.858587 0
M  V30 4827 H 438.145 -5.15317 -3.20208 0
M  V30 4828 H 436.884 -3.92636 -2.8929 0
M  V30 4829 H 435.889 -5.38511 -1.1084 0
M  V30 4830 H 437.114 -6.6361 -1.44215 0
M  V30 4831 H 435.06 -5.59259 -3.42878 0
M  V30 4832 H 434.977 -7.10427 -2.58515 0
M  V30 4833 H 436.245 -6.83704 -3.74391 0
M  V30 4834 N 440.474 -0.00167713 -1.576 0
M  V30 4835 C 441.714 0.687302 -1.92498 0
M  V30 4836 C 442.078 1.70844 -0.876144 0
M  V30 4837 O 443.279 2.44792 -1.11043 0
M  V30 4838 C 441.55 1.31217 -3.32441 0
M  V30 4839 S 443.109 2.02604 -3.89226 0
M  V30 4840 H 439.927 0.226985 -0.673794 0
M  V30 4841 H 442.529 -0.0587666 -1.95412 0
M  V30 4842 H 441.233 0.556164 -4.06614 0
M  V30 4843 H 440.764 2.09613 -3.32905 0
M  V30 4844 H 442.779 3.30137 -3.70438 0
M  V30 4845 N 441.952 1.55251 0.271103 0
M  V30 4846 C 442.899 1.88261 1.33516 0
M  V30 4847 C 443.869 0.734296 1.48988 0
M  V30 4848 O 445.054 0.985741 1.63364 0
M  V30 4849 C 442.194 2.16168 2.69008 0
M  V30 4850 C 441.307 3.43678 2.61743 0
M  V30 4851 C 440.442 3.61276 3.89427 0
M  V30 4852 C 439.481 4.82472 3.7668 0
M  V30 4853 N 438.618 4.96717 4.96202 0
M  V30 4854 H 443.458 2.79015 1.04665 0
M  V30 4855 H 440.995 1.38137 0.505618 0
M  V30 4856 H 442.953 2.30349 3.47844 0
M  V30 4857 H 441.583 1.28646 2.96057 0
M  V30 4858 H 440.635 3.37959 1.74607 0
M  V30 4859 H 441.947 4.3265 2.48224 0
M  V30 4860 H 441.101 3.75284 4.76704 0
M  V30 4861 H 439.84 2.70492 4.05814 0
M  V30 4862 H 438.845 4.68465 2.87786 0
M  V30 4863 H 440.07 5.74692 3.61809 0
M  V30 4864 H 438.016 4.08865 5.12997 0
M  V30 4865 H 437.933 5.79738 4.85222 0
M  V30 4866 H 439.201 5.15113 5.85046 0
M  V30 4867 N 443.43 -0.535701 1.48216 0
M  V30 4868 C 444.679 -1.28828 1.55197 0
M  V30 4869 C 444.992 -1.94263 0.228278 0
M  V30 4870 O 446.198 -2.70927 0.176278 0
M  V30 4871 C 444.654 -2.33727 2.73678 0
M  V30 4872 C 444.262 -1.74386 4.12666 0
M  V30 4873 C 446.006 -3.1003 2.89968 0
M  V30 4874 C 443.913 -2.77192 5.22416 0
M  V30 4875 H 442.843 -0.484484 0.577747 0
M  V30 4876 H 445.494 -0.56646 1.74538 0
M  V30 4877 H 443.876 -3.08919 2.4776 0
M  V30 4878 H 445.05 -1.05421 4.48579 0
M  V30 4879 H 443.365 -1.10595 4.01445 0
M  V30 4880 H 445.962 -3.86842 3.6913 0
M  V30 4881 H 446.305 -3.65542 1.9921 0
M  V30 4882 H 446.838 -2.41952 3.15759 0
M  V30 4883 H 443.577 -2.26507 6.15122 0
M  V30 4884 H 443.097 -3.44502 4.90998 0
M  V30 4885 H 444.776 -3.40285 5.50286 0
M  V30 4886 N 444.908 -1.36708 -0.784132 0
M  V30 4887 C 445.84 -1.27333 -1.90575 0
M  V30 4888 C 446.853 -0.191706 -1.61667 0
M  V30 4889 O 448.042 -0.446854 -1.72816 0
M  V30 4890 C 445.142 -0.943177 -3.25511 0
M  V30 4891 C 444.315 -2.12776 -3.82158 0
M  V30 4892 C 443.374 -1.76983 -4.95544 0
M  V30 4893 O 442.4 -2.49134 -5.11782 0
M  V30 4894 N 443.602 -0.706624 -5.76183 0
M  V30 4895 H 446.367 -2.23974 -1.99138 0
M  V30 4896 H 443.928 -1.30171 -0.962656 0
M  V30 4897 H 445.92 -0.684799 -3.98864 0
M  V30 4898 H 444.49 -0.0657333 -3.12531 0
M  V30 4899 H 443.71 -2.54863 -3.0073 0
M  V30 4900 H 444.998 -2.91904 -4.16737 0
M  V30 4901 H 444.396 -0.107643 -5.65598 0
M  V30 4902 H 442.953 -0.50808 -6.49817 0
M  V30 4903 N 446.386 1.0089 -1.21074 0
M  V30 4904 C 447.333 2.09588 -0.966512 0
M  V30 4905 C 448.303 1.65761 0.106089 0
M  V30 4906 O 449.488 1.90758 -0.0402287 0
M  V30 4907 C 446.628 3.40958 -0.533058 0
M  V30 4908 C 445.741 3.9822 -1.67467 0
M  V30 4909 C 444.876 5.17682 -1.19076 0
M  V30 4910 C 443.915 5.67043 -2.30496 0
M  V30 4911 N 443.052 6.77759 -1.83267 0
M  V30 4912 H 447.892 2.29815 -1.89708 0
M  V30 4913 H 445.429 1.12689 -0.945489 0
M  V30 4914 H 447.387 4.1637 -0.263019 0
M  V30 4915 H 446.017 3.20781 0.360505 0
M  V30 4916 H 445.069 3.1983 -2.05944 0
M  V30 4917 H 446.381 4.3085 -2.51336 0
M  V30 4918 H 445.535 6.00326 -0.877151 0
M  V30 4919 H 444.274 4.86635 -0.322066 0
M  V30 4920 H 443.279 4.82999 -2.62664 0
M  V30 4921 H 444.504 6.00121 -3.17855 0
M  V30 4922 H 442.45 6.48527 -0.987356 0
M  V30 4923 H 442.367 7.09624 -2.60711 0
M  V30 4924 H 443.635 7.63949 -1.54928 0
M  V30 4925 N 447.864 1.01787 1.20321 0
M  V30 4926 C 449.11 0.708985 1.90003 0
M  V30 4927 C 449.443 -0.759572 1.78729 0
M  V30 4928 O 448.718 -1.55198 1.17234 0
M  V30 4929 C 449.001 1.1469 3.41348 0
M  V30 4930 C 448.854 2.67586 3.61549 0
M  V30 4931 C 450.173 0.71915 4.34185 0
M  V30 4932 H 447.292 0.259034 0.689978 0
M  V30 4933 H 449.934 1.26584 1.41692 0
M  V30 4934 H 448.084 0.673128 3.82624 0
M  V30 4935 H 449.756 3.22826 3.29517 0
M  V30 4936 H 447.999 3.085 3.04976 0
M  V30 4937 H 448.67 2.93281 4.67643 0
M  V30 4938 H 451.146 1.12647 4.00562 0
M  V30 4939 H 450.022 1.05358 5.38694 0
M  V30 4940 H 450.283 -0.379111 4.40472 0
M  V30 4941 N 449.342 -1.36122 0.79427 0
M  V30 4942 C 450.758 -1.5232 0.476525 0
M  V30 4943 C 450.958 -1.74685 -1.00436 0
M  V30 4944 O 450.014 -1.78115 -1.78973 0
M  V30 4945 C 451.327 -2.70607 1.31119 0
M  V30 4946 C 452.875 -2.8448 1.30537 0
M  V30 4947 C 453.35 -4.05778 2.12387 0
M  V30 4948 N 454.841 -4.12933 2.09859 0
M  V30 4949 C 455.576 -5.05876 2.69957 0
M  V30 4950 N 455.072 -6.04232 3.38934 0
M  V30 4951 N 456.865 -4.98528 2.59665 0
M  V30 4952 H 449.016 -1.1986 1.75349 0
M  V30 4953 H 451.279 -0.585418 0.745647 0
M  V30 4954 H 450.985 -2.60619 2.36158 0
M  V30 4955 H 450.859 -3.64888 0.955843 0
M  V30 4956 H 453.246 -2.93927 0.262876 0
M  V30 4957 H 453.327 -1.91093 1.70051 0
M  V30 4958 H 452.971 -3.97092 3.1667 0
M  V30 4959 H 452.901 -4.98323 1.70242 0
M  V30 4960 H 455.392 -3.42515 1.59662 0
M  V30 4961 H 455.705 -6.71724 3.82109 0
M  V30 4962 H 454.05 -6.04443 3.43036 0
M  V30 4963 H 457.241 -4.20641 2.05375 0
M  V30 4964 H 457.414 -5.70773 3.06793 0
M  V30 4965 N 450.82 -0.546701 -1.47814 0
M  V30 4966 C 452.067 -0.0187407 -2.02491 0
M  V30 4967 C 452.395 1.32685 -1.42215 0
M  V30 4968 O 451.65 1.87413 -0.563454 0
M  V30 4969 C 451.949 0.134869 -3.57145 0
M  V30 4970 C 451.615 -1.13849 -4.3629 0
M  V30 4971 C 450.277 -1.48743 -4.57634 0
M  V30 4972 C 452.629 -1.98277 -4.82012 0
M  V30 4973 C 449.957 -2.67932 -5.21948 0
M  V30 4974 C 452.309 -3.16659 -5.4764 0
M  V30 4975 C 450.973 -3.51879 -5.67219 0
M  V30 4976 H 450.243 -0.0068577 -0.740968 0
M  V30 4977 H 452.89 -0.716097 -1.77607 0
M  V30 4978 H 451.195 0.915118 -3.80963 0
M  V30 4979 H 452.892 0.558556 -3.97091 0
M  V30 4980 H 449.482 -0.856767 -4.19949 0
M  V30 4981 H 453.666 -1.72628 -4.6531 0
M  V30 4982 H 448.922 -2.95401 -5.35302 0
M  V30 4983 H 453.096 -3.82374 -5.82033 0
M  V30 4984 H 450.723 -4.44331 -6.16825 0
M  V30 4985 N 452.299 1.55045 -0.282633 0
M  V30 4986 C 453.231 2.2023 0.634924 0
M  V30 4987 C 454.244 1.18931 1.11172 0
M  V30 4988 O 455.433 1.4562 1.03233 0
M  V30 4989 C 452.533 2.82041 1.87899 0
M  V30 4990 C 451.706 4.091 1.54776 0
M  V30 4991 C 450.765 4.54887 2.64507 0
M  V30 4992 O 449.791 5.20496 2.30375 0
M  V30 4993 N 450.993 4.25659 3.94709 0
M  V30 4994 H 453.758 2.99601 0.0769811 0
M  V30 4995 H 451.319 1.61565 -0.104048 0
M  V30 4996 H 453.311 3.09613 2.60619 0
M  V30 4997 H 451.881 2.06618 2.3458 0
M  V30 4998 H 451.101 3.88736 0.654049 0
M  V30 4999 H 452.389 4.9187 1.30158 0
M  V30 5000 H 451.787 3.7306 4.25256 0
M  V30 5001 H 450.344 4.57984 4.63782 0
M  V30 5002 N 453.777 0.010035 1.57597 0
M  V30 5003 C 455.025 -0.671371 1.90623 0
M  V30 5004 C 455.346 -1.73753 0.885151 0
M  V30 5005 O 454.616 -1.95752 -0.0760611 0
M  V30 5006 H 453.196 -0.250968 0.703579 0
M  V30 5007 H 455.858 0.0533325 1.94827 0
M  V30 5008 H 454.954 -1.13626 2.90681 0
M  V30 5009 N 455.255 -1.55392 -0.262866 0
M  V30 5010 C 456.202 -1.88966 -1.32516 0
M  V30 5011 C 457.172 -0.742187 -1.48596 0
M  V30 5012 O 458.357 -0.99439 -1.62839 0
M  V30 5013 C 455.497 -2.17592 -2.67858 0
M  V30 5014 C 454.61 -3.45061 -2.59917 0
M  V30 5015 C 453.745 -3.63336 -3.87505 0
M  V30 5016 C 452.784 -4.84462 -3.74116 0
M  V30 5017 N 451.921 -4.99342 -4.93561 0
M  V30 5018 H 456.761 -2.79566 -1.03184 0
M  V30 5019 H 454.298 -1.38404 -0.498285 0
M  V30 5020 H 456.256 -2.3219 -3.46617 0
M  V30 5021 H 454.886 -1.30215 -2.95371 0
M  V30 5022 H 453.938 -3.38881 -1.72812 0
M  V30 5023 H 455.25 -4.3396 -2.45926 0
M  V30 5024 H 454.404 -3.77807 -4.74707 0
M  V30 5025 H 453.143 -2.72641 -4.04374 0
M  V30 5026 H 452.148 -4.69985 -2.85297 0
M  V30 5027 H 453.373 -5.76603 -3.58757 0
M  V30 5028 H 451.319 -4.1158 -5.10821 0
M  V30 5029 H 451.236 -5.82303 -4.82141 0
M  V30 5030 H 452.504 -5.18208 -5.82306 0
M  V30 5031 N 456.733 0.527833 -1.48498 0
M  V30 5032 C 457.973 1.29401 -1.58224 0
M  V30 5033 C 458.337 1.90348 -0.251327 0
M  V30 5034 O 459.538 2.67868 -0.223588 0
M  V30 5035 C 457.809 2.35266 -2.69044 0
M  V30 5036 S 459.368 3.2158 -2.98549 0
M  V30 5037 H 456.186 0.440138 -0.558391 0
M  V30 5038 H 458.788 0.601079 -1.8603 0
M  V30 5039 H 457.492 1.88975 -3.64303 0
M  V30 5040 H 457.023 3.09263 -2.43146 0
M  V30 5041 H 459.038 4.35391 -2.38011 0
M  V30 5042 N 458.211 1.37122 0.776871 0
M  V30 5043 C 459.622 1.28667 1.35284 0
M  V30 5044 C 459.973 -0.0680035 1.96082 0
M  V30 5045 O 459.098 -0.969743 1.93455 0
M  V30 5046 C 459.693 2.32997 2.45963 0
M  V30 5047 C 458.252 2.28191 2.99342 0
M  V30 5048 C 457.399 2.17101 1.72517 0
M  V30 5049 H 460.35 1.47819 0.577527 0
M  V30 5050 H 460.371 1.97366 3.2531 0
M  V30 5051 H 459.883 3.3158 2.01684 0
M  V30 5052 H 457.984 1.33115 3.4801 0
M  V30 5053 H 458.097 3.21397 3.55304 0
M  V30 5054 H 456.461 1.63562 1.95242 0
M  V30 5055 H 457.244 3.17591 1.30348 0
M  V30 5056 N 459.689 -1.00246 1.21608 0
M  V30 5057 C 461.1 -1.55511 1.03312 0
M  V30 5058 C 461.451 -1.91946 -0.406332 0
M  V30 5059 O 460.576 -1.73753 -1.28992 0
M  V30 5060 C 461.171 -2.82576 1.86913 0
M  V30 5061 C 459.73 -3.34318 1.72941 0
M  V30 5062 C 458.877 -2.07487 1.83968 0
M  V30 5063 H 461.828 -0.824638 1.35593 0
M  V30 5064 H 461.849 -3.54559 1.38087 0
M  V30 5065 H 461.361 -2.56026 2.91672 0
M  V30 5066 H 459.462 -3.65797 0.70877 0
M  V30 5067 H 459.575 -4.05566 2.55055 0
M  V30 5068 H 457.939 -2.20603 1.27304 0
M  V30 5069 H 458.722 -1.83346 2.9024 0
M  V30 5070 N 461.167 -1.02423 -1.1978 0
M  V30 5071 C 462.583 -0.740459 -1.41384 0
M  V30 5072 C 462.783 0.676827 -1.89793 0
M  V30 5073 O 461.839 1.4435 -2.0717 0
M  V30 5074 C 463.152 -1.77264 -2.42895 0
M  V30 5075 C 464.7 -1.79165 -2.56649 0
M  V30 5076 C 465.175 -2.8133 -3.6141 0
M  V30 5077 N 466.666 -2.80118 -3.68901 0
M  V30 5078 C 467.401 -3.55824 -4.49641 0
M  V30 5079 N 466.897 -4.41231 -5.34123 0
M  V30 5080 N 468.69 -3.44387 -4.44246 0
M  V30 5081 H 460.841 -1.9391 -0.866764 0
M  V30 5082 H 463.104 -0.838074 -0.443098 0
M  V30 5083 H 462.81 -2.7884 -2.14339 0
M  V30 5084 H 462.684 -1.59108 -3.42001 0
M  V30 5085 H 465.071 -0.782702 -2.84531 0
M  V30 5086 H 465.152 -2.01396 -1.57713 0
M  V30 5087 H 464.796 -3.82394 -3.34271 0
M  V30 5088 H 464.726 -2.56359 -4.59986 0
M  V30 5089 H 467.217 -2.1817 -3.08562 0
M  V30 5090 H 467.53 -4.95747 -5.92836 0
M  V30 5091 H 465.875 -4.45306 -5.33599 0
M  V30 5092 H 469.066 -2.7708 -3.77285 0
M  V30 5093 H 469.239 -4.0364 -5.06931 0
M  V30 5094 N 462.645 1.35699 -0.801477 0
M  V30 5095 C 463.87 2.03687 -0.390678 0
M  V30 5096 C 464.295 1.60015 0.988778 0
M  V30 5097 O 463.653 0.774357 1.63931 0
M  V30 5098 C 463.701 3.57439 -0.476404 0
M  V30 5099 O 462.805 4.09208 0.512106 0
M  V30 5100 H 462.146 0.64344 -0.163956 0
M  V30 5101 H 464.676 1.73403 -1.08594 0
M  V30 5102 H 464.686 4.06544 -0.344357 0
M  V30 5103 H 463.361 3.88576 -1.48262 0
M  V30 5104 H 461.938 3.7134 0.340721 0
M  V30 5105 N 464.123 0.554532 1.47522 0
M  V30 5106 C 465.539 0.214107 1.58157 0
M  V30 5107 C 465.739 -1.28331 1.55349 0
M  V30 5108 O 464.795 -2.06329 1.45549 0
M  V30 5109 C 466.108 0.838391 2.88776 0
M  V30 5110 C 467.656 0.809374 3.02354 0
M  V30 5111 C 468.131 1.41268 4.35669 0
M  V30 5112 N 469.622 1.37574 4.42298 0
M  V30 5113 C 470.357 1.8122 5.4401 0
M  V30 5114 N 469.853 2.3271 6.52547 0
M  V30 5115 N 471.646 1.72307 5.35039 0
M  V30 5116 H 463.797 1.52744 1.4759 0
M  V30 5117 H 466.06 0.636812 0.702264 0
M  V30 5118 H 465.766 1.89065 2.96559 0
M  V30 5119 H 465.64 0.329847 3.75755 0
M  V30 5120 H 468.027 -0.234187 2.94169 0
M  V30 5121 H 468.108 1.35565 2.16924 0
M  V30 5122 H 467.752 2.45529 4.4461 0
M  V30 5123 H 467.682 0.841871 5.19827 0
M  V30 5124 H 470.173 0.999081 3.64454 0
M  V30 5125 H 470.486 2.63944 7.26329 0
M  V30 5126 H 468.831 2.36719 6.53444 0
M  V30 5127 H 472.022 1.3186 4.49144 0
M  V30 5128 H 472.195 2.06641 6.14169 0
M  V30 5129 N 465.601 -1.54893 0.290851 0
M  V30 5130 C 466.85 -1.99111 -0.322113 0
M  V30 5131 C 467.163 -1.18283 -1.55784 0
M  V30 5132 O 468.369 -1.5272 -2.24475 0
M  V30 5133 C 466.825 -3.54442 -0.624438 0
M  V30 5134 C 466.433 -4.44066 0.592373 0
M  V30 5135 C 468.177 -4.07211 -1.19916 0
M  V30 5136 C 466.084 -5.90812 0.263762 0
M  V30 5137 H 465.014 -0.743712 -0.124133 0
M  V30 5138 H 467.665 -1.79132 0.39797 0
M  V30 5139 H 466.047 -3.70281 -1.40384 0
M  V30 5140 H 467.221 -4.39999 1.36886 0
M  V30 5141 H 465.536 -4.02015 1.08502 0
M  V30 5142 H 468.133 -5.14407 -1.45909 0
M  V30 5143 H 468.476 -3.57196 -2.13815 0
M  V30 5144 H 469.009 -3.94873 -0.481687 0
M  V30 5145 H 465.748 -6.44955 1.17105 0
M  V30 5146 H 465.268 -5.97911 -0.475655 0
M  V30 5147 H 466.947 -6.46852 -0.138354 0
M  V30 5148 N 467.08 -0.0183926 -1.57589 0
M  V30 5149 C 468.305 0.676634 -1.96052 0
M  V30 5150 C 468.73 1.6548 -0.894307 0
M  V30 5151 O 468.088 1.80712 0.145849 0
M  V30 5152 C 468.136 1.36872 -3.33614 0
M  V30 5153 O 467.24 2.48372 -3.29219 0
M  V30 5154 H 466.581 0.1786 -0.63953 0
M  V30 5155 H 469.111 -0.077056 -2.04455 0
M  V30 5156 H 469.121 1.72797 -3.69601 0
M  V30 5157 H 467.796 0.651636 -4.10763 0
M  V30 5158 H 466.373 2.14639 -3.04934 0
M  V30 5159 N 468.558 1.5553 0.254621 0
M  V30 5160 C 469.804 1.77262 0.985193 0
M  V30 5161 C 470.137 0.582286 1.85265 0
M  V30 5162 O 469.412 -0.419666 1.89919 0
M  V30 5163 C 469.695 3.0881 1.85225 0
M  V30 5164 C 469.548 4.38233 1.0135 0
M  V30 5165 C 470.867 3.3653 2.83612 0
M  V30 5166 H 467.986 0.644906 0.356742 0
M  V30 5167 H 470.628 1.88264 0.256236 0
M  V30 5168 H 468.778 2.99562 2.47376 0
M  V30 5169 H 470.45 4.59463 0.411269 0
M  V30 5170 H 468.693 4.32636 0.317574 0
M  V30 5171 H 469.364 5.26644 1.65379 0
M  V30 5172 H 471.84 3.45691 2.31596 0
M  V30 5173 H 470.716 4.29805 3.41407 0
M  V30 5174 H 470.977 2.57064 3.59681 0
M  V30 5175 N 470.036 -0.519951 1.48776 0
M  V30 5176 C 471.447 -1.10177 1.50725 0
M  V30 5177 C 471.798 -1.94153 0.282678 0
M  V30 5178 O 470.923 -2.07645 -0.609298 0
M  V30 5179 C 471.518 -2.00482 2.73116 0
M  V30 5180 C 470.077 -2.53862 2.77905 0
M  V30 5181 C 469.224 -1.31047 2.44381 0
M  V30 5182 H 472.175 -0.30473 1.55747 0
M  V30 5183 H 472.196 -2.8491 2.52203 0
M  V30 5184 H 471.708 -1.39335 3.62225 0
M  V30 5185 H 469.809 -3.18702 1.93029 0
M  V30 5186 H 469.922 -2.9231 3.79594 0
M  V30 5187 H 468.286 -1.62953 1.95751 0
M  V30 5188 H 469.069 -0.71637 3.35743 0
M  V30 5189 N 471.514 -1.37532 -0.769588 0
M  V30 5190 C 472.763 -1.32183 -1.5235 0
M  V30 5191 C 473.076 0.0906555 -1.9539 0
M  V30 5192 O 474.282 0.266628 -2.70188 0
M  V30 5193 C 472.738 -2.32029 -2.75119 0
M  V30 5194 C 472.346 -3.78816 -2.3917 0
M  V30 5195 C 474.09 -2.35694 -3.53056 0
M  V30 5196 C 471.997 -4.70388 -3.58453 0
M  V30 5197 H 470.927 -0.491275 -0.571984 0
M  V30 5198 H 473.578 -1.63004 -0.842739 0
M  V30 5199 H 471.96 -1.94229 -3.45096 0
M  V30 5200 H 473.134 -4.25466 -1.76962 0
M  V30 5201 H 471.449 -3.78117 -1.74402 0
M  V30 5202 H 474.046 -3.01312 -4.41718 0
M  V30 5203 H 474.389 -1.37117 -3.93071 0
M  V30 5204 H 474.922 -2.72212 -2.90078 0
M  V30 5205 H 471.661 -5.70102 -3.23518 0
M  V30 5206 H 471.181 -4.28442 -4.19758 0
M  V30 5207 H 472.86 -4.87628 -4.25239 0
M  V30 5208 N 472.992 0.995999 -1.22138 0
M  V30 5209 C 473.939 2.08551 -0.988687 0
M  V30 5210 C 474.909 1.65864 0.0885021 0
M  V30 5211 O 476.094 1.90704 -0.0604589 0
M  V30 5212 C 473.234 3.40374 -0.569191 0
M  V30 5213 C 472.347 3.96421 -1.71681 0
M  V30 5214 C 471.482 5.1639 -1.2456 0
M  V30 5215 C 470.521 5.64567 -2.36497 0
M  V30 5216 N 469.658 6.75777 -1.90445 0
M  V30 5217 H 474.498 2.2779 -1.92135 0
M  V30 5218 H 472.035 1.1168 -0.957388 0
M  V30 5219 H 473.993 4.16068 -0.307166 0
M  V30 5220 H 472.623 3.21145 0.326462 0
M  V30 5221 H 471.675 3.17628 -2.09324 0
M  V30 5222 H 472.987 4.2816 -2.55891 0
M  V30 5223 H 472.141 5.99362 -0.940774 0
M  V30 5224 H 470.88 4.86266 -0.373662 0
M  V30 5225 H 469.885 4.80185 -2.67772 0
M  V30 5226 H 471.11 5.96716 -3.24202 0
M  V30 5227 H 469.056 6.47443 -1.05609 0
M  V30 5228 H 468.973 7.06818 -2.68223 0
M  V30 5229 H 470.241 7.62262 -1.63022 0
M  V30 5230 N 474.47 1.03057 1.19235 0
M  V30 5231 C 475.886 0.747947 1.40989 0
M  V30 5232 C 476.086 -0.666752 1.90149 0
M  V30 5233 O 475.142 -1.43249 2.07933 0
M  V30 5234 C 476.455 1.7855 2.41951 0
M  V30 5235 C 478.003 1.80524 2.55695 0
M  V30 5236 C 478.478 2.83243 3.59913 0
M  V30 5237 N 479.969 2.8207 3.67411 0
M  V30 5238 C 480.704 3.58204 4.47747 0
M  V30 5239 N 480.2 4.44057 5.31775 0
M  V30 5240 N 481.993 3.46738 4.42413 0
M  V30 5241 H 474.144 1.94367 0.856468 0
M  V30 5242 H 476.407 0.840412 0.438647 0
M  V30 5243 H 476.113 2.79973 2.12857 0
M  V30 5244 H 475.987 1.6092 3.41152 0
M  V30 5245 H 478.374 0.79778 2.84112 0
M  V30 5246 H 478.455 2.02229 1.56643 0
M  V30 5247 H 478.099 3.84161 3.32239 0
M  V30 5248 H 478.029 2.58795 4.5862 0
M  V30 5249 H 480.52 2.19803 3.074 0
M  V30 5250 H 480.833 4.98884 5.90199 0
M  V30 5251 H 479.178 4.48129 5.3123 0
M  V30 5252 H 482.369 2.79077 3.75811 0
M  V30 5253 H 482.542 4.06322 5.04783 0
M  V30 5254 N 475.948 -1.35272 0.808662 0
M  V30 5255 C 476.896 -2.31663 0.208606 0
M  V30 5256 C 477.89 -1.56731 -0.642778 0
M  V30 5257 O 479.096 -1.71843 -0.53571 0
M  V30 5258 H 475.471 -0.750421 0.0486993 0
M  V30 5259 H 477.442 -2.79814 1.03666 0
M  V30 5260 C 476.191 -3.42008 -0.626573 0
M  V30 5261 H 475.514 -3.99795 0.0192103 0
M  V30 5262 H 476.954 -4.11727 -1.01278 0
M  V30 5263 C 475.413 -2.85226 -1.79298 0
M  V30 5264 O 475.943 -2.78945 -2.89055 0
M  V30 5265 N 474.149 -2.42245 -1.60516 0
M  V30 5266 H 473.696 -2.47554 -0.712375 0
M  V30 5267 H 473.654 -2.04603 -2.38715 0
M  V30 5268 N 477.426 -0.562348 -1.47226 0
M  V30 5269 C 478.389 0.172056 -2.28553 0
M  V30 5270 C 479.389 0.837928 -1.37242 0
M  V30 5271 O 480.579 0.693001 -1.59822 0
M  V30 5272 C 477.711 1.25223 -3.17068 0
M  V30 5273 H 478.904 -0.542401 -2.94954 0
M  V30 5274 H 476.457 -0.319493 -1.53 0
M  V30 5275 H 477.192 1.99892 -2.55369 0
M  V30 5276 H 476.977 0.779515 -3.84273 0
M  V30 5277 H 478.467 1.76791 -3.78332 0
M  V30 5278 N 478.904 1.54736 -0.299062 0
M  V30 5279 C 480.153 1.99279 0.311549 0
M  V30 5280 C 480.466 1.19107 1.55154 0
M  V30 5281 O 481.672 1.53908 2.23662 0
M  V30 5282 C 480.128 3.54768 0.605632 0
M  V30 5283 C 479.736 4.43746 -0.615914 0
M  V30 5284 C 481.48 4.07841 1.17754 0
M  V30 5285 C 479.387 5.90663 -0.29509 0
M  V30 5286 H 478.317 0.744359 0.120187 0
M  V30 5287 H 480.968 1.78919 -0.407464 0
M  V30 5288 H 479.35 3.71021 1.38419 0
M  V30 5289 H 480.524 4.39267 -1.39218 0
M  V30 5290 H 478.839 4.01434 -1.10633 0
M  V30 5291 H 481.436 5.15174 1.43179 0
M  V30 5292 H 481.779 3.58324 2.11918 0
M  V30 5293 H 482.312 3.95123 0.460739 0
M  V30 5294 H 479.051 6.44325 -1.20524 0
M  V30 5295 H 478.571 5.98155 0.44394 0
M  V30 5296 H 480.25 6.46916 0.104048 0
M  V30 5297 N 480.382 0.0267497 1.57577 0
M  V30 5298 C 481.312 -0.954308 2.13108 0
M  V30 5299 C 482.293 -1.34088 1.04663 0
M  V30 5300 O 483.478 -1.41992 1.32484 0
M  V30 5301 C 480.608 -2.23744 2.65624 0
M  V30 5302 C 479.562 -1.99168 3.78835 0
M  V30 5303 C 478.888 -3.33726 4.17769 0
M  V30 5304 C 480.188 -1.33277 5.0501 0
M  V30 5305 H 481.882 -0.491848 2.95332 0
M  V30 5306 H 479.428 -0.23514 1.42067 0
M  V30 5307 H 481.381 -2.92754 3.03106 0
M  V30 5308 H 480.105 -2.72151 1.80558 0
M  V30 5309 H 478.764 -1.32577 3.41788 0
M  V30 5310 H 478.412 -3.79888 3.29688 0
M  V30 5311 H 478.112 -3.18089 4.94058 0
M  V30 5312 H 479.636 -4.04008 4.57832 0
M  V30 5313 H 481.05 -1.92283 5.40093 0
M  V30 5314 H 479.447 -1.28045 5.8628 0
M  V30 5315 H 480.517 -0.305411 4.83937 0
M  V30 5316 N 481.861 -1.55662 -0.24637 0
M  V30 5317 C 482.811 -1.86753 -1.30795 0
M  V30 5318 C 483.795 -0.728445 -1.43466 0
M  V30 5319 O 484.987 -0.99038 -1.46699 0
M  V30 5320 C 482.116 -2.16618 -2.66329 0
M  V30 5321 C 481.202 -3.36855 -2.57661 0
M  V30 5322 N 481.593 -4.56111 -2.18624 0
M  V30 5323 C 479.891 -3.39976 -2.88673 0
M  V30 5324 C 480.592 -5.38247 -2.20601 0
M  V30 5325 N 479.568 -4.77322 -2.60124 0
M  V30 5326 H 483.37 -2.76486 -0.996642 0
M  V30 5327 H 480.884 -1.55896 -0.454994 0
M  V30 5328 H 482.881 -2.37057 -3.42942 0
M  V30 5329 H 481.541 -1.28185 -2.98327 0
M  V30 5330 H 482.552 -4.81726 -1.9016 0
M  V30 5331 H 479.229 -2.61815 -3.25206 0
M  V30 5332 H 480.619 -6.43657 -1.92756 0
M  V30 5333 N 483.339 0.512053 -1.4905 0
M  V30 5334 C 484.755 0.84224 -1.35567 0
M  V30 5335 C 484.955 1.97878 -0.380319 0
M  V30 5336 O 484.011 2.51769 0.19201 0
M  V30 5337 C 485.324 1.19286 -2.76028 0
M  V30 5338 C 486.872 1.30171 -2.84648 0
M  V30 5339 C 487.347 1.68568 -4.25851 0
M  V30 5340 N 488.838 1.75638 -4.28609 0
M  V30 5341 C 489.573 2.06769 -5.34821 0
M  V30 5342 N 489.069 2.36201 -6.51292 0
M  V30 5343 N 490.862 2.07927 -5.22229 0
M  V30 5344 H 483.013 -0.237574 -2.11067 0
M  V30 5345 H 485.276 -0.0436747 -0.946993 0
M  V30 5346 H 484.982 0.431199 -3.49047 0
M  V30 5347 H 484.856 2.13889 -3.10695 0
M  V30 5348 H 487.243 2.05411 -2.11873 0
M  V30 5349 H 487.324 0.336457 -2.53578 0
M  V30 5350 H 486.968 0.938824 -4.99148 0
M  V30 5351 H 486.898 2.66174 -4.54377 0
M  V30 5352 H 489.389 1.55097 -3.44606 0
M  V30 5353 H 489.702 2.59112 -7.28066 0
M  V30 5354 H 488.047 2.33681 -6.54536 0
M  V30 5355 H 491.238 1.84403 -4.30248 0
M  V30 5356 H 491.411 2.31856 -6.05101 0
M  V30 5357 N 484.817 1.37938 0.762283 0
M  V30 5358 C 485.765 1.34569 1.89721 0
M  V30 5359 C 486.759 0.232929 1.67791 0
M  V30 5360 O 487.965 0.401485 1.75465 0
M  V30 5361 H 484.34 0.419594 0.624055 0
M  V30 5362 H 486.311 2.30357 1.8968 0
M  V30 5363 C 485.06 1.17898 3.27101 0
M  V30 5364 H 484.383 2.02781 3.44558 0
M  V30 5365 H 485.823 1.19593 4.06784 0
M  V30 5366 C 484.282 -0.114728 3.36705 0
M  V30 5367 O 484.812 -1.0949 3.8649 0
M  V30 5368 N 483.018 -0.16863 2.9011 0
M  V30 5369 H 482.565 0.62967 2.49786 0
M  V30 5370 H 482.523 -1.03383 2.96916 0
M  V30 5371 N 486.295 -0.989507 1.22664 0
M  V30 5372 C 487.205 -2.11449 1.01619 0
M  V30 5373 C 488.221 -1.73962 -0.036545 0
M  V30 5374 O 489.397 -2.00788 0.156924 0
M  V30 5375 C 486.462 -3.41465 0.600204 0
M  V30 5376 C 485.523 -3.93033 1.72695 0
M  V30 5377 C 484.756 -5.16844 1.33071 0
M  V30 5378 O 484.979 -5.7001 0.210975 0
M  V30 5379 O 483.913 -5.6225 2.14845 0
M  V30 5380 H 487.739 -2.32088 1.9588 0
M  V30 5381 H 485.324 -1.09823 1.01289 0
M  V30 5382 H 487.206 -4.19695 0.37873 0
M  V30 5383 H 485.881 -3.22178 -0.313511 0
M  V30 5384 H 484.788 -3.15961 2.00298 0
M  V30 5385 H 486.121 -4.16758 2.61865 0
M  V30 5386 N 487.773 -1.03688 -1.18687 0
M  V30 5387 C 489.019 -0.74888 -1.89112 0
M  V30 5388 C 489.374 0.715345 -1.78607 0
M  V30 5389 O 488.667 1.51498 -1.17299 0
M  V30 5390 C 488.861 -1.14477 -3.3857 0
M  V30 5391 C 488.69 -2.64594 -3.63621 0
M  V30 5392 C 487.46 -3.31685 -3.812 0
M  V30 5393 C 489.658 -3.62811 -3.64517 0
M  V30 5394 N 487.64 -4.70822 -3.93955 0
M  V30 5395 C 489.011 -4.87603 -3.8294 0
M  V30 5396 C 491.066 -3.56495 -3.47585 0
M  V30 5397 C 489.769 -6.0684 -3.86184 0
M  V30 5398 C 491.795 -4.75155 -3.52111 0
M  V30 5399 C 491.157 -5.98765 -3.71026 0
M  V30 5400 H 487.256 -0.32603 -0.710794 0
M  V30 5401 H 489.84 -1.3258 -1.42586 0
M  V30 5402 H 488.011 -0.595974 -3.838 0
M  V30 5403 H 489.743 -0.808187 -3.96548 0
M  V30 5404 H 486.498 -2.82091 -3.80423 0
M  V30 5405 H 486.922 -5.43122 -4.04163 0
M  V30 5406 H 491.564 -2.61907 -3.31911 0
M  V30 5407 H 489.282 -7.01788 -4.00648 0
M  V30 5408 H 492.868 -4.71905 -3.40289 0
M  V30 5409 H 491.748 -6.89047 -3.74412 0
M  V30 5410 N 489.251 1.34841 -0.815825 0
M  V30 5411 C 490.667 1.51543 -0.500697 0
M  V30 5412 C 490.867 1.76261 0.976444 0
M  V30 5413 O 489.923 1.8094 1.76117 0
M  V30 5414 C 491.236 2.68487 -1.35407 0
M  V30 5415 C 492.784 2.82368 -1.35046 0
M  V30 5416 C 493.259 4.02347 -2.18816 0
M  V30 5417 N 494.75 4.09542 -2.16402 0
M  V30 5418 C 495.485 5.01517 -2.77971 0
M  V30 5419 N 494.981 5.98763 -3.48503 0
M  V30 5420 N 496.774 4.94334 -2.67563 0
M  V30 5421 H 488.925 1.17055 -1.77234 0
M  V30 5422 H 491.188 0.573481 -0.754866 0
M  V30 5423 H 490.894 2.56829 -2.40274 0
M  V30 5424 H 490.768 3.63321 -1.01377 0
M  V30 5425 H 493.155 2.93471 -0.309604 0
M  V30 5426 H 493.236 1.88363 -1.73069 0
M  V30 5427 H 492.88 3.92004 -3.22948 0
M  V30 5428 H 492.81 4.95551 -1.78148 0
M  V30 5429 H 495.301 3.39932 -1.65091 0
M  V30 5430 H 495.614 6.6556 -3.92747 0
M  V30 5431 H 493.959 5.98909 -3.52609 0
M  V30 5432 H 497.15 4.1732 -2.12041 0
M  V30 5433 H 497.323 5.6582 -3.15834 0
M  V30 5434 N 490.729 0.570148 1.46925 0
M  V30 5435 C 492.14 0.1402 1.86173 0
M  V30 5436 C 492.491 -1.29347 1.47526 0
M  V30 5437 O 491.616 -1.97508 0.884292 0
M  V30 5438 C 492.211 0.247661 3.37894 0
M  V30 5439 C 490.77 -0.127332 3.76185 0
M  V30 5440 C 489.917 0.589349 2.70965 0
M  V30 5441 H 492.868 0.779117 1.38259 0
M  V30 5442 H 492.889 -0.530341 3.76786 0
M  V30 5443 H 492.401 1.29121 3.65991 0
M  V30 5444 H 490.502 -1.17149 3.53704 0
M  V30 5445 H 490.615 0.240238 4.78497 0
M  V30 5446 H 488.979 0.0309824 2.54681 0
M  V30 5447 H 489.762 1.6343 3.01903 0
M  V30 5448 N 492.207 -1.54576 0.307264 0
M  V30 5449 C 493.618 -1.8579 -0.184121 0
M  V30 5450 C 493.969 -1.22914 -1.52927 0
M  V30 5451 O 493.094 -0.529126 -2.09831 0
M  V30 5452 C 493.689 -3.37081 -0.340862 0
M  V30 5453 C 492.248 -3.68304 -0.776465 0
M  V30 5454 C 491.395 -2.77076 0.111503 0
M  V30 5455 H 494.346 -1.49656 0.528078 0
M  V30 5456 H 494.367 -3.61922 -1.17443 0
M  V30 5457 H 493.879 -3.82815 0.638309 0
M  V30 5458 H 491.98 -3.28092 -1.76596 0
M  V30 5459 H 492.093 -4.75434 -0.591512 0
M  V30 5460 H 490.457 -2.51374 -0.410256 0
M  V30 5461 H 491.24 -3.25632 1.08714 0
M  V30 5462 N 493.685 -0.035106 -1.57561 0
M  V30 5463 C 494.648 0.929819 -2.09492 0
M  V30 5464 C 495.648 1.25026 -1.01119 0
M  V30 5465 O 496.838 1.18961 -1.27255 0
M  V30 5466 C 493.97 2.24457 -2.56577 0
M  V30 5467 H 495.163 0.479935 -2.96035 0
M  V30 5468 H 492.716 0.213033 -1.54841 0
M  V30 5469 H 493.451 2.74061 -1.73382 0
M  V30 5470 H 493.236 2.02508 -3.35757 0
M  V30 5471 H 494.726 2.93607 -2.96959 0
M  V30 5472 N 495.163 1.55791 0.238111 0
M  V30 5473 C 496.411 1.77681 0.963001 0
M  V30 5474 C 496.732 0.600674 1.85518 0
M  V30 5475 O 496.002 -0.383182 1.92116 0
M  V30 5476 H 494.582 0.655315 0.358568 0
M  V30 5477 H 497.244 1.93239 0.253945 0
M  V30 5478 H 496.34 2.69177 1.57956 0
M  V30 5479 N 496.642 -0.504142 1.49319 0
M  V30 5480 C 497.605 -1.5883 1.65244 0
M  V30 5481 C 498.605 -1.52009 0.524386 0
M  V30 5482 O 499.795 -1.55218 0.79077 0
M  V30 5483 C 496.927 -2.98481 1.64687 0
M  V30 5484 H 498.12 -1.4604 2.61939 0
M  V30 5485 H 495.673 -0.728144 1.38303 0
M  V30 5486 H 496.408 -3.16751 0.695644 0
M  V30 5487 H 496.193 -3.0484 2.46607 0
M  V30 5488 H 497.683 -3.77256 1.79075 0
M  V30 5489 N 498.12 -1.38341 -0.754957 0
M  V30 5490 C 499.052 -1.31347 -1.87831 0
M  V30 5491 C 500.065 -0.225955 -1.61224 0
M  V30 5492 O 501.254 -0.48341 -1.7183 0
M  V30 5493 C 498.354 -1.01201 -3.23437 0
M  V30 5494 C 497.527 -2.20834 -3.77559 0
M  V30 5495 C 496.586 -1.87454 -4.91678 0
M  V30 5496 O 495.612 -2.59934 -5.06382 0
M  V30 5497 N 496.814 -0.828682 -5.74555 0
M  V30 5498 H 499.579 -2.28147 -1.94342 0
M  V30 5499 H 497.14 -1.32184 -0.934828 0
M  V30 5500 H 499.132 -0.769249 -3.97322 0
M  V30 5501 H 497.702 -0.132011 -3.12321 0
M  V30 5502 H 496.922 -2.61184 -2.95256 0
M  V30 5503 H 498.21 -3.00678 -4.10451 0
M  V30 5504 H 497.608 -0.227591 -5.65242 0
M  V30 5505 H 496.165 -0.645802 -6.48593 0
M  V30 5506 N 499.598 0.982988 -1.23187 0
M  V30 5507 C 500.545 2.07491 -1.01075 0
M  V30 5508 C 501.515 1.65949 0.070905 0
M  V30 5509 O 502.7 1.90629 -0.0806822 0
M  V30 5510 C 499.84 3.39751 -0.605261 0
M  V30 5511 C 498.953 3.94578 -1.75876 0
M  V30 5512 C 498.088 5.15039 -1.3003 0
M  V30 5513 C 497.127 5.62027 -2.42472 0
M  V30 5514 N 496.264 6.73719 -1.97602 0
M  V30 5515 H 501.104 2.25739 -1.9454 0
M  V30 5516 H 498.641 1.10659 -0.969179 0
M  V30 5517 H 500.599 4.15719 -0.351279 0
M  V30 5518 H 499.229 3.21473 0.292382 0
M  V30 5519 H 498.281 3.1539 -2.12681 0
M  V30 5520 H 499.593 4.25422 -2.60418 0
M  V30 5521 H 498.747 5.9833 -1.00429 0
M  V30 5522 H 497.486 4.85843 -0.425216 0
M  V30 5523 H 496.491 4.77318 -2.7285 0
M  V30 5524 H 497.716 5.93244 -3.30512 0
M  V30 5525 H 495.662 6.46287 -1.1247 0
M  V30 5526 H 495.579 7.03934 -2.75705 0
M  V30 5527 H 496.847 7.6049 -1.71098 0
M  V30 5528 N 501.076 1.04316 1.18135 0
M  V30 5529 C 502.039 0.640794 2.2006 0
M  V30 5530 C 503.039 -0.303124 1.57917 0
M  V30 5531 O 504.229 -0.0881855 1.73977 0
M  V30 5532 C 501.361 -0.060148 3.40847 0
M  V30 5533 H 502.554 1.54281 2.57172 0
M  V30 5534 H 500.107 0.836004 1.32063 0
M  V30 5535 H 500.842 -0.975845 3.0927 0
M  V30 5536 H 500.627 0.618319 3.87194 0
M  V30 5537 H 502.117 -0.328082 4.16309 0
M  V30 5538 N 502.554 -1.34406 0.822964 0
M  V30 5539 C 503.97 -1.51275 0.508727 0
M  V30 5540 C 504.17 -1.76776 -0.967083 0
M  V30 5541 O 503.226 -1.81871 -1.75155 0
M  V30 5542 C 504.539 -2.67765 1.36829 0
M  V30 5543 C 506.087 -2.81647 1.36542 0
M  V30 5544 C 506.562 -4.01181 2.20947 0
M  V30 5545 N 508.053 -4.08388 2.18571 0
M  V30 5546 C 508.788 -5.00036 2.80627 0
M  V30 5547 N 508.284 -5.96906 3.51674 0
M  V30 5548 N 510.077 -4.92908 2.70181 0
M  V30 5549 H 502.228 -1.16113 1.77852 0
M  V30 5550 H 504.491 -0.56947 0.757897 0
M  V30 5551 H 504.197 -2.55551 2.41633 0
M  V30 5552 H 504.071 -3.62779 1.03303 0
M  V30 5553 H 506.458 -2.93303 0.325163 0
M  V30 5554 H 506.539 -1.87443 1.74066 0
M  V30 5555 H 506.183 -3.90286 3.25022 0
M  V30 5556 H 506.113 -4.94599 1.80774 0
M  V30 5557 H 508.604 -3.39051 1.66891 0
M  V30 5558 H 508.917 -6.63468 3.96271 0
M  V30 5559 H 507.262 -5.9703 3.5578 0
M  V30 5560 H 510.453 -4.1619 2.14251 0
M  V30 5561 H 510.626 -5.64137 3.18831 0
M  V30 5562 N 504.032 -0.577932 -1.46621 0
M  V30 5563 C 505.257 -0.0652536 -2.07297 0
M  V30 5564 C 505.682 1.22828 -1.4246 0
M  V30 5565 O 505.04 1.74075 -0.506718 0
M  V30 5566 C 505.088 0.0920589 -3.60482 0
M  V30 5567 O 504.192 1.14972 -3.96049 0
M  V30 5568 H 503.533 -0.06065 -0.661224 0
M  V30 5569 H 506.063 -0.799515 -1.88332 0
M  V30 5570 H 506.073 0.299741 -4.06897 0
M  V30 5571 H 504.748 -0.852612 -4.07067 0
M  V30 5572 H 503.325 0.920879 -3.61351 0
M  V30 5573 N 505.51 1.54411 -0.315457 0
M  V30 5574 C 506.759 1.99599 0.290395 0
M  V30 5575 C 507.072 1.20746 1.53882 0
M  V30 5576 O 508.278 1.56272 2.22017 0
M  V30 5577 C 506.734 3.5539 0.56797 0
M  V30 5578 C 506.342 4.43068 -0.662945 0
M  V30 5579 C 508.086 4.09067 1.13422 0
M  V30 5580 C 505.993 5.90317 -0.357722 0
M  V30 5581 H 504.923 0.745592 0.112286 0
M  V30 5582 H 507.574 1.78477 -0.426418 0
M  V30 5583 H 505.956 3.72468 1.34476 0
M  V30 5584 H 507.13 4.37765 -1.43869 0
M  V30 5585 H 505.445 4.00238 -1.14884 0
M  V30 5586 H 508.042 5.16663 1.37707 0
M  V30 5587 H 508.385 3.60552 2.08106 0
M  V30 5588 H 508.918 3.95589 0.418805 0
M  V30 5589 H 505.657 6.4301 -1.27351 0
M  V30 5590 H 505.177 5.98592 0.380472 0
M  V30 5591 H 506.856 6.4699 0.0354284 0
M  V30 5592 N 506.988 0.0434614 1.5754 0
M  V30 5593 C 507.935 -0.93356 2.11077 0
M  V30 5594 C 508.905 -1.31383 1.01626 0
M  V30 5595 O 510.09 -1.40465 1.29129 0
M  V30 5596 C 507.23 -2.20578 2.65404 0
M  V30 5597 C 506.343 -1.88068 3.88914 0
M  V30 5598 C 505.478 -3.09691 4.31584 0
M  V30 5599 C 504.517 -2.73067 5.47815 0
M  V30 5600 N 503.654 -3.87359 5.85574 0
M  V30 5601 H 508.494 -0.470118 2.94268 0
M  V30 5602 H 506.031 -0.220434 1.45439 0
M  V30 5603 H 507.989 -2.95011 2.94999 0
M  V30 5604 H 506.619 -2.64513 1.85021 0
M  V30 5605 H 505.671 -1.03816 3.6596 0
M  V30 5606 H 506.983 -1.57104 4.73413 0
M  V30 5607 H 506.137 -3.92431 4.62691 0
M  V30 5608 H 504.876 -3.43827 3.45882 0
M  V30 5609 H 503.881 -1.88742 5.16388 0
M  V30 5610 H 505.106 -2.40131 6.35227 0
M  V30 5611 H 503.052 -4.21311 5.02825 0
M  V30 5612 H 502.969 -3.60068 6.64746 0
M  V30 5613 H 504.237 -4.70761 6.21292 0
M  V30 5614 N 508.466 -1.55915 -0.229846 0
M  V30 5615 C 509.399 -1.86734 -1.3117 0
M  V30 5616 C 510.377 -0.723947 -1.45595 0
M  V30 5617 O 511.561 -0.971462 -1.61539 0
M  V30 5618 C 508.688 -2.06707 -2.68309 0
M  V30 5619 C 507.734 -3.2938 -2.70944 0
M  V30 5620 S 508.567 -4.85547 -2.25842 0
M  V30 5621 C 509.723 -5.08546 -3.64873 0
M  V30 5622 H 509.956 -2.78204 -1.04832 0
M  V30 5623 H 507.489 -1.48243 -0.431681 0
M  V30 5624 H 509.447 -2.18898 -3.47267 0
M  V30 5625 H 508.108 -1.16049 -2.91876 0
M  V30 5626 H 507.301 -3.40374 -3.71701 0
M  V30 5627 H 506.903 -3.16004 -2.00044 0
M  V30 5628 H 509.195 -4.96935 -4.60502 0
M  V30 5629 H 510.138 -6.10465 -3.58801 0
M  V30 5630 H 510.546 -4.36314 -3.58176 0
M  V30 5631 N 509.944 0.496216 -1.49584 0
M  V30 5632 C 511.193 1.24668 -1.58558 0
M  V30 5633 C 511.506 1.9359 -0.279703 0
M  V30 5634 O 512.712 2.70365 -0.248048 0
M  V30 5635 C 511.168 2.26388 -2.79779 0
M  V30 5636 C 510.776 1.63384 -4.17145 0
M  V30 5637 C 512.52 3.02233 -2.98086 0
M  V30 5638 C 510.427 2.63243 -5.29582 0
M  V30 5639 H 509.357 0.468995 -0.590389 0
M  V30 5640 H 512.008 0.519985 -1.75978 0
M  V30 5641 H 510.39 3.02241 -2.55863 0
M  V30 5642 H 511.564 0.93491 -4.51216 0
M  V30 5643 H 509.879 0.999121 -4.04236 0
M  V30 5644 H 512.476 3.76919 -3.79257 0
M  V30 5645 H 512.819 3.60132 -2.08831 0
M  V30 5646 H 513.352 2.33495 -3.22063 0
M  V30 5647 H 510.091 2.10119 -6.20911 0
M  V30 5648 H 509.611 3.31363 -4.99959 0
M  V30 5649 H 511.29 3.25575 -5.59115 0
M  V30 5650 N 511.423 1.38739 0.74761 0
M  V30 5651 C 512.333 1.38696 1.89211 0
M  V30 5652 C 513.349 0.283303 1.71678 0
M  V30 5653 O 514.525 0.522713 1.94498 0
M  V30 5654 C 511.59 1.21662 3.24653 0
M  V30 5655 C 510.651 2.41886 3.54669 0
M  V30 5656 C 509.884 2.25655 4.83648 0
M  V30 5657 O 510.107 1.25339 5.56459 0
M  V30 5658 O 509.041 3.14372 5.13277 0
M  V30 5659 H 512.867 2.35143 1.92202 0
M  V30 5660 H 510.452 1.19721 0.893708 0
M  V30 5661 H 512.334 1.14246 4.05618 0
M  V30 5662 H 511.009 0.283024 3.2246 0
M  V30 5663 H 509.916 2.54877 2.73841 0
M  V30 5664 H 511.249 3.33895 3.61628 0
M  V30 5665 N 512.901 -0.976442 1.23707 0
M  V30 5666 C 514.317 -1.24341 1.00058 0
M  V30 5667 C 514.517 -1.99315 -0.295932 0
M  V30 5668 O 513.573 -2.3123 -1.01435 0
M  V30 5669 C 514.886 -2.03909 2.21001 0
M  V30 5670 C 516.434 -2.17034 2.25534 0
M  V30 5671 C 516.909 -2.99994 3.46075 0
M  V30 5672 N 518.4 -3.07578 3.46338 0
M  V30 5673 C 519.135 -3.72104 4.36264 0
M  V30 5674 N 518.631 -4.3842 5.36432 0
M  V30 5675 N 520.424 -3.69029 4.23998 0
M  V30 5676 H 512.575 -0.47428 2.07037 0
M  V30 5677 H 514.838 -0.272167 0.908091 0
M  V30 5678 H 514.544 -1.56198 3.15111 0
M  V30 5679 H 514.418 -3.04654 2.22409 0
M  V30 5680 H 516.805 -2.63951 1.31961 0
M  V30 5681 H 516.886 -1.15664 2.28156 0
M  V30 5682 H 516.53 -2.53772 4.39957 0
M  V30 5683 H 516.46 -4.01541 3.40694 0
M  V30 5684 H 518.951 -2.60397 2.73865 0
M  V30 5685 H 519.264 -4.85447 6.013 0
M  V30 5686 H 517.609 -4.37116 5.40328 0
M  V30 5687 H 520.8 -3.16392 3.44984 0
M  V30 5688 H 520.973 -4.19034 4.94282 0
M  V30 5689 N 514.379 -1.04941 -1.1758 0
M  V30 5690 C 515.79 -0.784501 -1.69418 0
M  V30 5691 C 516.141 0.693625 -1.8353 0
M  V30 5692 O 515.266 1.53925 -1.52106 0
M  V30 5693 C 515.861 -1.41746 -3.07723 0
M  V30 5694 C 514.42 -1.20066 -3.56737 0
M  V30 5695 C 513.567 -1.5026 -2.33061 0
M  V30 5696 H 516.518 -1.21469 -1.02133 0
M  V30 5697 H 516.539 -0.825381 -3.7144 0
M  V30 5698 H 516.051 -2.49325 -2.9742 0
M  V30 5699 H 514.152 -0.144006 -3.72322 0
M  V30 5700 H 514.265 -1.90384 -4.39648 0
M  V30 5701 H 512.629 -0.922598 -2.37403 0
M  V30 5702 H 513.412 -2.58967 -2.25368 0
M  V30 5703 N 515.857 1.33968 -0.830081 0
M  V30 5704 C 516.804 2.29387 -0.255008 0
M  V30 5705 C 517.774 1.53923 0.624243 0
M  V30 5706 O 518.959 1.82262 0.564372 0
M  V30 5707 C 516.099 3.4034 0.571209 0
M  V30 5708 C 515.212 4.30729 -0.331083 0
M  V30 5709 C 514.347 5.2879 0.505389 0
M  V30 5710 C 513.386 6.10819 -0.395843 0
M  V30 5711 N 512.523 7.00948 0.401979 0
M  V30 5712 H 517.363 2.77972 -1.07404 0
M  V30 5713 H 514.9 1.36785 -0.541133 0
M  V30 5714 H 516.858 4.03361 1.06562 0
M  V30 5715 H 515.488 2.9297 1.35529 0
M  V30 5716 H 514.54 3.68507 -0.943759 0
M  V30 5717 H 515.852 4.88181 -1.02377 0
M  V30 5718 H 515.006 5.97297 1.06399 0
M  V30 5719 H 513.745 4.71894 1.23155 0
M  V30 5720 H 512.75 5.41238 -0.966529 0
M  V30 5721 H 513.975 6.69797 -1.12023 0
M  V30 5722 H 511.921 6.46512 1.11168 0
M  V30 5723 H 511.838 7.55643 -0.232167 0
M  V30 5724 H 513.106 7.73774 0.943102 0
M  V30 5725 N 517.335 0.585699 1.46312 0
M  V30 5726 C 518.584 0.0701192 2.01578 0
M  V30 5727 C 518.897 -1.29889 1.46247 0
M  V30 5728 O 520.103 -1.90598 1.93351 0
M  V30 5729 C 518.559 0.0747499 3.59822 0
M  V30 5730 C 518.167 1.44226 4.24149 0
M  V30 5731 C 519.911 -0.38673 4.22735 0
M  V30 5732 C 517.818 1.40446 5.74481 0
M  V30 5733 H 516.748 0.0224441 0.753666 0
M  V30 5734 H 519.399 0.737789 1.68015 0
M  V30 5735 H 517.781 -0.659144 3.90476 0
M  V30 5736 H 518.955 2.19612 4.05101 0
M  V30 5737 H 517.27 1.84401 3.73343 0
M  V30 5738 H 519.867 -0.433853 5.32937 0
M  V30 5739 H 520.21 -1.40489 3.91878 0
M  V30 5740 H 520.743 0.293195 3.96718 0
M  V30 5741 H 517.482 2.39952 6.10003 0
M  V30 5742 H 517.002 0.692845 5.95785 0
M  V30 5743 H 518.681 1.11865 6.37256 0
M  V30 5744 N 518.813 -1.54241 0.323641 0
M  V30 5745 C 519.776 -2.22997 -0.529602 0
M  V30 5746 C 520.776 -1.22345 -1.04347 0
M  V30 5747 O 521.966 -1.46924 -0.935889 0
M  V30 5748 C 519.098 -2.93409 -1.73562 0
M  V30 5749 H 520.291 -2.99815 0.0714518 0
M  V30 5750 H 517.844 -1.56121 0.0747258 0
M  V30 5751 H 518.579 -2.20729 -2.37591 0
M  V30 5752 H 518.364 -3.67217 -1.37456 0
M  V30 5753 H 519.854 -3.45794 -2.34128 0
M  V30 5754 N 520.291 -0.0518155 -1.57515 0
M  V30 5755 C 521.254 0.907547 -2.10467 0
M  V30 5756 C 522.254 1.23947 -1.02439 0
M  V30 5757 O 523.444 1.17604 -1.2851 0
M  V30 5758 C 520.576 2.21723 -2.58944 0
M  V30 5759 H 521.769 0.44851 -2.96527 0
M  V30 5760 H 519.322 0.196598 -1.55059 0
M  V30 5761 H 520.057 2.72206 -1.76279 0
M  V30 5762 H 519.842 1.98935 -3.37886 0
M  V30 5763 H 521.332 2.90441 -3.00056 0
M  V30 5764 N 521.769 1.56035 0.221574 0
M  V30 5765 C 523.015 1.79312 0.947372 0
M  V30 5766 C 523.348 0.621453 1.83988 0
M  V30 5767 O 522.623 -0.379287 1.90766 0
M  V30 5768 C 522.906 3.1267 1.78633 0
M  V30 5769 C 522.759 4.40284 0.920312 0
M  V30 5770 C 524.078 3.4247 2.7641 0
M  V30 5771 H 521.197 0.652328 0.342982 0
M  V30 5772 H 523.839 1.88765 0.216244 0
M  V30 5773 H 521.989 3.04741 2.40967 0
M  V30 5774 H 523.661 4.60232 0.313718 0
M  V30 5775 H 521.904 4.33212 0.225734 0
M  V30 5776 H 522.575 5.30033 1.54171 0
M  V30 5777 H 525.051 3.50526 2.24211 0
M  V30 5778 H 523.927 4.3695 3.32213 0
M  V30 5779 H 524.188 2.64635 3.54148 0
M  V30 5780 N 523.247 -0.488276 1.49845 0
M  V30 5781 C 524.487 -1.2516 1.61599 0
M  V30 5782 C 524.851 -1.89615 0.301706 0
M  V30 5783 O 526.052 -2.67182 0.29453 0
M  V30 5784 C 524.323 -2.2805 2.75187 0
M  V30 5785 S 525.882 -3.13552 3.0697 0
M  V30 5786 H 522.7 -0.425178 0.569864 0
M  V30 5787 H 525.302 -0.551545 1.87559 0
M  V30 5788 H 524.006 -1.7925 3.69185 0
M  V30 5789 H 523.537 -3.02708 2.5126 0
M  V30 5790 H 525.552 -4.28927 2.49471 0
M  V30 5791 N 524.725 -1.39134 -0.740242 0
M  V30 5792 C 525.973 -1.35803 -1.49673 0
M  V30 5793 C 526.294 0.0470897 -1.94943 0
M  V30 5794 O 525.564 0.997347 -1.68611 0
M  V30 5795 H 524.144 -0.499736 -0.555224 0
M  V30 5796 H 526.806 -1.73947 -0.879107 0
M  V30 5797 H 525.902 -2.0174 -2.38133 0
M  V30 5798 N 526.204 0.969867 -1.24223 0
M  V30 5799 C 527.154 2.04913 -0.999732 0
M  V30 5800 C 528.138 1.60795 0.0580636 0
M  V30 5801 O 529.33 1.76317 -0.155392 0
M  V30 5802 C 526.459 3.37942 -0.604154 0
M  V30 5803 C 525.545 3.88628 -1.69791 0
M  V30 5804 N 525.936 4.12274 -2.93025 0
M  V30 5805 C 524.234 4.17268 -1.57492 0
M  V30 5806 C 524.935 4.53808 -3.63914 0
M  V30 5807 N 523.911 4.58855 -2.91468 0
M  V30 5808 H 527.713 2.21168 -1.93551 0
M  V30 5809 H 525.227 1.15349 -1.14317 0
M  V30 5810 H 527.224 4.14863 -0.411665 0
M  V30 5811 H 525.884 3.23075 0.324465 0
M  V30 5812 H 526.895 3.99789 -3.29225 0
M  V30 5813 H 523.572 4.11346 -0.714175 0
M  V30 5814 H 524.962 4.80534 -4.69614 0
M  V30 5815 N 527.682 1.05563 1.17022 0
M  V30 5816 C 528.912 0.787307 1.91011 0
M  V30 5817 C 529.32 -0.661256 1.77268 0
M  V30 5818 O 528.663 -1.46379 1.10991 0
M  V30 5819 C 528.725 1.09313 3.42478 0
M  V30 5820 C 528.389 2.53863 3.80004 0
M  V30 5821 C 529.386 3.52081 3.82538 0
M  V30 5822 C 527.071 2.88969 4.10855 0
M  V30 5823 C 529.065 4.83449 4.15399 0
M  V30 5824 C 526.752 4.2054 4.43384 0
M  V30 5825 C 527.75 5.17589 4.45635 0
M  V30 5826 O 527.438 6.46799 4.77395 0
M  V30 5827 H 527.17 0.285463 0.61277 0
M  V30 5828 H 529.724 1.41051 1.49311 0
M  V30 5829 H 527.954 0.412833 3.8449 0
M  V30 5830 H 529.643 0.810224 3.97731 0
M  V30 5831 H 530.409 3.26299 3.58823 0
M  V30 5832 H 526.288 2.1409 4.08272 0
M  V30 5833 H 529.832 5.59194 4.1707 0
M  V30 5834 H 525.729 4.46083 4.66563 0
M  V30 5835 H 526.497 6.51677 4.95237 0
M  V30 5836 N 529.16 -1.33526 0.837174 0
M  V30 5837 C 530.437 -1.92369 0.354065 0
M  V30 5838 C 530.817 -1.76348 -1.16038 0
M  V30 5839 O 530.165 -1.15083 -1.97403 0
M  V30 5840 C 530.375 -3.39728 0.799101 0
M  V30 5841 C 531.723 -4.16877 0.806139 0
M  V30 5842 O 532.747 -3.48373 0.742597 0
M  V30 5843 O 531.606 -5.39166 0.892345 0
M  V30 5844 H 528.7 -0.820952 0.0998378 0
M  V30 5845 H 531.246 -1.42409 0.922913 0
M  V30 5846 H 530.018 -3.45254 1.84162 0
M  V30 5847 H 529.641 -3.97062 0.206731 0
M  V30 5848 N 530.638 -0.59345 -1.46 0
M  V30 5849 C 531.868 -0.0889642 -2.06408 0
M  V30 5850 C 532.276 1.22597 -1.44106 0
M  V30 5851 O 531.619 1.75448 -0.544398 0
M  V30 5852 C 531.681 0.139902 -3.59228 0
M  V30 5853 C 531.345 -1.09107 -4.43784 0
M  V30 5854 C 532.342 -2.00577 -4.79651 0
M  V30 5855 C 530.027 -1.31593 -4.84756 0
M  V30 5856 C 532.021 -3.12873 -5.55328 0
M  V30 5857 C 529.708 -2.44192 -5.60191 0
M  V30 5858 C 530.706 -3.34661 -5.95392 0
M  V30 5859 O 530.394 -4.45302 -6.69299 0
M  V30 5860 H 530.126 -0.0594613 -0.67338 0
M  V30 5861 H 532.68 -0.817 -1.88452 0
M  V30 5862 H 530.91 0.922672 -3.75531 0
M  V30 5863 H 532.599 0.594228 -4.01527 0
M  V30 5864 H 533.365 -1.84425 -4.48567 0
M  V30 5865 H 529.244 -0.620801 -4.56801 0
M  V30 5866 H 532.788 -3.83511 -5.82722 0
M  V30 5867 H 528.685 -2.60303 -5.90688 0
M  V30 5868 H 529.453 -4.43805 -6.87735 0
M  V30 5869 N 532.116 1.54067 -0.331816 0
M  V30 5870 C 533.346 2.04833 0.269605 0
M  V30 5871 C 533.754 1.20714 1.45687 0
M  V30 5872 O 533.097 0.232539 1.82222 0
M  V30 5873 C 533.159 3.51386 0.759499 0
M  V30 5874 C 532.823 4.55971 -0.306557 0
M  V30 5875 C 533.82 5.07126 -1.14538 0
M  V30 5876 C 531.505 5.00216 -0.457116 0
M  V30 5877 C 533.499 6.01096 -2.12042 0
M  V30 5878 C 531.186 5.93999 -1.43556 0
M  V30 5879 C 532.184 6.44326 -2.26568 0
M  V30 5880 O 531.872 7.36267 -3.22749 0
M  V30 5881 H 531.604 0.673509 0.0579763 0
M  V30 5882 H 534.158 1.99748 -0.478521 0
M  V30 5883 H 532.388 3.53896 1.55867 0
M  V30 5884 H 534.077 3.85184 1.28017 0
M  V30 5885 H 534.843 4.73716 -1.04009 0
M  V30 5886 H 530.722 4.60652 0.179142 0
M  V30 5887 H 534.266 6.40302 -2.76873 0
M  V30 5888 H 530.163 6.26825 -1.54146 0
M  V30 5889 H 530.931 7.54165 -3.18083 0
M  V30 5890 N 533.594 0.0601682 1.57485 0
M  V30 5891 C 534.824 -0.620037 1.97076 0
M  V30 5892 C 535.232 -1.64381 0.936784 0
M  V30 5893 O 534.575 -1.83497 -0.0863377 0
M  V30 5894 C 534.637 -1.35617 3.32939 0
M  V30 5895 C 534.301 -0.487208 4.54396 0
M  V30 5896 C 535.298 0.250428 5.19297 0
M  V30 5897 C 532.983 -0.415494 5.00579 0
M  V30 5898 C 534.977 1.04812 6.28723 0
M  V30 5899 C 532.664 0.385879 6.0988 0
M  V30 5900 C 533.662 1.11637 6.73815 0
M  V30 5901 O 533.35 1.90454 7.81014 0
M  V30 5902 H 533.082 -0.173664 0.653312 0
M  V30 5903 H 535.636 0.1256 2.05016 0
M  V30 5904 H 533.866 -2.14763 3.2158 0
M  V30 5905 H 535.555 -1.92749 3.57215 0
M  V30 5906 H 536.321 0.204546 4.84568 0
M  V30 5907 H 532.2 -0.973679 4.506 0
M  V30 5908 H 535.744 1.6188 6.78558 0
M  V30 5909 H 531.641 0.433366 6.44044 0
M  V30 5910 H 532.409 1.82762 7.97835 0
M  V30 5911 N 535.072 -1.5615 -0.213296 0
M  V30 5912 C 536.035 -1.92249 -1.24792 0
M  V30 5913 C 537.035 -0.801828 -1.39382 0
M  V30 5914 O 538.225 -1.06948 -1.37506 0
M  V30 5915 C 535.357 -2.18056 -2.62039 0
M  V30 5916 H 536.55 -2.84793 -0.939845 0
M  V30 5917 H 534.103 -1.49559 -0.454062 0
M  V30 5918 H 534.838 -1.2809 -2.97932 0
M  V30 5919 H 534.623 -2.99703 -2.52825 0
M  V30 5920 H 536.113 -2.47051 -3.36683 0
M  V30 5921 N 536.55 0.480323 -1.50102 0
M  V30 5922 C 537.482 1.59669 -1.64433 0
M  V30 5923 C 538.495 1.54063 -0.52615 0
M  V30 5924 O 539.684 1.59619 -0.798992 0
M  V30 5925 C 536.784 2.98527 -1.6042 0
M  V30 5926 C 535.957 3.291 -2.88117 0
M  V30 5927 C 535.016 4.47468 -2.76873 0
M  V30 5928 O 534.042 4.4823 -3.50825 0
M  V30 5929 N 535.244 5.48593 -1.89806 0
M  V30 5930 H 538.009 1.47795 -2.60723 0
M  V30 5931 H 535.57 0.66858 -1.4745 0
M  V30 5932 H 537.562 3.75666 -1.50523 0
M  V30 5933 H 536.132 3.04218 -0.719036 0
M  V30 5934 H 535.352 2.40662 -3.12211 0
M  V30 5935 H 536.64 3.46334 -3.72734 0
M  V30 5936 H 536.038 5.50791 -1.2902 0
M  V30 5937 H 534.595 6.24752 -1.85819 0
M  V30 5938 N 538.028 1.39524 0.732853 0
M  V30 5939 C 538.958 1.41153 1.86005 0
M  V30 5940 C 539.939 0.274614 1.67869 0
M  V30 5941 O 541.124 0.480745 1.88155 0
M  V30 5942 C 538.254 1.25638 3.23778 0
M  V30 5943 C 537.208 2.36752 3.56556 0
M  V30 5944 C 536.534 2.06326 4.93289 0
M  V30 5945 C 537.834 3.79069 3.5931 0
M  V30 5946 H 539.528 2.35484 1.84899 0
M  V30 5947 H 537.074 1.13348 0.888162 0
M  V30 5948 H 539.027 1.25398 4.0231 0
M  V30 5949 H 537.751 0.277772 3.25417 0
M  V30 5950 H 536.41 2.36213 2.80355 0
M  V30 5951 H 536.058 1.06897 4.9151 0
M  V30 5952 H 535.758 2.80757 5.16187 0
M  V30 5953 H 537.282 2.07739 5.74175 0
M  V30 5954 H 538.696 3.81526 4.27914 0
M  V30 5955 H 537.093 4.52878 3.93728 0
M  V30 5956 H 538.163 4.09893 2.59068 0
M  V30 5957 N 539.506 -0.963266 1.24736 0
M  V30 5958 C 540.783 -1.68248 0.9976 0
M  V30 5959 C 541.163 -2.05599 -0.478776 0
M  V30 5960 O 540.511 -1.7626 -1.45412 0
M  V30 5961 C 540.721 -2.91118 1.92487 0
M  V30 5962 C 542.069 -3.63261 2.19833 0
M  V30 5963 O 543.093 -3.01184 1.90176 0
M  V30 5964 O 541.952 -4.75019 2.7022 0
M  V30 5965 H 539.046 -0.735744 0.377637 0
M  V30 5966 H 541.592 -1.01696 1.35853 0
M  V30 5967 H 540.364 -2.60242 2.92215 0
M  V30 5968 H 539.987 -3.65402 1.56738 0
M  V30 5969 N 540.985 -1.06182 -1.16461 0
M  V30 5970 C 541.918 -0.615859 -2.19733 0
M  V30 5971 C 542.896 0.360766 -1.58547 0
M  V30 5972 O 544.08 0.270009 -1.86556 0
M  V30 5973 C 541.207 0.097312 -3.3856 0
M  V30 5974 C 540.253 -0.835889 -4.18229 0
M  V30 5975 S 541.086 -2.33052 -4.82128 0
M  V30 5976 C 542.242 -1.62881 -6.04335 0
M  V30 5977 H 542.475 -1.49079 -2.57221 0
M  V30 5978 H 540.008 -0.874692 -1.27234 0
M  V30 5979 H 541.966 0.502563 -4.07412 0
M  V30 5980 H 540.627 0.948418 -2.99439 0
M  V30 5981 H 539.82 -0.283426 -5.03202 0
M  V30 5982 H 539.422 -1.18097 -3.54865 0
M  V30 5983 H 541.714 -0.933764 -6.71034 0
M  V30 5984 H 542.657 -2.45641 -6.64128 0
M  V30 5985 H 543.065 -1.11189 -5.53441 0
M  V30 5986 N 542.463 1.3308 -0.844243 0
M  V30 5987 C 543.393 2.3161 -0.296493 0
M  V30 5988 C 544.374 1.59215 0.598707 0
M  V30 5989 O 545.559 1.87077 0.521134 0
M  V30 5990 C 542.689 3.43313 0.524762 0
M  V30 5991 C 541.643 4.27115 -0.275106 0
M  V30 5992 C 540.969 5.30483 0.670236 0
M  V30 5993 C 542.269 5.00443 -1.49514 0
M  V30 5994 H 543.963 2.77672 -1.11976 0
M  V30 5995 H 541.509 1.33496 -0.539899 0
M  V30 5996 H 543.462 4.11273 0.918298 0
M  V30 5997 H 542.186 2.95952 1.3813 0
M  V30 5998 H 540.845 3.60787 -0.650267 0
M  V30 5999 H 540.493 4.79379 1.52332 0
M  V30 6000 H 540.193 5.87435 0.139123 0
M  V30 6001 H 541.717 6.01308 1.06117 0
M  V30 6002 H 543.131 5.61141 -1.17447 0
M  V30 6003 H 541.528 5.67071 -1.96343 0
M  V30 6004 H 542.598 4.28906 -2.26202 0
M  V30 6005 N 543.941 0.601185 1.45683 0
M  V30 6006 C 545.357 0.264315 1.57396 0
M  V30 6007 C 545.557 -1.23324 1.59353 0
M  V30 6008 O 544.613 -2.01594 1.52039 0
M  V30 6009 C 545.926 0.929839 2.85962 0
M  V30 6010 C 547.474 0.905156 2.99626 0
M  V30 6011 C 547.949 1.55057 4.30954 0
M  V30 6012 N 549.44 1.51576 4.37697 0
M  V30 6013 C 550.175 1.98436 5.37969 0
M  V30 6014 N 549.671 2.53352 6.44813 0
M  V30 6015 N 551.464 1.89242 5.29286 0
M  V30 6016 H 543.615 1.57363 1.42656 0
M  V30 6017 H 545.878 0.658831 0.681649 0
M  V30 6018 H 545.584 1.98404 2.90394 0
M  V30 6019 H 545.458 0.449224 3.74515 0
M  V30 6020 H 547.845 -0.14048 2.94765 0
M  V30 6021 H 547.926 1.42397 2.12501 0
M  V30 6022 H 547.57 2.5955 4.36573 0
M  V30 6023 H 547.5 1.00682 5.16886 0
M  V30 6024 H 549.991 1.11452 3.61091 0
M  V30 6025 H 550.304 2.86918 7.17564 0
M  V30 6026 H 548.649 2.57388 6.45582 0
M  V30 6027 H 551.84 1.46083 4.44722 0
M  V30 6028 H 552.013 2.26075 6.07284 0
M  V30 6029 N 545.419 -1.53889 0.339982 0
M  V30 6030 C 546.835 -1.59595 -0.0120752 0
M  V30 6031 C 547.035 -1.35605 -1.49042 0
M  V30 6032 O 546.091 -1.14856 -2.24865 0
M  V30 6033 C 547.404 -2.9774 0.420898 0
M  V30 6034 C 548.952 -3.1077 0.37294 0
M  V30 6035 C 549.427 -4.51286 0.781327 0
M  V30 6036 N 550.918 -4.57325 0.735374 0
M  V30 6037 C 551.653 -5.64194 1.02336 0
M  V30 6038 N 551.149 -6.7893 1.37933 0
M  V30 6039 N 552.942 -5.54051 0.947838 0
M  V30 6040 H 545.093 -1.67738 1.30299 0
M  V30 6041 H 547.356 -0.785385 0.530918 0
M  V30 6042 H 547.062 -3.20349 1.45152 0
M  V30 6043 H 546.936 -3.76639 -0.205721 0
M  V30 6044 H 549.323 -2.87886 -0.648505 0
M  V30 6045 H 549.404 -2.33939 1.03472 0
M  V30 6046 H 549.048 -4.74905 1.80077 0
M  V30 6047 H 548.978 -5.26511 0.0970679 0
M  V30 6048 H 551.469 -3.74931 0.472773 0
M  V30 6049 H 551.782 -7.56392 1.58402 0
M  V30 6050 H 550.127 -6.80386 1.41774 0
M  V30 6051 H 553.318 -4.63293 0.669115 0
M  V30 6052 H 553.491 -6.37246 1.17563 0
M  V30 6053 N 546.897 -0.0685191 -1.57451 0
M  V30 6054 C 548.313 0.288101 -1.56978 0
M  V30 6055 C 548.513 1.70262 -1.07765 0
M  V30 6056 O 547.569 2.4135 -0.742054 0
M  V30 6057 C 548.882 0.100745 -3.00531 0
M  V30 6058 C 550.43 0.170531 -3.12535 0
M  V30 6059 C 550.905 0.0114944 -4.57999 0
M  V30 6060 N 552.396 0.0672065 -4.63151 0
M  V30 6061 C 553.131 -0.0314813 -5.73391 0
M  V30 6062 N 552.627 -0.183503 -6.92557 0
M  V30 6063 N 554.42 0.0253489 -5.62094 0
M  V30 6064 H 546.571 -0.993026 -1.87757 0
M  V30 6065 H 548.834 -0.386981 -0.865419 0
M  V30 6066 H 548.54 -0.875197 -3.40636 0
M  V30 6067 H 548.414 0.854457 -3.67395 0
M  V30 6068 H 550.801 1.13696 -2.72318 0
M  V30 6069 H 550.882 -0.614229 -2.48316 0
M  V30 6070 H 550.526 -0.951684 -4.98904 0
M  V30 6071 H 550.456 0.815617 -5.20245 0
M  V30 6072 H 552.947 0.183246 -3.77455 0
M  V30 6073 H 553.26 -0.251041 -7.72392 0
M  V30 6074 H 551.605 -0.218822 -6.94655 0
M  V30 6075 H 554.796 0.142794 -4.67882 0
M  V30 6076 H 554.969 -0.0550166 -6.47977 0
M  V30 6077 N 548.375 1.56261 0.205012 0
M  V30 6078 C 549.338 1.92908 1.23771 0
M  V30 6079 C 550.338 0.809208 1.38955 0
M  V30 6080 O 551.528 1.07676 1.36936 0
M  V30 6081 C 548.66 2.19442 2.60879 0
M  V30 6082 H 549.853 2.85287 0.924728 0
M  V30 6083 H 547.406 1.49798 0.446125 0
M  V30 6084 H 548.141 1.29668 2.97248 0
M  V30 6085 H 547.926 3.0104 2.51232 0
M  V30 6086 H 549.416 2.48833 3.35368 0
M  V30 6087 N 549.853 -0.472356 1.50355 0
M  V30 6088 C 550.803 -1.56809 1.65514 0
M  V30 6089 C 551.787 -1.5261 0.509801 0
M  V30 6090 O 552.979 -1.59655 0.764145 0
M  V30 6091 C 550.108 -2.9526 1.75146 0
M  V30 6092 C 549.194 -3.04348 2.95353 0
M  V30 6093 N 549.585 -2.83253 4.19048 0
M  V30 6094 C 547.883 -3.35482 2.93884 0
M  V30 6095 C 548.584 -2.97273 5.00003 0
M  V30 6096 N 547.56 -3.27418 4.33934 0
M  V30 6097 H 551.362 -1.39197 2.58846 0
M  V30 6098 H 548.876 -0.67906 1.47521 0
M  V30 6099 H 550.873 -3.74044 1.8411 0
M  V30 6100 H 549.533 -3.1392 0.829717 0
M  V30 6101 H 550.544 -2.5886 4.48567 0
M  V30 6102 H 547.221 -3.60138 2.11204 0
M  V30 6103 H 548.611 -2.85214 6.08361 0
M  V30 6104 N 551.331 -1.39911 -0.725443 0
M  V30 6105 C 552.278 -1.39393 -1.83952 0
M  V30 6106 C 553.248 -0.252249 -1.64173 0
M  V30 6107 O 554.433 -0.44882 -1.85446 0
M  V30 6108 C 551.573 -1.25262 -3.21564 0
M  V30 6109 C 550.686 -2.49054 -3.52982 0
M  V30 6110 C 549.821 -2.27439 -4.80047 0
M  V30 6111 C 548.86 -3.46857 -5.04338 0
M  V30 6112 N 547.997 -3.24499 -6.22611 0
M  V30 6113 H 552.837 -2.34622 -1.83729 0
M  V30 6114 H 550.374 -1.16537 -0.897636 0
M  V30 6115 H 552.332 -1.15077 -4.01015 0
M  V30 6116 H 550.962 -0.33657 -3.21041 0
M  V30 6117 H 550.014 -2.69805 -2.6816 0
M  V30 6118 H 551.326 -3.37973 -3.66846 0
M  V30 6119 H 550.48 -2.14551 -5.67497 0
M  V30 6120 H 549.219 -1.35929 -4.68374 0
M  V30 6121 H 548.224 -3.60232 -4.15346 0
M  V30 6122 H 549.449 -4.3928 -5.17889 0
M  V30 6123 H 547.395 -2.35663 -6.12208 0
M  V30 6124 H 547.312 -4.06978 -6.37106 0
M  V30 6125 H 548.58 -3.15325 -7.12875 0
M  V30 6126 N 552.809 0.956637 -1.25245 0
M  V30 6127 C 554.22 1.51569 -1.09012 0
M  V30 6128 C 554.571 1.93322 0.334813 0
M  V30 6129 O 553.696 1.78421 1.22454 0
M  V30 6130 C 554.291 2.75444 -1.97271 0
M  V30 6131 C 552.85 3.27669 -1.8523 0
M  V30 6132 C 551.997 2.00517 -1.91542 0
M  V30 6133 H 554.948 0.773746 -1.3856 0
M  V30 6134 H 554.969 3.4919 -1.51151 0
M  V30 6135 H 554.481 2.45024 -3.00973 0
M  V30 6136 H 552.582 3.62914 -0.844045 0
M  V30 6137 H 552.695 3.9582 -2.69932 0
M  V30 6138 H 551.059 2.15727 -1.35404 0
M  V30 6139 H 551.842 1.72448 -2.96844 0
M  V30 6140 N 554.287 1.06798 1.15896 0
M  V30 6141 C 555.512 0.808739 1.90982 0
M  V30 6142 C 555.937 -0.6316 1.77179 0
M  V30 6143 O 555.295 -1.4407 1.10061 0
M  V30 6144 C 555.343 1.21468 3.39526 0
M  V30 6145 O 554.447 0.356562 4.10856 0
M  V30 6146 H 553.788 0.29512 0.594811 0
M  V30 6147 H 556.318 1.42513 1.46804 0
M  V30 6148 H 556.328 1.18844 3.90308 0
M  V30 6149 H 555.003 2.26379 3.48891 0
M  V30 6150 H 553.58 0.444808 3.70238 0
M  V30 6151 N 555.766 -1.3263 0.851289 0
M  V30 6152 C 556.996 -2.01271 0.466222 0
M  V30 6153 C 557.404 -1.64156 -0.940714 0
M  V30 6154 O 556.747 -0.857109 -1.62479 0
M  V30 6155 C 556.809 -3.55695 0.521672 0
M  V30 6156 C 556.473 -4.16227 1.88691 0
M  V30 6157 C 557.47 -4.34699 2.85189 0
M  V30 6158 C 555.155 -4.52377 2.18313 0
M  V30 6159 C 557.149 -4.88484 4.09465 0
M  V30 6160 C 554.836 -5.05868 3.42843 0
M  V30 6161 C 555.834 -5.23869 4.38235 0
M  V30 6162 O 555.522 -5.76218 5.6056 0
M  V30 6163 H 555.254 -0.651034 0.18202 0
M  V30 6164 H 557.808 -1.7026 1.14894 0
M  V30 6165 H 556.038 -3.86086 -0.217888 0
M  V30 6166 H 557.727 -4.05613 0.152682 0
M  V30 6167 H 558.493 -4.07107 2.63607 0
M  V30 6168 H 554.372 -4.37652 1.44851 0
M  V30 6169 H 557.916 -5.02451 4.83931 0
M  V30 6170 H 553.813 -5.32891 3.64277 0
M  V30 6171 H 554.581 -5.94616 5.62471 0
M  V30 6172 N 557.244 -0.608902 -1.45362 0
M  V30 6173 C 558.194 0.130616 -2.27626 0
M  V30 6174 C 559.178 0.837323 -1.37396 0
M  V30 6175 O 560.37 0.727096 -1.61376 0
M  V30 6176 C 557.499 1.12646 -3.24293 0
M  V30 6177 C 556.585 0.42052 -4.2201 0
M  V30 6178 N 556.976 -0.538569 -5.02925 0
M  V30 6179 C 555.274 0.667901 -4.40971 0
M  V30 6180 C 555.975 -0.953625 -5.7383 0
M  V30 6181 N 554.951 -0.297097 -5.42788 0
M  V30 6182 H 558.753 -0.605996 -2.87585 0
M  V30 6183 H 556.267 -0.432672 -1.5653 0
M  V30 6184 H 558.264 1.67066 -3.81961 0
M  V30 6185 H 556.924 1.86361 -2.65894 0
M  V30 6186 H 557.935 -0.915375 -5.09746 0
M  V30 6187 H 554.612 1.38963 -3.93695 0
M  V30 6188 H 556.002 -1.74473 -6.48852 0
M  V30 6189 N 558.722 1.53707 -0.348139 0
M  V30 6190 C 560.133 1.86213 0.134797 0
M  V30 6191 C 560.484 1.26925 1.49614 0
M  V30 6192 O 559.609 0.584573 2.08355 0
M  V30 6193 C 560.204 3.37866 0.251371 0
M  V30 6194 C 558.763 3.70233 0.678543 0
M  V30 6195 C 557.91 2.76683 -0.184925 0
M  V30 6196 H 560.861 1.48204 -0.567571 0
M  V30 6197 H 560.882 3.64908 1.07806 0
M  V30 6198 H 560.394 3.80988 -0.739581 0
M  V30 6199 H 558.495 3.32659 1.67835 0
M  V30 6200 H 558.608 4.76836 0.465251 0
M  V30 6201 H 556.972 2.52374 0.343465 0
M  V30 6202 H 557.755 3.22635 -1.1731 0
M  V30 6203 N 560.2 0.0768682 1.57412 0
M  V30 6204 C 561.449 -0.590679 1.92857 0
M  V30 6205 C 561.762 -1.70461 0.959293 0
M  V30 6206 O 562.968 -2.43207 1.20675 0
M  V30 6207 C 561.424 -1.10204 3.42612 0
M  V30 6208 C 561.032 -0.0188447 4.47996 0
M  V30 6209 C 562.776 -1.74336 3.87049 0
M  V30 6210 C 560.683 -0.544536 5.88888 0
M  V30 6211 H 559.613 -0.224411 0.71983 0
M  V30 6212 H 562.264 0.149924 1.82887 0
M  V30 6213 H 560.646 -1.89577 3.47673 0
M  V30 6214 H 561.82 0.755936 4.54557 0
M  V30 6215 H 560.135 0.526555 4.13057 0
M  V30 6216 H 562.732 -2.14708 4.89699 0
M  V30 6217 H 563.075 -2.60537 3.24694 0
M  V30 6218 H 563.608 -1.01577 3.84613 0
M  V30 6219 H 560.347 0.280426 6.549 0
M  V30 6220 H 559.867 -1.28673 5.85836 0
M  V30 6221 H 561.546 -1.01933 6.3892 0
M  V30 6222 N 561.678 -1.56367 -0.196722 0
M  V30 6223 C 563.089 -1.70462 -0.761545 0
M  V30 6224 C 563.44 -0.683161 -1.83922 0
M  V30 6225 O 562.565 0.160753 -2.15802 0
M  V30 6226 C 563.16 -3.09057 -1.38814 0
M  V30 6227 C 561.719 -3.24922 -1.90007 0
M  V30 6228 C 560.866 -2.66412 -0.769399 0
M  V30 6229 H 563.817 -1.58675 0.0283263 0
M  V30 6230 H 563.838 -3.06296 -2.2575 0
M  V30 6231 H 563.35 -3.83378 -0.603559 0
M  V30 6232 H 561.451 -2.55514 -2.71189 0
M  V30 6233 H 561.564 -4.3241 -2.06297 0
M  V30 6234 H 559.928 -2.25546 -1.18326 0
M  V30 6235 H 560.711 -3.433 0.00291773 0
M  V30 6236 N 563.156 0.464375 -1.50603 0
M  V30 6237 C 564.088 1.57916 -1.66118 0
M  V30 6238 C 565.101 1.53497 -0.54246 0
M  V30 6239 O 566.29 1.58763 -0.815877 0
M  V30 6240 C 563.39 2.96809 -1.63577 0
M  V30 6241 C 562.563 3.26026 -2.91592 0
M  V30 6242 C 561.622 4.44506 -2.81604 0
M  V30 6243 O 560.648 4.44484 -3.55559 0
M  V30 6244 N 561.85 5.46549 -1.95614 0
M  V30 6245 H 564.615 1.45022 -2.62276 0
M  V30 6246 H 562.176 0.652903 -1.48151 0
M  V30 6247 H 564.168 3.74048 -1.54499 0
M  V30 6248 H 562.738 3.03438 -0.751262 0
M  V30 6249 H 561.958 2.37337 -3.14746 0
M  V30 6250 H 563.246 3.42361 -3.76386 0
M  V30 6251 H 562.644 5.49391 -1.34854 0
M  V30 6252 H 561.201 6.22746 -1.92435 0
M  V30 6253 N 564.634 1.40294 0.718013 0
M  V30 6254 C 565.544 1.42678 1.86226 0
M  V30 6255 C 566.56 0.319655 1.71039 0
M  V30 6256 O 567.736 0.563852 1.93346 0
M  V30 6257 C 564.801 1.2852 3.21999 0
M  V30 6258 C 563.862 2.49354 3.49458 0
M  V30 6259 C 563.095 2.35863 4.78753 0
M  V30 6260 O 563.318 1.37114 5.53675 0
M  V30 6261 O 562.252 3.25189 5.06494 0
M  V30 6262 H 566.078 2.39167 1.87171 0
M  V30 6263 H 563.663 1.2159 0.868112 0
M  V30 6264 H 565.545 1.22824 4.03103 0
M  V30 6265 H 564.22 0.351359 3.21787 0
M  V30 6266 H 563.127 2.60628 2.68373 0
M  V30 6267 H 564.46 3.41491 3.54464 0
M  V30 6268 N 566.112 -0.949982 1.2575 0
M  V30 6269 C 567.06 -2.06869 1.06339 0
M  V30 6270 C 568.054 -1.69399 -0.00708901 0
M  V30 6271 O 569.26 -1.79383 0.148897 0
M  V30 6272 H 565.635 -0.677197 0.326969 0
M  V30 6273 H 567.606 -2.20396 2.01167 0
M  V30 6274 C 566.355 -3.40503 0.703769 0
M  V30 6275 H 565.678 -3.69807 1.51931 0
M  V30 6276 H 567.118 -4.19623 0.607677 0
M  V30 6277 C 565.577 -3.31685 -0.5905 0
M  V30 6278 O 566.107 -3.67085 -1.63131 0
M  V30 6279 N 564.313 -2.84797 -0.577859 0
M  V30 6280 H 563.86 -2.56186 0.26951 0
M  V30 6281 H 563.818 -2.79279 -1.44398 0
M  V30 6282 N 567.59 -1.07411 -1.15328 0
M  V30 6283 C 568.818 -0.818782 -1.90009 0
M  V30 6284 C 569.233 0.628072 -1.78047 0
M  V30 6285 O 568.59 1.43085 -1.13282 0
M  V30 6286 C 568.641 -1.21874 -3.40337 0
M  V30 6287 O 568.362 -2.60883 -3.51954 0
M  V30 6288 C 569.863 -0.992796 -4.3204 0
M  V30 6289 H 567.083 -0.296007 -0.60218 0
M  V30 6290 H 569.627 -1.43073 -1.46117 0
M  V30 6291 H 567.782 -0.651103 -3.81889 0
M  V30 6292 H 568.196 -2.77216 -4.45255 0
M  V30 6293 H 569.67 -1.32215 -5.35932 0
M  V30 6294 H 570.147 0.0708331 -4.39143 0
M  V30 6295 H 570.753 -1.54537 -3.9623 0
M  V30 6296 N 569.068 1.32177 -0.85831 0
M  V30 6297 C 570.316 1.96735 -0.462568 0
M  V30 6298 C 570.637 1.6824 0.985911 0
M  V30 6299 O 569.907 0.991564 1.68952 0
M  V30 6300 H 568.487 0.727849 -0.168064 0
M  V30 6301 H 571.149 1.61195 -1.09554 0
M  V30 6302 H 570.245 3.06068 -0.610647 0
M  V30 6303 N 570.547 0.616602 1.45037 0
M  V30 6304 C 571.793 0.115501 2.02471 0
M  V30 6305 C 572.126 -1.25406 1.4828 0
M  V30 6306 O 571.401 -1.82922 0.661051 0
M  V30 6307 C 571.684 0.0863588 3.59996 0
M  V30 6308 C 571.537 1.48723 4.24501 0
M  V30 6309 C 572.856 -0.596762 4.36035 0
M  V30 6310 H 569.975 0.0434461 0.735718 0
M  V30 6311 H 572.617 0.7903 1.72784 0
M  V30 6312 H 570.767 -0.488277 3.85419 0
M  V30 6313 H 572.439 2.10964 4.10234 0
M  V30 6314 H 570.682 2.04534 3.82555 0
M  V30 6315 H 571.353 1.419 5.3345 0
M  V30 6316 H 573.829 -0.10824 4.15959 0
M  V30 6317 H 572.705 -0.586289 5.4576 0
M  V30 6318 H 572.966 -1.66451 4.09569 0
M  V30 6319 N 572.025 -1.5352 0.356285 0
M  V30 6320 C 572.935 -2.29151 -0.502712 0
M  V30 6321 C 573.951 -1.34753 -1.1008 0
M  V30 6322 O 575.127 -1.67803 -1.11374 0
M  V30 6323 C 572.192 -3.05911 -1.63154 0
M  V30 6324 C 571.253 -4.15958 -1.06194 0
M  V30 6325 C 570.486 -4.8905 -2.13696 0
M  V30 6326 O 570.709 -4.61919 -3.34645 0
M  V30 6327 O 569.643 -5.75202 -1.77275 0
M  V30 6328 H 573.469 -3.03492 0.112466 0
M  V30 6329 H 571.054 -1.4891 0.120942 0
M  V30 6330 H 572.936 -3.53874 -2.28804 0
M  V30 6331 H 571.611 -2.34415 -2.23229 0
M  V30 6332 H 570.518 -3.7227 -0.369603 0
M  V30 6333 H 571.851 -4.89593 -0.505872 0
M  V30 6334 N 573.503 -0.0852151 -1.57369 0
M  V30 6335 C 574.78 0.622534 -1.85429 0
M  V30 6336 C 575.16 1.86962 -0.980229 0
M  V30 6337 O 574.508 2.28445 -0.0500219 0
M  V30 6338 C 574.718 0.947374 -3.35896 0
M  V30 6339 C 576.066 1.31509 -4.03721 0
M  V30 6340 O 577.09 1.03869 -3.40719 0
M  V30 6341 O 575.949 1.83231 -5.14868 0
M  V30 6342 H 573.043 0.310513 -0.766492 0
M  V30 6343 H 575.589 -0.117164 -1.69295 0
M  V30 6344 H 574.361 0.0622264 -3.91251 0
M  V30 6345 H 573.984 1.74338 -3.5734 0
M  V30 6346 N 574.981 1.5647 0.188427 0
M  V30 6347 C 576.211 1.84863 0.922463 0
M  V30 6348 C 576.619 0.666413 1.77075 0
M  V30 6349 O 575.962 -0.374044 1.79852 0
M  V30 6350 C 576.024 3.07447 1.86324 0
M  V30 6351 C 575.688 4.41066 1.19625 0
M  V30 6352 C 576.685 5.16767 0.569946 0
M  V30 6353 C 574.37 4.87802 1.19811 0
M  V30 6354 C 576.364 6.37384 -0.045594 0
M  V30 6355 C 574.051 6.08353 0.57874 0
M  V30 6356 C 575.049 6.82987 -0.0420259 0
M  V30 6357 O 574.737 8.01254 -0.651675 0
M  V30 6358 H 574.469 0.61784 0.274316 0
M  V30 6359 H 577.023 2.04437 0.198613 0
M  V30 6360 H 575.253 2.83774 2.62696 0
M  V30 6361 H 576.942 3.2243 2.46564 0
M  V30 6362 H 577.708 4.81749 0.560601 0
M  V30 6363 H 573.587 4.29662 1.67069 0
M  V30 6364 H 577.131 6.95578 -0.530731 0
M  V30 6365 H 573.028 6.42838 0.58561 0
M  V30 6366 H 573.796 8.16655 -0.549236 0
M  V30 6367 N 576.459 -0.456382 1.50847 0
M  V30 6368 C 577.707 -1.20497 1.62249 0
M  V30 6369 C 578.028 -1.92156 0.331839 0
M  V30 6370 O 577.298 -1.84751 -0.651443 0
M  V30 6371 H 575.878 -0.447775 0.597918 0
M  V30 6372 H 578.54 -0.525099 1.87693 0
M  V30 6373 H 577.636 -1.94492 2.44089 0
M  V30 6374 N 577.937 -1.40673 -0.710563 0
M  V30 6375 C 578.869 -1.37256 -1.83558 0
M  V30 6376 C 579.882 -0.277133 -1.60424 0
M  V30 6377 O 581.071 -0.537831 -1.70205 0
M  V30 6378 C 578.171 -1.1144 -3.20054 0
M  V30 6379 C 577.344 -2.32734 -3.70342 0
M  V30 6380 C 576.403 -2.03002 -4.85465 0
M  V30 6381 O 575.429 -2.75912 -4.97857 0
M  V30 6382 N 576.631 -1.01105 -5.71627 0
M  V30 6383 H 579.396 -2.34215 -1.86985 0
M  V30 6384 H 576.957 -1.35091 -0.892301 0
M  V30 6385 H 578.949 -0.895265 -3.94673 0
M  V30 6386 H 577.519 -0.231307 -3.11743 0
M  V30 6387 H 576.739 -2.70446 -2.86798 0
M  V30 6388 H 578.027 -3.13584 -4.00678 0
M  V30 6389 H 577.425 -0.407303 -5.64232 0
M  V30 6390 H 575.982 -0.85182 -6.4621 0
M  V30 6391 N 579.415 0.9433 -1.26252 0
M  V30 6392 C 580.325 2.07532 -1.09397 0
M  V30 6393 C 581.341 1.73977 -0.0280449 0
M  V30 6394 O 582.517 2.00067 -0.231337 0
M  V30 6395 C 579.582 3.39002 -0.726523 0
M  V30 6396 C 578.643 3.86353 -1.87163 0
M  V30 6397 C 577.876 5.11549 -1.52162 0
M  V30 6398 O 578.099 5.68834 -0.422385 0
M  V30 6399 O 577.033 5.53889 -2.35565 0
M  V30 6400 H 580.859 2.24658 -2.04359 0
M  V30 6401 H 578.444 1.05988 -1.05295 0
M  V30 6402 H 580.326 4.18 -0.534236 0
M  V30 6403 H 579.001 3.2312 0.193721 0
M  V30 6404 H 577.908 3.0831 -2.11886 0
M  V30 6405 H 579.241 4.06752 -2.77152 0
M  V30 6406 N 580.893 1.08022 1.14757 0
M  V30 6407 C 582.121 0.828847 1.89572 0
M  V30 6408 C 582.536 -0.618621 1.78377 0
M  V30 6409 O 581.893 -1.42482 1.1404 0
M  V30 6410 C 581.944 1.23677 3.39685 0
M  V30 6411 O 581.665 2.62746 3.50566 0
M  V30 6412 C 583.166 1.01569 4.31507 0
M  V30 6413 H 580.386 0.299196 0.600602 0
M  V30 6414 H 582.93 1.43846 1.45357 0
M  V30 6415 H 581.085 0.671347 3.81539 0
M  V30 6416 H 581.499 2.79573 4.43778 0
M  V30 6417 H 582.973 1.35055 5.35223 0
M  V30 6418 H 583.45 -0.0475433 4.39174 0
M  V30 6419 H 584.056 1.56636 3.95405 0
M  V30 6420 N 582.371 -1.3172 0.865308 0
M  V30 6421 C 583.787 -1.4958 0.556596 0
M  V30 6422 C 583.987 -1.79763 -0.910353 0
M  V30 6423 O 583.043 -1.87351 -1.6928 0
M  V30 6424 C 584.356 -2.63277 1.45279 0
M  V30 6425 C 585.904 -2.77161 1.45433 0
M  V30 6426 C 586.379 -3.93949 2.33598 0
M  V30 6427 N 587.87 -4.01228 2.31453 0
M  V30 6428 C 588.605 -4.90855 2.96393 0
M  V30 6429 N 588.101 -5.85416 3.70486 0
M  V30 6430 N 589.894 -4.84063 2.85726 0
M  V30 6431 H 582.045 -1.10396 1.81456 0
M  V30 6432 H 584.308 -0.54507 0.775631 0
M  V30 6433 H 584.014 -2.47734 2.49641 0
M  V30 6434 H 583.888 -3.59309 1.14792 0
M  V30 6435 H 586.275 -2.9212 0.41831 0
M  V30 6436 H 586.356 -1.8181 1.79941 0
M  V30 6437 H 586 -3.79748 3.37274 0
M  V30 6438 H 585.93 -4.88598 1.96417 0
M  V30 6439 H 588.421 -3.3357 1.77593 0
M  V30 6440 H 588.734 -6.50525 4.17178 0
M  V30 6441 H 587.079 -5.85409 3.74594 0
M  V30 6442 H 590.27 -4.09163 2.27384 0
M  V30 6443 H 590.443 -5.53708 3.36617 0
M  V30 6444 N 583.85 -0.624285 -1.44708 0
M  V30 6445 C 584.8 0.106466 -2.27751 0
M  V30 6446 C 585.784 0.822703 -1.38277 0
M  V30 6447 O 586.976 0.709939 -1.62138 0
M  V30 6448 C 584.105 1.092 -3.25469 0
M  V30 6449 C 583.191 0.375737 -4.22432 0
M  V30 6450 N 583.582 -0.591881 -5.02325 0
M  V30 6451 C 581.88 0.621093 -4.41654 0
M  V30 6452 C 582.581 -1.01443 -5.72786 0
M  V30 6453 N 581.557 -0.354651 -5.42442 0
M  V30 6454 H 585.359 -0.636464 -2.86926 0
M  V30 6455 H 582.873 -0.44925 -1.56062 0
M  V30 6456 H 584.87 1.63006 -3.83712 0
M  V30 6457 H 583.529 1.8353 -2.67856 0
M  V30 6458 H 584.541 -0.969389 -5.08747 0
M  V30 6459 H 581.218 1.34779 -3.95147 0
M  V30 6460 H 582.608 -1.81345 -6.46965 0
M  V30 6461 N 585.328 1.53329 -0.364422 0
M  V30 6462 C 586.576 2.00842 0.225189 0
M  V30 6463 C 586.897 1.25345 1.49378 0
M  V30 6464 O 586.167 0.366396 1.92443 0
M  V30 6465 H 584.747 0.742009 0.0862027 0
M  V30 6466 H 587.409 1.8863 -0.490389 0
M  V30 6467 H 586.505 3.08795 0.452987 0
M  V30 6468 N 586.806 0.0935595 1.57322 0
M  V30 6469 C 588.217 -0.435807 1.81542 0
M  V30 6470 C 588.568 -1.68263 1.00907 0
M  V30 6471 O 587.693 -2.15087 0.237983 0
M  V30 6472 C 588.288 -0.797436 3.29282 0
M  V30 6473 C 586.847 -1.27155 3.54272 0
M  V30 6474 C 585.994 -0.267455 2.76007 0
M  V30 6475 H 588.945 0.31902 1.5546 0
M  V30 6476 H 588.966 -1.6571 3.42521 0
M  V30 6477 H 588.478 0.110206 3.87943 0
M  V30 6478 H 586.579 -2.19696 3.00939 0
M  V30 6479 H 586.692 -1.23445 4.62923 0
M  V30 6480 H 585.056 -0.749282 2.43429 0
M  V30 6481 H 585.839 0.632839 3.37417 0
M  V30 6482 N 588.284 -1.56567 -0.180126 0
M  V30 6483 C 589.509 -1.85975 -0.918041 0
M  V30 6484 C 589.934 -0.678888 -1.75422 0
M  V30 6485 O 589.292 0.372168 -1.77439 0
M  V30 6486 C 589.34 -3.13731 -1.77779 0
M  V30 6487 O 588.444 -2.95335 -2.87838 0
M  V30 6488 H 587.785 -0.61196 -0.257683 0
M  V30 6489 H 590.315 -2.03798 -0.180923 0
M  V30 6490 H 590.325 -3.4491 -2.17948 0
M  V30 6491 H 589 -3.99293 -1.16352 0
M  V30 6492 H 587.577 -2.7549 -2.51316 0
M  V30 6493 N 589.762 0.448376 -1.51087 0
M  V30 6494 C 591.173 1.0286 -1.5581 0
M  V30 6495 C 591.524 1.92583 -0.374989 0
M  V30 6496 O 590.649 2.10316 0.509533 0
M  V30 6497 C 591.244 1.87223 -2.8237 0
M  V30 6498 C 589.803 2.40314 -2.897 0
M  V30 6499 C 588.95 1.19238 -2.50355 0
M  V30 6500 H 591.901 0.230075 -1.57023 0
M  V30 6501 H 591.922 2.72553 -2.6551 0
M  V30 6502 H 591.434 1.21894 -3.68461 0
M  V30 6503 H 589.535 3.09129 -2.08014 0
M  V30 6504 H 589.648 2.73866 -3.93108 0
M  V30 6505 H 588.012 1.53428 -2.03303 0
M  V30 6506 H 588.795 0.555367 -3.38778 0
M  V30 6507 N 591.24 1.41047 0.703093 0
M  V30 6508 C 592.465 1.43537 1.49706 0
M  V30 6509 C 592.89 0.0401853 1.88057 0
M  V30 6510 O 592.248 -0.954785 1.54122 0
M  V30 6511 C 592.296 2.3433 2.74084 0
M  V30 6512 O 591.4 1.79515 3.71279 0
M  V30 6513 H 590.741 0.487454 0.450871 0
M  V30 6514 H 593.271 1.85422 0.86486 0
M  V30 6515 H 593.281 2.49947 3.22476 0
M  V30 6516 H 591.956 3.35708 2.45506 0
M  V30 6517 H 590.533 1.7331 3.30179 0
M  V30 6518 N 592.718 -0.936591 1.26751 0
M  V30 6519 C 593.65 -2.03991 1.045 0
M  V30 6520 C 594.663 -1.628 0.00394261 0
M  V30 6521 O 595.852 -1.76817 0.244526 0
M  V30 6522 C 592.952 -3.34218 0.561403 0
M  V30 6523 C 592.125 -4.04151 1.67274 0
M  V30 6524 C 591.184 -5.12651 1.1864 0
M  V30 6525 O 590.21 -5.37104 1.88437 0
M  V30 6526 N 591.412 -5.80488 0.037278 0
M  V30 6527 H 594.177 -2.23644 1.99508 0
M  V30 6528 H 591.738 -1.10638 1.18198 0
M  V30 6529 H 593.73 -4.04101 0.220136 0
M  V30 6530 H 592.3 -3.11203 -0.295211 0
M  V30 6531 H 591.52 -3.28121 2.18472 0
M  V30 6532 H 592.808 -4.47626 2.41885 0
M  V30 6533 H 592.206 -5.63064 -0.545494 0
M  V30 6534 H 590.763 -6.5134 -0.244877 0
M  V30 6535 N 594.196 -1.08629 -1.14182 0
M  V30 6536 C 595.442 -0.828415 -1.85766 0
M  V30 6537 C 595.797 0.638947 -1.81481 0
M  V30 6538 O 595.09 1.46386 -1.23619 0
M  V30 6539 C 595.284 -1.28734 -3.3341 0
M  V30 6540 C 595.113 -2.79778 -3.52071 0
M  V30 6541 C 593.883 -3.47554 -3.66789 0
M  V30 6542 C 596.081 -3.77945 -3.48801 0
M  V30 6543 N 594.063 -4.87107 -3.73631 0
M  V30 6544 C 595.434 -5.03406 -3.61914 0
M  V30 6545 C 597.489 -3.70917 -3.32152 0
M  V30 6546 C 596.192 -6.22673 -3.60098 0
M  V30 6547 C 598.218 -4.89662 -3.31641 0
M  V30 6548 C 597.58 -6.13962 -3.45296 0
M  V30 6549 H 593.679 -0.355884 -0.696327 0
M  V30 6550 H 596.263 -1.38508 -1.36834 0
M  V30 6551 H 594.434 -0.75822 -3.80927 0
M  V30 6552 H 596.166 -0.975649 -3.92764 0
M  V30 6553 H 592.921 -2.97972 -3.68116 0
M  V30 6554 H 593.345 -5.59775 -3.80763 0
M  V30 6555 H 597.987 -2.75749 -3.20504 0
M  V30 6556 H 595.705 -7.1815 -3.70522 0
M  V30 6557 H 599.291 -4.85914 -3.19968 0
M  V30 6558 H 598.171 -7.04307 -3.44851 0
M  V30 6559 N 595.674 1.31259 -0.872281 0
M  V30 6560 C 597.085 1.78822 -0.536617 0
M  V30 6561 C 597.436 1.71855 0.946594 0
M  V30 6562 O 596.561 1.28769 1.73918 0
M  V30 6563 C 597.156 3.24698 -0.967294 0
M  V30 6564 C 595.715 3.70147 -0.683251 0
M  V30 6565 C 594.862 2.51994 -1.15733 0
M  V30 6566 H 597.813 1.18308 -1.05777 0
M  V30 6567 H 597.834 3.79386 -0.290929 0
M  V30 6568 H 597.346 3.29737 -2.04683 0
M  V30 6569 H 595.447 3.70607 0.384825 0
M  V30 6570 H 595.56 4.62183 -1.2619 0
M  V30 6571 H 593.924 2.48078 -0.577024 0
M  V30 6572 H 594.707 2.59778 -2.24434 0
M  V30 6573 N 597.152 0.631951 1.44375 0
M  V30 6574 C 598.115 -0.0628142 2.29114 0
M  V30 6575 C 599.115 -0.771494 1.41084 0
M  V30 6576 O 600.305 -0.615959 1.62947 0
M  V30 6577 C 597.437 -1.09953 3.22681 0
M  V30 6578 H 598.63 0.682509 2.92031 0
M  V30 6579 H 596.183 0.392128 1.51301 0
M  V30 6580 H 596.918 -1.87481 2.64616 0
M  V30 6581 H 596.703 -0.595286 3.87555 0
M  V30 6582 H 598.193 -1.58538 3.86336 0
M  V30 6583 N 598.631 -1.53133 0.372548 0
M  V30 6584 C 599.541 -2.29671 -0.478379 0
M  V30 6585 C 600.557 -1.35913 -1.08644 0
M  V30 6586 O 601.733 -1.68975 -1.09588 0
M  V30 6587 C 598.798 -3.07625 -1.599 0
M  V30 6588 C 597.859 -4.17061 -1.01776 0
M  V30 6589 C 597.092 -4.91289 -2.08497 0
M  V30 6590 O 597.315 -4.65442 -3.29727 0
M  V30 6591 O 596.249 -5.7705 -1.71164 0
M  V30 6592 H 600.075 -3.03355 0.144649 0
M  V30 6593 H 597.66 -1.48773 0.136729 0
M  V30 6594 H 599.542 -3.56281 -2.25038 0
M  V30 6595 H 598.217 -2.3677 -2.2073 0
M  V30 6596 H 597.124 -3.72641 -0.330098 0
M  V30 6597 H 598.457 -4.90102 -0.453915 0
M  V30 6598 N 600.109 -0.101901 -1.5727 0
M  V30 6599 C 601.339 0.567568 -1.98651 0
M  V30 6600 C 601.747 1.61839 -0.980037 0
M  V30 6601 O 601.09 1.83661 0.0376564 0
M  V30 6602 C 601.152 1.26742 -3.36417 0
M  V30 6603 C 600.816 0.366561 -4.55528 0
M  V30 6604 C 601.813 -0.388022 -5.1845 0
M  V30 6605 C 599.498 0.282629 -5.01504 0
M  V30 6606 C 601.492 -1.21445 -6.25724 0
M  V30 6607 C 599.179 -0.547443 -6.08643 0
M  V30 6608 C 600.177 -1.29462 -6.70618 0
M  V30 6609 O 599.865 -2.11095 -7.7569 0
M  V30 6610 H 599.597 0.156282 -0.657687 0
M  V30 6611 H 602.151 -0.179912 -2.04611 0
M  V30 6612 H 600.381 2.06162 -3.27161 0
M  V30 6613 H 602.07 1.8321 -3.622 0
M  V30 6614 H 602.836 -0.332949 -4.83856 0
M  V30 6615 H 598.715 0.853868 -4.53023 0
M  V30 6616 H 602.259 -1.79814 -6.74027 0
M  V30 6617 H 598.156 -0.603971 -6.42668 0
M  V30 6618 H 598.924 -2.03851 -7.92709 0
M  V30 6619 N 601.587 1.56661 0.17182 0
M  V30 6620 C 602.517 1.99401 1.21498 0
M  V30 6621 C 603.498 0.869516 1.46197 0
M  V30 6622 O 604.683 1.13556 1.57539 0
M  V30 6623 C 601.813 2.35346 2.55401 0
M  V30 6624 C 600.767 3.5075 2.45272 0
M  V30 6625 C 600.093 3.72437 3.8366 0
M  V30 6626 C 601.393 4.84216 1.95787 0
M  V30 6627 H 603.087 2.86792 0.859699 0
M  V30 6628 H 600.633 1.37977 0.412103 0
M  V30 6629 H 602.586 2.63843 3.2858 0
M  V30 6630 H 601.31 1.44864 2.92715 0
M  V30 6631 H 599.969 3.2238 1.74547 0
M  V30 6632 H 599.617 2.79246 4.18367 0
M  V30 6633 H 599.317 4.50087 3.77751 0
M  V30 6634 H 600.841 4.03334 4.58426 0
M  V30 6635 H 602.255 5.11592 2.5874 0
M  V30 6636 H 600.652 5.65498 2.00827 0
M  V30 6637 H 601.722 4.76243 0.912159 0
M  V30 6638 N 603.065 -0.440357 1.51323 0
M  V30 6639 C 603.997 -1.55254 1.68609 0
M  V30 6640 C 605.01 -1.52614 0.566812 0
M  V30 6641 O 606.199 -1.57445 0.841032 0
M  V30 6642 C 603.299 -2.94169 1.68279 0
M  V30 6643 C 602.472 -3.21346 2.96742 0
M  V30 6644 C 601.531 -4.3997 2.8864 0
M  V30 6645 O 600.557 -4.38771 3.62586 0
M  V30 6646 N 601.759 -5.43367 2.04285 0
M  V30 6647 H 604.524 -1.40831 2.6455 0
M  V30 6648 H 602.085 -0.629251 1.49171 0
M  V30 6649 H 604.077 -3.71543 1.60431 0
M  V30 6650 H 602.647 -3.02205 0.799441 0
M  V30 6651 H 601.867 -2.32299 3.18482 0
M  V30 6652 H 603.155 -3.3633 3.81785 0
M  V30 6653 H 602.553 -5.47176 1.43578 0
M  V30 6654 H 601.11 -6.19605 2.02318 0
M  V30 6655 N 604.543 -1.41418 -0.695603 0
M  V30 6656 C 605.959 -1.23887 -1.00619 0
M  V30 6657 C 606.159 -0.128206 -2.01092 0
M  V30 6658 O 605.215 0.507408 -2.47349 0
M  V30 6659 C 606.528 -2.58816 -1.53083 0
M  V30 6660 C 608.076 -2.65998 -1.64967 0
M  V30 6661 C 608.551 -4.01244 -2.20833 0
M  V30 6662 N 610.042 -4.0309 -2.28194 0
M  V30 6663 C 610.777 -5.04539 -2.72448 0
M  V30 6664 N 610.273 -6.16378 -3.16306 0
M  V30 6665 N 612.066 -4.91901 -2.72011 0
M  V30 6666 H 604.217 -2.12379 -0.0300061 0
M  V30 6667 H 606.48 -0.944958 -0.0758797 0
M  V30 6668 H 606.186 -3.40842 -0.867147 0
M  V30 6669 H 606.06 -2.81299 -2.51298 0
M  V30 6670 H 608.447 -1.84331 -2.30448 0
M  V30 6671 H 608.528 -2.47325 -0.652982 0
M  V30 6672 H 608.172 -4.83359 -1.55968 0
M  V30 6673 H 608.102 -4.17257 -3.21254 0
M  V30 6674 H 610.593 -3.22341 -1.97242 0
M  V30 6675 H 610.906 -6.89658 -3.487 0
M  V30 6676 H 609.251 -6.19914 -3.14215 0
M  V30 6677 H 612.442 -4.03613 -2.37095 0
M  V30 6678 H 612.615 -5.71102 -3.06181 0
M  V30 6679 N 606.021 0.929856 -1.27246 0
M  V30 6680 C 606.968 2.03017 -1.09785 0
M  V30 6681 C 607.938 1.661 0.000456744 0
M  V30 6682 O 609.123 1.90116 -0.161462 0
M  V30 6683 C 606.263 3.36878 -0.748816 0
M  V30 6684 C 605.376 3.86763 -1.92453 0
M  V30 6685 C 604.511 5.09061 -1.51758 0
M  V30 6686 C 603.55 5.51237 -2.66091 0
M  V30 6687 N 602.687 6.64732 -2.25999 0
M  V30 6688 H 607.527 2.17285 -2.03939 0
M  V30 6689 H 605.064 1.06448 -1.01524 0
M  V30 6690 H 607.022 4.13855 -0.527283 0
M  V30 6691 H 605.652 3.22424 0.155771 0
M  V30 6692 H 604.704 3.06086 -2.25867 0
M  V30 6693 H 606.016 4.13994 -2.78227 0
M  V30 6694 H 605.17 5.93532 -1.25716 0
M  V30 6695 H 603.909 4.83602 -0.630896 0
M  V30 6696 H 602.914 4.65316 -2.92849 0
M  V30 6697 H 604.139 5.78692 -3.55377 0
M  V30 6698 H 602.085 6.40935 -1.3978 0
M  V30 6699 H 602.002 6.91607 -3.05313 0
M  V30 6700 H 603.27 7.52549 -2.03199 0
M  V30 6701 N 607.499 1.09233 1.13605 0
M  V30 6702 C 608.746 0.827159 1.84836 0
M  V30 6703 C 609.074 -0.647199 1.83416 0
M  V30 6704 O 608.329 -1.49228 1.26608 0
M  V30 6705 C 608.628 1.305 3.32723 0
M  V30 6706 C 608.294 2.78864 3.54325 0
M  V30 6707 C 606.956 3.19382 3.59928 0
M  V30 6708 C 609.308 3.74532 3.62457 0
M  V30 6709 C 606.636 4.54346 3.71196 0
M  V30 6710 C 608.988 5.09283 3.75252 0
M  V30 6711 C 607.652 5.49394 3.79108 0
M  V30 6712 H 606.922 0.302679 0.676363 0
M  V30 6713 H 609.569 1.36676 1.34134 0
M  V30 6714 H 607.874 0.68517 3.85762 0
M  V30 6715 H 609.571 1.07648 3.86281 0
M  V30 6716 H 606.161 2.46507 3.50617 0
M  V30 6717 H 610.345 3.44343 3.57409 0
M  V30 6718 H 605.601 4.84864 3.72447 0
M  V30 6719 H 609.775 5.83269 3.80487 0
M  V30 6720 H 607.402 6.5397 3.87591 0
M  V30 6721 N 608.977 -1.30795 0.87923 0
M  V30 6722 C 609.887 -2.32041 0.345565 0
M  V30 6723 C 610.903 -1.65103 -0.549265 0
M  V30 6724 O 612.079 -1.9645 -0.443763 0
M  V30 6725 C 609.144 -3.43944 -0.436245 0
M  V30 6726 C 608.205 -4.26521 0.48765 0
M  V30 6727 C 607.438 -5.33081 -0.256943 0
M  V30 6728 O 607.661 -5.50762 -1.48381 0
M  V30 6729 O 606.595 -6.00635 0.389985 0
M  V30 6730 H 610.421 -2.79627 1.18501 0
M  V30 6731 H 608.006 -1.3486 0.642885 0
M  V30 6732 H 609.888 -4.12128 -0.879119 0
M  V30 6733 H 608.563 -2.98504 -1.25208 0
M  V30 6734 H 607.47 -3.61057 0.979216 0
M  V30 6735 H 608.803 -4.75551 1.26933 0
M  V30 6736 N 610.455 -0.639598 -1.44038 0
M  V30 6737 C 611.418 0.0506628 -2.29144 0
M  V30 6738 C 612.418 0.764001 -1.41491 0
M  V30 6739 O 613.608 0.607309 -1.63271 0
M  V30 6740 C 610.74 1.0824 -3.2326 0
M  V30 6741 H 611.933 -0.697987 -2.91664 0
M  V30 6742 H 609.486 -0.400146 -1.51091 0
M  V30 6743 H 610.221 1.86075 -2.65606 0
M  V30 6744 H 610.006 0.574725 -3.87865 0
M  V30 6745 H 611.496 1.56487 -3.87171 0
M  V30 6746 N 611.933 1.52934 -0.380664 0
M  V30 6747 C 612.865 2.23822 0.493581 0
M  V30 6748 C 613.878 1.25761 1.03383 0
M  V30 6749 O 615.067 1.5189 0.937633 0
M  V30 6750 C 612.167 2.9342 1.69582 0
M  V30 6751 C 611.34 4.18115 1.28445 0
M  V30 6752 C 610.399 4.70788 2.35042 0
M  V30 6753 O 609.425 5.34093 1.96807 0
M  V30 6754 N 610.627 4.49899 3.66839 0
M  V30 6755 H 613.392 2.99484 -0.11371 0
M  V30 6756 H 610.953 1.60577 -0.206587 0
M  V30 6757 H 612.945 3.2556 2.40401 0
M  V30 6758 H 611.515 2.21119 2.20965 0
M  V30 6759 H 610.735 3.92109 0.405503 0
M  V30 6760 H 612.023 4.99152 0.986132 0
M  V30 6761 H 611.421 3.99349 4.0067 0
M  V30 6762 H 609.978 4.86551 4.33718 0
M  V30 6763 N 613.412 0.11024 1.57214 0
M  V30 6764 C 614.344 -0.873497 2.11902 0
M  V30 6765 C 615.357 -1.23588 1.05971 0
M  V30 6766 O 616.546 -1.18636 1.33371 0
M  V30 6767 C 613.646 -2.17805 2.59643 0
M  V30 6768 C 612.819 -1.98869 3.89576 0
M  V30 6769 C 611.878 -3.12974 4.23006 0
M  V30 6770 O 610.904 -2.86272 4.91973 0
M  V30 6771 N 612.106 -4.39167 3.79622 0
M  V30 6772 H 614.871 -0.406317 2.96933 0
M  V30 6773 H 612.432 -0.074437 1.61729 0
M  V30 6774 H 614.424 -2.93117 2.79042 0
M  V30 6775 H 612.994 -2.55899 1.7954 0
M  V30 6776 H 612.214 -1.078 3.79174 0
M  V30 6777 H 613.502 -1.83512 4.74553 0
M  V30 6778 H 612.9 -4.63739 3.2398 0
M  V30 6779 H 611.457 -5.11379 4.04147 0
M  V30 6780 N 614.89 -1.56749 -0.16351 0
M  V30 6781 C 616.12 -1.86307 -0.892936 0
M  V30 6782 C 616.528 -0.6945 -1.75992 0
M  V30 6783 O 615.871 0.345384 -1.80424 0
M  V30 6784 C 615.933 -3.10372 -1.81409 0
M  V30 6785 C 615.597 -4.42913 -1.12593 0
M  V30 6786 C 616.594 -5.17608 -0.487661 0
M  V30 6787 C 614.279 -4.89646 -1.12035 0
M  V30 6788 C 616.273 -6.3723 0.14699 0
M  V30 6789 C 613.96 -6.09197 -0.481883 0
M  V30 6790 C 614.958 -6.82834 0.150678 0
M  V30 6791 O 614.646 -8.00116 0.779065 0
M  V30 6792 H 614.378 -0.622126 -0.264452 0
M  V30 6793 H 616.932 -2.04728 -0.166063 0
M  V30 6794 H 615.162 -2.87917 -2.58148 0
M  V30 6795 H 616.851 -3.26312 -2.41403 0
M  V30 6796 H 617.617 -4.8258 -0.483888 0
M  V30 6797 H 613.496 -4.32265 -1.60212 0
M  V30 6798 H 617.04 -6.94646 0.641325 0
M  V30 6799 H 612.937 -6.43688 -0.483266 0
M  V30 6800 H 613.705 -8.15678 0.679089 0
M  V30 6801 N 616.368 0.432326 -1.51554 0
M  V30 6802 C 617.315 1.52512 -1.7323 0
M  V30 6803 C 618.285 1.55863 -0.5741 0
M  V30 6804 O 619.47 1.72796 -0.809093 0
M  V30 6805 C 616.61 2.90183 -1.86783 0
M  V30 6806 C 615.723 2.96322 -3.14352 0
M  V30 6807 C 614.858 4.25147 -3.18471 0
M  V30 6808 C 613.897 4.25172 -4.40335 0
M  V30 6809 N 613.034 5.45529 -4.41975 0
M  V30 6810 H 617.874 1.33332 -2.66508 0
M  V30 6811 H 615.411 0.647613 -1.32077 0
M  V30 6812 H 617.369 3.70071 -1.92623 0
M  V30 6813 H 615.999 3.0791 -0.969087 0
M  V30 6814 H 615.051 2.09066 -3.17798 0
M  V30 6815 H 616.363 2.92203 -4.04251 0
M  V30 6816 H 615.517 5.13411 -3.23255 0
M  V30 6817 H 614.256 4.31929 -2.2647 0
M  V30 6818 H 613.261 3.353 -4.35723 0
M  V30 6819 H 614.486 4.20049 -5.33606 0
M  V30 6820 H 612.432 5.53024 -3.52847 0
M  V30 6821 H 612.349 5.43311 -5.25689 0
M  V30 6822 H 613.617 6.35812 -4.50958 0
M  V30 6823 N 617.846 1.41785 0.688094 0
M  V30 6824 C 618.776 1.47 1.8142 0
M  V30 6825 C 619.757 0.327881 1.6691 0
M  V30 6826 O 620.942 0.540362 1.86531 0
M  V30 6827 C 618.072 1.35876 3.19617 0
M  V30 6828 C 617.026 2.47976 3.48844 0
M  V30 6829 C 616.352 2.21915 4.86475 0
M  V30 6830 C 617.652 3.90309 3.47068 0
M  V30 6831 H 619.346 2.41247 1.77314 0
M  V30 6832 H 616.892 1.16116 0.851651 0
M  V30 6833 H 618.845 1.38134 3.98117 0
M  V30 6834 H 617.569 0.38116 3.24368 0
M  V30 6835 H 616.228 2.45013 2.72698 0
M  V30 6836 H 615.876 1.2248 4.8786 0
M  V30 6837 H 615.576 2.97037 5.06994 0
M  V30 6838 H 617.1 2.25901 5.67275 0
M  V30 6839 H 618.514 3.94947 4.1556 0
M  V30 6840 H 616.911 4.65175 3.7912 0
M  V30 6841 H 617.981 4.17927 2.45896 0
M  V30 6842 N 619.324 -0.923095 1.27737 0
M  V30 6843 C 620.271 -2.02432 1.1086 0
M  V30 6844 C 621.241 -1.66098 0.00835195 0
M  V30 6845 O 622.426 -1.90027 0.171542 0
M  V30 6846 C 619.566 -3.36476 0.766671 0
M  V30 6847 C 618.679 -3.85737 1.94501 0
M  V30 6848 C 617.814 -5.08249 1.54455 0
M  V30 6849 C 616.853 -5.49818 2.6901 0
M  V30 6850 N 615.99 -6.63524 2.29521 0
M  V30 6851 H 620.83 -2.16201 2.05089 0
M  V30 6852 H 618.367 -1.05909 1.02087 0
M  V30 6853 H 620.325 -4.13569 0.549223 0
M  V30 6854 H 618.955 -3.22502 -0.13867 0
M  V30 6855 H 618.007 -3.04883 2.27487 0
M  V30 6856 H 619.319 -4.12513 2.80419 0
M  V30 6857 H 618.473 -5.92857 1.28862 0
M  V30 6858 H 617.212 -4.83261 0.656534 0
M  V30 6859 H 616.217 -4.63757 2.95313 0
M  V30 6860 H 617.442 -5.76799 3.5844 0
M  V30 6861 H 615.388 -6.40185 1.43177 0
M  V30 6862 H 615.305 -6.89978 3.08977 0
M  V30 6863 H 616.573 -7.51461 2.07187 0
M  V30 6864 N 620.802 -1.09834 -1.13024 0
M  V30 6865 C 622.048 -0.83819 -1.84668 0
M  V30 6866 C 622.381 0.634645 -1.83537 0
M  V30 6867 O 621.656 1.46753 -1.27647 0
M  V30 6868 C 621.939 -1.37933 -3.32636 0
M  V30 6869 C 621.792 -2.91857 -3.42257 0
M  V30 6870 C 623.111 -1.01654 -4.28199 0
M  V30 6871 H 620.23 -0.30595 -0.670495 0
M  V30 6872 H 622.872 -1.36044 -1.32635 0
M  V30 6873 H 621.022 -0.935111 -3.77078 0
M  V30 6874 H 622.694 -3.44759 -3.06495 0
M  V30 6875 H 620.937 -3.28776 -2.83 0
M  V30 6876 H 621.608 -3.24799 -4.46329 0
M  V30 6877 H 624.084 -1.39973 -3.9185 0
M  V30 6878 H 622.96 -1.42217 -5.30156 0
M  V30 6879 H 623.221 0.0747794 -4.42037 0
M  V30 6880 N 622.28 1.30327 -0.886154 0
M  V30 6881 C 623.19 2.31854 -0.357866 0
M  V30 6882 C 624.206 1.65392 0.540502 0
M  V30 6883 O 625.382 1.96683 0.433339 0
M  V30 6884 C 622.447 3.44171 0.417999 0
M  V30 6885 C 621.508 4.26257 -0.510263 0
M  V30 6886 C 620.741 5.3321 0.228669 0
M  V30 6887 O 620.964 5.51542 1.45458 0
M  V30 6888 O 619.898 6.0042 -0.421832 0
M  V30 6889 H 623.724 2.78995 -1.19982 0
M  V30 6890 H 621.309 1.34518 -0.650028 0
M  V30 6891 H 623.191 4.12588 0.857251 0
M  V30 6892 H 621.866 2.99164 1.23623 0
M  V30 6893 H 620.773 3.60533 -0.99835 0
M  V30 6894 H 622.106 4.74871 -1.29454 0
M  V30 6895 N 623.758 0.647228 1.43697 0
M  V30 6896 C 624.705 -0.0480092 2.3075 0
M  V30 6897 C 625.675 -0.820705 1.44408 0
M  V30 6898 O 626.86 -0.798515 1.73287 0
M  V30 6899 C 624 -1.01259 3.2991 0
M  V30 6900 C 623.113 -0.236629 4.31351 0
M  V30 6901 C 622.248 -1.19447 5.17596 0
M  V30 6902 C 621.287 -0.408595 6.10735 0
M  V30 6903 N 620.424 -1.31772 6.89623 0
M  V30 6904 H 625.264 0.700238 2.89656 0
M  V30 6905 H 622.801 0.357082 1.427 0
M  V30 6906 H 624.759 -1.58538 3.85903 0
M  V30 6907 H 623.389 -1.72778 2.72667 0
M  V30 6908 H 622.441 0.452353 3.77701 0
M  V30 6909 H 623.753 0.374731 4.9739 0
M  V30 6910 H 622.907 -1.83809 5.78186 0
M  V30 6911 H 621.646 -1.83975 4.51669 0
M  V30 6912 H 620.651 0.24841 5.49239 0
M  V30 6913 H 621.876 0.232188 6.78703 0
M  V30 6914 H 619.822 -1.94991 6.2635 0
M  V30 6915 H 619.739 -0.760779 7.52162 0
M  V30 6916 H 621.007 -1.94967 7.54724 0
M  V30 6917 N 625.236 -1.5273 0.388769 0
M  V30 6918 C 626.168 -2.24081 -0.481704 0
M  V30 6919 C 627.181 -1.26307 -1.02715 0
M  V30 6920 O 628.37 -1.52386 -0.929565 0
M  V30 6921 C 625.47 -2.94315 -1.68024 0
M  V30 6922 C 624.643 -4.18791 -1.26226 0
M  V30 6923 C 623.702 -4.72028 -2.32542 0
M  V30 6924 O 622.728 -5.35129 -1.93972 0
M  V30 6925 N 623.93 -4.51838 -3.64448 0
M  V30 6926 H 626.695 -2.9942 0.129591 0
M  V30 6927 H 624.256 -1.60465 0.2151 0
M  V30 6928 H 626.248 -3.26831 -2.38671 0
M  V30 6929 H 624.818 -2.22287 -2.19789 0
M  V30 6930 H 624.038 -3.92318 -0.384703 0
M  V30 6931 H 625.326 -4.99668 -0.959647 0
M  V30 6932 H 624.724 -4.01468 -3.98547 0
M  V30 6933 H 623.281 -4.88845 -4.31131 0
M  V30 6934 N 626.714 -0.118576 -1.57153 0
M  V30 6935 C 627.644 0.828436 -2.1831 0
M  V30 6936 C 628.625 1.27758 -1.12303 0
M  V30 6937 O 629.81 1.34026 -1.40537 0
M  V30 6938 C 626.94 2.07876 -2.78217 0
M  V30 6939 C 625.894 1.76742 -3.89803 0
M  V30 6940 C 625.22 3.08801 -4.36516 0
M  V30 6941 C 626.52 1.03606 -5.11921 0
M  V30 6942 H 628.214 0.318824 -2.97698 0
M  V30 6943 H 625.76 0.151911 -1.43196 0
M  V30 6944 H 627.713 2.74584 -3.19659 0
M  V30 6945 H 626.437 2.61161 -1.96118 0
M  V30 6946 H 625.096 1.12424 -3.48936 0
M  V30 6947 H 624.744 3.6002 -3.51276 0
M  V30 6948 H 624.444 2.88743 -5.11763 0
M  V30 6949 H 625.968 3.76627 -4.80608 0
M  V30 6950 H 627.382 1.60467 -5.50385 0
M  V30 6951 H 625.779 0.936454 -5.92748 0
M  V30 6952 H 626.849 0.0227421 -4.84895 0
M  V30 6953 N 628.193 1.56834 0.155195 0
M  V30 6954 C 629.441 1.82536 0.867462 0
M  V30 6955 C 629.762 0.698168 1.82073 0
M  V30 6956 O 629.032 -0.280807 1.93877 0
M  V30 6957 H 627.612 0.673401 0.323327 0
M  V30 6958 H 630.274 1.94313 0.151156 0
M  V30 6959 H 629.37 2.77171 1.43466 0
M  V30 6960 N 629.671 -0.424282 1.51781 0
M  V30 6961 C 630.601 -1.52305 1.7699 0
M  V30 6962 C 631.582 -1.5839 0.620209 0
M  V30 6963 O 632.767 -1.73908 0.864268 0
M  V30 6964 C 629.897 -2.90271 1.90683 0
M  V30 6965 C 628.851 -2.99043 3.06198 0
M  V30 6966 C 628.177 -4.39116 3.05092 0
M  V30 6967 C 629.477 -2.7192 4.45934 0
M  V30 6968 H 631.171 -1.31461 2.68995 0
M  V30 6969 H 628.717 -0.630985 1.29439 0
M  V30 6970 H 630.67 -3.6711 2.06901 0
M  V30 6971 H 629.394 -3.12376 0.953365 0
M  V30 6972 H 628.053 -2.24646 2.89706 0
M  V30 6973 H 627.701 -4.58207 2.07498 0
M  V30 6974 H 627.401 -4.45912 3.82669 0
M  V30 6975 H 628.925 -5.17911 3.2342 0
M  V30 6976 H 630.339 -3.38487 4.62709 0
M  V30 6977 H 628.736 -2.90111 5.25315 0
M  V30 6978 H 629.806 -1.67445 4.55072 0
M  V30 6979 N 631.149 -1.42148 -0.680565 0
M  V30 6980 C 632.565 -1.24947 -0.992995 0
M  V30 6981 C 632.765 -0.149527 -2.00944 0
M  V30 6982 O 631.821 0.481145 -2.47873 0
M  V30 6983 C 633.134 -2.60426 -1.5033 0
M  V30 6984 C 634.682 -2.67733 -1.62137 0
M  V30 6985 C 635.157 -4.03564 -2.16565 0
M  V30 6986 N 636.648 -4.05488 -2.23905 0
M  V30 6987 C 637.383 -5.07401 -2.67081 0
M  V30 6988 N 636.879 -6.19698 -3.09751 0
M  V30 6989 N 638.672 -4.94758 -2.66778 0
M  V30 6990 H 630.823 -2.12399 -0.0074788 0
M  V30 6991 H 633.086 -0.94571 -0.0658529 0
M  V30 6992 H 632.792 -3.41743 -0.830947 0
M  V30 6993 H 632.666 -2.83949 -2.483 0
M  V30 6994 H 635.053 -1.86765 -2.2848 0
M  V30 6995 H 635.134 -2.48004 -0.626713 0
M  V30 6996 H 634.778 -4.84987 -1.50833 0
M  V30 6997 H 634.708 -4.20641 -3.1681 0
M  V30 6998 H 637.199 -3.24415 -1.93812 0
M  V30 6999 H 637.512 -6.93318 -3.41365 0
M  V30 7000 H 635.857 -6.23212 -3.07623 0
M  V30 7001 H 639.048 -4.06105 -2.32801 0
M  V30 7002 H 639.221 -5.74317 -3.00107 0
M  V30 7003 N 632.627 0.916307 -1.28225 0
M  V30 7004 C 634.038 1.48024 -1.13779 0
M  V30 7005 C 634.389 1.94289 0.273139 0
M  V30 7006 O 633.514 1.82226 1.16716 0
M  V30 7007 C 634.109 2.69029 -2.05935 0
M  V30 7008 C 632.668 3.2161 -1.95561 0
M  V30 7009 C 631.815 1.94321 -1.97825 0
M  V30 7010 H 634.766 0.729272 -1.40951 0
M  V30 7011 H 634.787 3.44204 -1.62184 0
M  V30 7012 H 634.299 2.35325 -3.08616 0
M  V30 7013 H 632.4 3.60045 -0.959076 0
M  V30 7014 H 632.513 3.87032 -2.82388 0
M  V30 7015 H 630.877 2.1131 -1.42198 0
M  V30 7016 H 631.66 1.62917 -3.0218 0
M  V30 7017 N 634.105 1.10431 1.1244 0
M  V30 7018 C 635.33 0.869089 1.88313 0
M  V30 7019 C 635.755 -0.574912 1.79099 0
M  V30 7020 O 635.113 -1.40496 1.14589 0
M  V30 7021 C 635.161 1.32208 3.3549 0
M  V30 7022 O 634.265 0.487092 4.09513 0
M  V30 7023 H 633.606 0.313894 0.585121 0
M  V30 7024 H 636.136 1.47111 1.42195 0
M  V30 7025 H 636.146 1.31201 3.86329 0
M  V30 7026 H 634.821 2.37364 3.41513 0
M  V30 7027 H 633.398 0.562372 3.68635 0
M  V30 7028 N 635.583 -1.29855 0.893053 0
M  V30 7029 C 636.808 -2.00512 0.530066 0
M  V30 7030 C 637.233 -1.66446 -0.876199 0
M  V30 7031 O 636.591 -0.885446 -1.58207 0
M  V30 7032 C 636.639 -3.53308 0.721505 0
M  V30 7033 O 635.743 -4.11764 -0.228994 0
M  V30 7034 H 635.084 -0.630617 0.207891 0
M  V30 7035 H 637.614 -1.6551 1.20282 0
M  V30 7036 H 637.624 -4.03206 0.623599 0
M  V30 7037 H 636.299 -3.77439 1.74678 0
M  V30 7038 H 634.876 -3.72805 -0.0841034 0
M  V30 7039 N 637.061 -0.65484 -1.43351 0
M  V30 7040 C 638.024 0.0263562 -2.29185 0
M  V30 7041 C 639.024 0.748951 -1.42293 0
M  V30 7042 O 640.214 0.589957 -1.63906 0
M  V30 7043 C 637.346 1.04806 -3.2439 0
M  V30 7044 H 638.539 -0.728883 -2.90908 0
M  V30 7045 H 636.092 -0.416149 -1.50658 0
M  V30 7046 H 636.827 1.83247 -2.67565 0
M  V30 7047 H 636.612 0.533554 -3.88453 0
M  V30 7048 H 638.102 1.52372 -3.88809 0
M  V30 7049 N 638.539 1.52521 -0.396863 0
M  V30 7050 C 639.449 2.30403 0.44178 0
M  V30 7051 C 640.465 1.37625 1.06468 0
M  V30 7052 O 641.641 1.70697 1.06886 0
M  V30 7053 C 638.706 3.1013 1.54986 0
M  V30 7054 C 637.767 4.18628 0.951279 0
M  V30 7055 C 637 4.94543 2.00655 0
M  V30 7056 O 637.223 4.70629 3.22281 0
M  V30 7057 O 636.157 5.797 1.61962 0
M  V30 7058 H 639.983 3.03087 -0.192892 0
M  V30 7059 H 637.568 1.48537 -0.16038 0
M  V30 7060 H 639.45 3.59816 2.19341 0
M  V30 7061 H 638.125 2.40251 2.16935 0
M  V30 7062 H 637.032 3.73119 0.270773 0
M  V30 7063 H 638.365 4.90763 0.375887 0
M  V30 7064 N 640.017 0.126909 1.57088 0
M  V30 7065 C 641.428 -0.397201 1.82426 0
M  V30 7066 C 641.779 -1.66084 1.04453 0
M  V30 7067 O 640.904 -2.14534 0.283552 0
M  V30 7068 C 641.499 -0.727411 3.30899 0
M  V30 7069 C 640.058 -1.19612 3.56889 0
M  V30 7070 C 639.205 -0.20885 2.76512 0
M  V30 7071 H 642.156 0.351924 1.54749 0
M  V30 7072 H 642.177 -1.58407 3.45959 0
M  V30 7073 H 641.689 0.19247 3.87622 0
M  V30 7074 H 639.79 -2.13263 3.05532 0
M  V30 7075 H 639.903 -1.13598 4.65438 0
M  V30 7076 H 638.267 -0.697479 2.44964 0
M  V30 7077 H 639.05 0.704267 3.35998 0
M  V30 7078 N 641.495 -1.56914 -0.146875 0
M  V30 7079 C 642.443 -1.99224 -1.20053 0
M  V30 7080 C 643.437 -0.884661 -1.44465 0
M  V30 7081 O 644.643 -1.06984 -1.44756 0
M  V30 7082 H 641.018 -0.634191 -0.404112 0
M  V30 7083 H 642.989 -2.86998 -0.816987 0
M  V30 7084 C 641.738 -2.38899 -2.52632 0
M  V30 7085 H 641.061 -3.23677 -2.34677 0
M  V30 7086 H 642.501 -2.72326 -3.24984 0
M  V30 7087 C 640.96 -1.2417 -3.13183 0
M  V30 7088 O 641.49 -0.542503 -3.9802 0
M  V30 7089 N 639.696 -1.00592 -2.72635 0
M  V30 7090 H 639.243 -1.57627 -2.03744 0
M  V30 7091 H 639.201 -0.240174 -3.13481 0
M  V30 7092 N 642.974 0.416227 -1.52004 0
M  V30 7093 C 644.204 1.18401 -1.69307 0
M  V30 7094 C 644.612 1.84943 -0.399072 0
M  V30 7095 O 643.955 1.72406 0.634177 0
M  V30 7096 C 644.017 2.29465 -2.76742 0
M  V30 7097 C 643.681 1.83117 -4.18709 0
M  V30 7098 C 644.678 1.32286 -5.02789 0
M  V30 7099 C 642.363 1.90167 -4.64911 0
M  V30 7100 C 644.357 0.891178 -6.31139 0
M  V30 7101 C 642.044 1.4661 -5.93253 0
M  V30 7102 C 643.042 0.961696 -6.76196 0
M  V30 7103 O 642.73 0.532388 -8.02135 0
M  V30 7104 H 642.462 0.362098 -0.570843 0
M  V30 7105 H 645.016 0.496764 -1.99302 0
M  V30 7106 H 643.246 3.01531 -2.42107 0
M  V30 7107 H 644.935 2.91252 -2.82713 0
M  V30 7108 H 645.701 1.26218 -4.68288 0
M  V30 7109 H 641.58 2.28371 -4.00459 0
M  V30 7110 H 645.124 0.496788 -6.95829 0
M  V30 7111 H 641.021 1.52355 -6.27263 0
M  V30 7112 H 641.789 0.656339 -8.15864 0
M  V30 7113 N 644.452 1.42507 0.673017 0
M  V30 7114 C 645.4 1.46362 1.80779 0
M  V30 7115 C 646.394 0.339166 1.6597 0
M  V30 7116 O 647.6 0.512262 1.72557 0
M  V30 7117 H 643.975 0.458433 0.596107 0
M  V30 7118 H 645.946 2.41953 1.74646 0
M  V30 7119 C 644.695 1.38462 3.18941 0
M  V30 7120 H 644.018 2.24283 3.30964 0
M  V30 7121 H 645.458 1.45221 3.98355 0
M  V30 7122 C 643.917 0.0996354 3.36753 0
M  V30 7123 O 644.447 -0.846894 3.92671 0
M  V30 7124 N 642.653 0.016211 2.90595 0
M  V30 7125 H 642.2 0.78725 2.45276 0
M  V30 7126 H 642.158 -0.84291 3.0289 0
M  V30 7127 N 645.93 -0.909495 1.28709 0
M  V30 7128 C 646.862 -2.01729 1.08804 0
M  V30 7129 C 647.875 -1.62755 0.0384739 0
M  V30 7130 O 649.064 -1.76259 0.281977 0
M  V30 7131 C 646.164 -3.32952 0.63217 0
M  V30 7132 C 645.337 -4.00512 1.75809 0
M  V30 7133 C 644.396 -5.10019 1.29488 0
M  V30 7134 O 643.422 -5.32986 1.99787 0
M  V30 7135 N 644.624 -5.80278 0.1604 0
M  V30 7136 H 647.389 -2.19362 2.04207 0
M  V30 7137 H 644.95 -1.08106 1.20518 0
M  V30 7138 H 646.942 -4.03543 0.305802 0
M  V30 7139 H 645.512 -3.11759 -0.229134 0
M  V30 7140 H 644.732 -3.23413 2.25383 0
M  V30 7141 H 646.02 -4.42395 2.51325 0
M  V30 7142 H 645.418 -5.64094 -0.425937 0
M  V30 7143 H 643.975 -6.51713 -0.106663 0
M  V30 7144 N 647.408 -1.11026 -1.11852 0
M  V30 7145 C 648.824 -0.843294 -1.35502 0
M  V30 7146 C 649.024 0.534179 -1.9429 0
M  V30 7147 O 648.08 1.28585 -2.17307 0
M  V30 7148 C 649.393 -1.94793 -2.29077 0
M  V30 7149 C 650.941 -1.97709 -2.42652 0
M  V30 7150 C 651.416 -3.07364 -3.39546 0
M  V30 7151 N 652.907 -3.0671 -3.47107 0
M  V30 7152 C 653.642 -3.88197 -4.22008 0
M  V30 7153 N 653.138 -4.79635 -4.99922 0
M  V30 7154 N 654.931 -3.76391 -4.17476 0
M  V30 7155 H 647.082 -1.99805 -0.720538 0
M  V30 7156 H 649.345 -0.868633 -0.379711 0
M  V30 7157 H 649.051 -2.93971 -1.93065 0
M  V30 7158 H 648.925 -1.84039 -3.29256 0
M  V30 7159 H 651.312 -0.991604 -2.77941 0
M  V30 7160 H 651.393 -2.1254 -1.4234 0
M  V30 7161 H 651.037 -4.06136 -3.04985 0
M  V30 7162 H 650.967 -2.89774 -4.39703 0
M  V30 7163 H 653.458 -2.40457 -2.91528 0
M  V30 7164 H 653.771 -5.38357 -5.54429 0
M  V30 7165 H 652.116 -4.8366 -4.99097 0
M  V30 7166 H 655.307 -3.04303 -3.55693 0
M  V30 7167 H 655.48 -4.40131 -4.75593 0
M  V30 7168 N 648.886 1.2938 -0.899927 0
M  V30 7169 C 649.818 2.26737 -0.335139 0
M  V30 7170 C 650.831 1.54316 0.518681 0
M  V30 7171 O 652.02 1.75313 0.335803 0
M  V30 7172 C 649.12 3.34558 0.540774 0
M  V30 7173 C 648.293 4.36455 -0.287372 0
M  V30 7174 C 647.352 5.2361 0.52141 0
M  V30 7175 O 646.378 5.69167 -0.0611735 0
M  V30 7176 N 647.58 5.50985 1.82745 0
M  V30 7177 H 650.345 2.75838 -1.17191 0
M  V30 7178 H 647.906 1.42716 -0.764438 0
M  V30 7179 H 649.898 3.89794 1.08825 0
M  V30 7180 H 648.468 2.85272 1.27823 0
M  V30 7181 H 647.688 3.80875 -1.01626 0
M  V30 7182 H 648.976 5.01573 -0.854518 0
M  V30 7183 H 648.374 5.15781 2.32349 0
M  V30 7184 H 646.931 6.09036 2.32204 0
M  V30 7185 N 650.364 0.662433 1.43002 0
M  V30 7186 C 651.274 -0.0239199 2.34588 0
M  V30 7187 C 652.29 -0.802255 1.54402 0
M  V30 7188 O 653.466 -0.747401 1.87018 0
M  V30 7189 C 650.531 -0.972098 3.32793 0
M  V30 7190 C 649.592 -0.189673 4.28881 0
M  V30 7191 C 648.825 -1.09269 5.22395 0
M  V30 7192 O 649.048 -2.33209 5.20547 0
M  V30 7193 O 647.982 -0.560136 5.99288 0
M  V30 7194 H 651.808 0.730171 2.94792 0
M  V30 7195 H 649.393 0.422635 1.43297 0
M  V30 7196 H 651.275 -1.51676 3.93157 0
M  V30 7197 H 649.95 -1.70626 2.75079 0
M  V30 7198 H 648.857 0.398794 3.71968 0
M  V30 7199 H 650.19 0.50511 4.89601 0
M  V30 7200 N 651.842 -1.52309 0.404946 0
M  V30 7201 C 652.772 -2.29805 -0.41376 0
M  V30 7202 C 653.753 -1.3384 -1.0498 0
M  V30 7203 O 654.938 -1.62745 -1.05961 0
M  V30 7204 C 652.068 -3.11639 -1.53292 0
M  V30 7205 C 651.022 -4.15616 -1.02211 0
M  V30 7206 C 650.348 -4.8577 -2.23455 0
M  V30 7207 C 651.648 -5.2224 -0.0790725 0
M  V30 7208 H 653.342 -2.98493 0.232878 0
M  V30 7209 H 650.888 -1.43552 0.113441 0
M  V30 7210 H 652.841 -3.64618 -2.11262 0
M  V30 7211 H 651.565 -2.40712 -2.20738 0
M  V30 7212 H 650.224 -3.63641 -0.46484 0
M  V30 7213 H 649.872 -4.11376 -2.89445 0
M  V30 7214 H 649.572 -5.56058 -1.89929 0
M  V30 7215 H 651.096 -5.4156 -2.82038 0
M  V30 7216 H 652.51 -5.70485 -0.567438 0
M  V30 7217 H 650.907 -5.99867 0.167167 0
M  V30 7218 H 651.977 -4.77078 0.867447 0
M  V30 7219 N 653.32 -0.135238 -1.57019 0
M  V30 7220 C 654.736 0.221262 -1.58059 0
M  V30 7221 C 654.936 1.65538 -1.14889 0
M  V30 7222 O 653.992 2.37985 -0.843751 0
M  V30 7223 C 655.305 -0.0268114 -3.00688 0
M  V30 7224 C 656.853 0.0378206 -3.12977 0
M  V30 7225 C 657.328 -0.182769 -4.57635 0
M  V30 7226 N 658.819 -0.129292 -4.6302 0
M  V30 7227 C 659.554 -0.274648 -5.72742 0
M  V30 7228 N 659.05 -0.477075 -6.91155 0
M  V30 7229 N 660.843 -0.213077 -5.61696 0
M  V30 7230 H 652.994 -1.07177 -1.83376 0
M  V30 7231 H 655.257 -0.423338 -0.848227 0
M  V30 7232 H 654.963 -1.01889 -3.36618 0
M  V30 7233 H 654.837 0.697863 -3.70688 0
M  V30 7234 H 657.224 1.02043 -2.76896 0
M  V30 7235 H 657.305 -0.718996 -2.45487 0
M  V30 7236 H 656.949 -1.16243 -4.94419 0
M  V30 7237 H 656.879 0.59423 -5.23237 0
M  V30 7238 H 659.37 0.0229896 -3.77893 0
M  V30 7239 H 659.683 -0.578413 -7.70632 0
M  V30 7240 H 658.028 -0.513252 -6.93102 0
M  V30 7241 H 661.219 -0.0557796 -4.68067 0
M  V30 7242 H 661.392 -0.329796 -6.4716 0
M  V30 7243 N 654.798 1.5699 0.138552 0
M  V30 7244 C 656.023 1.88344 0.86841 0
M  V30 7245 C 656.448 0.725159 1.7356 0
M  V30 7246 O 655.806 -0.324992 1.78363 0
M  V30 7247 C 655.854 3.18334 1.69398 0
M  V30 7248 O 654.958 3.02863 2.79907 0
M  V30 7249 H 654.299 0.618577 0.241367 0
M  V30 7250 H 656.829 2.04207 0.126826 0
M  V30 7251 H 656.839 3.50567 2.08726 0
M  V30 7252 H 655.514 4.02238 1.05725 0
M  V30 7253 H 654.091 2.82056 2.43924 0
M  V30 7254 N 656.276 -0.40816 1.52223 0
M  V30 7255 C 657.224 -1.51788 1.76248 0
M  V30 7256 C 658.218 -1.57264 0.629638 0
M  V30 7257 O 659.424 -1.60659 0.811704 0
M  V30 7258 H 655.799 -0.504823 0.557367 0
M  V30 7259 H 657.77 -1.2871 2.69214 0
M  V30 7260 C 656.519 -2.89145 1.93107 0
M  V30 7261 H 655.842 -2.85674 2.79697 0
M  V30 7262 H 657.282 -3.66082 2.13916 0
M  V30 7263 C 655.741 -3.29581 0.698431 0
M  V30 7264 O 656.271 -4.01479 -0.133238 0
M  V30 7265 N 654.477 -2.85651 0.53405 0
M  V30 7266 H 654.024 -2.2731 1.21194 0
M  V30 7267 H 653.982 -3.13065 -0.289387 0
M  V30 7268 N 657.755 -1.42862 -0.66545 0
M  V30 7269 C 659.003 -1.43546 -1.42264 0
M  V30 7270 C 659.324 -0.0563116 -1.94919 0
M  V30 7271 O 658.594 0.906568 -1.73661 0
M  V30 7272 H 657.174 -0.528464 -0.527953 0
M  V30 7273 H 659.836 -1.78363 -0.785665 0
M  V30 7274 H 658.932 -2.14079 -2.27105 0
M  V30 7275 N 659.233 0.902656 -1.29189 0
M  V30 7276 C 660.143 2.03946 -1.15944 0
M  V30 7277 C 661.159 1.738 -0.0833803 0
M  V30 7278 O 662.335 1.9923 -0.29487 0
M  V30 7279 C 659.4 3.36519 -0.834006 0
M  V30 7280 C 658.461 3.80203 -1.9936 0
M  V30 7281 C 657.694 5.06449 -1.68359 0
M  V30 7282 O 657.917 5.67202 -0.603141 0
M  V30 7283 O 656.851 5.46114 -2.53067 0
M  V30 7284 H 660.677 2.18043 -2.11403 0
M  V30 7285 H 658.262 1.02584 -1.08613 0
M  V30 7286 H 660.144 4.16089 -0.666949 0
M  V30 7287 H 658.819 3.23573 0.0908245 0
M  V30 7288 H 657.726 3.01413 -2.21588 0
M  V30 7289 H 659.059 3.97729 -2.89952 0
M  V30 7290 N 660.711 1.11618 1.11262 0
M  V30 7291 C 661.621 0.78898 2.20935 0
M  V30 7292 C 662.637 -0.21867 1.7262 0
M  V30 7293 O 663.813 -0.0543826 2.01327 0
M  V30 7294 C 660.878 0.239014 3.45875 0
M  V30 7295 C 659.939 1.3055 4.08968 0
M  V30 7296 C 659.172 0.781687 5.27944 0
M  V30 7297 O 659.395 -0.387605 5.69082 0
M  V30 7298 O 658.329 1.54734 5.81671 0
M  V30 7299 H 662.155 1.70477 2.51339 0
M  V30 7300 H 659.74 0.892203 1.19834 0
M  V30 7301 H 661.622 -0.0632312 4.21353 0
M  V30 7302 H 660.297 -0.649454 3.17118 0
M  V30 7303 H 659.204 1.66079 3.35214 0
M  V30 7304 H 660.537 2.16743 4.41909 0
M  V30 7305 N 662.189 -1.289 0.906776 0
M  V30 7306 C 663.6 -1.77336 0.58384 0
M  V30 7307 C 663.951 -1.74304 -0.900697 0
M  V30 7308 O 663.076 -1.33335 -1.70443 0
M  V30 7309 C 663.671 -3.22019 1.05304 0
M  V30 7310 C 662.23 -3.68205 0.781148 0
M  V30 7311 C 661.377 -2.48837 1.22373 0
M  V30 7312 H 664.328 -1.15462 1.08877 0
M  V30 7313 H 664.349 -3.78481 0.391414 0
M  V30 7314 H 663.861 -3.24194 2.13353 0
M  V30 7315 H 661.962 -3.71497 -0.28643 0
M  V30 7316 H 662.075 -4.58675 1.384 0
M  V30 7317 H 660.439 -2.46461 0.642594 0
M  V30 7318 H 661.222 -2.53736 2.31242 0
M  V30 7319 N 663.667 -0.670007 -1.42649 0
M  V30 7320 C 665.083 -0.33911 -1.55956 0
M  V30 7321 C 665.283 1.1558 -1.65056 0
M  V30 7322 O 664.339 1.94111 -1.61485 0
M  V30 7323 C 665.652 -1.06522 -2.812 0
M  V30 7324 C 667.2 -1.04708 -2.94966 0
M  V30 7325 C 667.675 -1.75442 -4.23065 0
M  V30 7326 N 669.166 -1.72286 -4.29967 0
M  V30 7327 C 669.901 -2.23877 -5.27889 0
M  V30 7328 N 669.397 -2.83829 -6.31991 0
M  V30 7329 N 671.19 -2.14279 -5.19654 0
M  V30 7330 H 663.341 -1.6399 -1.34986 0
M  V30 7331 H 665.604 -0.690603 -0.649439 0
M  V30 7332 H 665.31 -2.12033 -2.80597 0
M  V30 7333 H 665.184 -0.627398 -3.71946 0
M  V30 7334 H 667.571 -0.000315966 -2.951 0
M  V30 7335 H 667.652 -1.52374 -2.05465 0
M  V30 7336 H 667.296 -2.80084 -4.23693 0
M  V30 7337 H 667.226 -1.25229 -5.11493 0
M  V30 7338 H 669.717 -1.28554 -3.55362 0
M  V30 7339 H 670.03 -3.20827 -7.03057 0
M  V30 7340 H 668.375 -2.87896 -6.32567 0
M  V30 7341 H 671.566 -1.67135 -4.37245 0
M  V30 7342 H 671.739 -2.54792 -5.95806 0
M  V30 7343 N 665.145 1.52092 -0.413018 0
M  V30 7344 C 666.392 2.01855 0.161497 0
M  V30 7345 C 666.72 1.29845 1.44812 0
M  V30 7346 O 665.975 0.394471 1.91683 0
M  V30 7347 C 666.274 3.54529 0.4521 0
M  V30 7348 C 665.94 4.4469 -0.745788 0
M  V30 7349 C 664.602 4.69053 -1.07435 0
M  V30 7350 C 666.954 4.97742 -1.54604 0
M  V30 7351 C 664.282 5.43717 -2.20429 0
M  V30 7352 C 666.634 5.73642 -2.66678 0
M  V30 7353 C 665.298 5.96277 -3.00016 0
M  V30 7354 H 664.568 0.73864 0.0590961 0
M  V30 7355 H 667.215 1.83274 -0.555234 0
M  V30 7356 H 665.52 3.7131 1.25045 0
M  V30 7357 H 667.217 3.90546 0.909647 0
M  V30 7358 H 663.807 4.25907 -0.479725 0
M  V30 7359 H 667.991 4.78824 -1.30543 0
M  V30 7360 H 663.247 5.59462 -2.46602 0
M  V30 7361 H 667.421 6.13746 -3.29072 0
M  V30 7362 H 665.048 6.53913 -3.87688 0
M  V30 7363 N 666.623 0.143563 1.56945 0
M  V30 7364 C 667.555 -0.828353 2.13708 0
M  V30 7365 C 668.568 -1.21313 1.08568 0
M  V30 7366 O 669.757 -1.1578 1.35857 0
M  V30 7367 C 666.857 -2.12248 2.64204 0
M  V30 7368 C 666.03 -1.90561 3.93707 0
M  V30 7369 C 665.089 -3.03931 4.29549 0
M  V30 7370 O 664.115 -2.75772 4.97934 0
M  V30 7371 N 665.317 -4.31016 3.88852 0
M  V30 7372 H 668.082 -0.343242 2.97728 0
M  V30 7373 H 665.643 -0.0401152 1.6185 0
M  V30 7374 H 667.635 -2.87132 2.85197 0
M  V30 7375 H 666.205 -2.52033 1.84928 0
M  V30 7376 H 665.425 -0.997327 3.81375 0
M  V30 7377 H 666.713 -1.73405 4.78339 0
M  V30 7378 H 666.111 -4.56762 3.33743 0
M  V30 7379 H 664.668 -5.02691 4.14903 0
M  V30 7380 N 668.101 -1.57061 -0.130224 0
M  V30 7381 C 669.011 -2.02802 -1.17934 0
M  V30 7382 C 670.027 -0.946378 -1.46013 0
M  V30 7383 O 671.203 -1.25708 -1.57351 0
M  V30 7384 C 668.268 -2.41368 -2.48882 0
M  V30 7385 C 667.329 -3.63561 -2.28301 0
M  V30 7386 C 666.562 -4.00279 -3.53005 0
M  V30 7387 O 666.785 -3.37463 -4.59864 0
M  V30 7388 O 665.719 -4.93441 -3.44673 0
M  V30 7389 H 669.545 -2.92394 -0.820958 0
M  V30 7390 H 667.13 -1.45475 -0.340197 0
M  V30 7391 H 669.012 -2.66958 -3.26054 0
M  V30 7392 H 667.687 -1.54926 -2.84217 0
M  V30 7393 H 666.594 -3.43136 -1.49025 0
M  V30 7394 H 667.927 -4.50673 -1.97875 0
M  V30 7395 N 669.579 0.400081 -1.52437 0
M  V30 7396 C 670.509 1.4947 -1.7939 0
M  V30 7397 C 671.49 1.57383 -0.645329 0
M  V30 7398 O 672.675 1.72511 -0.891826 0
M  V30 7399 C 669.805 2.87201 -1.95276 0
M  V30 7400 C 668.759 2.94134 -3.10917 0
M  V30 7401 C 668.085 4.34207 -3.1204 0
M  V30 7402 C 669.385 2.64791 -4.50203 0
M  V30 7403 H 671.079 1.27165 -2.71052 0
M  V30 7404 H 668.625 0.610312 -1.30427 0
M  V30 7405 H 670.578 3.63772 -2.12715 0
M  V30 7406 H 669.302 3.10819 -1.00294 0
M  V30 7407 H 667.961 2.20009 -2.93243 0
M  V30 7408 H 667.609 4.54848 -2.14761 0
M  V30 7409 H 667.309 4.39768 -3.89715 0
M  V30 7410 H 668.833 5.127 -3.31619 0
M  V30 7411 H 670.247 3.31083 -4.68035 0
M  V30 7412 H 668.644 2.81717 -5.29864 0
M  V30 7413 H 669.714 1.60184 -4.57678 0
M  V30 7414 N 671.057 1.43213 0.657864 0
M  V30 7415 C 672.468 1.39669 1.23893 0
M  V30 7416 C 672.819 0.0984217 1.95953 0
M  V30 7417 O 671.944 -0.8023 2.00978 0
M  V30 7418 C 672.539 2.53004 2.25332 0
M  V30 7419 C 671.098 2.5274 2.78926 0
M  V30 7420 C 670.245 2.30941 1.53497 0
M  V30 7421 H 673.196 1.52181 0.450172 0
M  V30 7422 H 673.217 2.24226 3.07413 0
M  V30 7423 H 672.729 3.4748 1.72856 0
M  V30 7424 H 670.83 1.6213 3.35477 0
M  V30 7425 H 670.943 3.50352 3.26787 0
M  V30 7426 H 669.307 1.7952 1.80678 0
M  V30 7427 H 670.09 3.27496 1.02963 0
M  V30 7428 N 672.536 -0.895792 1.29666 0
M  V30 7429 C 673.783 -1.64664 1.17864 0
M  V30 7430 C 674.111 -1.92631 -0.26902 0
M  V30 7431 O 673.366 -1.53787 -1.21029 0
M  V30 7432 C 673.665 -3.00075 1.94139 0
M  V30 7433 C 673.331 -2.91702 3.43833 0
M  V30 7434 C 671.993 -2.89126 3.84656 0
M  V30 7435 C 674.345 -2.80622 4.39205 0
M  V30 7436 C 671.673 -2.73293 5.1916 0
M  V30 7437 C 674.025 -2.66329 5.73805 0
M  V30 7438 C 672.689 -2.62121 6.1388 0
M  V30 7439 H 671.959 -0.602549 0.431295 0
M  V30 7440 H 674.606 -1.04234 1.60648 0
M  V30 7441 H 672.911 -3.64394 1.43958 0
M  V30 7442 H 674.608 -3.57111 1.82408 0
M  V30 7443 H 671.198 -2.94511 3.11386 0
M  V30 7444 H 675.382 -2.81686 4.08615 0
M  V30 7445 H 670.638 -2.68443 5.49316 0
M  V30 7446 H 674.812 -2.56727 6.47352 0
M  V30 7447 H 672.439 -2.49611 7.18052 0
M  V30 7448 N 674.014 -1.12206 -1.10668 0
M  V30 7449 C 675.43 -0.857619 -1.346 0
M  V30 7450 C 675.63 0.513542 -1.94846 0
M  V30 7451 O 674.686 1.26273 -2.18658 0
M  V30 7452 C 675.999 -1.97212 -2.26998 0
M  V30 7453 C 677.547 -2.00272 -2.40542 0
M  V30 7454 C 678.022 -3.10948 -3.36267 0
M  V30 7455 N 679.513 -3.10375 -3.43834 0
M  V30 7456 C 680.248 -3.92651 -4.17867 0
M  V30 7457 N 679.744 -4.84911 -4.94807 0
M  V30 7458 N 681.537 -3.80798 -4.1346 0
M  V30 7459 H 673.688 -2.00558 -0.699306 0
M  V30 7460 H 675.951 -0.872612 -0.370477 0
M  V30 7461 H 675.657 -2.96002 -1.89936 0
M  V30 7462 H 675.531 -1.87521 -3.27286 0
M  V30 7463 H 677.918 -1.02103 -2.76874 0
M  V30 7464 H 677.999 -2.14037 -1.40077 0
M  V30 7465 H 677.643 -4.09348 -3.00661 0
M  V30 7466 H 677.573 -2.94421 -4.36605 0
M  V30 7467 H 680.064 -2.43536 -2.88961 0
M  V30 7468 H 680.377 -5.44207 -5.48688 0
M  V30 7469 H 678.722 -4.88926 -4.93939 0
M  V30 7470 H 681.913 -3.08058 -3.52445 0
M  V30 7471 H 682.086 -4.4515 -4.70898 0
M  V30 7472 N 675.492 1.28418 -0.913599 0
M  V30 7473 C 676.439 2.27301 -0.400373 0
M  V30 7474 C 677.409 1.57582 0.52509 0
M  V30 7475 O 678.594 1.85482 0.447318 0
M  V30 7476 C 675.734 3.43284 0.35361 0
M  V30 7477 C 674.847 4.27752 -0.604341 0
M  V30 7478 C 673.982 5.30934 0.168075 0
M  V30 7479 C 673.021 6.07065 -0.783499 0
M  V30 7480 N 672.158 7.02086 -0.0446112 0
M  V30 7481 H 676.998 2.70579 -1.24865 0
M  V30 7482 H 674.535 1.33067 -0.627028 0
M  V30 7483 H 676.493 4.09322 0.806945 0
M  V30 7484 H 675.123 3.00997 1.16623 0
M  V30 7485 H 674.175 3.61759 -1.17621 0
M  V30 7486 H 675.487 4.80682 -1.33216 0
M  V30 7487 H 674.641 6.02855 0.681979 0
M  V30 7488 H 673.38 4.78771 0.928947 0
M  V30 7489 H 672.385 5.33995 -1.30878 0
M  V30 7490 H 673.61 6.61317 -1.54392 0
M  V30 7491 H 671.556 6.52273 0.698272 0
M  V30 7492 H 671.473 7.52637 -0.712258 0
M  V30 7493 H 672.741 7.78205 0.449102 0
M  V30 7494 N 676.97 0.677563 1.42291 0
M  V30 7495 C 677.918 -0.0106755 2.32598 0
M  V30 7496 C 678.912 -0.787643 1.49975 0
M  V30 7497 O 680.118 -0.695295 1.66029 0
M  V30 7498 H 676.493 -0.0222482 0.751671 0
M  V30 7499 H 678.464 0.768312 2.88339 0
M  V30 7500 C 677.213 -0.946142 3.3458 0
M  V30 7501 H 676.536 -0.357701 3.98197 0
M  V30 7502 H 677.976 -1.39634 4.00348 0
M  V30 7503 C 676.435 -2.05383 2.67057 0
M  V30 7504 O 676.965 -3.1406 2.50458 0
M  V30 7505 N 675.171 -1.82635 2.26038 0
M  V30 7506 H 674.718 -0.942534 2.39737 0
M  V30 7507 H 674.676 -2.56937 1.81192 0
M  V30 7508 N 678.448 -1.51871 0.421078 0
M  V30 7509 C 679.358 -2.31077 -0.405069 0
M  V30 7510 C 680.374 -1.39301 -1.04265 0
M  V30 7511 O 681.55 -1.72376 -1.04157 0
M  V30 7512 C 678.615 -3.12556 -1.50032 0
M  V30 7513 C 677.676 -4.20088 -0.884559 0
M  V30 7514 C 676.909 -4.97673 -1.92762 0
M  V30 7515 O 677.132 -4.75696 -3.14753 0
M  V30 7516 O 676.066 -5.82203 -1.52719 0
M  V30 7517 H 679.892 -3.02742 0.241086 0
M  V30 7518 H 677.477 -1.48263 0.183991 0
M  V30 7519 H 679.359 -3.6326 -2.13589 0
M  V30 7520 H 678.034 -2.43672 -2.13086 0
M  V30 7521 H 676.941 -3.73502 -0.211379 0
M  V30 7522 H 678.274 -4.91298 -0.297763 0
M  V30 7523 N 679.926 -0.151884 -1.56866 0
M  V30 7524 C 680.859 0.824094 -2.128 0
M  V30 7525 C 681.837 1.2391 -1.05286 0
M  V30 7526 O 683.021 1.33433 -1.33146 0
M  V30 7527 C 680.148 2.1072 -2.65169 0
M  V30 7528 C 679.194 1.83774 -3.84876 0
M  V30 7529 S 680.027 1.02436 -5.25611 0
M  V30 7530 C 681.183 2.31855 -5.81373 0
M  V30 7531 H 681.416 0.348456 -2.95251 0
M  V30 7532 H 678.949 0.0624794 -1.54274 0
M  V30 7533 H 680.907 2.84428 -2.95992 0
M  V30 7534 H 679.568 2.55398 -1.8284 0
M  V30 7535 H 678.761 2.78929 -4.19779 0
M  V30 7536 H 678.363 1.18172 -3.5484 0
M  V30 7537 H 680.655 3.27469 -5.93102 0
M  V30 7538 H 681.598 2.01449 -6.7884 0
M  V30 7539 H 682.006 2.42727 -5.09651 0
M  V30 7540 N 681.404 1.57128 0.121893 0
M  V30 7541 C 682.351 2.0013 1.14964 0
M  V30 7542 C 683.321 0.872959 1.4131 0
M  V30 7543 O 684.506 1.13696 1.53225 0
M  V30 7544 C 681.646 2.40824 2.4718 0
M  V30 7545 C 680.759 3.67061 2.27794 0
M  V30 7546 C 679.894 3.96749 3.53219 0
M  V30 7547 C 678.933 5.16178 3.28978 0
M  V30 7548 N 678.07 5.41751 4.46599 0
M  V30 7549 H 682.91 2.8772 0.775947 0
M  V30 7550 H 680.447 1.42328 0.371652 0
M  V30 7551 H 682.405 2.62454 3.24305 0
M  V30 7552 H 681.035 1.56279 2.82448 0
M  V30 7553 H 680.087 3.53063 1.416 0
M  V30 7554 H 681.399 4.5434 2.05857 0
M  V30 7555 H 680.553 4.19012 4.38764 0
M  V30 7556 H 679.292 3.07941 3.78185 0
M  V30 7557 H 678.297 4.93762 2.41824 0
M  V30 7558 H 679.522 6.06561 3.05386 0
M  V30 7559 H 677.468 4.55899 4.71691 0
M  V30 7560 H 677.385 6.23347 4.27756 0
M  V30 7561 H 678.653 5.68531 5.33285 0
M  V30 7562 N 682.882 -0.391992 1.52647 0
M  V30 7563 C 683.792 -1.503 1.80131 0
M  V30 7564 C 684.808 -1.59825 0.687882 0
M  V30 7565 O 685.984 -1.76218 0.975149 0
M  V30 7566 C 683.049 -2.85863 1.96171 0
M  V30 7567 C 682.11 -2.86084 3.20085 0
M  V30 7568 C 681.343 -4.15181 3.35351 0
M  V30 7569 O 681.566 -5.09981 2.55491 0
M  V30 7570 O 680.5 -4.22603 4.28591 0
M  V30 7571 H 684.326 -1.30007 2.74466 0
M  V30 7572 H 681.911 -0.579539 1.37701 0
M  V30 7573 H 683.793 -3.66236 2.08445 0
M  V30 7574 H 682.468 -3.06189 1.05025 0
M  V30 7575 H 681.375 -2.04504 3.13256 0
M  V30 7576 H 682.708 -2.7071 4.11068 0
M  V30 7577 N 684.36 -1.4356 -0.65026 0
M  V30 7578 C 685.292 -1.44918 -1.77571 0
M  V30 7579 C 686.305 -0.344925 -1.59104 0
M  V30 7580 O 687.494 -0.609537 -1.6777 0
M  V30 7581 C 684.594 -1.24914 -3.15039 0
M  V30 7582 C 683.767 -2.48232 -3.60138 0
M  V30 7583 C 682.826 -2.23409 -4.76419 0
M  V30 7584 O 681.852 -2.9678 -4.85706 0
M  V30 7585 N 683.054 -1.25259 -5.66825 0
M  V30 7586 H 685.819 -2.41935 -1.76883 0
M  V30 7587 H 683.38 -1.38754 -0.834202 0
M  V30 7588 H 685.372 -1.06185 -3.90521 0
M  V30 7589 H 683.942 -0.363319 -3.10481 0
M  V30 7590 H 683.162 -2.82366 -2.75069 0
M  V30 7591 H 684.45 -3.30296 -3.87017 0
M  V30 7592 H 683.848 -0.646246 -5.61997 0
M  V30 7593 H 682.405 -1.12513 -6.42016 0
M  V30 7594 N 685.838 0.888903 -1.30139 0
M  V30 7595 C 686.748 2.02705 -1.18101 0
M  V30 7596 C 687.764 1.73702 -0.101809 0
M  V30 7597 O 688.94 1.98906 -0.315984 0
M  V30 7598 C 686.005 3.35616 -0.869651 0
M  V30 7599 C 685.066 3.78067 -2.03381 0
M  V30 7600 C 684.299 5.04635 -1.73721 0
M  V30 7601 O 684.522 5.66531 -0.663267 0
M  V30 7602 O 683.456 5.43399 -2.58845 0
M  V30 7603 H 687.282 2.15788 -2.13704 0
M  V30 7604 H 684.867 1.01426 -1.09695 0
M  V30 7605 H 686.749 4.15358 -0.711043 0
M  V30 7606 H 685.424 3.23651 0.0565002 0
M  V30 7607 H 684.331 2.99046 -2.24772 0
M  V30 7608 H 685.664 3.94631 -2.94155 0
M  V30 7609 N 687.317 1.12792 1.10072 0
M  V30 7610 C 688.547 0.907189 1.85617 0
M  V30 7611 C 688.955 -0.547181 1.81115 0
M  V30 7612 O 688.298 -1.39024 1.20075 0
M  V30 7613 C 688.36 1.30872 3.34832 0
M  V30 7614 C 688.024 2.77516 3.6309 0
M  V30 7615 C 689.021 3.75696 3.59373 0
M  V30 7616 C 686.706 3.14513 3.91646 0
M  V30 7617 C 688.7 5.08888 3.83812 0
M  V30 7618 C 686.387 4.47886 4.15742 0
M  V30 7619 C 687.385 5.44882 4.11816 0
M  V30 7620 O 687.073 6.7585 4.35295 0
M  V30 7621 H 686.805 0.323855 0.593375 0
M  V30 7622 H 689.359 1.50262 1.40038 0
M  V30 7623 H 687.589 0.656518 3.81086 0
M  V30 7624 H 689.278 1.06153 3.91773 0
M  V30 7625 H 690.044 3.48458 3.37345 0
M  V30 7626 H 685.923 2.39622 3.93831 0
M  V30 7627 H 689.467 5.84586 3.80663 0
M  V30 7628 H 685.364 4.74851 4.37249 0
M  V30 7629 H 686.132 6.81853 4.52791 0
M  V30 7630 N 688.795 -1.27931 0.920396 0
M  V30 7631 C 690.041 -1.95329 0.5673 0
M  V30 7632 C 690.396 -1.7107 -0.880506 0
M  V30 7633 O 689.689 -1.02497 -1.61879 0
M  V30 7634 C 689.883 -3.47853 0.820558 0
M  V30 7635 C 689.712 -3.86941 2.29143 0
M  V30 7636 C 688.482 -4.10766 2.94278 0
M  V30 7637 C 690.68 -3.97091 3.26838 0
M  V30 7638 N 688.662 -4.36578 4.31594 0
M  V30 7639 C 690.033 -4.27194 4.49339 0
M  V30 7640 C 692.088 -3.79639 3.22147 0
M  V30 7641 C 690.791 -4.41662 5.67739 0
M  V30 7642 C 692.817 -3.95328 4.39852 0
M  V30 7643 C 692.179 -4.2581 5.61128 0
M  V30 7644 H 688.278 -0.73836 0.257583 0
M  V30 7645 H 690.862 -1.54447 1.1855 0
M  V30 7646 H 689.033 -3.87709 0.231571 0
M  V30 7647 H 690.765 -4.024 0.430824 0
M  V30 7648 H 687.52 -4.05318 2.44979 0
M  V30 7649 H 687.944 -4.53555 5.0261 0
M  V30 7650 H 692.586 -3.55119 2.29457 0
M  V30 7651 H 690.304 -4.65011 6.60901 0
M  V30 7652 H 693.89 -3.83253 4.37731 0
M  V30 7653 H 692.77 -4.37691 6.50689 0
M  V30 7654 N 690.273 -0.685099 -1.4193 0
M  V30 7655 C 691.22 -0.0131869 -2.30796 0
M  V30 7656 C 692.19 0.782129 -1.46533 0
M  V30 7657 O 693.375 0.75229 -1.75343 0
M  V30 7658 C 690.515 0.924768 -3.32479 0
M  V30 7659 C 689.628 0.122181 -4.31827 0
M  V30 7660 C 688.763 1.05682 -5.20581 0
M  V30 7661 C 687.802 0.246526 -6.11603 0
M  V30 7662 N 686.939 1.13442 -6.92875 0
M  V30 7663 H 691.779 -0.776789 -2.87698 0
M  V30 7664 H 689.316 -0.394791 -1.41703 0
M  V30 7665 H 691.274 1.48251 -3.89971 0
M  V30 7666 H 689.904 1.65488 -2.77152 0
M  V30 7667 H 688.956 -0.552335 -3.76369 0
M  V30 7668 H 690.268 -0.506473 -4.96222 0
M  V30 7669 H 689.422 1.68415 -5.82856 0
M  V30 7670 H 688.161 1.71935 -4.56388 0
M  V30 7671 H 687.166 -0.393944 -5.48387 0
M  V30 7672 H 688.391 -0.412053 -6.77849 0
M  V30 7673 H 686.337 1.78316 -6.313 0
M  V30 7674 H 686.254 0.561089 -7.53915 0
M  V30 7675 H 687.522 1.74889 -7.59628 0
M  V30 7676 N 691.751 1.51645 -0.429126 0
M  V30 7677 C 692.683 2.25279 0.422124 0
M  V30 7678 C 693.696 1.28986 0.993299 0
M  V30 7679 O 694.885 1.54797 0.888836 0
M  V30 7680 C 691.985 2.98666 1.60162 0
M  V30 7681 C 691.158 4.2199 1.15078 0
M  V30 7682 C 690.217 4.78028 2.19946 0
M  V30 7683 O 689.243 5.40084 1.79716 0
M  V30 7684 N 690.445 4.61342 3.5234 0
M  V30 7685 H 693.21 2.98971 -0.208931 0
M  V30 7686 H 690.771 1.59838 -0.257568 0
M  V30 7687 H 692.763 3.33044 2.29922 0
M  V30 7688 H 691.333 2.28036 2.13818 0
M  V30 7689 H 690.553 3.932 0.280552 0
M  V30 7690 H 691.841 5.02037 0.826831 0
M  V30 7691 H 691.239 4.11894 3.87763 0
M  V30 7692 H 689.796 5.00104 4.18019 0
M  V30 7693 N 693.229 0.160201 1.56784 0
M  V30 7694 C 694.159 -0.770264 2.2043 0
M  V30 7695 C 695.14 -1.24736 1.15651 0
M  V30 7696 O 696.325 -1.30253 1.44041 0
M  V30 7697 C 693.455 -2.00427 2.83631 0
M  V30 7698 C 692.409 -1.66345 3.94352 0
M  V30 7699 C 691.735 -2.97119 4.4455 0
M  V30 7700 C 693.035 -0.899972 5.14488 0
M  V30 7701 H 694.729 -0.239783 2.98438 0
M  V30 7702 H 692.275 -0.113891 1.43549 0
M  V30 7703 H 694.228 -2.66012 3.26827 0
M  V30 7704 H 692.952 -2.5587 2.02973 0
M  V30 7705 H 691.611 -1.03133 3.51794 0
M  V30 7706 H 691.259 -3.5058 3.60698 0
M  V30 7707 H 690.959 -2.75073 5.19238 0
M  V30 7708 H 692.483 -3.63753 4.90425 0
M  V30 7709 H 693.897 -1.45818 5.54446 0
M  V30 7710 H 692.294 -0.778968 5.95023 0
M  V30 7711 H 693.364 0.105827 4.84785 0
M  V30 7712 N 694.707 -1.5719 -0.113559 0
M  V30 7713 C 695.617 -2.04041 -1.15777 0
M  V30 7714 C 696.633 -0.961812 -1.45001 0
M  V30 7715 O 697.809 -1.2737 -1.56009 0
M  V30 7716 C 694.874 -2.43994 -2.46308 0
M  V30 7717 C 693.935 -3.65962 -2.24433 0
M  V30 7718 C 693.168 -4.04 -3.4874 0
M  V30 7719 O 693.391 -3.42321 -4.56259 0
M  V30 7720 O 692.325 -4.97069 -3.3942 0
M  V30 7721 H 696.151 -2.93248 -0.789899 0
M  V30 7722 H 693.736 -1.45828 -0.324748 0
M  V30 7723 H 695.618 -2.70401 -3.23204 0
M  V30 7724 H 694.293 -1.57932 -2.82558 0
M  V30 7725 H 693.2 -3.44697 -1.45377 0
M  V30 7726 H 694.533 -4.52746 -1.93084 0
M  V30 7727 N 696.185 0.383891 -1.52853 0
M  V30 7728 C 697.095 1.49343 -1.80925 0
M  V30 7729 C 698.111 1.59458 -0.696348 0
M  V30 7730 O 699.287 1.75698 -0.984481 0
M  V30 7731 C 696.352 2.84819 -1.97684 0
M  V30 7732 C 695.413 2.84382 -3.21598 0
M  V30 7733 C 694.646 4.13397 -3.37548 0
M  V30 7734 O 694.869 5.08619 -2.58192 0
M  V30 7735 O 693.803 4.20325 -4.30826 0
M  V30 7736 H 697.629 1.2855 -2.75152 0
M  V30 7737 H 695.214 0.572229 -1.38007 0
M  V30 7738 H 697.096 3.65125 -2.10385 0
M  V30 7739 H 695.771 3.05627 -1.06647 0
M  V30 7740 H 694.678 2.0284 -3.14336 0
M  V30 7741 H 696.011 2.68526 -4.12498 0
M  V30 7742 N 697.663 1.43903 0.642637 0
M  V30 7743 C 698.912 1.45362 1.39831 0
M  V30 7744 C 699.225 0.0856289 1.95412 0
M  V30 7745 O 700.431 -0.0222856 2.71491 0
M  V30 7746 C 698.887 2.55857 2.53111 0
M  V30 7747 C 698.495 3.98811 2.04092 0
M  V30 7748 C 700.239 2.66524 3.30402 0
M  V30 7749 C 698.146 5.00751 3.14647 0
M  V30 7750 H 697.076 0.540777 0.52543 0
M  V30 7751 H 699.727 1.69929 0.692559 0
M  V30 7752 H 698.109 2.2451 3.26207 0
M  V30 7753 H 699.283 4.3967 1.37938 0
M  V30 7754 H 697.598 3.92284 1.39651 0
M  V30 7755 H 700.195 3.39858 4.12796 0
M  V30 7756 H 700.538 1.71949 3.79129 0
M  V30 7757 H 701.071 2.97224 2.64392 0
M  V30 7758 H 697.81 5.96914 2.70876 0
M  V30 7759 H 697.33 4.64495 3.79479 0
M  V30 7760 H 699.009 5.23933 3.79609 0
M  V30 7761 N 699.141 -0.881989 1.30609 0
M  V30 7762 C 700.557 -1.16576 1.09005 0
M  V30 7763 C 700.757 -2.00961 -0.14727 0
M  V30 7764 O 699.813 -2.38117 -0.840036 0
M  V30 7765 C 701.126 -1.86954 2.35518 0
M  V30 7766 C 702.674 -1.99706 2.41011 0
M  V30 7767 C 703.149 -2.73497 3.67374 0
M  V30 7768 N 704.64 -2.8104 3.68199 0
M  V30 7769 C 705.375 -3.38718 4.62664 0
M  V30 7770 N 704.871 -3.97421 5.67475 0
M  V30 7771 N 706.664 -3.36561 4.50203 0
M  V30 7772 H 698.815 -0.319398 2.09985 0
M  V30 7773 H 701.078 -0.204058 0.925778 0
M  V30 7774 H 700.784 -1.32393 3.2583 0
M  V30 7775 H 700.658 -2.87317 2.44395 0
M  V30 7776 H 703.045 -2.53436 1.51176 0
M  V30 7777 H 703.126 -0.984218 2.36108 0
M  V30 7778 H 702.77 -2.20438 4.57569 0
M  V30 7779 H 702.7 -3.75163 3.6954 0
M  V30 7780 H 705.191 -2.39365 2.92426 0
M  V30 7781 H 705.504 -4.39507 6.35652 0
M  V30 7782 H 703.849 -3.95832 5.71264 0
M  V30 7783 H 707.04 -2.8993 3.67503 0
M  V30 7784 H 707.213 -3.81215 5.24003 0
M  V30 7785 N 700.619 -1.13374 -1.09472 0
M  V30 7786 C 701.551 -0.768466 -2.15933 0
M  V30 7787 C 702.564 0.209585 -1.61445 0
M  V30 7788 O 703.753 -0.010539 -1.78497 0
M  V30 7789 C 700.853 -0.118266 -3.38694 0
M  V30 7790 C 700.026 -1.12829 -4.22597 0
M  V30 7791 C 699.085 -0.503875 -5.23782 0
M  V30 7792 O 698.111 -1.16374 -5.57177 0
M  V30 7793 N 699.313 0.724288 -5.75964 0
M  V30 7794 H 702.078 -1.68457 -2.47876 0
M  V30 7795 H 699.639 -1.02668 -1.25183 0
M  V30 7796 H 701.631 0.311698 -4.03498 0
M  V30 7797 H 700.201 0.700769 -3.04644 0
M  V30 7798 H 699.421 -1.73556 -3.53938 0
M  V30 7799 H 700.709 -1.81095 -4.75481 0
M  V30 7800 H 700.107 1.27918 -5.51048 0
M  V30 7801 H 698.664 1.09692 -6.42504 0
M  V30 7802 N 702.098 1.27442 -0.927168 0
M  V30 7803 C 703.03 2.25975 -0.383158 0
M  V30 7804 C 704.043 1.55382 0.485832 0
M  V30 7805 O 705.232 1.75986 0.298541 0
M  V30 7806 C 702.332 3.35629 0.469688 0
M  V30 7807 C 701.505 4.35747 -0.379886 0
M  V30 7808 C 700.564 5.24598 0.410227 0
M  V30 7809 O 699.59 5.68909 -0.181888 0
M  V30 7810 N 700.792 5.54737 1.71017 0
M  V30 7811 H 703.557 2.7329 -1.23015 0
M  V30 7812 H 701.118 1.41063 -0.794539 0
M  V30 7813 H 703.11 3.92015 1.00532 0
M  V30 7814 H 701.68 2.87919 1.21744 0
M  V30 7815 H 700.9 3.78634 -1.09682 0
M  V30 7816 H 702.188 4.99648 -0.960717 0
M  V30 7817 H 701.586 5.20594 2.21356 0
M  V30 7818 H 700.143 6.13824 2.19234 0
M  V30 7819 N 703.576 0.692616 1.41565 0
M  V30 7820 C 704.806 0.230943 2.05305 0
M  V30 7821 C 705.214 -1.12379 1.52209 0
M  V30 7822 O 704.557 -1.71281 0.663968 0
M  V30 7823 C 704.619 0.107894 3.59338 0
M  V30 7824 C 704.283 1.39419 4.35214 0
M  V30 7825 C 705.28 2.33143 4.64694 0
M  V30 7826 C 702.965 1.64674 4.74539 0
M  V30 7827 C 704.959 3.50385 5.32456 0
M  V30 7828 C 702.646 2.82202 5.42038 0
M  V30 7829 C 703.644 3.74881 5.70923 0
M  V30 7830 O 703.332 4.90351 6.37033 0
M  V30 7831 H 703.064 0.105708 0.667684 0
M  V30 7832 H 705.618 0.94488 1.82376 0
M  V30 7833 H 703.848 -0.661785 3.80995 0
M  V30 7834 H 705.537 -0.316213 4.04666 0
M  V30 7835 H 706.303 2.14887 4.34797 0
M  V30 7836 H 702.182 0.934007 4.51439 0
M  V30 7837 H 705.726 4.22743 5.54918 0
M  V30 7838 H 701.623 3.00376 5.71353 0
M  V30 7839 H 702.391 4.90128 6.55528 0
M  V30 7840 N 705.054 -1.51416 0.437162 0
M  V30 7841 C 706.004 -2.24599 -0.392311 0
M  V30 7842 C 706.988 -1.2682 -0.990221 0
M  V30 7843 O 708.18 -1.51912 -0.908391 0
M  V30 7844 C 705.309 -3.09134 -1.49301 0
M  V30 7845 C 704.395 -4.14342 -0.904503 0
M  V30 7846 N 704.786 -5.0578 -0.0451511 0
M  V30 7847 C 703.084 -4.30323 -1.1721 0
M  V30 7848 C 703.785 -5.81 0.285344 0
M  V30 7849 N 702.761 -5.42591 -0.330993 0
M  V30 7850 H 706.563 -2.92655 0.270221 0
M  V30 7851 H 704.077 -1.60476 0.249226 0
M  V30 7852 H 706.074 -3.6014 -2.10011 0
M  V30 7853 H 704.734 -2.42622 -2.15788 0
M  V30 7854 H 705.745 -5.16903 0.321271 0
M  V30 7855 H 702.422 -3.75037 -1.83448 0
M  V30 7856 H 703.812 -6.64646 0.984626 0
M  V30 7857 N 706.532 -0.168513 -1.56696 0
M  V30 7858 C 707.48 0.779791 -2.19139 0
M  V30 7859 C 708.474 1.23957 -1.1546 0
M  V30 7860 O 709.68 1.20555 -1.33666 0
M  V30 7861 H 706.055 0.269739 -0.701958 0
M  V30 7862 H 708.026 0.229156 -2.97519 0
M  V30 7863 C 706.775 2.00003 -2.84419 0
M  V30 7864 H 706.098 1.65527 -3.63924 0
M  V30 7865 H 707.538 2.64251 -3.31583 0
M  V30 7866 C 705.997 2.82187 -1.84044 0
M  V30 7867 O 706.527 3.79247 -1.32418 0
M  V30 7868 N 704.733 2.47145 -1.52864 0
M  V30 7869 H 704.28 1.68277 -1.9504 0
M  V30 7870 H 704.238 3.02422 -0.859569 0
M  V30 7871 N 708.01 1.57248 0.105221 0
M  V30 7872 C 709.287 1.76566 0.841647 0
M  V30 7873 C 709.667 0.747566 1.9742 0
M  V30 7874 O 709.015 -0.225886 2.27381 0
M  V30 7875 C 709.225 3.22016 1.3456 0
M  V30 7876 C 710.573 3.84911 1.79244 0
M  V30 7877 O 711.597 3.25703 1.44207 0
M  V30 7878 O 710.456 4.89008 2.43995 0
M  V30 7879 H 707.55 0.723443 0.400698 0
M  V30 7880 H 710.096 1.69472 0.0878893 0
M  V30 7881 H 708.868 3.87644 0.533685 0
M  V30 7882 H 708.491 3.33703 2.16167 0
M  V30 7883 N 709.488 -0.375779 1.53054 0
M  V30 7884 C 710.421 -1.48187 1.7354 0
M  V30 7885 C 711.399 -1.5177 0.583495 0
M  V30 7886 O 712.583 -1.69976 0.81488 0
M  V30 7887 C 709.71 -2.86598 1.80497 0
M  V30 7888 C 708.756 -3.00784 3.02376 0
M  V30 7889 S 709.589 -2.70601 4.62099 0
M  V30 7890 C 710.745 -4.11181 4.71891 0
M  V30 7891 H 710.978 -1.30587 2.67085 0
M  V30 7892 H 708.511 -0.569485 1.43514 0
M  V30 7893 H 710.469 -3.66353 1.85192 0
M  V30 7894 H 709.13 -3.01514 0.880217 0
M  V30 7895 H 708.323 -4.02128 3.03824 0
M  V30 7896 H 707.925 -2.28939 2.95742 0
M  V30 7897 H 710.217 -5.0529 4.51319 0
M  V30 7898 H 711.16 -4.14742 5.73929 0
M  V30 7899 H 711.568 -3.97706 4.00612 0
M  V30 7900 N 710.966 -1.44241 -0.634997 0
M  V30 7901 C 711.913 -1.5081 -1.74714 0
M  V30 7902 C 712.883 -0.356147 -1.62237 0
M  V30 7903 O 714.068 -0.565848 -1.82216 0
M  V30 7904 C 711.208 -1.45458 -3.12947 0
M  V30 7905 C 710.321 -2.70998 -3.36428 0
M  V30 7906 C 709.456 -2.57507 -4.64611 0
M  V30 7907 C 708.495 -3.78229 -4.81258 0
M  V30 7908 N 707.632 -3.63438 -6.00714 0
M  V30 7909 H 712.472 -2.45832 -1.68436 0
M  V30 7910 H 710.009 -1.2201 -0.821706 0
M  V30 7911 H 711.967 -1.40347 -3.92885 0
M  V30 7912 H 710.597 -0.540058 -3.1825 0
M  V30 7913 H 709.649 -2.86312 -2.50458 0
M  V30 7914 H 710.961 -3.60619 -3.44609 0
M  V30 7915 H 710.115 -2.50207 -5.52703 0
M  V30 7916 H 708.854 -1.65441 -4.58782 0
M  V30 7917 H 707.859 -3.85918 -3.91596 0
M  V30 7918 H 709.084 -4.71327 -4.88904 0
M  V30 7919 H 707.03 -2.7412 -5.95982 0
M  V30 7920 H 706.947 -4.46672 -6.09934 0
M  V30 7921 H 708.215 -3.60022 -6.91378 0
M  V30 7922 N 712.444 0.87505 -1.31075 0
M  V30 7923 C 713.354 2.01441 -1.20244 0
M  V30 7924 C 714.37 1.73584 -0.120227 0
M  V30 7925 O 715.546 1.98559 -0.337063 0
M  V30 7926 C 712.611 3.34675 -0.905199 0
M  V30 7927 C 711.672 3.75889 -2.0738 0
M  V30 7928 C 710.905 5.02764 -1.79064 0
M  V30 7929 O 711.128 5.65795 -0.723318 0
M  V30 7930 O 710.062 5.40623 -2.64594 0
M  V30 7931 H 713.888 2.13509 -2.1598 0
M  V30 7932 H 711.473 1.00257 -1.10765 0
M  V30 7933 H 713.355 4.1458 -0.755057 0
M  V30 7934 H 712.03 3.23692 0.0221695 0
M  V30 7935 H 710.937 2.96645 -2.27931 0
M  V30 7936 H 712.27 3.91489 -2.98324 0
M  V30 7937 N 713.922 1.13953 1.08869 0
M  V30 7938 C 715.171 0.899431 1.80536 0
M  V30 7939 C 715.484 -0.575781 1.86933 0
M  V30 7940 O 716.69 -0.932988 2.54966 0
M  V30 7941 C 715.146 1.55963 3.24351 0
M  V30 7942 C 714.754 3.07077 3.26202 0
M  V30 7943 C 716.498 1.40046 4.00733 0
M  V30 7944 C 714.405 3.65955 4.64576 0
M  V30 7945 H 713.335 0.332849 0.676556 0
M  V30 7946 H 715.986 1.3679 1.22314 0
M  V30 7947 H 714.368 1.01883 3.82669 0
M  V30 7948 H 715.542 3.67785 2.77617 0
M  V30 7949 H 713.857 3.22576 2.63312 0
M  V30 7950 H 716.454 1.81441 5.02974 0
M  V30 7951 H 716.797 0.345993 4.1486 0
M  V30 7952 H 717.33 1.91137 3.48872 0
M  V30 7953 H 714.069 4.71234 4.55652 0
M  V30 7954 H 713.589 3.10027 5.13462 0
M  V30 7955 H 715.268 3.65968 5.33551 0
M  V30 7956 N 715.4 -1.26948 0.933913 0
M  V30 7957 C 716.816 -1.46419 0.635103 0
M  V30 7958 C 717.016 -1.84336 -0.813785 0
M  V30 7959 O 716.072 -1.96061 -1.59111 0
M  V30 7960 C 717.385 -2.55206 1.5903 0
M  V30 7961 C 718.933 -2.69062 1.5992 0
M  V30 7962 C 719.408 -3.81013 2.54152 0
M  V30 7963 N 720.899 -3.88395 2.52395 0
M  V30 7964 C 721.634 -4.74454 3.21996 0
M  V30 7965 N 721.13 -5.64954 4.00997 0
M  V30 7966 N 722.923 -4.68237 3.10983 0
M  V30 7967 H 715.074 -1.00622 1.87053 0
M  V30 7968 H 717.337 -0.503189 0.803433 0
M  V30 7969 H 717.043 -2.34153 2.62422 0
M  V30 7970 H 716.917 -3.52719 1.33677 0
M  V30 7971 H 719.304 -2.89492 0.572569 0
M  V30 7972 H 719.385 -1.72016 1.89325 0
M  V30 7973 H 719.029 -3.61336 3.5693 0
M  V30 7974 H 718.959 -4.77499 2.22041 0
M  V30 7975 H 721.45 -3.23687 1.95025 0
M  V30 7976 H 721.763 -6.27496 4.51074 0
M  V30 7977 H 720.108 -5.6473 4.05099 0
M  V30 7978 H 723.299 -3.96535 2.48753 0
M  V30 7979 H 723.472 -5.35087 3.65494 0
M  V30 7980 N 716.879 -0.700114 -1.41195 0
M  V30 7981 C 717.826 -0.0376652 -2.30769 0
M  V30 7982 C 718.796 0.766544 -1.47354 0
M  V30 7983 O 719.981 0.73365 -1.76131 0
M  V30 7984 C 717.121 0.889452 -3.33441 0
M  V30 7985 C 716.234 0.076373 -4.31932 0
M  V30 7986 C 715.369 1.00155 -5.21673 0
M  V30 7987 C 714.408 0.181644 -6.1183 0
M  V30 7988 N 713.545 1.06087 -6.94039 0
M  V30 7989 H 718.385 -0.80726 -2.86858 0
M  V30 7990 H 715.922 -0.409798 -1.41277 0
M  V30 7991 H 717.88 1.44107 -3.91522 0
M  V30 7992 H 716.51 1.6254 -2.78892 0
M  V30 7993 H 715.562 -0.592223 -3.75762 0
M  V30 7994 H 716.874 -0.559076 -4.95657 0
M  V30 7995 H 716.028 1.62223 -5.8461 0
M  V30 7996 H 714.767 1.67085 -4.58186 0
M  V30 7997 H 713.772 -0.452085 -5.47938 0
M  V30 7998 H 714.997 -0.483925 -6.77374 0
M  V30 7999 H 712.943 1.7161 -6.33156 0
M  V30 8000 H 712.86 0.481094 -7.54468 0
M  V30 8001 H 714.128 1.66822 -7.6144 0
M  V30 8002 N 718.357 1.51182 -0.445186 0
M  V30 8003 C 719.304 2.27939 0.362291 0
M  V30 8004 C 720.274 1.31864 1.01 0
M  V30 8005 O 721.459 1.60776 1.02741 0
M  V30 8006 C 718.599 3.13016 1.45311 0
M  V30 8007 C 717.712 4.24093 0.822757 0
M  V30 8008 C 716.847 4.96467 1.88928 0
M  V30 8009 C 715.886 5.99454 1.23778 0
M  V30 8010 N 715.023 6.65206 2.24602 0
M  V30 8011 H 719.863 2.965 -0.29862 0
M  V30 8012 H 717.4 1.46237 -0.15911 0
M  V30 8013 H 719.358 3.60673 2.09692 0
M  V30 8014 H 717.988 2.46553 2.08354 0
M  V30 8015 H 717.04 3.80341 0.0670364 0
M  V30 8016 H 718.352 4.97853 0.307184 0
M  V30 8017 H 717.506 5.47712 2.60953 0
M  V30 8018 H 716.245 4.22355 2.4386 0
M  V30 8019 H 715.25 5.47494 0.503042 0
M  V30 8020 H 716.475 6.75527 0.695694 0
M  V30 8021 H 714.421 5.93901 2.78599 0
M  V30 8022 H 714.338 7.34756 1.77958 0
M  V30 8023 H 715.606 7.21078 2.96085 0
M  V30 8024 N 719.835 0.176821 1.56605 0
M  V30 8025 C 720.768 -0.790135 2.14084 0
M  V30 8026 C 721.746 -1.22219 1.07244 0
M  V30 8027 O 722.93 -1.31298 1.35252 0
M  V30 8028 C 720.057 -2.06475 2.68488 0
M  V30 8029 C 719.103 -1.77628 3.87751 0
M  V30 8030 S 719.936 -0.940612 5.27174 0
M  V30 8031 C 721.092 -2.22577 5.84988 0
M  V30 8032 H 721.325 -0.30144 2.95768 0
M  V30 8033 H 718.858 -0.0379279 1.54353 0
M  V30 8034 H 720.816 -2.79683 3.00479 0
M  V30 8035 H 719.477 -2.52457 1.8688 0
M  V30 8036 H 718.67 -2.72215 4.24164 0
M  V30 8037 H 718.272 -1.12512 3.56675 0
M  V30 8038 H 720.564 -3.17992 5.98237 0
M  V30 8039 H 721.507 -1.90624 6.81959 0
M  V30 8040 H 721.915 -2.34588 5.13448 0
M  V30 8041 N 721.313 -1.57302 -0.09688 0
M  V30 8042 C 722.561 -1.8563 -0.799117 0
M  V30 8043 C 722.882 -0.765263 -1.79356 0
M  V30 8044 O 722.152 0.208657 -1.94786 0
M  V30 8045 H 720.732 -0.684937 -0.298111 0
M  V30 8046 H 723.394 -1.9474 -0.0789341 0
M  V30 8047 H 722.49 -2.82305 -1.3308 0
M  V30 8048 N 722.791 0.367657 -1.53252 0
M  V30 8049 C 724.207 0.709191 -1.42978 0
M  V30 8050 C 724.407 1.93352 -0.567193 0
M  V30 8051 O 723.463 2.52453 -0.0488349 0
M  V30 8052 C 724.776 0.924338 -2.86141 0
M  V30 8053 C 726.324 1.02448 -2.95759 0
M  V30 8054 C 726.799 1.27211 -4.39979 0
M  V30 8055 N 728.29 1.33986 -4.43398 0
M  V30 8056 C 729.025 1.54852 -5.52095 0
M  V30 8057 N 728.521 1.73049 -6.7084 0
M  V30 8058 N 730.314 1.57205 -5.39669 0
M  V30 8059 H 722.465 -0.437669 -2.07842 0
M  V30 8060 H 724.728 -0.133737 -0.938519 0
M  V30 8061 H 724.434 0.0965455 -3.51567 0
M  V30 8062 H 724.308 1.83302 -3.29667 0
M  V30 8063 H 726.695 1.84282 -2.30487 0
M  V30 8064 H 726.776 0.0932301 -2.5563 0
M  V30 8065 H 726.42 0.458792 -5.05824 0
M  V30 8066 H 726.35 2.21654 -4.77679 0
M  V30 8067 H 728.841 1.21545 -3.5782 0
M  V30 8068 H 729.154 1.88538 -7.49449 0
M  V30 8069 H 727.499 1.70231 -6.7383 0
M  V30 8070 H 730.69 1.42555 -4.45865 0
M  V30 8071 H 730.863 1.73126 -6.24445 0
M  V30 8072 N 724.269 1.44576 0.627338 0
M  V30 8073 C 725.179 1.54232 1.76776 0
M  V30 8074 C 726.195 0.427782 1.6866 0
M  V30 8075 O 727.371 0.685671 1.89369 0
M  V30 8076 C 724.436 1.48738 3.13174 0
M  V30 8077 C 723.497 2.71074 3.32893 0
M  V30 8078 C 722.73 2.65832 4.62784 0
M  V30 8079 O 722.953 1.72048 5.43834 0
M  V30 8080 O 721.887 3.56742 4.84787 0
M  V30 8081 H 725.713 2.50586 1.71582 0
M  V30 8082 H 723.298 1.26865 0.789028 0
M  V30 8083 H 725.18 1.48211 3.94476 0
M  V30 8084 H 723.855 0.555292 3.18902 0
M  V30 8085 H 722.762 2.77168 2.51254 0
M  V30 8086 H 724.095 3.63342 3.32029 0
M  V30 8087 N 725.747 -0.868086 1.31537 0
M  V30 8088 C 727.158 -1.437 1.19195 0
M  V30 8089 C 727.509 -1.95169 -0.200842 0
M  V30 8090 O 726.634 -1.86432 -1.09872 0
M  V30 8091 C 727.229 -2.612 2.15778 0
M  V30 8092 C 725.788 -3.1413 2.07363 0
M  V30 8093 C 724.935 -1.86845 2.049 0
M  V30 8094 H 727.886 -0.676457 1.43561 0
M  V30 8095 H 727.907 -3.37948 1.74847 0
M  V30 8096 H 727.419 -2.23709 3.17137 0
M  V30 8097 H 725.52 -3.56238 1.09204 0
M  V30 8098 H 725.633 -3.76285 2.96557 0
M  V30 8099 H 723.997 -2.05886 1.49943 0
M  V30 8100 H 724.78 -1.51589 3.08019 0
M  V30 8101 N 727.225 -1.14528 -1.08264 0
M  V30 8102 C 728.135 -0.84728 -2.18765 0
M  V30 8103 C 729.151 0.172826 -1.7314 0
M  V30 8104 O 730.327 0.000985336 -2.014 0
M  V30 8105 C 727.392 -0.330633 -3.4512 0
M  V30 8106 C 726.453 -1.41348 -4.05363 0
M  V30 8107 C 725.686 -0.921387 -5.25686 0
M  V30 8108 O 725.909 0.236587 -5.69909 0
M  V30 8109 O 724.843 -1.70101 -5.77364 0
M  V30 8110 H 728.669 -1.7708 -2.46731 0
M  V30 8111 H 726.254 -0.923661 -1.17426 0
M  V30 8112 H 728.136 -0.0485053 -4.21372 0
M  V30 8113 H 726.811 0.565147 -3.18728 0
M  V30 8114 H 725.718 -1.74908 -3.30693 0
M  V30 8115 H 727.051 -2.28383 -4.36007 0
M  V30 8116 N 728.703 1.26451 -0.940633 0
M  V30 8117 C 729.613 2.30128 -0.455881 0
M  V30 8118 C 730.629 1.67536 0.469867 0
M  V30 8119 O 731.805 1.98344 0.349529 0
M  V30 8120 C 728.87 3.45634 0.271648 0
M  V30 8121 C 727.931 4.23709 -0.690594 0
M  V30 8122 C 727.164 5.337 0.00231047 0
M  V30 8123 O 727.387 5.57215 1.21935 0
M  V30 8124 O 726.321 5.98091 -0.676111 0
M  V30 8125 H 730.147 2.73655 -1.31707 0
M  V30 8126 H 727.732 1.3164 -0.706497 0
M  V30 8127 H 729.614 4.15853 0.681486 0
M  V30 8128 H 728.289 3.04138 1.10824 0
M  V30 8129 H 727.196 3.55974 -1.15037 0
M  V30 8130 H 728.529 4.68953 -1.49478 0
M  V30 8131 N 730.181 0.707592 1.40822 0
M  V30 8132 C 731.129 0.0386643 2.32568 0
M  V30 8133 C 732.123 -0.755653 1.51612 0
M  V30 8134 O 733.329 -0.659921 1.67467 0
M  V30 8135 H 729.704 -0.00629912 0.751974 0
M  V30 8136 H 731.675 0.8293 2.86645 0
M  V30 8137 C 730.424 -0.87496 3.36511 0
M  V30 8138 H 729.747 -0.273157 3.98866 0
M  V30 8139 H 731.187 -1.31111 4.03219 0
M  V30 8140 C 729.646 -1.99672 2.71353 0
M  V30 8141 O 730.176 -3.08676 2.57064 0
M  V30 8142 N 728.382 -1.77799 2.29861 0
M  V30 8143 H 727.929 -0.89147 2.41683 0
M  V30 8144 H 727.887 -2.53036 1.86601 0
M  V30 8145 N 731.66 -1.50943 0.453197 0
M  V30 8146 C 732.885 -2.07116 -0.108463 0
M  V30 8147 C 733.31 -1.31681 -1.3432 0
M  V30 8148 O 732.668 -0.359256 -1.77705 0
M  V30 8149 C 732.716 -3.58447 -0.393424 0
M  V30 8150 O 731.82 -3.85038 -1.47714 0
M  V30 8151 H 731.161 -0.66398 0.0050993 0
M  V30 8152 H 733.691 -1.94362 0.639095 0
M  V30 8153 H 733.701 -4.02961 -0.639222 0
M  V30 8154 H 732.376 -4.12774 0.508946 0
M  V30 8155 H 730.953 -3.52376 -1.22006 0
M  V30 8156 N 733.138 -0.185124 -1.56509 0
M  V30 8157 C 734.085 0.739729 -2.18624 0
M  V30 8158 C 735.055 1.217 -1.13042 0
M  V30 8159 O 736.24 1.28268 -1.41251 0
M  V30 8160 C 733.38 1.95787 -2.84186 0
M  V30 8161 C 732.493 1.52289 -4.04267 0
M  V30 8162 C 731.628 2.69576 -4.57714 0
M  V30 8163 C 730.667 2.22636 -5.70175 0
M  V30 8164 N 729.804 3.33065 -6.18071 0
M  V30 8165 H 734.644 0.203269 -2.97306 0
M  V30 8166 H 732.181 0.0885946 -1.46833 0
M  V30 8167 H 734.139 2.67253 -3.20361 0
M  V30 8168 H 732.769 2.4678 -2.08085 0
M  V30 8169 H 731.821 0.704458 -3.7382 0
M  V30 8170 H 733.133 1.13843 -4.85635 0
M  V30 8171 H 732.287 3.4918 -4.96143 0
M  V30 8172 H 731.026 3.1129 -3.75433 0
M  V30 8173 H 730.031 1.41483 -5.31284 0
M  V30 8174 H 731.256 1.81964 -6.54267 0
M  V30 8175 H 729.202 3.74328 -5.38715 0
M  V30 8176 H 729.119 2.98756 -6.94464 0
M  V30 8177 H 730.387 4.12912 -6.61153 0
M  V30 8178 N 734.616 1.57351 0.0885366 0
M  V30 8179 C 735.865 1.85604 0.789556 0
M  V30 8180 C 736.178 0.775352 1.79576 0
M  V30 8181 O 737.384 0.945206 2.54515 0
M  V30 8182 C 735.84 3.29175 1.45506 0
M  V30 8183 C 735.448 4.45331 0.488278 0
M  V30 8184 C 737.192 3.66646 2.13942 0
M  V30 8185 C 735.099 5.79937 1.15874 0
M  V30 8186 H 734.029 0.692346 0.298619 0
M  V30 8187 H 736.68 1.83451 0.0425821 0
M  V30 8188 H 735.062 3.25889 2.24972 0
M  V30 8189 H 736.236 4.59977 -0.275359 0
M  V30 8190 H 734.551 4.16301 -0.0907363 0
M  V30 8191 H 737.148 4.64498 2.6485 0
M  V30 8192 H 737.491 2.956 2.93132 0
M  V30 8193 H 738.024 3.71848 1.41328 0
M  V30 8194 H 734.763 6.54232 0.407508 0
M  V30 8195 H 734.283 5.69123 1.89364 0
M  V30 8196 H 735.962 6.24718 1.68336 0
M  V30 8197 N 736.094 -0.359525 1.53444 0
M  V30 8198 C 737.319 -1.12644 1.74144 0
M  V30 8199 C 737.744 -1.82082 0.472007 0
M  V30 8200 O 737.102 -1.71962 -0.57436 0
M  V30 8201 C 737.15 -2.12781 2.9113 0
M  V30 8202 O 736.254 -3.19984 2.60162 0
M  V30 8203 H 735.595 -0.326553 0.578152 0
M  V30 8204 H 738.125 -0.414798 2.00351 0
M  V30 8205 H 738.135 -2.56278 3.17467 0
M  V30 8206 H 736.81 -1.61634 3.83207 0
M  V30 8207 H 735.387 -2.81417 2.44661 0
M  V30 8208 N 737.572 -1.44907 -0.619662 0
M  V30 8209 C 738.522 -1.49085 -1.72504 0
M  V30 8210 C 739.506 -0.355372 -1.56926 0
M  V30 8211 O 740.698 -0.601441 -1.66468 0
M  V30 8212 C 737.827 -1.44889 -3.11227 0
M  V30 8213 C 736.913 -2.63593 -3.32234 0
M  V30 8214 N 737.304 -3.88775 -3.23555 0
M  V30 8215 C 735.602 -2.59033 -3.63067 0
M  V30 8216 C 736.303 -4.67932 -3.45564 0
M  V30 8217 N 735.279 -3.9919 -3.68983 0
M  V30 8218 H 739.081 -2.43706 -1.6427 0
M  V30 8219 H 736.595 -1.4003 -0.82252 0
M  V30 8220 H 738.592 -1.45966 -3.90512 0
M  V30 8221 H 737.252 -0.513143 -3.2062 0
M  V30 8222 H 738.263 -4.20574 -3.02221 0
M  V30 8223 H 734.94 -1.7431 -3.79371 0
M  V30 8224 H 736.33 -5.76952 -3.44349 0
M  V30 8225 N 739.05 0.861098 -1.31996 0
M  V30 8226 C 739.997 1.96912 -1.20392 0
M  V30 8227 C 740.967 1.65869 -0.0875899 0
M  V30 8228 O 742.152 1.88992 -0.262011 0
M  V30 8229 C 739.292 3.32435 -0.926335 0
M  V30 8230 C 738.405 3.76018 -2.12684 0
M  V30 8231 C 737.54 5.00301 -1.78529 0
M  V30 8232 C 736.579 5.36357 -2.94937 0
M  V30 8233 N 735.716 6.51818 -2.60917 0
M  V30 8234 H 740.556 2.06169 -2.1517 0
M  V30 8235 H 738.093 1.00917 -1.07024 0
M  V30 8236 H 740.051 4.10478 -0.745917 0
M  V30 8237 H 738.681 3.22796 -0.0153578 0
M  V30 8238 H 737.733 2.93683 -2.41774 0
M  V30 8239 H 739.045 3.98664 -2.99781 0
M  V30 8240 H 738.199 5.86034 -1.57001 0
M  V30 8241 H 736.938 4.79578 -0.886356 0
M  V30 8242 H 735.943 4.49139 -3.17103 0
M  V30 8243 H 737.168 5.59041 -3.85552 0
M  V30 8244 H 735.114 6.32624 -1.73558 0
M  V30 8245 H 735.031 6.7445 -3.41544 0
M  V30 8246 H 736.299 7.4072 -2.42804 0
M  V30 8247 N 740.528 1.15101 1.07655 0
M  V30 8248 C 741.756 0.947731 1.83918 0
M  V30 8249 C 742.171 -0.503927 1.81951 0
M  V30 8250 O 741.528 -1.34941 1.2287 0
M  V30 8251 C 741.579 1.4503 3.31132 0
M  V30 8252 O 741.3 2.84508 3.33146 0
M  V30 8253 C 742.801 1.28806 4.24174 0
M  V30 8254 H 740.021 0.336786 0.580358 0
M  V30 8255 H 742.565 1.52799 1.35914 0
M  V30 8256 H 740.72 0.912632 3.76497 0
M  V30 8257 H 741.134 3.0723 4.251 0
M  V30 8258 H 742.608 1.6882 5.25551 0
M  V30 8259 H 743.085 0.231851 4.38588 0
M  V30 8260 H 743.691 1.81465 3.84643 0
M  V30 8261 N 742.006 -1.2595 0.947325 0
M  V30 8262 C 743.236 -1.97258 0.614235 0
M  V30 8263 C 743.644 -1.70682 -0.816355 0
M  V30 8264 O 742.987 -0.97527 -1.55673 0
M  V30 8265 C 743.049 -3.50845 0.784081 0
M  V30 8266 C 742.713 -4.01084 2.19045 0
M  V30 8267 C 743.71 -4.12347 3.16648 0
M  V30 8268 C 741.395 -4.34936 2.51268 0
M  V30 8269 C 743.389 -4.56766 4.44572 0
M  V30 8270 C 741.076 -4.79043 3.79422 0
M  V30 8271 C 742.074 -4.89919 4.75887 0
M  V30 8272 O 741.762 -5.3305 6.01758 0
M  V30 8273 H 741.494 -0.635738 0.22981 0
M  V30 8274 H 744.048 -1.61268 1.27207 0
M  V30 8275 H 742.278 -3.86638 0.069101 0
M  V30 8276 H 743.967 -4.03363 0.453135 0
M  V30 8277 H 744.733 -3.86432 2.93079 0
M  V30 8278 H 740.612 -4.25702 1.76916 0
M  V30 8279 H 744.156 -4.6517 5.19868 0
M  V30 8280 H 740.053 -5.04402 4.02802 0
M  V30 8281 H 740.821 -5.51255 6.05029 0
M  V30 8282 N 743.484 -0.715051 -1.40445 0
M  V30 8283 C 744.414 -0.0768699 -2.33373 0
M  V30 8284 C 745.395 0.746109 -1.52863 0
M  V30 8285 O 746.58 0.695142 -1.81332 0
M  V30 8286 C 743.71 0.846014 -3.36838 0
M  V30 8287 C 742.664 0.128694 -4.27806 0
M  V30 8288 C 741.99 1.16726 -5.21804 0
M  V30 8289 C 743.29 -1.01679 -5.12307 0
M  V30 8290 H 744.984 -0.853061 -2.8699 0
M  V30 8291 H 742.53 -0.41167 -1.3799 0
M  V30 8292 H 744.483 1.30185 -4.00786 0
M  V30 8293 H 743.207 1.6541 -2.81615 0
M  V30 8294 H 741.866 -0.307314 -3.6531 0
M  V30 8295 H 741.514 1.96838 -4.62887 0
M  V30 8296 H 741.214 0.692188 -5.83509 0
M  V30 8297 H 742.738 1.62321 -5.88629 0
M  V30 8298 H 744.152 -0.640337 -5.69713 0
M  V30 8299 H 742.549 -1.4202 -5.83053 0
M  V30 8300 H 743.619 -1.84769 -4.48317 0
M  V30 8301 N 744.962 1.50701 -0.461195 0
M  V30 8302 C 746.208 2.02566 0.0973411 0
M  V30 8303 C 746.541 1.3432 1.40257 0
M  V30 8304 O 745.816 0.465692 1.88843 0
M  V30 8305 C 746.099 3.58919 0.291423 0
M  V30 8306 C 745.952 4.37751 -1.03413 0
M  V30 8307 C 747.271 4.27379 1.05048 0
M  V30 8308 H 744.39 0.73622 0.0339026 0
M  V30 8309 H 747.032 1.80115 -0.604855 0
M  V30 8310 H 745.182 3.78179 0.889539 0
M  V30 8311 H 746.854 4.30085 -1.66806 0
M  V30 8312 H 745.097 4.01885 -1.63313 0
M  V30 8313 H 745.768 5.45384 -0.852085 0
M  V30 8314 H 748.244 4.12534 0.543603 0
M  V30 8315 H 747.12 5.36609 1.15506 0
M  V30 8316 H 747.381 3.89868 2.0846 0
M  V30 8317 N 746.441 0.193421 1.56409 0
M  V30 8318 C 747.388 -0.728124 2.19014 0
M  V30 8319 C 748.358 -1.21098 1.13686 0
M  V30 8320 O 749.543 -1.27517 1.4193 0
M  V30 8321 C 746.683 -1.94277 2.8522 0
M  V30 8322 C 745.796 -1.50143 4.05069 0
M  V30 8323 C 744.931 -2.67145 4.59137 0
M  V30 8324 C 743.97 -2.19609 5.71348 0
M  V30 8325 N 743.107 -3.29782 6.19829 0
M  V30 8326 H 747.947 -0.187499 2.9741 0
M  V30 8327 H 745.484 -0.0808064 1.46878 0
M  V30 8328 H 747.442 -2.65551 3.21774 0
M  V30 8329 H 746.072 -2.45673 2.09391 0
M  V30 8330 H 745.124 -0.684624 3.74189 0
M  V30 8331 H 746.436 -1.11266 4.86232 0
M  V30 8332 H 745.59 -3.46544 4.97988 0
M  V30 8333 H 744.329 -3.09295 3.77078 0
M  V30 8334 H 743.334 -1.38664 5.32027 0
M  V30 8335 H 744.559 -1.78492 6.55223 0
M  V30 8336 H 742.505 -3.71466 5.40693 0
M  V30 8337 H 742.422 -2.95069 6.96039 0
M  V30 8338 H 743.69 -4.094 6.63334 0
M  V30 8339 N 747.919 -1.57396 -0.0801906 0
M  V30 8340 C 748.866 -2.03107 -1.09618 0
M  V30 8341 C 749.836 -0.910118 -1.38946 0
M  V30 8342 O 751.021 -1.17719 -1.50156 0
M  V30 8343 C 748.161 -2.47293 -2.40708 0
M  V30 8344 C 747.274 -3.72972 -2.17982 0
M  V30 8345 C 746.409 -4.05975 -3.42576 0
M  V30 8346 C 745.448 -5.24719 -3.15177 0
M  V30 8347 N 744.585 -5.53401 -4.32078 0
M  V30 8348 H 749.425 -2.89677 -0.69939 0
M  V30 8349 H 746.962 -1.43263 -0.333785 0
M  V30 8350 H 748.92 -2.7096 -3.17232 0
M  V30 8351 H 747.55 -1.63713 -2.78205 0
M  V30 8352 H 746.602 -3.56693 -1.32189 0
M  V30 8353 H 747.914 -4.59638 -1.93738 0
M  V30 8354 H 747.068 -4.30498 -4.275 0
M  V30 8355 H 745.807 -3.17859 -3.69887 0
M  V30 8356 H 744.812 -5 -2.28648 0
M  V30 8357 H 746.037 -6.14445 -2.89197 0
M  V30 8358 H 743.983 -4.68245 -4.59437 0
M  V30 8359 H 743.9 -6.34469 -4.11078 0
M  V30 8360 H 745.168 -5.8247 -5.18024 0
M  V30 8361 N 749.397 0.351382 -1.53633 0
M  V30 8362 C 750.622 1.11718 -1.74739 0
M  V30 8363 C 751.047 1.81829 -0.481657 0
M  V30 8364 O 750.405 1.72264 0.565233 0
M  V30 8365 C 750.453 2.11234 -2.92254 0
M  V30 8366 O 749.557 3.186 -2.61855 0
M  V30 8367 H 748.898 0.323482 -0.579875 0
M  V30 8368 H 751.428 0.404167 -2.00568 0
M  V30 8369 H 751.438 2.54591 -3.18822 0
M  V30 8370 H 750.113 1.59599 -3.84058 0
M  V30 8371 H 748.69 2.80115 -2.4615 0
M  V30 8372 N 750.875 1.45233 0.611969 0
M  V30 8373 C 751.823 1.53898 1.74408 0
M  V30 8374 C 752.817 0.409254 1.64382 0
M  V30 8375 O 754.023 0.584988 1.70229 0
M  V30 8376 H 750.398 0.483303 0.576127 0
M  V30 8377 H 752.369 2.49143 1.64227 0
M  V30 8378 C 751.118 1.51865 3.12782 0
M  V30 8379 H 750.441 2.38118 3.21154 0
M  V30 8380 H 751.881 1.61986 3.91838 0
M  V30 8381 C 750.34 0.242374 3.36027 0
M  V30 8382 O 750.87 -0.679587 3.9591 0
M  V30 8383 N 749.076 0.139448 2.90265 0
M  V30 8384 H 748.623 0.890571 2.41716 0
M  V30 8385 H 748.581 -0.713686 3.06193 0
M  V30 8386 N 752.353 -0.854086 1.3245 0
M  V30 8387 C 753.283 -1.97827 1.24044 0
M  V30 8388 C 754.264 -1.69646 0.124166 0
M  V30 8389 O 755.449 -1.91687 0.31143 0
M  V30 8390 C 752.579 -3.33673 0.963324 0
M  V30 8391 C 751.533 -3.76207 2.04089 0
M  V30 8392 C 750.859 -5.0969 1.61618 0
M  V30 8393 C 752.159 -3.91612 3.45597 0
M  V30 8394 H 753.853 -2.05118 2.18099 0
M  V30 8395 H 751.399 -0.985489 1.04996 0
M  V30 8396 H 753.352 -4.11871 0.891061 0
M  V30 8397 H 752.076 -3.26597 -0.0128649 0
M  V30 8398 H 750.735 -3.0026 2.10332 0
M  V30 8399 H 750.383 -4.99072 0.627418 0
M  V30 8400 H 750.083 -5.3912 2.33717 0
M  V30 8401 H 751.607 -5.90381 1.55829 0
M  V30 8402 H 753.021 -4.60163 3.4194 0
M  V30 8403 H 751.418 -4.3246 4.16051 0
M  V30 8404 H 752.488 -2.9451 3.85217 0
M  V30 8405 N 753.831 -1.1567 -1.07043 0
M  V30 8406 C 755.242 -0.942408 -1.61169 0
M  V30 8407 C 755.593 0.515537 -1.89306 0
M  V30 8408 O 754.718 1.38726 -1.66084 0
M  V30 8409 C 755.313 -1.70431 -2.92812 0
M  V30 8410 C 753.872 -1.53521 -3.43669 0
M  V30 8411 C 753.019 -1.7179 -2.17678 0
M  V30 8412 H 755.97 -1.3065 -0.9009 0
M  V30 8413 H 755.991 -1.17566 -3.61882 0
M  V30 8414 H 755.503 -2.76538 -2.72302 0
M  V30 8415 H 753.604 -0.498224 -3.69254 0
M  V30 8416 H 753.717 -2.31422 -4.19501 0
M  V30 8417 H 752.081 -1.14468 -2.27529 0
M  V30 8418 H 752.864 -2.79269 -1.99659 0
M  V30 8419 N 755.309 1.25446 -0.953992 0
M  V30 8420 C 756.555 1.9343 -0.60933 0
M  V30 8421 C 756.888 1.74542 0.851388 0
M  V30 8422 O 756.163 1.09014 1.61078 0
M  V30 8423 C 756.446 3.46844 -0.968041 0
M  V30 8424 C 756.299 3.74961 -2.48444 0
M  V30 8425 C 757.618 4.37334 -0.492641 0
M  V30 8426 H 754.737 0.702502 -0.222844 0
M  V30 8427 H 757.379 1.48076 -1.19053 0
M  V30 8428 H 755.529 3.85604 -0.473465 0
M  V30 8429 H 757.201 3.45841 -3.05273 0
M  V30 8430 H 755.444 3.20589 -2.92241 0
M  V30 8431 H 756.115 4.82246 -2.68594 0
M  V30 8432 H 758.591 4.05873 -0.916878 0
M  V30 8433 H 757.467 5.43439 -0.772331 0
M  V30 8434 H 757.728 4.37908 0.607403 0
M  V30 8435 N 756.787 0.722489 1.40064 0
M  V30 8436 C 757.737 0.0506801 2.27944 0
M  V30 8437 C 758.721 -0.725493 1.43615 0
M  V30 8438 O 759.913 -0.596559 1.66644 0
M  V30 8439 C 757.042 -0.865195 3.32219 0
M  V30 8440 C 756.128 -0.0838393 4.24017 0
M  V30 8441 N 756.519 0.936516 4.97054 0
M  V30 8442 C 754.817 -0.315371 4.44884 0
M  V30 8443 C 755.518 1.4066 5.64437 0
M  V30 8444 N 754.494 0.727485 5.3871 0
M  V30 8445 H 758.296 0.832609 2.8186 0
M  V30 8446 H 755.81 0.555691 1.52597 0
M  V30 8447 H 757.807 -1.36186 3.94029 0
M  V30 8448 H 756.467 -1.64642 2.79862 0
M  V30 8449 H 757.478 1.31755 5.0086 0
M  V30 8450 H 754.155 -1.07238 4.03492 0
M  V30 8451 H 755.545 2.25482 6.32936 0
M  V30 8452 N 758.265 -1.50454 0.469181 0
M  V30 8453 C 759.197 -2.26319 -0.362247 0
M  V30 8454 C 760.21 -1.31574 -0.958751 0
M  V30 8455 O 761.399 -1.57099 -0.847482 0
M  V30 8456 C 758.499 -3.02808 -1.52187 0
M  V30 8457 C 757.672 -4.24893 -1.03849 0
M  V30 8458 C 756.731 -4.83691 -2.07194 0
M  V30 8459 O 755.757 -5.44659 -1.65333 0
M  V30 8460 N 756.959 -4.70522 -3.39985 0
M  V30 8461 H 759.724 -2.98312 0.288124 0
M  V30 8462 H 757.285 -1.59099 0.299856 0
M  V30 8463 H 759.277 -3.39023 -2.21011 0
M  V30 8464 H 757.847 -2.33625 -2.07697 0
M  V30 8465 H 757.067 -3.93806 -0.176203 0
M  V30 8466 H 758.355 -5.04053 -0.693435 0
M  V30 8467 H 757.753 -4.2203 -3.76706 0
M  V30 8468 H 756.31 -5.11011 -4.04612 0
M  V30 8469 N 759.743 -0.201713 -1.56304 0
M  V30 8470 C 761.02 0.483273 -1.89536 0
M  V30 8471 C 761.4 1.79176 -1.11621 0
M  V30 8472 O 760.748 2.27445 -0.219339 0
M  V30 8473 C 760.958 0.695604 -3.41998 0
M  V30 8474 C 762.306 1.012 -4.12364 0
M  V30 8475 O 763.33 0.783094 -3.47485 0
M  V30 8476 O 762.189 1.44534 -5.27041 0
M  V30 8477 H 759.283 0.252801 -0.787414 0
M  V30 8478 H 761.829 -0.24242 -1.6796 0
M  V30 8479 H 760.601 -0.228165 -3.90634 0
M  V30 8480 H 760.224 1.47351 -3.69288 0
M  V30 8481 N 761.222 1.57436 0.0718424 0
M  V30 8482 C 762.185 2.02703 1.06977 0
M  V30 8483 C 763.185 0.924062 1.31597 0
M  V30 8484 O 764.375 1.18894 1.27318 0
M  V30 8485 C 761.507 2.40763 2.41342 0
M  V30 8486 H 762.7 2.92098 0.679619 0
M  V30 8487 H 760.253 1.5304 0.317565 0
M  V30 8488 H 760.988 1.54394 2.8519 0
M  V30 8489 H 760.773 3.21249 2.24814 0
M  V30 8490 H 762.263 2.76361 3.13073 0
M  V30 8491 N 762.7 -0.34323 1.53817 0
M  V30 8492 C 763.925 -1.1079 1.75329 0
M  V30 8493 C 764.35 -1.81571 0.491293 0
M  V30 8494 O 763.708 -1.72561 -0.556089 0
M  V30 8495 C 763.756 -2.09681 2.9337 0
M  V30 8496 O 762.86 -3.17207 2.63541 0
M  V30 8497 H 762.201 -0.320402 0.581583 0
M  V30 8498 H 764.731 -0.393525 2.0078 0
M  V30 8499 H 764.741 -2.52897 3.20168 0
M  V30 8500 H 763.416 -1.5756 3.84899 0
M  V30 8501 H 761.993 -2.78806 2.47632 0
M  V30 8502 N 764.178 -1.45556 -0.604258 0
M  V30 8503 C 765.088 -1.57025 -1.74299 0
M  V30 8504 C 766.104 -0.45456 -1.67958 0
M  V30 8505 O 767.28 -0.715711 -1.88254 0
M  V30 8506 C 764.345 -1.53702 -3.10768 0
M  V30 8507 C 763.406 -2.76335 -3.28538 0
M  V30 8508 C 762.639 -2.73161 -4.58496 0
M  V30 8509 O 762.862 -1.80678 -5.41028 0
M  V30 8510 O 761.796 -3.64409 -4.79051 0
M  V30 8511 H 765.622 -2.53284 -1.67573 0
M  V30 8512 H 763.207 -1.28104 -0.768745 0
M  V30 8513 H 765.089 -1.54468 -3.92068 0
M  V30 8514 H 763.764 -0.605957 -3.17978 0
M  V30 8515 H 762.671 -2.8113 -2.46813 0
M  V30 8516 H 764.004 -3.68578 -3.26207 0
M  V30 8517 N 765.656 0.84705 -1.32902 0
M  V30 8518 C 766.904 1.5986 -1.2365 0
M  V30 8519 C 767.225 1.93974 0.199789 0
M  V30 8520 O 766.495 1.60273 1.12648 0
M  V30 8521 H 765.075 0.592696 -0.454665 0
M  V30 8522 H 767.737 1.01278 -1.66519 0
M  V30 8523 H 766.833 2.53218 -1.82448 0
M  V30 8524 N 767.134 1.16236 1.06428 0
M  V30 8525 C 768.044 0.881976 2.1739 0
M  V30 8526 C 769.06 -0.145259 1.73393 0
M  V30 8527 O 770.236 0.0310558 2.01376 0
M  V30 8528 C 767.301 0.385496 3.4455 0
M  V30 8529 C 766.362 1.47779 4.03063 0
M  V30 8530 C 765.595 1.0049 5.24154 0
M  V30 8531 O 765.818 -0.145889 5.70213 0
M  V30 8532 O 764.752 1.79265 5.74585 0
M  V30 8533 H 768.578 1.80983 2.43883 0
M  V30 8534 H 766.163 0.942226 1.15942 0
M  V30 8535 H 768.045 0.115536 4.21242 0
M  V30 8536 H 766.72 -0.514369 3.19587 0
M  V30 8537 H 765.627 1.80147 3.27869 0
M  V30 8538 H 766.96 2.35291 4.32318 0
M  V30 8539 N 768.612 -1.24939 0.960631 0
M  V30 8540 C 769.575 -2.239 0.49006 0
M  V30 8541 C 770.575 -1.55497 -0.409535 0
M  V30 8542 O 771.765 -1.72978 -0.205984 0
M  V30 8543 C 768.897 -3.39654 -0.291193 0
M  V30 8544 H 770.09 -2.67044 1.36482 0
M  V30 8545 H 767.643 -1.37429 0.744505 0
M  V30 8546 H 768.378 -3.01939 -1.18336 0
M  V30 8547 H 768.163 -3.90496 0.354276 0
M  V30 8548 H 769.653 -4.13125 -0.609693 0
M  V30 8549 N 770.09 -0.729906 -1.39679 0
M  V30 8550 C 771.501 -0.346241 -1.83461 0
M  V30 8551 C 771.852 1.1215 -1.60987 0
M  V30 8552 O 770.977 1.86456 -1.09832 0
M  V30 8553 C 771.572 -0.621656 -3.33048 0
M  V30 8554 C 770.131 -0.291543 -3.75269 0
M  V30 8555 C 769.278 -0.886844 -2.62736 0
M  V30 8556 H 772.229 -0.927949 -1.28743 0
M  V30 8557 H 772.25 0.108301 -3.80346 0
M  V30 8558 H 771.762 -1.68996 -3.49373 0
M  V30 8559 H 769.863 0.771133 -3.64533 0
M  V30 8560 H 769.976 -0.770544 -4.72863 0
M  V30 8561 H 768.34 -0.313839 -2.52759 0
M  V30 8562 H 769.123 -1.95971 -2.81869 0
M  V30 8563 N 771.568 1.50203 -0.477153 0
M  V30 8564 C 772.814 2.02658 0.0758507 0
M  V30 8565 C 773.147 1.358 1.38824 0
M  V30 8566 O 772.422 0.485696 1.88338 0
M  V30 8567 C 772.705 3.59208 0.253339 0
M  V30 8568 C 772.558 4.36629 -1.0805 0
M  V30 8569 C 773.877 4.28469 1.00509 0
M  V30 8570 H 770.996 0.736538 0.0260921 0
M  V30 8571 H 773.638 1.79464 -0.623925 0
M  V30 8572 H 771.788 3.79101 0.849378 0
M  V30 8573 H 773.46 4.28292 -1.71358 0
M  V30 8574 H 771.703 4.0013 -1.67566 0
M  V30 8575 H 772.374 5.44449 -0.909883 0
M  V30 8576 H 774.85 4.13087 0.499818 0
M  V30 8577 H 773.726 5.37804 1.09808 0
M  V30 8578 H 773.987 3.92057 2.04314 0
M  V30 8579 N 773.046 0.209999 1.56195 0
M  V30 8580 C 773.978 -0.736967 2.17029 0
M  V30 8581 C 774.991 -1.16599 1.13616 0
M  V30 8582 O 776.18 -1.09914 1.40646 0
M  V30 8583 C 773.28 -2.00852 2.72969 0
M  V30 8584 C 772.453 -1.73691 4.01435 0
M  V30 8585 C 771.512 -2.85439 4.42053 0
M  V30 8586 O 770.538 -2.54405 5.09183 0
M  V30 8587 N 771.74 -4.14135 4.06783 0
M  V30 8588 H 774.505 -0.216656 2.98916 0
M  V30 8589 H 772.066 0.0285672 1.61875 0
M  V30 8590 H 774.058 -2.74778 2.97118 0
M  V30 8591 H 772.628 -2.43963 1.95451 0
M  V30 8592 H 771.848 -0.834676 3.85262 0
M  V30 8593 H 773.136 -1.52961 4.85263 0
M  V30 8594 H 772.534 -4.42196 3.52816 0
M  V30 8595 H 771.091 -4.84642 4.35851 0
M  V30 8596 N 774.524 -1.57472 -0.0634922 0
M  V30 8597 C 775.457 -1.99571 -1.10664 0
M  V30 8598 C 776.435 -0.874015 -1.37112 0
M  V30 8599 O 777.619 -1.13702 -1.50347 0
M  V30 8600 C 774.746 -2.3395 -2.44918 0
M  V30 8601 C 773.792 -3.56213 -2.34551 0
M  V30 8602 S 774.625 -5.06727 -1.73169 0
M  V30 8603 C 775.781 -5.44316 -3.08984 0
M  V30 8604 H 776.014 -2.87739 -0.747905 0
M  V30 8605 H 773.547 -1.5198 -0.272316 0
M  V30 8606 H 775.505 -2.54431 -3.22141 0
M  V30 8607 H 774.166 -1.46297 -2.7795 0
M  V30 8608 H 773.359 -3.77812 -3.33578 0
M  V30 8609 H 772.961 -3.35406 -1.65466 0
M  V30 8610 H 775.253 -5.42894 -4.05305 0
M  V30 8611 H 776.196 -6.4502 -2.92156 0
M  V30 8612 H 776.604 -4.71781 -3.09972 0
M  V30 8613 N 776.003 0.335068 -1.53997 0
M  V30 8614 C 776.913 1.43511 -1.85585 0
M  V30 8615 C 777.929 1.57162 -0.746726 0
M  V30 8616 O 779.105 1.72477 -1.03988 0
M  V30 8617 C 776.17 2.78386 -2.06646 0
M  V30 8618 C 775.231 2.74007 -3.30483 0
M  V30 8619 C 774.464 4.02449 -3.50529 0
M  V30 8620 O 774.687 5.00147 -2.74242 0
M  V30 8621 O 773.621 4.06405 -4.4398 0
M  V30 8622 H 777.447 1.19731 -2.79102 0
M  V30 8623 H 775.032 0.528033 -1.39758 0
M  V30 8624 H 776.914 3.58247 -2.21894 0
M  V30 8625 H 775.589 3.0208 -1.16317 0
M  V30 8626 H 774.496 1.92736 -3.2063 0
M  V30 8627 H 775.829 2.55267 -4.20832 0
M  V30 8628 N 777.481 1.45874 0.596531 0
M  V30 8629 C 778.728 1.50467 1.35521 0
M  V30 8630 C 779.056 0.150802 1.93915 0
M  V30 8631 O 778.311 -0.851913 1.76184 0
M  V30 8632 C 778.61 2.54034 2.51399 0
M  V30 8633 C 778.276 3.9844 2.11085 0
M  V30 8634 C 776.938 4.37758 1.99804 0
M  V30 8635 C 779.29 4.89209 1.79788 0
M  V30 8636 C 776.618 5.65727 1.55465 0
M  V30 8637 C 778.97 6.17602 1.36931 0
M  V30 8638 C 777.634 6.5584 1.24218 0
M  V30 8639 H 776.904 0.550597 0.495907 0
M  V30 8640 H 779.551 1.79279 0.673145 0
M  V30 8641 H 777.856 2.18832 3.24992 0
M  V30 8642 H 779.553 2.54822 3.09624 0
M  V30 8643 H 776.143 3.67353 2.20794 0
M  V30 8644 H 780.327 4.59562 1.87395 0
M  V30 8645 H 775.583 5.94139 1.44253 0
M  V30 8646 H 779.757 6.87373 1.11764 0
M  V30 8647 H 777.384 7.54897 0.896353 0
M  V30 8648 N 778.959 -0.83999 1.33349 0
M  V30 8649 C 780.375 -1.13049 1.12659 0
M  V30 8650 C 780.575 -2.01328 -0.0832613 0
M  V30 8651 O 779.631 -2.40669 -0.763856 0
M  V30 8652 C 780.944 -1.79366 2.41347 0
M  V30 8653 C 782.492 -1.91937 2.47243 0
M  V30 8654 C 782.967 -2.6167 3.75889 0
M  V30 8655 N 784.458 -2.69184 3.76954 0
M  V30 8656 C 785.193 -3.23827 4.73206 0
M  V30 8657 N 784.689 -3.79166 5.79832 0
M  V30 8658 N 786.482 -3.22068 4.60683 0
M  V30 8659 H 778.633 -0.252432 2.10895 0
M  V30 8660 H 780.896 -0.174501 0.931801 0
M  V30 8661 H 780.602 -1.2196 3.29877 0
M  V30 8662 H 780.476 -2.79396 2.53412 0
M  V30 8663 H 782.863 -2.48498 1.59163 0
M  V30 8664 H 782.944 -0.908604 2.39119 0
M  V30 8665 H 782.588 -2.05769 4.64351 0
M  V30 8666 H 782.518 -3.63217 3.81289 0
M  V30 8667 H 785.009 -2.2994 2.99893 0
M  V30 8668 H 785.322 -4.19061 6.49313 0
M  V30 8669 H 783.667 -3.77457 5.83568 0
M  V30 8670 H 786.858 -2.78092 3.7654 0
M  V30 8671 H 787.031 -3.64351 5.35866 0
M  V30 8672 N 780.437 -1.16799 -1.0581 0
M  V30 8673 C 781.662 -0.977402 -1.82925 0
M  V30 8674 C 782.087 0.469514 -1.82146 0
M  V30 8675 O 781.445 1.33576 -1.22585 0
M  V30 8676 C 781.493 -1.51543 -3.27211 0
M  V30 8677 O 780.597 -0.725021 -4.05977 0
M  V30 8678 H 779.938 -0.347474 -0.565825 0
M  V30 8679 H 782.468 -1.55151 -1.33376 0
M  V30 8680 H 782.478 -1.53502 -3.78023 0
M  V30 8681 H 781.153 -2.56872 -3.27093 0
M  V30 8682 H 779.73 -0.77634 -3.64729 0
M  V30 8683 N 781.915 1.24427 -0.967243 0
M  V30 8684 C 783.155 1.9423 -0.636723 0
M  V30 8685 C 783.519 1.73939 0.812971 0
M  V30 8686 O 784.72 2.37773 1.25369 0
M  V30 8687 C 782.991 3.43105 -1.00067 0
M  V30 8688 S 784.55 4.31728 -0.784633 0
M  V30 8689 H 781.368 0.671527 -0.233607 0
M  V30 8690 H 783.97 1.50806 -1.2441 0
M  V30 8691 H 782.674 3.5538 -2.05264 0
M  V30 8692 H 782.205 3.91521 -0.384054 0
M  V30 8693 H 784.22 4.95046 0.338244 0
M  V30 8694 N 783.393 0.737304 1.3929 0
M  V30 8695 C 784.633 0.290966 2.02318 0
M  V30 8696 C 784.997 -1.10174 1.57244 0
M  V30 8697 O 786.198 -1.64628 2.12488 0
M  V30 8698 C 784.469 0.391767 3.55246 0
M  V30 8699 S 786.028 0.0256103 4.38793 0
M  V30 8700 H 782.846 0.113862 0.701824 0
M  V30 8701 H 785.448 0.964329 1.70062 0
M  V30 8702 H 784.152 1.40662 3.85542 0
M  V30 8703 H 783.683 -0.299338 3.9226 0
M  V30 8704 H 785.698 -1.18991 4.81722 0
M  V30 8705 N 784.871 -1.49948 0.485112 0
M  V30 8706 C 786.282 -1.8667 0.0334041 0
M  V30 8707 C 786.633 -1.3988 -1.37579 0
M  V30 8708 O 785.758 -0.769788 -2.02245 0
M  V30 8709 C 786.353 -3.38757 0.0538426 0
M  V30 8710 C 784.912 -3.74839 -0.342453 0
M  V30 8711 C 784.059 -2.73894 0.433281 0
M  V30 8712 H 787.01 -1.42492 0.698699 0
M  V30 8713 H 787.031 -3.73132 -0.745146 0
M  V30 8714 H 786.543 -3.72782 1.07959 0
M  V30 8715 H 784.644 -3.46419 -1.37203 0
M  V30 8716 H 784.757 -4.79088 -0.0340503 0
M  V30 8717 H 783.121 -2.54441 -0.114849 0
M  V30 8718 H 783.904 -3.10763 1.45881 0
M  V30 8719 N 786.349 -0.21828 -1.56081 0
M  V30 8720 C 787.597 0.413488 -1.97825 0
M  V30 8721 C 787.918 1.60527 -1.10707 0
M  V30 8722 O 787.188 1.9504 -0.183378 0
M  V30 8723 H 785.768 0.155757 -0.730581 0
M  V30 8724 H 788.43 -0.310413 -1.92412 0
M  V30 8725 H 787.526 0.742024 -3.03151 0
M  V30 8726 N 787.827 1.57504 0.0551401 0
M  V30 8727 C 789.073 1.89191 0.74688 0
M  V30 8728 C 789.428 0.813936 1.74335 0
M  V30 8729 O 788.721 -0.180217 1.90751 0
M  V30 8730 C 788.915 3.25311 1.48013 0
M  V30 8731 C 788.744 4.46247 0.556176 0
M  V30 8732 C 787.514 5.04954 0.186891 0
M  V30 8733 C 789.712 5.14068 -0.154295 0
M  V30 8734 N 787.694 6.09411 -0.741041 0
M  V30 8735 C 789.065 6.12851 -0.938809 0
M  V30 8736 C 791.12 4.97396 -0.224007 0
M  V30 8737 C 789.823 6.96759 -1.78658 0
M  V30 8738 C 791.849 5.81845 -1.05881 0
M  V30 8739 C 791.211 6.80178 -1.83133 0
M  V30 8740 H 787.31 0.741562 0.248213 0
M  V30 8741 H 789.894 1.94698 0.00777734 0
M  V30 8742 H 788.065 3.20781 2.18985 0
M  V30 8743 H 789.797 3.44594 2.12219 0
M  V30 8744 H 786.552 4.70472 0.543415 0
M  V30 8745 H 786.976 6.66303 -1.19874 0
M  V30 8746 H 791.618 4.21274 0.358924 0
M  V30 8747 H 789.336 7.72245 -2.38042 0
M  V30 8748 H 792.922 5.70997 -1.11595 0
M  V30 8749 H 791.802 7.44389 -2.46687 0
M  V30 8750 N 789.305 -0.326896 1.54172 0
M  V30 8751 C 790.53 -1.08924 1.76494 0
M  V30 8752 C 790.955 -1.81039 0.510523 0
M  V30 8753 O 790.313 -1.73141 -0.537756 0
M  V30 8754 C 790.361 -2.06558 2.95578 0
M  V30 8755 O 789.465 -3.14394 2.6689 0
M  V30 8756 H 788.806 -0.314216 0.584948 0
M  V30 8757 H 791.336 -0.372207 2.01186 0
M  V30 8758 H 791.346 -2.49487 3.22832 0
M  V30 8759 H 790.021 -1.53469 3.86549 0
M  V30 8760 H 788.598 -2.76164 2.50576 0
M  V30 8761 N 790.784 -1.46188 -0.588786 0
M  V30 8762 C 791.747 -1.55882 -1.68029 0
M  V30 8763 C 792.747 -0.436515 -1.54762 0
M  V30 8764 O 793.937 -0.700626 -1.59489 0
M  V30 8765 C 791.069 -1.47332 -3.07418 0
M  V30 8766 H 792.262 -2.5315 -1.60795 0
M  V30 8767 H 789.815 -1.33908 -0.806116 0
M  V30 8768 H 790.55 -0.513193 -3.20214 0
M  V30 8769 H 790.335 -2.28753 -3.18456 0
M  V30 8770 H 791.825 -1.57187 -3.86887 0
M  V30 8771 N 792.262 0.832906 -1.33792 0
M  V30 8772 C 793.195 1.94788 -1.18882 0
M  V30 8773 C 794.173 1.62389 -0.0828426 0
M  V30 8774 O 795.357 1.86886 -0.246175 0
M  V30 8775 C 792.484 3.28506 -0.824728 0
M  V30 8776 C 791.53 3.79872 -1.93905 0
M  V30 8777 S 792.363 4.00832 -3.55097 0
M  V30 8778 C 793.519 5.37492 -3.20708 0
M  V30 8779 H 793.752 2.07137 -2.13264 0
M  V30 8780 H 791.285 0.987362 -1.18704 0
M  V30 8781 H 793.243 4.05769 -0.621442 0
M  V30 8782 H 791.904 3.13939 0.100587 0
M  V30 8783 H 791.097 4.76647 -1.6378 0
M  V30 8784 H 790.699 3.09524 -2.09931 0
M  V30 8785 H 792.991 6.20544 -2.71903 0
M  V30 8786 H 793.934 5.72593 -4.16584 0
M  V30 8787 H 794.342 5.02529 -2.57148 0
M  V30 8788 N 793.74 1.17359 1.05189 0
M  V30 8789 C 794.703 0.892604 2.11105 0
M  V30 8790 C 795.703 -0.117236 1.60372 0
M  V30 8791 O 796.893 0.114936 1.7382 0
M  V30 8792 C 794.025 0.337032 3.3923 0
M  V30 8793 H 795.218 1.83169 2.37464 0
M  V30 8794 H 792.771 0.984051 1.21434 0
M  V30 8795 H 793.506 -0.609198 3.18527 0
M  V30 8796 H 793.291 1.06484 3.77364 0
M  V30 8797 H 794.781 0.158763 4.17298 0
M  V30 8798 N 795.218 -1.23913 0.973828 0
M  V30 8799 C 796.634 -1.44325 0.681363 0
M  V30 8800 C 796.834 -1.86832 -0.754728 0
M  V30 8801 O 795.89 -2.01024 -1.52793 0
M  V30 8802 C 797.203 -2.50017 1.67069 0
M  V30 8803 C 798.751 -2.63838 1.68399 0
M  V30 8804 C 799.226 -3.72734 2.66145 0
M  V30 8805 N 800.717 -3.80169 2.64624 0
M  V30 8806 C 801.452 -4.6397 3.36927 0
M  V30 8807 N 800.948 -5.51911 4.18767 0
M  V30 8808 N 802.741 -4.58106 3.25722 0
M  V30 8809 H 794.892 -0.946204 1.9016 0
M  V30 8810 H 797.155 -0.477374 0.819035 0
M  V30 8811 H 796.861 -2.25686 2.69738 0
M  V30 8812 H 796.735 -3.48287 1.4483 0
M  V30 8813 H 799.122 -2.87524 0.664379 0
M  V30 8814 H 799.203 -1.65906 1.94702 0
M  V30 8815 H 798.847 -3.49797 3.68245 0
M  V30 8816 H 798.777 -4.70193 2.3712 0
M  V30 8817 H 801.268 -3.17319 2.05224 0
M  V30 8818 H 801.581 -6.12828 4.70809 0
M  V30 8819 H 799.926 -5.51556 4.2286 0
M  V30 8820 H 803.117 -3.8842 2.61242 0
M  V30 8821 H 803.29 -5.23188 3.82333 0
M  V30 8822 N 796.696 -0.74468 -1.38897 0
M  V30 8823 C 797.921 -0.306119 -2.05128 0
M  V30 8824 C 798.346 1.0541 -1.55789 0
M  V30 8825 O 797.704 1.66993 -0.705909 0
M  V30 8826 C 797.752 -0.328195 -3.59103 0
M  V30 8827 O 796.856 0.680876 -4.06741 0
M  V30 8828 H 796.197 -0.137209 -0.649669 0
M  V30 8829 H 798.727 -1.01331 -1.77745 0
M  V30 8830 H 798.737 -0.175956 -4.0762 0
M  V30 8831 H 797.412 -1.32067 -3.94374 0
M  V30 8832 H 795.989 0.49398 -3.69614 0
M  V30 8833 N 798.174 1.49689 -0.493057 0
M  V30 8834 C 799.42 2.03347 0.0463792 0
M  V30 8835 C 799.775 1.36671 1.35421 0
M  V30 8836 O 799.068 0.4907 1.8521 0
M  V30 8837 C 799.262 3.56427 0.263536 0
M  V30 8838 C 799.091 4.3794 -1.02169 0
M  V30 8839 C 797.861 4.8025 -1.57125 0
M  V30 8840 C 800.059 4.77 -1.9229 0
M  V30 8841 N 798.041 5.46162 -2.80321 0
M  V30 8842 C 799.412 5.42549 -3.00067 0
M  V30 8843 C 801.467 4.58945 -1.93064 0
M  V30 8844 C 800.17 5.91954 -4.08635 0
M  V30 8845 C 802.196 5.09306 -3.00602 0
M  V30 8846 C 801.558 5.74849 -4.07097 0
M  V30 8847 H 797.657 0.781644 -0.0236097 0
M  V30 8848 H 800.241 1.82949 -0.666151 0
M  V30 8849 H 798.412 3.76725 0.945118 0
M  V30 8850 H 800.144 3.96729 0.79927 0
M  V30 8851 H 796.899 4.60228 -1.11746 0
M  V30 8852 H 797.323 5.83711 -3.42944 0
M  V30 8853 H 801.965 4.07685 -1.12039 0
M  V30 8854 H 799.683 6.4224 -4.90463 0
M  V30 8855 H 803.269 4.97152 -3.0221 0
M  V30 8856 H 802.149 6.13113 -4.88939 0
M  V30 8857 N 799.652 0.226554 1.55963 0
M  V30 8858 C 800.582 -0.676079 2.23498 0
M  V30 8859 C 801.563 -1.19718 1.20837 0
M  V30 8860 O 802.748 -1.24027 1.49436 0
M  V30 8861 C 799.878 -1.88217 2.91876 0
M  V30 8862 C 798.832 -1.4947 4.01052 0
M  V30 8863 C 798.158 -2.77997 4.56751 0
M  V30 8864 C 799.458 -0.680951 5.17842 0
M  V30 8865 H 801.152 -0.112989 2.99187 0
M  V30 8866 H 798.698 -0.0529046 1.43903 0
M  V30 8867 H 800.651 -2.51911 3.37815 0
M  V30 8868 H 799.375 -2.47031 2.13643 0
M  V30 8869 H 798.034 -0.881199 3.55852 0
M  V30 8870 H 797.682 -3.34966 3.75243 0
M  V30 8871 H 797.382 -2.52803 5.30438 0
M  V30 8872 H 798.906 -3.42625 5.05411 0
M  V30 8873 H 800.32 -1.22171 5.60131 0
M  V30 8874 H 798.717 -0.525898 5.97791 0
M  V30 8875 H 799.787 0.311346 4.83899 0
M  V30 8876 N 801.13 -1.57531 -0.0467866 0
M  V30 8877 C 802.358 -1.92696 -0.753371 0
M  V30 8878 C 802.773 -0.824792 -1.69831 0
M  V30 8879 O 802.13 0.200155 -1.81399 0
M  V30 8880 C 802.181 -3.27728 -1.52566 0
M  V30 8881 O 801.902 -4.3371 -0.618674 0
M  V30 8882 C 803.403 -3.77066 -2.33101 0
M  V30 8883 H 800.623 -0.636367 -0.212788 0
M  V30 8884 H 803.167 -2.04498 -0.00959361 0
M  V30 8885 H 801.322 -3.17378 -2.22148 0
M  V30 8886 H 801.736 -5.11548 -1.15839 0
M  V30 8887 H 803.21 -4.74109 -2.82709 0
M  V30 8888 H 803.687 -3.07348 -3.13741 0
M  V30 8889 H 804.293 -3.90442 -1.68628 0
M  V30 8890 N 802.608 0.318715 -1.54344 0
M  V30 8891 C 803.571 1.37545 -1.83342 0
M  V30 8892 C 804.571 1.445 -0.705444 0
M  V30 8893 O 805.761 1.44443 -0.973752 0
M  V30 8894 C 802.893 2.76225 -1.99781 0
M  V30 8895 H 804.086 1.13084 -2.77762 0
M  V30 8896 H 801.639 0.554457 -1.46135 0
M  V30 8897 H 802.374 3.05934 -1.07588 0
M  V30 8898 H 802.159 2.7257 -2.81865 0
M  V30 8899 H 803.649 3.52664 -2.23647 0
M  V30 8900 N 804.086 1.46499 0.581025 0
M  V30 8901 C 805.314 1.5547 1.36517 0
M  V30 8902 C 805.729 0.196407 1.87776 0
M  V30 8903 O 805.086 -0.806577 1.63709 0
M  V30 8904 C 805.137 2.56084 2.55154 0
M  V30 8905 O 804.858 3.86637 2.06018 0
M  V30 8906 C 806.359 2.75011 3.47683 0
M  V30 8907 H 803.579 0.525703 0.416986 0
M  V30 8908 H 806.123 1.9192 0.706177 0
M  V30 8909 H 804.278 2.22633 3.17039 0
M  V30 8910 H 804.692 4.41413 2.83292 0
M  V30 8911 H 806.166 3.49329 4.27403 0
M  V30 8912 H 806.643 1.81978 3.99726 0
M  V30 8913 H 807.249 3.09565 2.91632 0
M  V30 8914 N 805.565 -0.825799 1.34232 0
M  V30 8915 C 806.79 -1.61883 1.29648 0
M  V30 8916 C 807.215 -1.87669 -0.127295 0
M  V30 8917 O 806.573 -1.45016 -1.08813 0
M  V30 8918 C 806.621 -2.93846 2.09014 0
M  V30 8919 O 805.725 -3.85778 1.4577 0
M  V30 8920 H 805.066 -0.492454 0.445405 0
M  V30 8921 H 807.596 -1.02641 1.76992 0
M  V30 8922 H 807.606 -3.43435 2.20264 0
M  V30 8923 H 806.281 -2.74401 3.12533 0
M  V30 8924 H 804.858 -3.4429 1.43245 0
M  V30 8925 N 807.043 -1.17915 -1.04565 0
M  V30 8926 C 808.006 -0.903787 -2.10628 0
M  V30 8927 C 809.006 0.10873 -1.60432 0
M  V30 8928 O 810.196 -0.124152 -1.73757 0
M  V30 8929 C 807.328 -0.355017 -3.39046 0
M  V30 8930 H 808.521 -1.84425 -2.3649 0
M  V30 8931 H 806.074 -0.990477 -1.2091 0
M  V30 8932 H 806.809 0.592297 -3.18845 0
M  V30 8933 H 806.594 -1.08484 -3.76794 0
M  V30 8934 H 808.084 -0.180891 -4.17208 0
M  V30 8935 N 808.521 1.23394 -0.980386 0
M  V30 8936 C 809.746 1.96384 -0.666935 0
M  V30 8937 C 810.171 1.72087 0.759456 0
M  V30 8938 O 809.529 0.992328 1.51732 0
M  V30 8939 C 809.577 3.47499 -0.963177 0
M  V30 8940 O 808.681 4.12363 -0.0552051 0
M  V30 8941 H 808.022 0.614797 -0.250839 0
M  V30 8942 H 810.552 1.56831 -1.31398 0
M  V30 8943 H 810.562 3.97953 -0.899877 0
M  V30 8944 H 809.237 3.6451 -2.00264 0
M  V30 8945 H 807.814 3.72499 -0.172914 0
M  V30 8946 N 809.999 0.752036 1.385 0
M  V30 8947 C 810.931 0.0835089 2.29048 0
M  V30 8948 C 811.944 -0.685402 1.47669 0
M  V30 8949 O 813.133 -0.526748 1.70551 0
M  V30 8950 C 810.233 -0.905772 3.26572 0
M  V30 8951 C 809.406 -0.194828 4.36966 0
M  V30 8952 C 808.465 -1.09464 5.14688 0
M  V30 8953 O 807.491 -0.565743 5.66381 0
M  V30 8954 N 808.693 -2.42287 5.2752 0
M  V30 8955 H 811.458 0.861142 2.87062 0
M  V30 8956 H 809.019 0.602689 1.50264 0
M  V30 8957 H 811.011 -1.51072 3.75446 0
M  V30 8958 H 809.581 -1.58449 2.69467 0
M  V30 8959 H 808.801 0.590812 3.89747 0
M  V30 8960 H 810.089 0.297189 5.07931 0
M  V30 8961 H 809.487 -2.87715 4.8707 0
M  V30 8962 H 808.044 -2.97836 5.79773 0
M  V30 8963 N 811.477 -1.49425 0.500989 0
M  V30 8964 C 812.754 -1.9531 -0.106551 0
M  V30 8965 C 813.134 -1.44248 -1.54129 0
M  V30 8966 O 812.482 -0.656237 -2.18874 0
M  V30 8967 C 812.692 -3.48995 -0.0191972 0
M  V30 8968 C 814.04 -4.24161 -0.193129 0
M  V30 8969 O 815.064 -3.56075 -0.0943843 0
M  V30 8970 O 813.923 -5.45064 -0.395869 0
M  V30 8971 H 811.017 -0.82149 -0.0953068 0
M  V30 8972 H 813.563 -1.6007 0.563526 0
M  V30 8973 H 812.335 -3.78794 0.981353 0
M  V30 8974 H 811.958 -3.90852 -0.72942 0
M  V30 8975 N 812.955 -0.234822 -1.55841 0
M  V30 8976 C 814.204 0.393685 -1.97821 0
M  V30 8977 C 814.517 1.59947 -1.1259 0
M  V30 8978 O 815.723 2.29835 -1.44528 0
M  V30 8979 C 814.179 0.751811 -3.5196 0
M  V30 8980 C 813.787 -0.431898 -4.45913 0
M  V30 8981 C 815.531 1.34518 -4.02623 0
M  V30 8982 C 813.438 -0.0505976 -5.91378 0
M  V30 8983 H 812.368 0.150864 -0.738753 0
M  V30 8984 H 815.019 -0.333132 -1.80451 0
M  V30 8985 H 813.401 1.53642 -3.6498 0
M  V30 8986 H 814.575 -1.20935 -4.44647 0
M  V30 8987 H 812.89 -0.939385 -4.05666 0
M  V30 8988 H 815.487 1.64359 -5.08813 0
M  V30 8989 H 815.83 2.26554 -3.49255 0
M  V30 8990 H 816.363 0.623729 -3.9288 0
M  V30 8991 H 813.102 -0.937779 -6.48757 0
M  V30 8992 H 812.622 0.690898 -5.95808 0
M  V30 8993 H 814.301 0.37146 -6.45933 0
M  V30 8994 N 814.433 1.57553 0.0384317 0
M  V30 8995 C 815.343 2.09333 1.0591 0
M  V30 8996 C 816.359 1.0299 1.40247 0
M  V30 8997 O 817.535 1.34669 1.49754 0
M  V30 8998 C 814.6 2.55468 2.34386 0
M  V30 8999 C 813.661 3.76254 2.06716 0
M  V30 9000 C 812.894 4.20179 3.29067 0
M  V30 9001 O 813.117 3.637 4.39407 0
M  V30 9002 O 812.051 5.12697 3.15317 0
M  V30 9003 H 815.877 2.96683 0.649087 0
M  V30 9004 H 813.462 1.47211 0.254802 0
M  V30 9005 H 815.344 2.85514 3.09935 0
M  V30 9006 H 814.019 1.71234 2.74701 0
M  V30 9007 H 812.926 3.51241 1.28766 0
M  V30 9008 H 814.259 4.61443 1.71263 0
M  V30 9009 N 815.911 -0.310526 1.54511 0
M  V30 9010 C 816.858 -1.38264 1.84802 0
M  V30 9011 C 817.828 -1.50808 0.696141 0
M  V30 9012 O 819.013 -1.6582 0.943846 0
M  V30 9013 C 816.153 -2.74422 2.09252 0
M  V30 9014 C 815.266 -2.70405 3.36906 0
M  V30 9015 C 814.401 -3.98495 3.51248 0
M  V30 9016 C 813.44 -3.88836 4.72729 0
M  V30 9017 N 812.577 -5.08683 4.83928 0
M  V30 9018 H 817.417 -1.11732 2.76261 0
M  V30 9019 H 814.954 -0.540609 1.36806 0
M  V30 9020 H 816.912 -3.53593 2.21422 0
M  V30 9021 H 815.542 -2.99235 1.2107 0
M  V30 9022 H 814.594 -1.83151 3.33406 0
M  V30 9023 H 815.906 -2.59155 4.26193 0
M  V30 9024 H 815.06 -4.861 3.63031 0
M  V30 9025 H 813.799 -4.12567 2.60077 0
M  V30 9026 H 812.804 -2.99615 4.60989 0
M  V30 9027 H 814.029 -3.76318 5.65298 0
M  V30 9028 H 811.975 -5.23236 3.95677 0
M  V30 9029 H 811.892 -4.99819 5.67201 0
M  V30 9030 H 813.16 -5.97966 5.00057 0
M  V30 9031 N 817.389 -1.46805 -0.573248 0
M  V30 9032 C 818.666 -1.43082 -1.33368 0
M  V30 9033 C 819.046 -0.119252 -2.10763 0
M  V30 9034 O 818.394 0.899239 -2.10062 0
M  V30 9035 C 818.604 -2.66643 -2.25172 0
M  V30 9036 C 819.952 -3.13188 -2.86702 0
M  V30 9037 O 820.976 -2.67258 -2.35482 0
M  V30 9038 O 819.835 -3.92994 -3.79761 0
M  V30 9039 H 816.929 -0.569451 -0.599712 0
M  V30 9040 H 819.475 -1.58984 -0.59348 0
M  V30 9041 H 818.247 -3.53649 -1.67475 0
M  V30 9042 H 817.87 -2.53247 -3.06516 0
M  V30 9043 N 818.867 0.818669 -1.34668 0
M  V30 9044 C 819.797 1.94468 -1.29245 0
M  V30 9045 C 820.778 1.69257 -0.169101 0
M  V30 9046 O 821.963 1.90794 -0.362143 0
M  V30 9047 C 819.093 3.31001 -1.05145 0
M  V30 9048 C 818.047 3.70663 -2.13992 0
M  V30 9049 C 817.373 5.05226 -1.75074 0
M  V30 9050 C 818.673 3.82312 -3.55858 0
M  V30 9051 H 820.367 1.99263 -2.2346 0
M  V30 9052 H 817.913 0.957304 -1.07572 0
M  V30 9053 H 819.866 4.09364 -0.999949 0
M  V30 9054 H 818.59 3.26517 -0.0737312 0
M  V30 9055 H 817.249 2.94578 -2.18219 0
M  V30 9056 H 816.897 4.97233 -0.759518 0
M  V30 9057 H 816.597 5.32734 -2.47928 0
M  V30 9058 H 818.121 5.86042 -1.71427 0
M  V30 9059 H 819.535 4.50935 -3.5402 0
M  V30 9060 H 817.932 4.21278 -4.2737 0
M  V30 9061 H 819.002 2.84193 -3.9289 0
M  V30 9062 N 820.346 1.18468 1.03938 0
M  V30 9063 C 821.293 0.912859 2.1198 0
M  V30 9064 C 822.263 -0.14824 1.65437 0
M  V30 9065 O 823.448 -0.008331 1.90798 0
M  V30 9066 C 820.588 0.446114 3.42204 0
M  V30 9067 C 819.701 1.57278 4.02353 0
M  V30 9068 C 818.836 1.05863 5.20544 0
M  V30 9069 C 817.875 2.1599 5.72726 0
M  V30 9070 N 817.012 1.65959 6.82204 0
M  V30 9071 H 821.852 1.83798 2.34569 0
M  V30 9072 H 819.389 0.916504 1.15059 0
M  V30 9073 H 821.347 0.15697 4.16905 0
M  V30 9074 H 819.977 -0.442025 3.19759 0
M  V30 9075 H 819.029 1.97737 3.24968 0
M  V30 9076 H 820.341 2.40289 4.37107 0
M  V30 9077 H 819.495 0.724087 6.02364 0
M  V30 9078 H 818.234 0.198116 4.87297 0
M  V30 9079 H 817.239 2.50287 4.89527 0
M  V30 9080 H 818.464 3.02479 6.08016 0
M  V30 9081 H 816.41 0.82199 6.5083 0
M  V30 9082 H 816.327 2.42567 7.16029 0
M  V30 9083 H 817.595 1.35436 7.67644 0
M  V30 9084 N 821.824 -1.22873 0.986916 0
M  V30 9085 C 822.756 -2.23889 0.490537 0
M  V30 9086 C 823.769 -1.57523 -0.411144 0
M  V30 9087 O 824.958 -1.7721 -0.214236 0
M  V30 9088 C 822.058 -3.37488 -0.30902 0
M  V30 9089 C 821.231 -4.33438 0.587354 0
M  V30 9090 C 820.29 -5.25958 -0.159467 0
M  V30 9091 O 819.316 -5.67394 0.453115 0
M  V30 9092 N 820.518 -5.62265 -1.44355 0
M  V30 9093 H 823.283 -2.67109 1.35914 0
M  V30 9094 H 820.844 -1.37111 0.860937 0
M  V30 9095 H 822.836 -3.96365 -0.817139 0
M  V30 9096 H 821.406 -2.934 -1.07868 0
M  V30 9097 H 820.626 -3.72969 1.27622 0
M  V30 9098 H 821.914 -4.94495 1.19801 0
M  V30 9099 H 821.312 -5.30562 -1.96266 0
M  V30 9100 H 819.869 -6.23585 -1.89698 0
M  V30 9101 N 823.302 -0.75937 -1.38099 0
M  V30 9102 C 824.235 -0.0838362 -2.28046 0
M  V30 9103 C 825.213 0.722229 -1.4568 0
M  V30 9104 O 826.397 0.699629 -1.75036 0
M  V30 9105 C 823.524 0.887916 -3.26854 0
M  V30 9106 C 822.57 0.167374 -4.26171 0
M  V30 9107 S 823.403 -1.13592 -5.23314 0
M  V30 9108 C 824.559 -0.167385 -6.25676 0
M  V30 9109 H 824.792 -0.846564 -2.84992 0
M  V30 9110 H 822.325 -0.552206 -1.44188 0
M  V30 9111 H 824.283 1.44322 -3.84293 0
M  V30 9112 H 822.944 1.62366 -2.68879 0
M  V30 9113 H 822.137 0.903567 -4.95834 0
M  V30 9114 H 821.739 -0.316572 -3.72658 0
M  V30 9115 H 824.031 0.664598 -6.74232 0
M  V30 9116 H 824.974 -0.831836 -7.03197 0
M  V30 9117 H 825.382 0.21589 -5.64087 0
M  V30 9118 N 824.78 1.49157 -0.508906 0
M  V30 9119 C 826.196 1.58741 -0.165372 0
M  V30 9120 C 826.396 1.5133 1.33047 0
M  V30 9121 O 825.452 1.39135 2.10707 0
M  V30 9122 C 826.765 2.91217 -0.749194 0
M  V30 9123 C 828.313 3.047 -0.716015 0
M  V30 9124 C 828.788 4.39807 -1.27804 0
M  V30 9125 N 830.279 4.46319 -1.23908 0
M  V30 9126 C 831.014 5.49325 -1.64406 0
M  V30 9127 N 830.51 6.59395 -2.12534 0
M  V30 9128 N 832.303 5.40084 -1.55773 0
M  V30 9129 H 824.454 1.52217 -1.48134 0
M  V30 9130 H 826.717 0.721514 -0.614915 0
M  V30 9131 H 826.423 3.02233 -1.79856 0
M  V30 9132 H 826.297 3.76592 -0.214144 0
M  V30 9133 H 828.684 2.9331 0.324535 0
M  V30 9134 H 828.765 2.2099 -1.2883 0
M  V30 9135 H 828.409 4.5195 -2.31741 0
M  V30 9136 H 828.339 5.2217 -0.681623 0
M  V30 9137 H 830.83 3.67354 -0.886537 0
M  V30 9138 H 831.143 7.34102 -2.41485 0
M  V30 9139 H 829.488 6.60414 -2.16513 0
M  V30 9140 H 832.679 4.52986 -1.17987 0
M  V30 9141 H 832.852 6.20233 -1.87657 0
M  V30 9142 N 826.258 0.243083 1.55714 0
M  V30 9143 C 827.188 -0.652336 2.24203 0
M  V30 9144 C 828.169 -1.1843 1.221 0
M  V30 9145 O 829.354 -1.22435 1.50743 0
M  V30 9146 C 826.484 -1.85111 2.93856 0
M  V30 9147 C 825.438 -1.45208 4.02615 0
M  V30 9148 C 824.764 -2.73137 4.59674 0
M  V30 9149 C 826.064 -0.625988 5.18535 0
M  V30 9150 H 827.758 -0.0812504 2.9929 0
M  V30 9151 H 825.304 -0.0376388 1.43951 0
M  V30 9152 H 827.257 -2.48314 3.40468 0
M  V30 9153 H 825.981 -2.44751 2.16251 0
M  V30 9154 H 824.64 -0.843406 3.56766 0
M  V30 9155 H 824.288 -3.30967 3.78774 0
M  V30 9156 H 823.988 -2.47163 5.33089 0
M  V30 9157 H 825.512 -3.37245 5.09017 0
M  V30 9158 H 826.926 -1.16223 5.61396 0
M  V30 9159 H 825.323 -0.462465 5.98315 0
M  V30 9160 H 826.393 0.362652 4.83542 0
M  V30 9161 N 827.736 -1.57571 -0.0300757 0
M  V30 9162 C 828.668 -2.0329 -1.05857 0
M  V30 9163 C 829.681 -0.945543 -1.32527 0
M  V30 9164 O 830.87 -1.22287 -1.30032 0
M  V30 9165 C 827.97 -2.39234 -2.40042 0
M  V30 9166 C 827.143 -3.70337 -2.32743 0
M  V30 9167 C 826.202 -3.93482 -3.49369 0
M  V30 9168 O 825.228 -4.64551 -3.28909 0
M  V30 9169 N 826.43 -3.39042 -4.71201 0
M  V30 9170 H 829.195 -2.9214 -0.668897 0
M  V30 9171 H 826.756 -1.60425 -0.218038 0
M  V30 9172 H 828.748 -2.51856 -3.16782 0
M  V30 9173 H 827.318 -1.5606 -2.70858 0
M  V30 9174 H 826.538 -3.68079 -1.41109 0
M  V30 9175 H 827.826 -4.56343 -2.25007 0
M  V30 9176 H 827.224 -2.81434 -4.90725 0
M  V30 9177 H 825.781 -3.57045 -5.45309 0
M  V30 9178 N 829.214 0.302327 -1.54673 0
M  V30 9179 C 830.162 1.39286 -1.86285 0
M  V30 9180 C 831.156 1.52553 -0.736478 0
M  V30 9181 O 832.362 1.54686 -0.92045 0
M  V30 9182 H 828.737 0.465228 -0.590819 0
M  V30 9183 H 830.708 1.09859 -2.77441 0
M  V30 9184 C 829.457 2.75155 -2.12567 0
M  V30 9185 H 828.78 2.65728 -2.98712 0
M  V30 9186 H 830.22 3.50476 -2.38627 0
M  V30 9187 C 828.679 3.23987 -0.923813 0
M  V30 9188 O 829.209 4.01443 -0.143649 0
M  V30 9189 N 827.415 2.81293 -0.72956 0
M  V30 9190 H 826.962 2.18421 -1.36565 0
M  V30 9191 H 826.92 3.14315 0.0730351 0
M  V30 9192 N 830.692 1.47107 0.565454 0
M  V30 9193 C 831.92 1.56909 1.3486 0
M  V30 9194 C 832.335 0.216312 1.87557 0
M  V30 9195 O 831.692 -0.789168 1.64555 0
M  V30 9196 C 831.743 2.58776 2.52423 0
M  V30 9197 O 831.464 3.888 2.01906 0
M  V30 9198 C 832.965 2.78683 3.44747 0
M  V30 9199 H 830.185 0.530096 0.411387 0
M  V30 9200 H 832.729 1.92658 0.685782 0
M  V30 9201 H 830.884 2.25983 3.1466 0
M  V30 9202 H 831.298 4.44393 2.78595 0
M  V30 9203 H 832.772 3.53842 4.23674 0
M  V30 9204 H 833.249 1.86208 3.97773 0
M  V30 9205 H 833.855 3.12641 2.88333 0
M  V30 9206 N 832.17 -0.811516 1.35101 0
M  V30 9207 C 833.117 -1.92308 1.27617 0
M  V30 9208 C 834.087 -1.6543 0.149091 0
M  V30 9209 O 835.272 -1.8789 0.331974 0
M  V30 9210 C 832.412 -3.28768 1.04908 0
M  V30 9211 C 831.525 -3.67865 2.26493 0
M  V30 9212 C 830.66 -4.9333 1.96974 0
M  V30 9213 C 829.699 -5.25041 3.1464 0
M  V30 9214 N 828.836 -6.41685 2.84929 0
M  V30 9215 H 833.676 -1.98041 2.22674 0
M  V30 9216 H 831.213 -0.968755 1.10696 0
M  V30 9217 H 833.171 -4.07426 0.897749 0
M  V30 9218 H 831.801 -3.22517 0.135151 0
M  V30 9219 H 830.853 -2.84507 2.52507 0
M  V30 9220 H 832.165 -3.87263 3.14371 0
M  V30 9221 H 831.319 -5.79803 1.78643 0
M  V30 9222 H 830.058 -4.75958 1.06374 0
M  V30 9223 H 829.063 -4.3706 3.33554 0
M  V30 9224 H 830.288 -5.44346 4.06035 0
M  V30 9225 H 828.234 -6.25747 1.96918 0
M  V30 9226 H 828.151 -6.6131 3.66341 0
M  V30 9227 H 829.419 -7.31198 2.70128 0
M  V30 9228 N 833.648 -1.19017 -1.03309 0
M  V30 9229 C 834.558 -0.939303 -2.14975 0
M  V30 9230 C 835.574 0.0992359 -1.73717 0
M  V30 9231 O 836.75 -0.0844362 -2.01223 0
M  V30 9232 C 833.815 -0.476712 -3.43407 0
M  V30 9233 C 832.876 -1.58413 -3.99003 0
M  V30 9234 C 832.109 -1.14352 -5.21305 0
M  V30 9235 O 832.332 -0.00534408 -5.704 0
M  V30 9236 O 831.266 -1.94436 -5.6963 0
M  V30 9237 H 835.092 -1.87386 -2.38998 0
M  V30 9238 H 832.677 -0.972635 -1.13403 0
M  V30 9239 H 834.559 -0.22718 -4.20787 0
M  V30 9240 H 833.234 0.429455 -3.20839 0
M  V30 9241 H 832.141 -1.88777 -3.22977 0
M  V30 9242 H 833.474 -2.4667 -4.25928 0
M  V30 9243 N 835.127 1.22348 -0.993418 0
M  V30 9244 C 836.352 1.95666 -0.687727 0
M  V30 9245 C 836.777 1.72883 0.741161 0
M  V30 9246 O 836.135 1.00837 1.50671 0
M  V30 9247 C 836.183 3.46457 -0.99998 0
M  V30 9248 O 835.287 4.12281 -0.0989386 0
M  V30 9249 H 834.628 0.612102 -0.257346 0
M  V30 9250 H 837.158 1.55428 -1.33054 0
M  V30 9251 H 837.168 3.96976 -0.942035 0
M  V30 9252 H 835.843 3.62365 -2.04118 0
M  V30 9253 H 834.42 3.72295 -0.212413 0
M  V30 9254 N 836.605 0.766683 1.37694 0
M  V30 9255 C 837.552 0.147725 2.30327 0
M  V30 9256 C 838.522 -0.695366 1.50844 0
M  V30 9257 O 839.707 -0.64878 1.79431 0
M  V30 9258 C 836.847 -0.72935 3.37305 0
M  V30 9259 C 835.96 0.129795 4.31805 0
M  V30 9260 C 835.095 -0.751511 5.25857 0
M  V30 9261 C 834.134 0.110475 6.12 0
M  V30 9262 N 833.271 -0.728522 6.9831 0
M  V30 9263 H 838.111 0.943204 2.82679 0
M  V30 9264 H 835.648 0.476736 1.3916 0
M  V30 9265 H 837.606 -1.25263 3.97951 0
M  V30 9266 H 836.236 -1.49048 2.86329 0
M  V30 9267 H 835.288 0.770829 3.72508 0
M  V30 9268 H 836.6 0.794923 4.92425 0
M  V30 9269 H 835.754 -1.34146 5.91684 0
M  V30 9270 H 834.493 -1.45034 4.65636 0
M  V30 9271 H 833.498 0.712999 5.45157 0
M  V30 9272 H 834.723 0.806557 6.74293 0
M  V30 9273 H 832.669 -1.41206 6.40622 0
M  V30 9274 H 832.586 -0.12058 7.55904 0
M  V30 9275 H 833.854 -1.30303 7.68532 0
M  V30 9276 N 838.083 -1.48885 0.516809 0
M  V30 9277 C 839.031 -2.31066 -0.266656 0
M  V30 9278 C 840.025 -1.40393 -0.94795 0
M  V30 9279 O 841.231 -1.57366 -0.873836 0
M  V30 9280 H 837.606 -0.744654 -0.104858 0
M  V30 9281 H 839.577 -2.95045 0.446236 0
M  V30 9282 C 838.326 -3.22131 -1.3087 0
M  V30 9283 H 837.649 -3.91839 -0.793865 0
M  V30 9284 H 839.089 -3.82544 -1.82856 0
M  V30 9285 C 837.548 -2.42825 -2.33533 0
M  V30 9286 O 838.078 -2.14364 -3.39722 0
M  V30 9287 N 836.284 -2.04559 -2.06407 0
M  V30 9288 H 835.831 -2.27905 -1.20071 0
M  V30 9289 H 835.789 -1.51807 -2.75322 0
M  V30 9290 N 839.561 -0.251338 -1.55583 0
M  V30 9291 C 840.972 0.25098 -1.85005 0
M  V30 9292 C 841.323 1.57259 -1.17321 0
M  V30 9293 O 840.448 2.11603 -0.453136 0
M  V30 9294 C 841.043 0.462161 -3.35633 0
M  V30 9295 C 839.602 0.908737 -3.65266 0
M  V30 9296 C 838.749 -0.0115418 -2.77298 0
M  V30 9297 H 841.7 -0.473782 -1.51463 0
M  V30 9298 H 841.721 1.30415 -3.57452 0
M  V30 9299 H 841.233 -0.499886 -3.84867 0
M  V30 9300 H 839.334 1.8831 -3.21512 0
M  V30 9301 H 839.447 0.762526 -4.72993 0
M  V30 9302 H 837.811 0.500612 -2.49732 0
M  V30 9303 H 838.594 -0.969042 -3.29339 0
M  V30 9304 N 841.039 1.57585 0.0217189 0
M  V30 9305 C 841.949 2.10444 1.03684 0
M  V30 9306 C 842.965 1.04472 1.39146 0
M  V30 9307 O 844.141 1.36249 1.48317 0
M  V30 9308 C 841.206 2.5794 2.31664 0
M  V30 9309 C 840.267 3.78425 2.02714 0
M  V30 9310 C 839.5 4.23646 3.24592 0
M  V30 9311 O 839.723 3.6834 4.35525 0
M  V30 9312 O 838.657 5.16013 3.09862 0
M  V30 9313 H 842.483 2.97354 0.617584 0
M  V30 9314 H 840.068 1.47473 0.239174 0
M  V30 9315 H 841.95 2.88785 3.06889 0
M  V30 9316 H 840.625 1.74138 2.7287 0
M  V30 9317 H 839.532 3.52587 1.25033 0
M  V30 9318 H 840.865 4.63234 1.66359 0
M  V30 9319 N 842.517 -0.29412 1.54831 0
M  V30 9320 C 843.449 -1.38476 1.82639 0
M  V30 9321 C 844.462 -1.46517 0.709694 0
M  V30 9322 O 845.651 -1.48712 0.987269 0
M  V30 9323 C 842.751 -2.76791 1.95551 0
M  V30 9324 C 841.924 -2.91599 3.26019 0
M  V30 9325 C 840.983 -4.10456 3.29261 0
M  V30 9326 O 840.009 -4.02214 4.02756 0
M  V30 9327 N 841.211 -5.21422 2.55145 0
M  V30 9328 H 843.976 -1.14974 2.76769 0
M  V30 9329 H 841.537 -0.484206 1.5449 0
M  V30 9330 H 843.529 -3.5456 1.95113 0
M  V30 9331 H 842.099 -2.93209 1.08384 0
M  V30 9332 H 841.319 -2.00886 3.39173 0
M  V30 9333 H 842.607 -2.98409 4.12104 0
M  V30 9334 H 842.005 -5.31 1.95078 0
M  V30 9335 H 840.562 -5.97501 2.60454 0
M  V30 9336 N 843.995 -1.47404 -0.557645 0
M  V30 9337 C 844.942 -1.59859 -1.66475 0
M  V30 9338 C 845.912 -0.441644 -1.60121 0
M  V30 9339 O 847.097 -0.661641 -1.78961 0
M  V30 9340 C 844.237 -1.61843 -3.04797 0
M  V30 9341 C 843.35 -2.8845 -3.2159 0
M  V30 9342 C 842.485 -2.81773 -4.50308 0
M  V30 9343 C 841.524 -4.03208 -4.60532 0
M  V30 9344 N 840.661 -3.94769 -5.80604 0
M  V30 9345 H 845.501 -2.54415 -1.55168 0
M  V30 9346 H 843.038 -1.26194 -0.755876 0
M  V30 9347 H 844.996 -1.60976 -3.84893 0
M  V30 9348 H 843.626 -0.707997 -3.1494 0
M  V30 9349 H 842.678 -2.99186 -2.34929 0
M  V30 9350 H 843.99 -3.78379 -3.25009 0
M  V30 9351 H 843.144 -2.79153 -5.38663 0
M  V30 9352 H 841.883 -1.89527 -4.49367 0
M  V30 9353 H 840.888 -4.06133 -3.70589 0
M  V30 9354 H 842.113 -4.9658 -4.63233 0
M  V30 9355 H 840.059 -3.05326 -5.80613 0
M  V30 9356 H 839.976 -4.78375 -5.854 0
M  V30 9357 H 841.244 -3.96165 -6.71322 0
M  V30 9358 N 845.473 0.80434 -1.35529 0
M  V30 9359 C 846.703 1.59052 -1.31856 0
M  V30 9360 C 847.111 1.88905 0.105549 0
M  V30 9361 O 846.454 1.49422 1.06858 0
M  V30 9362 C 846.516 2.94626 -2.06 0
M  V30 9363 C 846.18 2.87576 -3.55175 0
M  V30 9364 C 847.177 2.60856 -4.49722 0
M  V30 9365 C 844.862 3.06623 -3.97854 0
M  V30 9366 C 846.856 2.53262 -5.84925 0
M  V30 9367 C 844.543 2.98652 -5.33151 0
M  V30 9368 C 845.541 2.72007 -6.26499 0
M  V30 9369 O 845.229 2.64003 -7.59314 0
M  V30 9370 H 844.961 0.500486 -0.454411 0
M  V30 9371 H 847.515 1.0074 -1.78999 0
M  V30 9372 H 845.745 3.5493 -1.53498 0
M  V30 9373 H 847.434 3.55785 -1.95376 0
M  V30 9374 H 848.2 2.45858 -4.18066 0
M  V30 9375 H 844.079 3.26372 -3.2558 0
M  V30 9376 H 847.623 2.32386 -6.57756 0
M  V30 9377 H 843.52 3.13208 -5.64421 0
M  V30 9378 H 844.288 2.79595 -7.69265 0
M  V30 9379 N 846.951 1.19563 1.02676 0
M  V30 9380 C 847.898 0.935291 2.11 0
M  V30 9381 C 848.868 -0.130685 1.65585 0
M  V30 9382 O 850.053 0.0119062 1.90796 0
M  V30 9383 C 847.193 0.482384 3.41712 0
M  V30 9384 C 846.306 1.61537 4.00662 0
M  V30 9385 C 845.441 1.11378 5.19392 0
M  V30 9386 C 844.48 2.22052 5.70403 0
M  V30 9387 N 843.617 1.73185 6.80405 0
M  V30 9388 H 848.457 1.86275 2.32606 0
M  V30 9389 H 845.994 0.928656 1.14081 0
M  V30 9390 H 847.952 0.20118 4.16715 0
M  V30 9391 H 846.582 -0.408086 3.2021 0
M  V30 9392 H 845.634 2.01173 3.22852 0
M  V30 9393 H 846.946 2.44912 4.34534 0
M  V30 9394 H 846.1 0.787935 6.01562 0
M  V30 9395 H 844.839 0.249789 4.8706 0
M  V30 9396 H 843.844 2.55465 4.86845 0
M  V30 9397 H 845.069 3.08911 6.04774 0
M  V30 9398 H 843.015 0.890973 6.49921 0
M  V30 9399 H 842.932 2.50148 7.13416 0
M  V30 9400 H 844.2 1.4357 7.66164 0
M  V30 9401 N 848.429 -1.21819 0.999893 0
M  V30 9402 C 849.392 -2.22227 0.561044 0
M  V30 9403 C 850.392 -1.56722 -0.359858 0
M  V30 9404 O 851.582 -1.73546 -0.150848 0
M  V30 9405 C 848.714 -3.40409 -0.182987 0
M  V30 9406 H 849.907 -2.62567 1.44909 0
M  V30 9407 H 847.46 -1.34991 0.78785 0
M  V30 9408 H 848.195 -3.05551 -1.08671 0
M  V30 9409 H 847.98 -3.89171 0.47833 0
M  V30 9410 H 849.47 -4.14856 -0.477952 0
M  V30 9411 N 849.908 -0.773975 -1.37286 0
M  V30 9412 C 850.855 -0.159938 -2.30245 0
M  V30 9413 C 851.825 0.687356 -1.51211 0
M  V30 9414 O 853.01 0.639255 -1.79773 0
M  V30 9415 C 850.15 0.711452 -3.37687 0
M  V30 9416 C 849.263 -0.152692 -4.3173 0
M  V30 9417 C 848.398 0.723613 -5.26248 0
M  V30 9418 C 847.437 -0.14293 -6.11933 0
M  V30 9419 N 846.574 0.691479 -6.98687 0
M  V30 9420 H 851.414 -0.958182 -2.82175 0
M  V30 9421 H 848.951 -0.48411 -1.38906 0
M  V30 9422 H 850.909 1.2315 -3.9861 0
M  V30 9423 H 849.539 1.47528 -2.87116 0
M  V30 9424 H 848.591 -0.790574 -3.72094 0
M  V30 9425 H 849.903 -0.821027 -4.91997 0
M  V30 9426 H 849.057 1.31006 -5.92387 0
M  V30 9427 H 847.796 1.42562 -4.66398 0
M  V30 9428 H 846.801 -0.7419 -5.44771 0
M  V30 9429 H 848.026 -0.842305 -6.73856 0
M  V30 9430 H 845.972 1.37806 -6.41362 0
M  V30 9431 H 845.889 0.0804911 -7.55957 0
M  V30 9432 H 847.157 1.26225 -7.69212 0
M  V30 9433 N 851.386 1.48609 -0.524698 0
M  V30 9434 C 852.333 2.29539 0.240956 0
M  V30 9435 C 853.303 1.37033 0.938681 0
M  V30 9436 O 854.488 1.65996 0.940737 0
M  V30 9437 C 851.628 3.20278 1.28514 0
M  V30 9438 C 850.741 4.27858 0.596798 0
M  V30 9439 C 849.876 5.05784 1.62346 0
M  V30 9440 C 848.915 6.05173 0.918287 0
M  V30 9441 N 848.052 6.76176 1.89025 0
M  V30 9442 H 852.892 2.945 -0.455368 0
M  V30 9443 H 850.429 1.45188 -0.236403 0
M  V30 9444 H 852.387 3.71281 1.90279 0
M  V30 9445 H 851.017 2.57251 1.94992 0
M  V30 9446 H 850.069 3.80162 -0.134668 0
M  V30 9447 H 851.381 4.98782 0.0428506 0
M  V30 9448 H 850.535 5.60775 2.31553 0
M  V30 9449 H 849.274 4.34687 2.2113 0
M  V30 9450 H 848.279 5.49391 0.21212 0
M  V30 9451 H 849.504 6.78265 0.336633 0
M  V30 9452 H 847.45 6.07834 2.46726 0
M  V30 9453 H 847.367 7.43157 1.3876 0
M  V30 9454 H 848.635 7.35759 2.57446 0
M  V30 9455 N 852.864 0.259585 1.55447 0
M  V30 9456 C 854.112 -0.360893 1.98852 0
M  V30 9457 C 854.433 -1.57535 1.14924 0
M  V30 9458 O 853.703 -1.94485 0.235025 0
M  V30 9459 H 852.283 -0.136332 0.734454 0
M  V30 9460 H 854.945 0.361319 1.91522 0
M  V30 9461 H 854.041 -0.661388 3.05012 0
M  V30 9462 N 854.342 -1.57594 -0.0133615 0
M  V30 9463 C 855.588 -1.90262 -0.702019 0
M  V30 9464 C 855.921 -0.859219 -1.74158 0
M  V30 9465 O 855.196 0.123778 -1.94106 0
M  V30 9466 C 855.479 -3.3354 -1.35732 0
M  V30 9467 C 855.332 -4.48586 -0.330208 0
M  V30 9468 C 856.651 -3.76004 -2.28712 0
M  V30 9469 H 853.77 -0.691943 -0.253739 0
M  V30 9470 H 856.412 -1.89967 0.0351894 0
M  V30 9471 H 854.562 -3.33921 -1.98567 0
M  V30 9472 H 856.234 -4.6034 0.297433 0
M  V30 9473 H 854.477 -4.32394 0.348926 0
M  V30 9474 H 855.148 -5.45762 -0.827508 0
M  V30 9475 H 857.624 -3.77089 -1.75906 0
M  V30 9476 H 856.5 -4.77032 -2.71535 0
M  V30 9477 H 856.761 -3.09129 -3.16056 0
M  V30 9478 N 855.82 0.285905 -1.54985 0
M  V30 9479 C 856.767 1.35306 -1.86978 0
M  V30 9480 C 857.737 1.49682 -0.720046 0
M  V30 9481 O 858.922 1.64297 -0.970107 0
M  V30 9482 C 856.062 2.71059 -2.13591 0
M  V30 9483 C 855.175 2.6501 -3.41165 0
M  V30 9484 C 854.31 3.92856 -3.57544 0
M  V30 9485 C 853.349 3.81266 -4.78855 0
M  V30 9486 N 852.486 5.00919 -4.9196 0
M  V30 9487 H 857.326 1.07323 -2.78003 0
M  V30 9488 H 854.863 0.518776 -1.37649 0
M  V30 9489 H 856.821 3.50026 -2.27019 0
M  V30 9490 H 855.451 2.97271 -1.25816 0
M  V30 9491 H 854.503 1.77824 -3.36278 0
M  V30 9492 H 855.815 2.52342 -4.30262 0
M  V30 9493 H 854.969 4.80263 -3.70718 0
M  V30 9494 H 853.708 4.08377 -2.66608 0
M  V30 9495 H 852.713 2.92243 -4.65698 0
M  V30 9496 H 853.938 3.67277 -5.71213 0
M  V30 9497 H 851.884 5.16875 -4.03951 0
M  V30 9498 H 851.801 4.90732 -5.75081 0
M  V30 9499 H 853.069 5.89935 -5.09507 0
M  V30 9500 N 857.298 1.47698 0.54982 0
M  V30 9501 C 858.545 1.54702 1.30665 0
M  V30 9502 C 858.873 0.212418 1.93337 0
M  V30 9503 O 858.128 -0.79543 1.78805 0
M  V30 9504 C 858.427 2.61903 2.4319 0
M  V30 9505 C 858.093 4.04953 1.98302 0
M  V30 9506 C 856.755 4.43893 1.85776 0
M  V30 9507 C 859.107 4.94682 1.64133 0
M  V30 9508 C 856.435 5.70387 1.37388 0
M  V30 9509 C 858.787 6.21646 1.17214 0
M  V30 9510 C 857.451 6.5946 1.0329 0
M  V30 9511 H 856.721 0.566096 0.478139 0
M  V30 9512 H 859.368 1.8133 0.615767 0
M  V30 9513 H 857.673 2.2906 3.17866 0
M  V30 9514 H 859.37 2.64543 3.0136 0
M  V30 9515 H 855.96 3.74191 2.08995 0
M  V30 9516 H 860.144 4.65291 1.72679 0
M  V30 9517 H 855.4 5.98427 1.25278 0
M  V30 9518 H 859.574 6.90581 0.898391 0
M  V30 9519 H 857.201 7.57367 0.655735 0
M  V30 9520 N 858.776 -0.797141 1.35954 0
M  V30 9521 C 859.686 -1.94088 1.31784 0
M  V30 9522 C 860.702 -1.72588 0.221227 0
M  V30 9523 O 861.878 -1.96256 0.452255 0
M  V30 9524 C 858.943 -3.28828 1.09878 0
M  V30 9525 C 858.004 -3.63158 2.28942 0
M  V30 9526 C 857.237 -4.91469 2.08072 0
M  V30 9527 O 857.46 -5.60616 1.05196 0
M  V30 9528 O 856.394 -5.24277 2.95664 0
M  V30 9529 H 860.22 -2.00554 2.28061 0
M  V30 9530 H 857.805 -0.936288 1.16422 0
M  V30 9531 H 859.687 -4.09473 0.995485 0
M  V30 9532 H 858.362 -3.23271 0.16659 0
M  V30 9533 H 857.269 -2.82851 2.44839 0
M  V30 9534 H 858.602 -3.7343 3.20641 0
M  V30 9535 N 860.254 -1.20106 -1.0204 0
M  V30 9536 C 861.503 -1.00316 -1.74985 0
M  V30 9537 C 861.816 0.465814 -1.89972 0
M  V30 9538 O 863.022 0.782749 -2.59972 0
M  V30 9539 C 861.478 -1.74608 -3.14706 0
M  V30 9540 C 861.086 -3.25573 -3.07744 0
M  V30 9541 C 862.83 -1.63172 -3.91887 0
M  V30 9542 C 860.737 -3.92419 -4.42449 0
M  V30 9543 H 859.667 -0.371728 -0.655999 0
M  V30 9544 H 862.318 -1.43688 -1.14131 0
M  V30 9545 H 860.7 -1.24021 -3.76078 0
M  V30 9546 H 861.874 -3.83345 -2.55702 0
M  V30 9547 H 860.189 -3.3738 -2.44057 0
M  V30 9548 H 862.786 -2.10457 -4.9154 0
M  V30 9549 H 863.129 -0.58728 -4.12137 0
M  V30 9550 H 863.662 -2.11152 -3.37135 0
M  V30 9551 H 860.401 -4.96998 -4.27403 0
M  V30 9552 H 859.921 -3.39436 -4.94513 0
M  V30 9553 H 861.6 -3.96453 -5.11306 0
M  V30 9554 N 861.732 1.21287 -1.00634 0
M  V30 9555 C 862.68 2.25733 -0.561026 0
M  V30 9556 C 863.674 1.64728 0.395095 0
M  V30 9557 O 864.88 1.78022 0.266141 0
M  V30 9558 H 861.255 0.734104 -0.163081 0
M  V30 9559 H 863.226 2.60631 -1.45307 0
M  V30 9560 C 861.975 3.47569 0.0952587 0
M  V30 9561 H 861.298 3.94782 -0.631427 0
M  V30 9562 H 862.738 4.22382 0.370105 0
M  V30 9563 C 861.197 3.09326 1.33488 0
M  V30 9564 O 861.727 3.19933 2.42912 0
M  V30 9565 N 859.933 2.63976 1.21512 0
M  V30 9566 H 859.48 2.55545 0.324741 0
M  V30 9567 H 859.438 2.38757 2.04555 0
M  V30 9568 N 863.21 0.781244 1.36873 0
M  V30 9569 C 864.14 0.188128 2.32741 0
M  V30 9570 C 865.121 -0.672326 1.56249 0
M  V30 9571 O 866.306 -0.607835 1.84442 0
M  V30 9572 C 863.436 -0.684341 3.40491 0
M  V30 9573 C 862.39 0.0755641 4.27933 0
M  V30 9574 C 861.716 -0.916968 5.26779 0
M  V30 9575 C 863.016 1.26006 5.06873 0
M  V30 9576 H 864.71 0.989016 2.82593 0
M  V30 9577 H 862.256 0.477038 1.35869 0
M  V30 9578 H 864.209 -1.10915 4.06541 0
M  V30 9579 H 862.933 -1.51785 2.89187 0
M  V30 9580 H 861.592 0.481258 3.63427 0
M  V30 9581 H 861.24 -1.74528 4.71751 0
M  V30 9582 H 860.94 -0.413 5.86147 0
M  V30 9583 H 862.464 -1.34052 5.95703 0
M  V30 9584 H 863.878 0.911425 5.66009 0
M  V30 9585 H 862.275 1.69676 5.75613 0
M  V30 9586 H 863.345 2.05948 4.38991 0
M  V30 9587 N 864.689 -1.48329 0.532571 0
M  V30 9588 C 865.966 -1.95492 -0.0650985 0
M  V30 9589 C 866.346 -1.47485 -1.51034 0
M  V30 9590 O 865.694 -0.702516 -2.17433 0
M  V30 9591 C 865.904 -3.48957 0.0548341 0
M  V30 9592 C 867.252 -4.24475 -0.103115 0
M  V30 9593 O 868.276 -3.56195 -0.0188343 0
M  V30 9594 O 867.135 -5.45781 -0.280164 0
M  V30 9595 H 864.229 -0.823327 -0.0778603 0
M  V30 9596 H 866.775 -1.58839 0.597353 0
M  V30 9597 H 865.547 -3.76628 1.06148 0
M  V30 9598 H 865.17 -3.92311 -0.64635 0
M  V30 9599 N 866.167 -0.267825 -1.55308 0
M  V30 9600 C 867.114 0.6228 -2.22238 0
M  V30 9601 C 868.084 1.15536 -1.19334 0
M  V30 9602 O 869.269 1.206 -1.47852 0
M  V30 9603 C 866.409 1.80447 -2.94164 0
M  V30 9604 C 865.522 1.30646 -4.11771 0
M  V30 9605 C 864.657 2.44935 -4.7136 0
M  V30 9606 C 863.696 1.92099 -5.81175 0
M  V30 9607 N 862.833 2.99834 -6.34857 0
M  V30 9608 H 867.673 0.0453874 -2.97965 0
M  V30 9609 H 865.21 0.0106371 -1.47096 0
M  V30 9610 H 867.168 2.49896 -3.34078 0
M  V30 9611 H 865.798 2.35403 -2.20874 0
M  V30 9612 H 864.85 0.505314 -3.77029 0
M  V30 9613 H 866.162 0.879409 -4.90987 0
M  V30 9614 H 865.316 3.2239 -5.13955 0
M  V30 9615 H 864.055 2.90951 -3.91406 0
M  V30 9616 H 863.06 1.13122 -5.38037 0
M  V30 9617 H 864.285 1.47027 -6.62993 0
M  V30 9618 H 862.231 3.45246 -5.578 0
M  V30 9619 H 862.148 2.61524 -7.09324 0
M  V30 9620 H 863.416 3.77286 -6.82111 0
M  V30 9621 N 867.645 1.57599 0.00500368 0
M  V30 9622 C 868.885 1.92205 0.695456 0
M  V30 9623 C 869.249 0.868894 1.71214 0
M  V30 9624 O 870.45 1.10004 2.4526 0
M  V30 9625 C 868.721 3.31882 1.32625 0
M  V30 9626 S 870.28 3.88364 2.04252 0
M  V30 9627 H 867.098 0.672826 0.22984 0
M  V30 9628 H 869.7 1.95435 -0.0504824 0
M  V30 9629 H 868.404 4.06375 0.573396 0
M  V30 9630 H 867.935 3.32013 2.11023 0
M  V30 9631 H 869.95 3.69035 3.31704 0
M  V30 9632 N 869.123 -0.277682 1.55134 0
M  V30 9633 C 870.372 -1.00766 1.74726 0
M  V30 9634 C 870.685 -1.87617 0.553092 0
M  V30 9635 O 871.891 -2.64058 0.631318 0
M  V30 9636 C 870.347 -1.84147 3.09221 0
M  V30 9637 C 869.955 -1.02186 4.3619 0
M  V30 9638 C 871.699 -2.56604 3.38164 0
M  V30 9639 C 869.606 -1.84978 5.61727 0
M  V30 9640 H 868.536 -0.379948 0.651273 0
M  V30 9641 H 871.187 -0.263543 1.81598 0
M  V30 9642 H 869.569 -2.62637 2.96375 0
M  V30 9643 H 870.743 -0.281459 4.5994 0
M  V30 9644 H 869.058 -0.412054 4.14356 0
M  V30 9645 H 871.655 -3.18942 4.29162 0
M  V30 9646 H 871.998 -3.26647 2.58085 0
M  V30 9647 H 872.531 -1.85147 3.52087 0
M  V30 9648 H 869.27 -1.19365 6.4454 0
M  V30 9649 H 868.79 -2.56628 5.42128 0
M  V30 9650 H 870.469 -2.42458 5.99853 0
M  V30 9651 N 870.601 -1.47988 -0.541979 0
M  V30 9652 C 871.826 -1.59286 -1.32826 0
M  V30 9653 C 872.251 -0.24894 -1.86445 0
M  V30 9654 O 871.609 0.777581 -1.63778 0
M  V30 9655 C 871.657 -2.6334 -2.46343 0
M  V30 9656 O 870.761 -2.19667 -3.49028 0
M  V30 9657 H 870.102 -0.534543 -0.393903 0
M  V30 9658 H 872.632 -1.93885 -0.653427 0
M  V30 9659 H 872.642 -2.84238 -2.92699 0
M  V30 9660 H 871.317 -3.60913 -2.06675 0
M  V30 9661 H 869.894 -2.08932 -3.08872 0
M  V30 9662 N 872.079 0.78992 -1.36375 0
M  V30 9663 C 873.356 1.53584 -1.21126 0
M  V30 9664 C 873.736 2.10124 0.202785 0
M  V30 9665 O 873.084 1.93936 1.20835 0
M  V30 9666 C 873.294 2.63117 -2.29282 0
M  V30 9667 C 874.642 3.31013 -2.65924 0
M  V30 9668 O 875.666 2.734 -2.28321 0
M  V30 9669 O 874.525 4.35129 -3.30643 0
M  V30 9670 H 871.619 0.679366 -0.471583 0
M  V30 9671 H 874.165 0.828446 -1.48104 0
M  V30 9672 H 872.937 2.19329 -3.24053 0
M  V30 9673 H 872.56 3.41476 -2.03666 0
M  V30 9674 N 873.557 1.20646 1.01402 0
M  V30 9675 C 874.467 0.973385 2.13453 0
M  V30 9676 C 875.483 -0.0715865 1.73853 0
M  V30 9677 O 876.659 0.116438 2.01063 0
M  V30 9678 C 873.724 0.531285 3.42605 0
M  V30 9679 C 872.785 1.64741 3.96433 0
M  V30 9680 C 872.018 1.22631 5.1942 0
M  V30 9681 O 872.241 0.0960891 5.70319 0
M  V30 9682 O 871.175 2.03474 5.66465 0
M  V30 9683 H 875.001 1.91164 2.35987 0
M  V30 9684 H 872.586 0.990553 1.11841 0
M  V30 9685 H 874.468 0.294095 4.20373 0
M  V30 9686 H 873.143 -0.378358 3.21481 0
M  V30 9687 H 872.05 1.93891 3.19933 0
M  V30 9688 H 873.383 2.53415 4.2195 0
M  V30 9689 N 875.035 -1.20752 1.01276 0
M  V30 9690 C 875.983 -2.25432 0.572989 0
M  V30 9691 C 876.977 -1.64935 -0.386354 0
M  V30 9692 O 878.183 -1.7816 -0.256696 0
M  V30 9693 H 874.558 -0.733229 0.166972 0
M  V30 9694 H 876.529 -2.59856 1.46687 0
M  V30 9695 C 875.278 -3.47615 -0.0768249 0
M  V30 9696 H 874.601 -3.94442 0.652354 0
M  V30 9697 H 876.041 -4.22572 -0.3477 0
M  V30 9698 C 874.5 -3.1003 -1.31845 0
M  V30 9699 O 875.03 -3.21216 -2.41211 0
M  V30 9700 N 873.236 -2.64616 -1.20111 0
M  V30 9701 H 872.783 -2.55714 -0.311184 0
M  V30 9702 H 872.741 -2.39838 -2.03286 0
M  V30 9703 N 876.513 -0.788492 -1.36457 0
M  V30 9704 C 877.762 -0.357052 -1.98515 0
M  V30 9705 C 878.075 1.0769 -1.63285 0
M  V30 9706 O 879.281 1.61057 -2.1857 0
M  V30 9707 C 877.737 -0.587449 -3.55073 0
M  V30 9708 C 877.345 -2.03276 -3.99228 0
M  V30 9709 C 879.089 -0.220468 -4.23927 0
M  V30 9710 C 876.996 -2.20987 -5.48561 0
M  V30 9711 H 875.926 -0.129762 -0.74275 0
M  V30 9712 H 878.577 -0.969995 -1.55767 0
M  V30 9713 H 876.959 0.0951918 -3.95886 0
M  V30 9714 H 878.133 -2.75173 -3.69617 0
M  V30 9715 H 876.448 -2.3579 -3.43208 0
M  V30 9716 H 879.045 -0.331085 -5.33674 0
M  V30 9717 H 879.388 0.831306 -4.07915 0
M  V30 9718 H 879.921 -0.856309 -3.88474 0
M  V30 9719 H 876.66 -3.24543 -5.69519 0
M  V30 9720 H 876.18 -1.53594 -5.79801 0
M  V30 9721 H 877.859 -2.01656 -6.14771 0
M  V30 9722 N 877.991 1.48044 -0.54043 0
M  V30 9723 C 878.921 2.32597 0.205178 0
M  V30 9724 C 879.902 1.42748 0.925041 0
M  V30 9725 O 881.087 1.71624 0.908784 0
M  V30 9726 C 878.217 3.24175 1.24612 0
M  V30 9727 C 877.171 4.23131 0.64376 0
M  V30 9728 C 876.497 5.03915 1.78812 0
M  V30 9729 C 877.797 5.20831 -0.39144 0
M  V30 9730 H 879.491 2.95184 -0.500676 0
M  V30 9731 H 877.037 1.41948 -0.242225 0
M  V30 9732 H 878.99 3.82158 1.77576 0
M  V30 9733 H 877.714 2.59608 1.98169 0
M  V30 9734 H 876.373 3.66349 0.135554 0
M  V30 9735 H 876.021 4.35765 2.51232 0
M  V30 9736 H 875.721 5.709 1.39094 0
M  V30 9737 H 877.245 5.64753 2.32134 0
M  V30 9738 H 878.659 5.73277 0.0515064 0
M  V30 9739 H 877.056 5.95926 -0.706569 0
M  V30 9740 H 878.126 4.6733 -1.29345 0
M  V30 9741 N 879.47 0.276058 1.55163 0
M  V30 9742 C 880.402 -0.644254 2.19959 0
M  V30 9743 C 881.415 -1.11675 1.18459 0
M  V30 9744 O 882.604 -1.0385 1.45181 0
M  V30 9745 C 879.704 -1.89093 2.81242 0
M  V30 9746 C 878.877 -1.56509 4.08441 0
M  V30 9747 C 877.936 -2.66433 4.53762 0
M  V30 9748 O 876.962 -2.32579 5.19515 0
M  V30 9749 N 878.164 -3.96509 4.23982 0
M  V30 9750 H 880.929 -0.0896808 2.99566 0
M  V30 9751 H 878.49 0.0971981 1.61608 0
M  V30 9752 H 880.482 -2.61929 3.08505 0
M  V30 9753 H 879.052 -2.35453 2.05622 0
M  V30 9754 H 878.272 -0.670522 3.88455 0
M  V30 9755 H 879.56 -1.32242 4.91314 0
M  V30 9756 H 878.958 -4.26834 3.71254 0
M  V30 9757 H 877.515 -4.6572 4.56014 0
M  V30 9758 N 880.948 -1.576 0.00335426 0
M  V30 9759 C 881.858 -2.12067 -1.00322 0
M  V30 9760 C 882.874 -1.06672 -1.37467 0
M  V30 9761 O 884.05 -1.38592 -1.46131 0
M  V30 9762 C 881.115 -2.61593 -2.27531 0
M  V30 9763 C 880.176 -3.81602 -1.96668 0
M  V30 9764 C 879.409 -4.28756 -3.17811 0
M  V30 9765 O 879.632 -3.75222 -4.2961 0
M  V30 9766 O 878.566 -5.20877 -3.01613 0
M  V30 9767 H 882.392 -2.98299 -0.570199 0
M  V30 9768 H 879.977 -1.47835 -0.215682 0
M  V30 9769 H 881.859 -2.93631 -3.02256 0
M  V30 9770 H 880.534 -1.78457 -2.70065 0
M  V30 9771 H 879.441 -3.54531 -1.19408 0
M  V30 9772 H 880.774 -4.65822 -1.58968 0
M  V30 9773 N 882.426 0.269451 -1.5528 0
M  V30 9774 C 883.336 1.35511 -1.91505 0
M  V30 9775 C 884.352 1.53854 -0.812712 0
M  V30 9776 O 885.528 1.67912 -1.1121 0
M  V30 9777 C 882.593 2.6937 -2.18267 0
M  V30 9778 C 881.654 2.59743 -3.41807 0
M  V30 9779 C 880.887 3.87219 -3.67283 0
M  V30 9780 O 881.11 4.88066 -2.95208 0
M  V30 9781 O 880.044 3.87209 -4.60818 0
M  V30 9782 H 883.87 1.07785 -2.8393 0
M  V30 9783 H 881.455 0.468282 -1.41871 0
M  V30 9784 H 883.337 3.48513 -2.36889 0
M  V30 9785 H 882.012 2.96874 -1.29024 0
M  V30 9786 H 880.919 1.78964 -3.28516 0
M  V30 9787 H 882.252 2.37188 -4.3128 0
M  V30 9788 N 883.904 1.48273 0.534124 0
M  V30 9789 C 884.814 1.65162 1.66609 0
M  V30 9790 C 885.83 0.534177 1.65598 0
M  V30 9791 O 887.006 0.804715 1.84625 0
M  V30 9792 C 884.071 1.68354 3.03081 0
M  V30 9793 C 883.132 2.91696 3.1498 0
M  V30 9794 C 882.365 2.94725 4.44941 0
M  V30 9795 O 882.588 2.06285 5.31792 0
M  V30 9796 O 881.522 3.8685 4.61119 0
M  V30 9797 H 885.348 2.60991 1.55298 0
M  V30 9798 H 882.933 1.31626 0.706749 0
M  V30 9799 H 884.815 1.72998 3.84252 0
M  V30 9800 H 883.49 0.756978 3.14725 0
M  V30 9801 H 882.397 2.92586 2.33119 0
M  V30 9802 H 883.73 3.83722 3.0825 0
M  V30 9803 N 885.382 -0.782676 1.36792 0
M  V30 9804 C 886.345 -1.8772 1.31507 0
M  V30 9805 C 887.345 -1.59269 0.221349 0
M  V30 9806 O 888.535 -1.67555 0.476544 0
M  V30 9807 C 885.667 -3.24641 1.04025 0
M  V30 9808 H 886.86 -1.9382 2.28853 0
M  V30 9809 H 884.413 -0.981226 1.21662 0
M  V30 9810 H 885.148 -3.24221 0.0716439 0
M  V30 9811 H 884.933 -3.46681 1.8318 0
M  V30 9812 H 886.423 -4.04711 1.02949 0
M  V30 9813 N 886.86 -1.21182 -1.00761 0
M  V30 9814 C 887.793 -0.912033 -2.09182 0
M  V30 9815 C 888.771 0.139421 -1.62001 0
M  V30 9816 O 889.955 0.0110272 -1.88497 0
M  V30 9817 C 887.082 -0.368957 -3.36684 0
M  V30 9818 C 886.128 -1.4028 -4.0277 0
M  V30 9819 S 886.961 -2.97108 -4.45519 0
M  V30 9820 C 888.117 -2.444 -5.76211 0
M  V30 9821 H 888.35 -1.83019 -2.34289 0
M  V30 9822 H 885.883 -1.04127 -1.14004 0
M  V30 9823 H 887.841 -0.0621883 -4.10453 0
M  V30 9824 H 886.502 0.527841 -3.09633 0
M  V30 9825 H 885.695 -0.97238 -4.94531 0
M  V30 9826 H 885.297 -1.65752 -3.35265 0
M  V30 9827 H 887.589 -1.84723 -6.51831 0
M  V30 9828 H 888.532 -3.34593 -6.24062 0
M  V30 9829 H 888.94 -1.86203 -5.32906 0
M  V30 9830 N 888.338 1.20213 -1.01915 0
M  V30 9831 C 889.615 1.85348 -0.62495 0
M  V30 9832 C 889.995 1.91101 0.896854 0
M  V30 9833 O 889.343 1.42075 1.78961 0
M  V30 9834 C 889.553 3.24849 -1.27571 0
M  V30 9835 C 890.901 4.01107 -1.39277 0
M  V30 9836 O 891.925 3.34211 -1.23212 0
M  V30 9837 O 890.784 5.20914 -1.6526 0
M  V30 9838 H 887.878 0.798303 -0.215965 0
M  V30 9839 H 890.424 1.27782 -1.11669 0
M  V30 9840 H 889.196 3.1544 -2.31545 0
M  V30 9841 H 888.819 3.90049 -0.77122 0
M  V30 9842 N 889.816 0.795718 1.36037 0
M  V30 9843 C 891.065 0.367575 1.98322 0
M  V30 9844 C 891.378 -1.06823 1.63854 0
M  V30 9845 O 892.584 -1.59895 2.19421 0
M  V30 9846 C 891.04 0.606272 3.54757 0
M  V30 9847 C 890.648 2.0539 3.98144 0
M  V30 9848 C 892.392 0.242947 4.23804 0
M  V30 9849 C 890.299 2.23893 5.47381 0
M  V30 9850 H 889.229 0.133699 0.742052 0
M  V30 9851 H 891.88 0.978242 1.5525 0
M  V30 9852 H 890.262 -0.0741957 3.9593 0
M  V30 9853 H 891.436 2.77129 3.68152 0
M  V30 9854 H 889.751 2.37607 3.41953 0
M  V30 9855 H 892.348 0.359382 5.33491 0
M  V30 9856 H 892.691 -0.809661 4.08351 0
M  V30 9857 H 893.224 0.876899 3.88015 0
M  V30 9858 H 889.963 3.27559 5.6779 0
M  V30 9859 H 889.483 1.56666 5.78978 0
M  V30 9860 H 891.162 2.04914 6.13693 0
M  V30 9861 N 891.294 -1.47756 0.548274 0
M  V30 9862 C 892.705 -1.8636 0.112547 0
M  V30 9863 C 893.056 -1.45589 -1.31523 0
M  V30 9864 O 892.181 -0.854874 -1.98799 0
M  V30 9865 C 892.776 -3.38224 0.197473 0
M  V30 9866 C 891.335 -3.75954 -0.183163 0
M  V30 9867 C 890.482 -2.7181 0.549059 0
M  V30 9868 H 893.433 -1.394 0.758506 0
M  V30 9869 H 893.454 -3.75957 -0.586217 0
M  V30 9870 H 892.966 -3.67868 1.23673 0
M  V30 9871 H 891.067 -3.51926 -1.22387 0
M  V30 9872 H 891.18 -4.78801 0.169178 0
M  V30 9873 H 889.544 -2.54699 -0.00682862 0
M  V30 9874 H 890.327 -3.04296 1.5893 0
M  V30 9875 N 892.772 -0.284283 -1.55015 0
M  V30 9876 C 893.72 0.615091 -2.2432 0
M  V30 9877 C 894.714 1.15051 -1.24337 0
M  V30 9878 O 895.92 1.10308 -1.4224 0
M  V30 9879 H 892.295 0.216927 -0.720033 0
M  V30 9880 H 894.266 0.00783216 -2.98399 0
M  V30 9881 C 893.015 1.78355 -2.98471 0
M  V30 9882 H 892.338 1.38076 -3.752 0
M  V30 9883 H 893.778 2.38927 -3.50271 0
M  V30 9884 C 892.237 2.67757 -2.04469 0
M  V30 9885 O 892.767 3.6838 -1.60185 0
M  V30 9886 N 890.973 2.35125 -1.70776 0
M  V30 9887 H 890.52 1.53346 -2.06985 0
M  V30 9888 H 890.478 2.95212 -1.08153 0
M  V30 9889 N 894.251 1.57596 -0.0117121 0
M  V30 9890 C 895.161 2.12596 0.991964 0
M  V30 9891 C 896.177 1.07399 1.36899 0
M  V30 9892 O 897.353 1.39365 1.45394 0
M  V30 9893 C 894.418 2.62796 2.2614 0
M  V30 9894 C 893.479 3.8264 1.94642 0
M  V30 9895 C 892.712 4.30435 3.15533 0
M  V30 9896 O 892.935 3.77495 4.27614 0
M  V30 9897 O 891.869 5.22469 2.98847 0
M  V30 9898 H 895.695 2.98597 0.554371 0
M  V30 9899 H 893.28 1.47947 0.207839 0
M  V30 9900 H 895.162 2.9523 3.00695 0
M  V30 9901 H 893.837 1.79886 2.69114 0
M  V30 9902 H 892.744 3.5516 1.17526 0
M  V30 9903 H 894.077 4.66658 1.56496 0
M  V30 9904 N 895.729 -0.261212 1.5542 0
M  V30 9905 C 896.957 -1.00916 1.8062 0
M  V30 9906 C 897.372 -1.79494 0.585444 0
M  V30 9907 O 896.729 -1.76974 -0.445702 0
M  V30 9908 C 896.78 -1.95841 3.03856 0
M  V30 9909 O 896.501 -1.20445 4.21218 0
M  V30 9910 C 898.002 -2.82352 3.41749 0
M  V30 9911 H 895.222 -0.297596 0.601397 0
M  V30 9912 H 897.766 -0.288427 2.02456 0
M  V30 9913 H 895.921 -2.63361 2.84112 0
M  V30 9914 H 896.335 -1.84528 4.90968 0
M  V30 9915 H 897.809 -3.44733 4.31118 0
M  V30 9916 H 898.286 -3.5273 2.61683 0
M  V30 9917 H 898.892 -2.20306 3.63793 0
M  V30 9918 N 897.207 -1.48554 -0.526253 0
M  V30 9919 C 898.137 -1.66252 -1.63959 0
M  V30 9920 C 899.118 -0.511351 -1.62232 0
M  V30 9921 O 900.303 -0.744322 -1.7937 0
M  V30 9922 C 897.433 -1.70556 -3.02536 0
M  V30 9923 C 896.387 -2.8521 -3.19123 0
M  V30 9924 C 895.713 -2.74606 -4.58798 0
M  V30 9925 C 897.013 -4.26463 -3.0154 0
M  V30 9926 H 898.707 -2.59459 -1.49404 0
M  V30 9927 H 896.253 -1.24862 -0.717326 0
M  V30 9928 H 898.206 -1.81524 -3.80298 0
M  V30 9929 H 896.93 -0.739297 -3.18123 0
M  V30 9930 H 895.589 -2.73802 -2.43779 0
M  V30 9931 H 895.237 -1.75941 -4.71226 0
M  V30 9932 H 894.937 -3.51544 -4.70841 0
M  V30 9933 H 896.461 -2.87548 -5.38655 0
M  V30 9934 H 897.875 -4.38685 -3.69091 0
M  V30 9935 H 896.272 -5.04428 -3.25073 0
M  V30 9936 H 897.342 -4.42667 -1.97925 0
M  V30 9937 N 898.685 0.775411 -1.37205 0
M  V30 9938 C 899.913 1.56446 -1.35397 0
M  V30 9939 C 900.328 1.887 0.0615437 0
M  V30 9940 O 899.685 1.51178 1.02233 0
M  V30 9941 C 899.736 2.87697 -2.18889 0
M  V30 9942 O 899.457 2.56828 -3.54924 0
M  V30 9943 C 900.958 3.81944 -2.25019 0
M  V30 9944 H 898.178 0.484792 -0.463916 0
M  V30 9945 H 900.722 0.961346 -1.80495 0
M  V30 9946 H 898.877 3.44442 -1.7731 0
M  V30 9947 H 899.291 3.40851 -3.98649 0
M  V30 9948 H 900.765 4.71055 -2.87769 0
M  V30 9949 H 901.242 4.20811 -1.25757 0
M  V30 9950 H 901.848 3.3113 -2.66895 0
M  V30 9951 N 900.163 1.21714 1.00117 0
M  V30 9952 C 901.41 1.0367 1.73951 0
M  V30 9953 C 901.738 -0.429289 1.89703 0
M  V30 9954 O 900.993 -1.33475 1.43119 0
M  V30 9955 C 901.292 1.68345 3.15269 0
M  V30 9956 C 900.958 3.18214 3.19454 0
M  V30 9957 C 899.62 3.59109 3.20303 0
M  V30 9958 C 901.972 4.14179 3.16394 0
M  V30 9959 C 899.3 4.94467 3.15783 0
M  V30 9960 C 901.652 5.49502 3.13416 0
M  V30 9961 C 900.316 5.8979 3.12577 0
M  V30 9962 H 899.586 0.379355 0.63653 0
M  V30 9963 H 902.233 1.51361 1.17312 0
M  V30 9964 H 900.538 1.12957 3.75164 0
M  V30 9965 H 902.235 1.51882 3.71124 0
M  V30 9966 H 898.825 2.85646 3.19538 0
M  V30 9967 H 903.009 3.83607 3.14895 0
M  V30 9968 H 898.265 5.24923 3.13473 0
M  V30 9969 H 902.439 6.23595 3.10003 0
M  V30 9970 H 900.066 6.94643 3.08829 0
M  V30 9971 N 901.641 -1.19671 1.02551 0
M  V30 9972 C 902.551 -2.26441 0.613329 0
M  V30 9973 C 903.567 -1.70375 -0.353339 0
M  V30 9974 O 904.743 -2.0028 -0.212064 0
M  V30 9975 C 901.808 -3.46684 -0.0329028 0
M  V30 9976 C 900.869 -4.17945 0.980837 0
M  V30 9977 C 900.102 -5.32448 0.36535 0
M  V30 9978 O 900.325 -5.64291 -0.832596 0
M  V30 9979 O 899.259 -5.92012 1.08652 0
M  V30 9980 H 903.085 -2.63932 1.50246 0
M  V30 9981 H 900.67 -1.2646 0.795502 0
M  V30 9982 H 902.552 -4.1956 -0.393395 0
M  V30 9983 H 901.227 -3.1105 -0.896089 0
M  V30 9984 H 900.134 -3.47204 1.39286 0
M  V30 9985 H 901.467 -4.57542 1.81428 0
M  V30 9986 N 903.119 -0.802921 -1.35613 0
M  V30 9987 C 904.396 -0.304993 -1.93208 0
M  V30 9988 C 904.776 1.20488 -1.73337 0
M  V30 9989 O 904.124 2.00268 -1.10022 0
M  V30 9990 C 904.334 -0.712383 -3.41652 0
M  V30 9991 C 905.682 -0.699785 -4.18794 0
M  V30 9992 O 906.706 -0.653698 -3.5015 0
M  V30 9993 O 905.565 -0.754842 -5.41262 0
M  V30 9994 H 902.659 -0.0789127 -0.823226 0
M  V30 9995 H 905.205 -0.886372 -1.44712 0
M  V30 9996 H 903.977 -1.75316 -3.49829 0
M  V30 9997 H 903.6 -0.105614 -3.9746 0
M  V30 9998 N 904.597 1.47463 -0.556102 0
M  V30 9999 C 905.845 2.02075 -0.0315712 0
M  V30 10000 C 906.166 1.43292 1.32259 0
M  V30 10001 O 905.436 0.60771 1.86236 0
M  V30 10002 H 904.016 0.74695 -0.0086816 0
M  V30 10003 H 906.678 1.80879 -0.725859 0
M  V30 10004 H 905.774 3.12047 0.0573538 0
M  V30 10005 N 906.075 0.2925 1.54862 0
M  V30 10006 C 907.008 -0.629155 2.19356 0
M  V30 10007 C 907.986 -1.13927 1.16014 0
M  V30 10008 O 909.17 -1.20904 1.44618 0
M  V30 10009 C 906.297 -1.8599 2.83064 0
M  V30 10010 C 905.343 -1.48376 3.99859 0
M  V30 10011 S 906.176 -0.546976 5.32699 0
M  V30 10012 C 907.332 -1.7857 5.99886 0
M  V30 10013 H 907.565 -0.0812166 2.97189 0
M  V30 10014 H 905.098 0.0766721 1.5421 0
M  V30 10015 H 907.056 -2.56623 3.20398 0
M  V30 10016 H 905.717 -2.37899 2.05092 0
M  V30 10017 H 904.91 -2.40002 4.43187 0
M  V30 10018 H 904.512 -0.857447 3.64038 0
M  V30 10019 H 906.804 -2.7274 6.20177 0
M  V30 10020 H 907.747 -1.39513 6.9422 0
M  V30 10021 H 908.155 -1.95856 5.29434 0
M  V30 10022 N 907.553 -1.57587 0.0200696 0
M  V30 10023 C 908.5 -2.09667 -0.964791 0
M  V30 10024 C 909.47 -0.99664 -1.32877 0
M  V30 10025 O 910.655 -1.2703 -1.42366 0
M  V30 10026 C 907.795 -2.62101 -2.24493 0
M  V30 10027 C 906.908 -3.8608 -1.93821 0
M  V30 10028 C 906.043 -4.26939 -3.16064 0
M  V30 10029 C 905.082 -5.43701 -2.81169 0
M  V30 10030 N 904.219 -5.79759 -3.9601 0
M  V30 10031 H 909.059 -2.93538 -0.513751 0
M  V30 10032 H 906.596 -1.45096 -0.242 0
M  V30 10033 H 908.554 -2.90587 -2.99358 0
M  V30 10034 H 907.184 -1.81074 -2.6723 0
M  V30 10035 H 906.236 -3.64378 -1.09237 0
M  V30 10036 H 907.548 -4.71028 -1.64115 0
M  V30 10037 H 906.702 -4.56814 -3.99257 0
M  V30 10038 H 905.441 -3.40739 -3.48924 0
M  V30 10039 H 904.446 -5.13529 -1.96387 0
M  V30 10040 H 905.671 -6.31593 -2.49535 0
M  V30 10041 H 903.617 -4.96516 -4.28729 0
M  V30 10042 H 903.534 -6.59327 -3.69896 0
M  V30 10043 H 904.802 -6.14235 -4.79933 0
M  V30 10044 N 909.032 0.252966 -1.55557 0
M  V30 10045 C 910.279 0.981852 -1.77104 0
M  V30 10046 C 910.607 1.85547 -0.583305 0
M  V30 10047 O 909.862 1.90836 0.43359 0
M  V30 10048 C 910.161 1.87785 -3.04091 0
M  V30 10049 C 909.827 1.16009 -4.35721 0
M  V30 10050 C 908.489 0.961697 -4.71492 0
M  V30 10051 C 910.841 0.650884 -5.1712 0
M  V30 10052 C 908.169 0.241704 -5.86202 0
M  V30 10053 C 910.521 -0.0556124 -6.32576 0
M  V30 10054 C 909.185 -0.265536 -6.66972 0
M  V30 10055 H 908.455 0.359285 -0.64807 0
M  V30 10056 H 911.102 0.252443 -1.89829 0
M  V30 10057 H 909.407 2.67412 -2.86353 0
M  V30 10058 H 911.104 2.44339 -3.17961 0
M  V30 10059 H 907.694 1.32465 -4.07616 0
M  V30 10060 H 911.878 0.791719 -4.89944 0
M  V30 10061 H 907.134 0.0685292 -6.11362 0
M  V30 10062 H 911.308 -0.457839 -6.94893 0
M  V30 10063 H 908.935 -0.8254 -7.55706 0
M  V30 10064 N 910.51 1.48831 0.518367 0
M  V30 10065 C 911.457 1.64216 1.62178 0
M  V30 10066 C 912.427 0.483942 1.58894 0
M  V30 10067 O 913.612 0.708857 1.77144 0
M  V30 10068 C 910.752 1.69867 3.00399 0
M  V30 10069 C 909.865 2.96875 3.1383 0
M  V30 10070 C 909 2.93613 4.42679 0
M  V30 10071 C 908.039 4.15276 4.4968 0
M  V30 10072 N 907.176 4.10024 5.69934 0
M  V30 10073 H 912.016 2.58439 1.48368 0
M  V30 10074 H 909.553 1.28154 0.722152 0
M  V30 10075 H 911.511 1.71124 3.8049 0
M  V30 10076 H 910.141 0.791249 3.12952 0
M  V30 10077 H 909.193 3.0531 2.26914 0
M  V30 10078 H 910.505 3.86863 3.14863 0
M  V30 10079 H 909.659 2.93337 5.31073 0
M  V30 10080 H 908.398 2.01375 4.44184 0
M  V30 10081 H 907.403 4.15816 3.59691 0
M  V30 10082 H 908.628 5.08687 4.49904 0
M  V30 10083 H 906.574 3.20613 5.72314 0
M  V30 10084 H 906.491 4.93728 5.72511 0
M  V30 10085 H 907.759 4.13824 6.60583 0
M  V30 10086 N 911.988 -0.768124 1.37614 0
M  V30 10087 C 912.898 -1.91249 1.35871 0
M  V30 10088 C 913.914 -1.7208 0.257786 0
M  V30 10089 O 915.09 -1.95253 0.493782 0
M  V30 10090 C 912.155 -3.26423 1.16829 0
M  V30 10091 C 911.216 -3.5822 2.36594 0
M  V30 10092 C 910.449 -4.86945 2.1845 0
M  V30 10093 O 910.672 -5.58258 1.17064 0
M  V30 10094 O 909.606 -5.17888 3.06718 0
M  V30 10095 H 913.432 -1.95671 2.32264 0
M  V30 10096 H 911.017 -0.911382 1.18382 0
M  V30 10097 H 912.899 -4.07269 1.08212 0
M  V30 10098 H 911.574 -3.22845 0.235123 0
M  V30 10099 H 910.481 -2.77594 2.50783 0
M  V30 10100 H 911.814 -3.66545 3.2849 0
M  V30 10101 N 913.466 -1.22244 -0.994698 0
M  V30 10102 C 914.696 -1.07062 -1.76695 0
M  V30 10103 C 915.104 0.381895 -1.85306 0
M  V30 10104 O 914.447 1.27648 -1.32105 0
M  V30 10105 C 914.509 -1.60487 -3.2169 0
M  V30 10106 C 914.173 -3.09079 -3.36629 0
M  V30 10107 C 915.17 -4.06526 -3.24088 0
M  V30 10108 C 912.855 -3.48497 -3.61739 0
M  V30 10109 C 914.849 -5.41377 -3.36437 0
M  V30 10110 C 912.536 -4.83498 -3.73729 0
M  V30 10111 C 913.534 -5.79747 -3.61086 0
M  V30 10112 O 913.222 -7.12297 -3.72678 0
M  V30 10113 H 912.954 -0.375963 -0.561807 0
M  V30 10114 H 915.508 -1.62259 -1.25941 0
M  V30 10115 H 913.738 -0.996957 -3.73628 0
M  V30 10116 H 915.427 -1.40994 -3.80625 0
M  V30 10117 H 916.193 -3.77415 -3.04602 0
M  V30 10118 H 912.072 -2.74106 -3.70657 0
M  V30 10119 H 915.616 -6.16485 -3.26485 0
M  V30 10120 H 911.513 -5.1229 -3.92721 0
M  V30 10121 H 912.281 -7.1985 -3.89562 0
M  V30 10122 N 914.944 1.19125 -1.03184 0
M  V30 10123 C 915.854 2.26112 -0.625329 0
M  V30 10124 C 916.87 1.7056 0.344298 0
M  V30 10125 O 918.046 2.0039 0.20144 0
M  V30 10126 C 915.111 3.46697 0.0145169 0
M  V30 10127 C 914.172 4.17419 -1.00299 0
M  V30 10128 C 913.405 5.32247 -0.393581 0
M  V30 10129 O 913.628 5.64724 0.802659 0
M  V30 10130 O 912.562 5.91428 -1.1179 0
M  V30 10131 H 916.388 2.63131 -1.51643 0
M  V30 10132 H 913.973 1.26036 -0.802197 0
M  V30 10133 H 915.855 4.19762 0.371139 0
M  V30 10134 H 914.53 3.11521 0.879581 0
M  V30 10135 H 913.437 3.4646 -1.41125 0
M  V30 10136 H 914.77 4.56573 -1.83852 0
M  V30 10137 N 916.422 0.810101 1.35185 0
M  V30 10138 C 917.662 0.397802 2.00492 0
M  V30 10139 C 918.026 -1.01684 1.62863 0
M  V30 10140 O 919.227 -1.53133 2.20916 0
M  V30 10141 C 917.498 0.579524 3.5267 0
M  V30 10142 S 919.057 0.258169 4.3804 0
M  V30 10143 H 915.875 0.150904 0.694801 0
M  V30 10144 H 918.477 1.05312 1.64711 0
M  V30 10145 H 917.181 1.60901 3.77543 0
M  V30 10146 H 916.712 -0.0909886 3.93295 0
M  V30 10147 H 918.727 -0.932882 4.87352 0
M  V30 10148 N 917.9 -1.47166 0.563914 0
M  V30 10149 C 919.146 -2.02756 0.0424338 0
M  V30 10150 C 919.479 -1.43662 -1.3067 0
M  V30 10151 O 918.754 -0.594676 -1.85186 0
M  V30 10152 C 919.037 -3.60074 -0.0434793 0
M  V30 10153 C 918.89 -4.29587 1.33323 0
M  V30 10154 C 920.209 -4.336 -0.753568 0
M  V30 10155 H 917.328 -0.736806 0.0168946 0
M  V30 10156 H 919.97 -1.75521 0.727496 0
M  V30 10157 H 918.12 -3.83409 -0.626906 0
M  V30 10158 H 919.792 -4.17573 1.96037 0
M  V30 10159 H 918.035 -3.8968 1.9061 0
M  V30 10160 H 918.706 -5.38218 1.22576 0
M  V30 10161 H 921.182 -4.15299 -0.258126 0
M  V30 10162 H 920.058 -5.43291 -0.782659 0
M  V30 10163 H 920.319 -4.03302 -1.81108 0
M  V30 10164 N 919.378 -0.300708 -1.54705 0
M  V30 10165 C 920.325 0.57552 -2.23509 0
M  V30 10166 C 921.295 1.12979 -1.21758 0
M  V30 10167 O 922.48 1.17437 -1.50377 0
M  V30 10168 C 919.62 1.74167 -2.97926 0
M  V30 10169 C 918.733 1.21882 -4.1445 0
M  V30 10170 C 917.868 2.34881 -4.7645 0
M  V30 10171 C 916.907 1.79729 -5.85119 0
M  V30 10172 N 916.044 2.863 -6.41075 0
M  V30 10173 H 920.884 -0.0178257 -2.97995 0
M  V30 10174 H 918.421 -0.0205666 -1.47086 0
M  V30 10175 H 920.379 2.42753 -3.39303 0
M  V30 10176 H 919.009 2.30665 -2.25817 0
M  V30 10177 H 918.061 0.425227 -3.78016 0
M  V30 10178 H 919.373 0.775065 -4.92741 0
M  V30 10179 H 918.527 3.11415 -5.20678 0
M  V30 10180 H 917.266 2.82584 -3.97489 0
M  V30 10181 H 916.271 1.01684 -5.40315 0
M  V30 10182 H 917.496 1.32931 -6.65963 0
M  V30 10183 H 915.442 3.33337 -5.64998 0
M  V30 10184 H 915.359 2.46419 -7.14712 0
M  V30 10185 H 916.627 3.62732 -6.89961 0
M  V30 10186 N 920.856 1.57574 -0.0284266 0
M  V30 10187 C 921.766 2.13637 0.96936 0
M  V30 10188 C 922.782 1.08845 1.35752 0
M  V30 10189 O 923.958 1.40899 1.43908 0
M  V30 10190 C 921.023 2.65179 2.2334 0
M  V30 10191 C 920.084 3.84683 1.90572 0
M  V30 10192 C 919.317 4.33758 3.1095 0
M  V30 10193 O 919.54 3.82009 4.23586 0
M  V30 10194 O 918.474 5.2561 2.93288 0
M  V30 10195 H 922.3 2.99169 0.52267 0
M  V30 10196 H 919.885 1.48159 0.192135 0
M  V30 10197 H 921.767 2.98402 2.97547 0
M  V30 10198 H 920.442 1.82731 2.67191 0
M  V30 10199 H 919.349 3.56386 1.13753 0
M  V30 10200 H 920.682 4.68292 1.51538 0
M  V30 10201 N 922.334 -0.244713 1.55689 0
M  V30 10202 C 923.284 -1.30596 1.86892 0
M  V30 10203 C 924.268 -1.43388 0.729972 0
M  V30 10204 O 925.46 -1.46593 0.99194 0
M  V30 10205 C 922.589 -2.66099 2.16902 0
M  V30 10206 C 921.675 -2.57302 3.37129 0
M  V30 10207 N 922.066 -2.18139 4.56343 0
M  V30 10208 C 920.364 -2.88311 3.40283 0
M  V30 10209 C 921.065 -2.20028 5.38482 0
M  V30 10210 N 920.041 -2.59616 4.77599 0
M  V30 10211 H 923.843 -0.993699 2.76591 0
M  V30 10212 H 921.357 -0.453334 1.55944 0
M  V30 10213 H 923.354 -3.4269 2.37422 0
M  V30 10214 H 922.014 -2.9819 1.28502 0
M  V30 10215 H 923.025 -1.89647 4.81928 0
M  V30 10216 H 919.702 -3.24928 2.62161 0
M  V30 10217 H 921.092 -1.9207 6.43862 0
M  V30 10218 N 923.813 -1.49104 -0.510467 0
M  V30 10219 C 925.061 -1.578 -1.26268 0
M  V30 10220 C 925.382 -0.262349 -1.93227 0
M  V30 10221 O 924.652 0.717624 -1.82283 0
M  V30 10222 H 923.232 -0.581387 -0.46904 0
M  V30 10223 H 925.894 -1.85678 -0.592423 0
M  V30 10224 H 924.99 -2.36919 -2.03165 0
M  V30 10225 N 925.291 0.760815 -1.38019 0
M  V30 10226 C 926.568 1.5098 -1.24356 0
M  V30 10227 C 926.948 2.10507 0.158169 0
M  V30 10228 O 926.296 1.96455 1.16695 0
M  V30 10229 C 926.506 2.58195 -2.34811 0
M  V30 10230 C 927.854 3.25297 -2.72886 0
M  V30 10231 O 928.878 2.68496 -2.34069 0
M  V30 10232 O 927.737 4.28018 -3.39799 0
M  V30 10233 H 924.831 0.66921 -0.485888 0
M  V30 10234 H 927.377 0.796844 -1.49828 0
M  V30 10235 H 926.149 2.12406 -3.28633 0
M  V30 10236 H 925.772 3.37079 -2.10864 0
M  V30 10237 N 926.769 1.22769 0.988202 0
M  V30 10238 C 927.999 1.07998 1.76125 0
M  V30 10239 C 928.407 -0.372062 1.85506 0
M  V30 10240 O 927.75 -1.26946 1.3278 0
M  V30 10241 C 927.812 1.6219 3.20834 0
M  V30 10242 C 927.476 3.1086 3.34986 0
M  V30 10243 C 928.473 4.08239 3.21927 0
M  V30 10244 C 926.158 3.50411 3.59886 0
M  V30 10245 C 928.152 5.43154 3.33561 0
M  V30 10246 C 925.839 4.85473 3.71159 0
M  V30 10247 C 926.837 5.81653 3.58006 0
M  V30 10248 O 926.525 7.14263 3.68895 0
M  V30 10249 H 926.257 0.378937 0.559806 0
M  V30 10250 H 928.811 1.62925 1.25078 0
M  V30 10251 H 927.041 1.01676 3.73094 0
M  V30 10252 H 928.73 1.43011 3.79872 0
M  V30 10253 H 929.496 3.79025 3.02597 0
M  V30 10254 H 925.375 2.76068 3.69198 0
M  V30 10255 H 928.919 6.18207 3.23211 0
M  V30 10256 H 924.816 5.14365 3.89998 0
M  V30 10257 H 925.584 7.21906 3.85739 0
M  V30 10258 N 928.247 -1.18576 1.03814 0
M  V30 10259 C 929.475 -1.92437 0.759966 0
M  V30 10260 C 929.89 -1.76031 -0.682526 0
M  V30 10261 O 929.247 -1.08829 -1.46501 0
M  V30 10262 C 929.298 -3.43923 1.11351 0
M  V30 10263 O 929.019 -3.5981 2.49937 0
M  V30 10264 C 930.52 -4.34888 0.859472 0
M  V30 10265 H 927.74 -0.610998 0.277349 0
M  V30 10266 H 930.284 -1.50448 1.38512 0
M  V30 10267 H 928.439 -3.83711 0.533362 0
M  V30 10268 H 928.853 -4.53569 2.63393 0
M  V30 10269 H 930.327 -5.39744 1.15672 0
M  V30 10270 H 930.804 -4.38717 -0.205839 0
M  V30 10271 H 931.41 -4.00795 1.42279 0
M  V30 10272 N 929.725 -0.817259 -1.34754 0
M  V30 10273 C 931.002 -0.325468 -1.92873 0
M  V30 10274 C 931.382 1.18643 -1.74606 0
M  V30 10275 O 930.73 1.9909 -1.1214 0
M  V30 10276 C 930.94 -0.74858 -3.40877 0
M  V30 10277 C 932.288 -0.744165 -4.18028 0
M  V30 10278 O 933.312 -0.690799 -3.49437 0
M  V30 10279 O 932.171 -0.812207 -5.40431 0
M  V30 10280 H 929.265 -0.0876397 -0.822343 0
M  V30 10281 H 931.811 -0.901671 -1.43764 0
M  V30 10282 H 930.583 -1.79017 -3.47949 0
M  V30 10283 H 930.206 -0.147764 -3.97325 0
M  V30 10284 N 931.203 1.46865 -0.571711 0
M  V30 10285 C 932.15 2.30189 0.167808 0
M  V30 10286 C 933.12 1.3995 0.89461 0
M  V30 10287 O 934.305 1.68905 0.887451 0
M  V30 10288 C 931.445 3.24205 1.1826 0
M  V30 10289 C 930.558 4.2954 0.460376 0
M  V30 10290 C 929.693 5.10693 1.46173 0
M  V30 10291 C 928.732 6.07788 0.725291 0
M  V30 10292 N 927.869 6.81847 1.67417 0
M  V30 10293 H 932.709 2.92902 -0.548831 0
M  V30 10294 H 930.246 1.44362 -0.282474 0
M  V30 10295 H 932.204 3.77147 1.7837 0
M  V30 10296 H 930.834 2.63324 1.86709 0
M  V30 10297 H 929.886 3.79541 -0.255546 0
M  V30 10298 H 931.198 4.98665 -0.115855 0
M  V30 10299 H 930.352 5.67857 2.13595 0
M  V30 10300 H 929.091 4.41502 2.07188 0
M  V30 10301 H 928.096 5.49787 0.037228 0
M  V30 10302 H 929.321 6.78993 0.120678 0
M  V30 10303 H 927.267 6.15376 2.27263 0
M  V30 10304 H 927.184 7.47195 1.15046 0
M  V30 10305 H 928.452 7.43577 2.33908 0
M  V30 10306 N 932.681 0.308908 1.54543 0
M  V30 10307 C 933.644 -0.550857 2.22482 0
M  V30 10308 C 934.644 -1.0551 1.21344 0
M  V30 10309 O 935.834 -0.949866 1.46025 0
M  V30 10310 C 932.966 -1.76354 2.9174 0
M  V30 10311 H 934.159 0.0428395 2.99869 0
M  V30 10312 H 931.712 0.059825 1.56185 0
M  V30 10313 H 932.447 -2.39686 2.18451 0
M  V30 10314 H 932.232 -1.40954 3.65889 0
M  V30 10315 H 933.722 -2.37417 3.43545 0
M  V30 10316 N 934.159 -1.57557 0.0367827 0
M  V30 10317 C 935.406 -1.92114 -0.640185 0
M  V30 10318 C 935.734 -0.913887 -1.71693 0
M  V30 10319 O 934.989 0.0760343 -1.95552 0
M  V30 10320 C 935.288 -3.33387 -1.28794 0
M  V30 10321 C 934.954 -4.4961 -0.340819 0
M  V30 10322 C 933.616 -4.81133 -0.0801574 0
M  V30 10323 C 935.968 -5.20283 0.309106 0
M  V30 10324 C 933.296 -5.80683 0.838107 0
M  V30 10325 C 935.648 -6.20813 1.21547 0
M  V30 10326 C 934.312 -6.50773 1.48495 0
M  V30 10327 H 933.582 -0.702996 -0.23426 0
M  V30 10328 H 936.229 -1.91238 0.100188 0
M  V30 10329 H 934.534 -3.30561 -2.10324 0
M  V30 10330 H 936.231 -3.57399 -1.81843 0
M  V30 10331 H 932.821 -4.25002 -0.554161 0
M  V30 10332 H 937.005 -4.96153 0.120794 0
M  V30 10333 H 932.261 -6.02238 1.05451 0
M  V30 10334 H 936.435 -6.74692 1.72522 0
M  V30 10335 H 934.062 -7.27727 2.19814 0
M  V30 10336 N 935.637 0.236453 -1.55816 0
M  V30 10337 C 936.547 1.31418 -1.94336 0
M  V30 10338 C 937.563 1.52095 -0.845164 0
M  V30 10339 O 938.739 1.65515 -1.14746 0
M  V30 10340 C 935.804 2.6468 -2.23932 0
M  V30 10341 C 934.865 2.52435 -3.47239 0
M  V30 10342 C 934.098 3.79342 -3.75414 0
M  V30 10343 O 934.321 4.81694 -3.05495 0
M  V30 10344 O 933.255 3.77347 -4.68927 0
M  V30 10345 H 937.081 1.01739 -2.86152 0
M  V30 10346 H 934.666 0.438084 -1.42833 0
M  V30 10347 H 936.548 3.4341 -2.44228 0
M  V30 10348 H 935.223 2.94071 -1.35292 0
M  V30 10349 H 934.13 1.71955 -3.32238 0
M  V30 10350 H 935.463 2.27987 -4.36214 0
M  V30 10351 N 937.115 1.49373 0.502552 0
M  V30 10352 C 938.062 1.65927 1.60427 0
M  V30 10353 C 939.032 0.500768 1.58371 0
M  V30 10354 O 940.217 0.727606 1.76382 0
M  V30 10355 C 937.357 1.73043 2.9858 0
M  V30 10356 C 936.47 3.00187 3.10663 0
M  V30 10357 C 935.605 2.98292 4.3954 0
M  V30 10358 C 934.644 4.20022 4.4525 0
M  V30 10359 N 933.781 4.16046 5.65553 0
M  V30 10360 H 938.621 2.59998 1.45619 0
M  V30 10361 H 936.158 1.28912 0.708519 0
M  V30 10362 H 938.116 1.7515 3.78653 0
M  V30 10363 H 936.746 0.824397 3.12095 0
M  V30 10364 H 935.798 3.07699 2.23663 0
M  V30 10365 H 937.11 3.9018 3.10742 0
M  V30 10366 H 936.264 2.98953 5.27932 0
M  V30 10367 H 935.003 2.06075 4.42023 0
M  V30 10368 H 934.008 4.19607 3.5526 0
M  V30 10369 H 935.233 5.13431 4.44484 0
M  V30 10370 H 933.179 3.26665 5.68881 0
M  V30 10371 H 933.096 4.99773 5.67242 0
M  V30 10372 H 934.364 4.20807 6.56156 0
M  V30 10373 N 938.594 -0.753485 1.38421 0
M  V30 10374 C 939.524 -1.8808 1.38377 0
M  V30 10375 C 940.505 -1.68258 0.249664 0
M  V30 10376 O 941.69 -1.88848 0.45276 0
M  V30 10377 C 938.82 -3.25608 1.20818 0
M  V30 10378 C 937.774 -3.60032 2.31433 0
M  V30 10379 C 937.1 -4.96297 1.9898 0
M  V30 10380 C 938.4 -3.64898 3.73694 0
M  V30 10381 H 940.094 -1.88375 2.32713 0
M  V30 10382 H 937.64 -0.90489 1.12017 0
M  V30 10383 H 939.593 -4.04127 1.19412 0
M  V30 10384 H 938.317 -3.25793 0.229433 0
M  V30 10385 H 936.976 -2.83831 2.32025 0
M  V30 10386 H 936.624 -4.93043 0.995889 0
M  V30 10387 H 936.324 -5.20298 2.73063 0
M  V30 10388 H 937.848 -5.77196 1.99193 0
M  V30 10389 H 939.262 -4.33531 3.75132 0
M  V30 10390 H 937.659 -4.00407 4.46983 0
M  V30 10391 H 938.729 -2.65124 4.06002 0
M  V30 10392 N 940.072 -1.23292 -0.981677 0
M  V30 10393 C 941.022 -0.980133 -2.05858 0
M  V30 10394 C 942.006 0.0734044 -1.60732 0
M  V30 10395 O 943.198 -0.138561 -1.76457 0
M  V30 10396 C 940.327 -0.571879 -3.38503 0
M  V30 10397 C 939.413 -1.66075 -3.90231 0
M  V30 10398 N 939.804 -2.89077 -4.15052 0
M  V30 10399 C 938.102 -1.53503 -4.18751 0
M  V30 10400 C 938.803 -3.59567 -4.5726 0
M  V30 10401 N 937.779 -2.87076 -4.61615 0
M  V30 10402 H 941.581 -1.91432 -2.23005 0
M  V30 10403 H 939.095 -1.13211 -1.16434 0
M  V30 10404 H 941.092 -0.372059 -4.15236 0
M  V30 10405 H 939.752 0.355278 -3.2275 0
M  V30 10406 H 940.763 -3.25395 -4.02912 0
M  V30 10407 H 937.44 -0.674891 -4.12009 0
M  V30 10408 H 938.83 -4.65007 -4.84993 0
M  V30 10409 N 941.55 1.18024 -1.04442 0
M  V30 10410 C 942.79 1.89787 -0.758957 0
M  V30 10411 C 943.154 1.78757 0.700707 0
M  V30 10412 O 944.355 2.45265 1.09994 0
M  V30 10413 C 942.626 3.36047 -1.21685 0
M  V30 10414 S 944.185 4.25864 -1.05761 0
M  V30 10415 H 941.003 0.655311 -0.275841 0
M  V30 10416 H 943.605 1.42589 -1.33749 0
M  V30 10417 H 942.309 3.41606 -2.2745 0
M  V30 10418 H 941.84 3.88286 -0.63227 0
M  V30 10419 H 943.855 4.96195 0.022729 0
M  V30 10420 N 943.028 0.824394 1.34319 0
M  V30 10421 C 944.439 0.471802 1.8064 0
M  V30 10422 C 944.79 -1.00793 1.6833 0
M  V30 10423 O 943.915 -1.78447 1.22416 0
M  V30 10424 C 944.51 0.849609 3.27974 0
M  V30 10425 C 943.069 0.549365 3.72369 0
M  V30 10426 C 942.216 1.06573 2.56003 0
M  V30 10427 H 945.167 1.01443 1.22045 0
M  V30 10428 H 945.188 0.153968 3.80188 0
M  V30 10429 H 944.7 1.92663 3.36902 0
M  V30 10430 H 942.801 -0.518182 3.68979 0
M  V30 10431 H 942.914 1.09446 4.66432 0
M  V30 10432 H 941.278 0.487214 2.49997 0
M  V30 10433 H 942.061 2.14923 2.677 0
M  V30 10434 N 944.506 -1.46559 0.579492 0
M  V30 10435 C 945.416 -2.34066 -0.15816 0
M  V30 10436 C 946.432 -1.49556 -0.88932 0
M  V30 10437 O 947.608 -1.82434 -0.853226 0
M  V30 10438 C 944.673 -3.26683 -1.161 0
M  V30 10439 C 943.734 -4.27092 -0.434855 0
M  V30 10440 C 942.967 -5.15283 -1.38992 0
M  V30 10441 O 943.19 -5.06345 -2.62623 0
M  V30 10442 O 942.124 -5.95099 -0.902253 0
M  V30 10443 H 945.95 -2.98488 0.560234 0
M  V30 10444 H 943.535 -1.45482 0.339918 0
M  V30 10445 H 945.417 -3.8383 -1.73932 0
M  V30 10446 H 944.092 -2.64862 -1.86091 0
M  V30 10447 H 942.999 -3.73641 0.185224 0
M  V30 10448 H 944.332 -4.9169 0.224031 0
M  V30 10449 N 945.984 -0.3171 -1.54377 0
M  V30 10450 C 946.947 0.53905 -2.22771 0
M  V30 10451 C 947.947 1.04865 -1.21901 0
M  V30 10452 O 949.137 0.942108 -1.46526 0
M  V30 10453 C 946.269 1.74804 -2.92671 0
M  V30 10454 H 947.462 -0.0587417 -2.99842 0
M  V30 10455 H 945.015 -0.068107 -1.56152 0
M  V30 10456 H 945.75 2.38524 -2.1972 0
M  V30 10457 H 945.535 1.39011 -3.66631 0
M  V30 10458 H 947.025 2.35592 -3.44799 0
M  V30 10459 N 947.462 1.57535 -0.0451378 0
M  V30 10460 C 948.71 1.92071 0.628743 0
M  V30 10461 C 949.031 0.923635 1.71738 0
M  V30 10462 O 948.301 -0.0324376 1.95873 0
M  V30 10463 H 946.881 0.708995 0.235233 0
M  V30 10464 H 949.543 1.9466 -0.0967177 0
M  V30 10465 H 948.639 2.9314 1.07123 0
M  V30 10466 N 948.94 -0.228186 1.55939 0
M  V30 10467 C 950.187 -0.953552 1.78644 0
M  V30 10468 C 950.515 -1.84596 0.61275 0
M  V30 10469 O 949.77 -1.91502 -0.403175 0
M  V30 10470 C 950.069 -1.82924 3.0704 0
M  V30 10471 C 949.735 -1.09062 4.37511 0
M  V30 10472 C 948.397 -0.886565 4.72962 0
M  V30 10473 C 950.749 -0.568533 5.1809 0
M  V30 10474 C 948.077 -0.148413 5.86512 0
M  V30 10475 C 950.429 0.156243 6.32407 0
M  V30 10476 C 949.093 0.371612 6.66465 0
M  V30 10477 H 948.363 -0.348929 0.653704 0
M  V30 10478 H 951.01 -0.222211 1.90206 0
M  V30 10479 H 949.315 -2.62823 2.90571 0
M  V30 10480 H 951.012 -2.3925 3.21808 0
M  V30 10481 H 947.602 -1.25963 4.09672 0
M  V30 10482 H 951.786 -0.713673 4.91142 0
M  V30 10483 H 947.042 0.0287418 6.11393 0
M  V30 10484 H 951.216 0.568333 6.94077 0
M  V30 10485 H 948.843 0.945522 7.54297 0
M  V30 10486 N 950.418 -1.49637 -0.494624 0
M  V30 10487 C 951.643 -1.63431 -1.27691 0
M  V30 10488 C 952.068 -0.30813 -1.85559 0
M  V30 10489 O 951.426 0.725083 -1.66169 0
M  V30 10490 C 951.474 -2.71043 -2.3784 0
M  V30 10491 O 950.578 -2.3066 -3.41862 0
M  V30 10492 H 949.919 -0.546804 -0.376698 0
M  V30 10493 H 952.449 -1.95866 -0.591413 0
M  V30 10494 H 952.459 -2.93406 -2.83508 0
M  V30 10495 H 951.134 -3.67306 -1.95088 0
M  V30 10496 H 949.711 -2.18652 -3.02069 0
M  V30 10497 N 951.896 0.746133 -1.38819 0
M  V30 10498 C 953.124 1.53539 -1.38685 0
M  V30 10499 C 953.539 1.88788 0.0215039 0
M  V30 10500 O 952.896 1.53312 0.990031 0
M  V30 10501 C 952.947 2.8299 -2.24942 0
M  V30 10502 O 952.668 2.49242 -3.60292 0
M  V30 10503 C 954.169 3.77085 -2.3307 0
M  V30 10504 H 951.389 0.474842 -0.474095 0
M  V30 10505 H 953.933 0.922844 -1.82493 0
M  V30 10506 H 952.088 3.40603 -1.84576 0
M  V30 10507 H 952.502 3.32319 -4.05789 0
M  V30 10508 H 953.976 4.64845 -2.97696 0
M  V30 10509 H 954.453 4.18049 -1.34655 0
M  V30 10510 H 955.059 3.25394 -2.73859 0
M  V30 10511 N 953.375 1.23811 0.975125 0
M  V30 10512 C 954.307 0.981779 2.07108 0
M  V30 10513 C 955.32 -0.0461211 1.62735 0
M  V30 10514 O 956.509 0.190039 1.77486 0
M  V30 10515 C 953.609 0.458364 3.35786 0
M  V30 10516 C 952.782 1.54767 4.09104 0
M  V30 10517 C 951.841 1.0282 5.16057 0
M  V30 10518 O 950.867 1.71831 5.42644 0
M  V30 10519 N 952.069 -0.141243 5.80328 0
M  V30 10520 H 954.834 1.92537 2.29673 0
M  V30 10521 H 952.395 1.1474 1.14221 0
M  V30 10522 H 954.387 0.0957686 4.04587 0
M  V30 10523 H 952.957 -0.390768 3.10148 0
M  V30 10524 H 952.177 2.08279 3.34684 0
M  V30 10525 H 953.465 2.28006 4.54853 0
M  V30 10526 H 952.863 -0.718382 5.6112 0
M  V30 10527 H 951.42 -0.445052 6.50279 0
M  V30 10528 N 954.853 -1.17469 1.05066 0
M  V30 10529 C 956.081 -1.9162 0.780334 0
M  V30 10530 C 956.496 -1.76745 -0.663817 0
M  V30 10531 O 955.853 -1.10377 -1.45338 0
M  V30 10532 C 955.904 -3.42723 1.14992 0
M  V30 10533 O 955.625 -3.57139 2.53739 0
M  V30 10534 C 957.126 -4.33952 0.905549 0
M  V30 10535 H 954.346 -0.608022 0.283814 0
M  V30 10536 H 956.89 -1.4897 1.401 0
M  V30 10537 H 955.045 -3.83124 0.57403 0
M  V30 10538 H 955.459 -4.5075 2.68189 0
M  V30 10539 H 956.933 -5.38487 1.21391 0
M  V30 10540 H 957.41 -4.38911 -0.159295 0
M  V30 10541 H 958.016 -3.99263 1.46522 0
M  V30 10542 N 956.331 -0.831506 -1.3388 0
M  V30 10543 C 957.577 -0.424302 -1.98312 0
M  V30 10544 C 957.91 1.01211 -1.65741 0
M  V30 10545 O 957.185 1.70636 -0.933464 0
M  V30 10546 C 957.468 -0.636815 -3.54424 0
M  V30 10547 C 957.321 -2.11997 -3.96708 0
M  V30 10548 C 958.64 -0.0782411 -4.4003 0
M  V30 10549 H 955.759 -0.155637 -0.720379 0
M  V30 10550 H 958.401 -1.04566 -1.58638 0
M  V30 10551 H 956.551 -0.107907 -3.8835 0
M  V30 10552 H 958.223 -2.71317 -3.73075 0
M  V30 10553 H 956.466 -2.60723 -3.46707 0
M  V30 10554 H 957.137 -2.21944 -5.05416 0
M  V30 10555 H 959.613 -0.530243 -4.12708 0
M  V30 10556 H 958.489 -0.256676 -5.483 0
M  V30 10557 H 958.75 1.01745 -4.30233 0
M  V30 10558 N 957.809 1.4625 -0.587256 0
M  V30 10559 C 958.772 2.28812 0.133238 0
M  V30 10560 C 959.772 1.38645 0.814513 0
M  V30 10561 O 960.962 1.60975 0.665774 0
M  V30 10562 C 958.094 3.19147 1.19824 0
M  V30 10563 H 959.287 2.93991 -0.592386 0
M  V30 10564 H 956.84 1.52435 -0.345416 0
M  V30 10565 H 957.575 2.58725 1.95529 0
M  V30 10566 H 957.36 3.85541 0.71418 0
M  V30 10567 H 958.85 3.81278 1.70344 0
M  V30 10568 N 959.287 0.325282 1.54207 0
M  V30 10569 C 960.25 -0.527228 2.23054 0
M  V30 10570 C 961.25 -1.04217 1.22456 0
M  V30 10571 O 962.44 -0.934325 1.47024 0
M  V30 10572 C 959.572 -1.7325 2.93594 0
M  V30 10573 H 960.765 0.0746423 2.99807 0
M  V30 10574 H 958.318 0.0763872 1.56113 0
M  V30 10575 H 959.053 -2.37356 2.20981 0
M  V30 10576 H 958.838 -1.37065 3.67363 0
M  V30 10577 H 960.328 -2.3376 3.46043 0
M  V30 10578 N 960.765 -1.57509 0.0534917 0
M  V30 10579 C 962.011 -1.93068 -0.62069 0
M  V30 10580 C 962.344 -0.932313 -1.70357 0
M  V30 10581 O 961.619 0.0413393 -1.94456 0
M  V30 10582 C 961.902 -3.38997 -1.21463 0
M  V30 10583 C 961.755 -4.49583 -0.13965 0
M  V30 10584 C 963.074 -3.85366 -2.12558 0
M  V30 10585 H 960.193 -0.702083 -0.224163 0
M  V30 10586 H 962.835 -1.89647 0.115729 0
M  V30 10587 H 960.985 -3.42043 -1.84226 0
M  V30 10588 H 962.657 -4.58664 0.492411 0
M  V30 10589 H 960.9 -4.30525 0.532006 0
M  V30 10590 H 961.571 -5.48781 -0.595287 0
M  V30 10591 H 964.047 -3.8421 -1.59755 0
M  V30 10592 H 962.923 -4.8812 -2.51058 0
M  V30 10593 H 963.184 -3.22256 -3.02661 0
M  V30 10594 N 962.243 0.219913 -1.56058 0
M  V30 10595 C 963.491 0.942199 -1.78793 0
M  V30 10596 C 963.812 1.84804 -0.622284 0
M  V30 10597 O 963.082 1.9255 0.360735 0
M  V30 10598 H 961.662 0.350895 -0.659455 0
M  V30 10599 H 964.324 0.231376 -1.93522 0
M  V30 10600 H 963.42 1.54804 -2.71002 0
M  V30 10601 N 963.721 1.49897 0.486681 0
M  V30 10602 C 964.669 1.68125 1.60738 0
M  V30 10603 C 965.663 0.547097 1.60322 0
M  V30 10604 O 966.869 0.727153 1.64659 0
M  V30 10605 H 963.244 0.530391 0.533094 0
M  V30 10606 H 965.215 2.62165 1.42521 0
M  V30 10607 C 963.964 1.77827 2.98786 0
M  V30 10608 H 963.287 2.6448 2.99818 0
M  V30 10609 H 964.727 1.94611 3.76699 0
M  V30 10610 C 963.186 0.526287 3.32764 0
M  V30 10611 O 963.716 -0.341607 4.00245 0
M  V30 10612 N 961.922 0.384947 2.88039 0
M  V30 10613 H 961.469 1.09222 2.33299 0
M  V30 10614 H 961.427 -0.451618 3.11139 0
M  V30 10615 N 965.199 -0.738761 1.39212 0
M  V30 10616 C 966.615 -1.04381 1.20734 0
M  V30 10617 C 966.815 -2.01391 0.0663082 0
M  V30 10618 O 965.871 -2.45672 -0.583229 0
M  V30 10619 C 967.184 -1.6097 2.53987 0
M  V30 10620 C 968.732 -1.73069 2.60799 0
M  V30 10621 C 969.207 -2.33067 3.94264 0
M  V30 10622 N 970.698 -2.40481 3.95883 0
M  V30 10623 C 971.433 -2.87834 4.95923 0
M  V30 10624 N 970.929 -3.35111 6.0636 0
M  V30 10625 N 972.722 -2.87009 4.83304 0
M  V30 10626 H 964.873 -0.0952996 2.12186 0
M  V30 10627 H 967.136 -0.104902 0.942178 0
M  V30 10628 H 966.842 -0.971548 3.38015 0
M  V30 10629 H 966.716 -2.59829 2.73439 0
M  V30 10630 H 969.103 -2.36007 1.77157 0
M  V30 10631 H 969.184 -0.728728 2.452 0
M  V30 10632 H 968.828 -1.70758 4.78335 0
M  V30 10633 H 968.758 -3.33933 4.07181 0
M  V30 10634 H 971.249 -2.07061 3.16123 0
M  V30 10635 H 971.562 -3.69742 6.78609 0
M  V30 10636 H 969.907 -3.33129 6.09959 0
M  V30 10637 H 973.098 -2.49395 3.96131 0
M  V30 10638 H 973.271 -3.23598 5.61416 0
M  V30 10639 N 966.677 -1.24326 -0.968545 0
M  V30 10640 C 968.093 -1.00847 -1.23701 0
M  V30 10641 C 968.293 0.283235 -1.99499 0
M  V30 10642 O 967.349 0.999607 -2.31871 0
M  V30 10643 C 968.662 -2.22295 -2.02498 0
M  V30 10644 C 970.21 -2.26911 -2.15593 0
M  V30 10645 C 970.685 -3.47978 -2.97784 0
M  V30 10646 N 972.176 -3.48289 -3.05367 0
M  V30 10647 C 972.911 -4.38625 -3.69318 0
M  V30 10648 N 972.407 -5.39213 -4.34995 0
M  V30 10649 N 974.2 -4.26339 -3.66322 0
M  V30 10650 H 966.351 -2.07335 -0.461087 0
M  V30 10651 H 968.614 -0.909805 -0.26638 0
M  V30 10652 H 968.32 -3.161 -1.54188 0
M  V30 10653 H 968.194 -2.24344 -3.03232 0
M  V30 10654 H 970.581 -1.33639 -2.63106 0
M  V30 10655 H 970.662 -2.28888 -1.14209 0
M  V30 10656 H 970.306 -4.41564 -2.50965 0
M  V30 10657 H 970.236 -3.43244 -3.99364 0
M  V30 10658 H 972.727 -2.75517 -2.58648 0
M  V30 10659 H 973.04 -6.04378 -4.81608 0
M  V30 10660 H 971.385 -5.43101 -4.33667 0
M  V30 10661 H 974.576 -3.46991 -3.14189 0
M  V30 10662 H 974.749 -4.9694 -4.15878 0
M  V30 10663 N 968.156 1.1691 -1.05688 0
M  V30 10664 C 969.088 2.20648 -0.620237 0
M  V30 10665 C 970.101 1.59652 0.318604 0
M  V30 10666 O 971.29 1.78157 0.110553 0
M  V30 10667 C 968.39 3.38716 0.111729 0
M  V30 10668 C 967.563 4.29277 -0.839062 0
M  V30 10669 C 966.622 5.25993 -0.147453 0
M  V30 10670 O 965.648 5.63787 -0.783151 0
M  V30 10671 N 966.85 5.69725 1.11327 0
M  V30 10672 H 969.615 2.58731 -1.51256 0
M  V30 10673 H 967.176 1.31858 -0.939412 0
M  V30 10674 H 969.168 4.00455 0.584657 0
M  V30 10675 H 967.738 2.99189 0.905784 0
M  V30 10676 H 966.958 3.64894 -1.4915 0
M  V30 10677 H 968.246 4.86669 -1.48428 0
M  V30 10678 H 967.644 5.41103 1.64999 0
M  V30 10679 H 966.201 6.33584 1.53018 0
M  V30 10680 N 969.634 0.838594 1.33437 0
M  V30 10681 C 970.88 0.444042 1.98494 0
M  V30 10682 C 971.235 -0.985759 1.65229 0
M  V30 10683 O 970.528 -1.67972 0.921736 0
M  V30 10684 C 970.722 0.601425 3.52303 0
M  V30 10685 C 970.551 2.04497 4.00513 0
M  V30 10686 C 969.321 2.68015 4.28364 0
M  V30 10687 C 971.519 3.01367 4.16752 0
M  V30 10688 N 969.501 4.03448 4.62713 0
M  V30 10689 C 970.872 4.21745 4.54457 0
M  V30 10690 C 972.927 2.97776 3.99041 0
M  V30 10691 C 971.63 5.39009 4.76301 0
M  V30 10692 C 973.656 4.14269 4.22061 0
M  V30 10693 C 973.018 5.33402 4.60067 0
M  V30 10694 H 969.117 0.210906 0.753022 0
M  V30 10695 H 971.701 1.0866 1.61558 0
M  V30 10696 H 969.872 -0.0113326 3.88398 0
M  V30 10697 H 971.604 0.178343 4.04307 0
M  V30 10698 H 968.359 2.19153 4.19844 0
M  V30 10699 H 968.783 4.73264 4.84098 0
M  V30 10700 H 973.425 2.06801 3.68773 0
M  V30 10701 H 971.143 6.30529 5.0543 0
M  V30 10702 H 974.729 4.12908 4.09876 0
M  V30 10703 H 973.609 6.22045 4.77525 0
M  V30 10704 N 971.112 -1.45937 0.595003 0
M  V30 10705 C 972.389 -1.95592 0.0178748 0
M  V30 10706 C 972.769 -1.53758 -1.44643 0
M  V30 10707 O 972.117 -0.794104 -2.14257 0
M  V30 10708 C 972.327 -3.4841 0.202789 0
M  V30 10709 C 973.675 -4.2453 0.0770121 0
M  V30 10710 O 974.699 -3.55954 0.132257 0
M  V30 10711 O 973.558 -5.46479 -0.0484271 0
M  V30 10712 H 970.652 -0.825888 -0.0428702 0
M  V30 10713 H 973.198 -1.56162 0.664184 0
M  V30 10714 H 971.97 -3.71787 1.22027 0
M  V30 10715 H 971.593 -3.947 -0.479376 0
M  V30 10716 N 972.59 -0.333456 -1.54032 0
M  V30 10717 C 973.838 0.265608 -2.00347 0
M  V30 10718 C 974.159 1.51873 -1.2231 0
M  V30 10719 O 973.429 1.93142 -0.327549 0
M  V30 10720 H 972.009 0.101135 -0.740122 0
M  V30 10721 H 974.671 -0.452285 -1.8958 0
M  V30 10722 H 973.767 0.51511 -3.0782 0
M  V30 10723 N 974.068 1.57479 -0.061844 0
M  V30 10724 C 975.316 1.92727 0.608336 0
M  V30 10725 C 975.637 0.941799 1.70749 0
M  V30 10726 O 974.907 -0.0116608 1.95897 0
M  V30 10727 H 973.487 0.71145 0.2277 0
M  V30 10728 H 976.149 1.94546 -0.117359 0
M  V30 10729 H 975.245 2.9426 1.04007 0
M  V30 10730 N 975.546 -0.211634 1.56173 0
M  V30 10731 C 976.509 -1.24588 1.92381 0
M  V30 10732 C 977.509 -1.39297 0.803311 0
M  V30 10733 O 978.699 -1.37392 1.07094 0
M  V30 10734 C 975.831 -2.61807 2.18335 0
M  V30 10735 H 977.024 -0.936814 2.84893 0
M  V30 10736 H 974.577 -0.452471 1.49607 0
M  V30 10737 H 975.312 -2.97795 1.28407 0
M  V30 10738 H 975.097 -2.52506 2.99972 0
M  V30 10739 H 976.587 -3.3642 2.4741 0
M  V30 10740 N 977.024 -1.50153 -0.478725 0
M  V30 10741 C 978.435 -1.53706 -1.05978 0
M  V30 10742 C 978.786 -0.336112 -1.933 0
M  V30 10743 O 977.911 0.551803 -2.09246 0
M  V30 10744 C 978.506 -2.78541 -1.92874 0
M  V30 10745 C 977.065 -2.848 -2.46102 0
M  V30 10746 C 976.212 -2.47902 -1.24257 0
M  V30 10747 H 979.163 -1.56528 -0.261664 0
M  V30 10748 H 979.184 -2.59964 -2.77847 0
M  V30 10749 H 978.696 -3.6593 -1.29293 0
M  V30 10750 H 976.797 -2.01744 -3.13257 0
M  V30 10751 H 976.91 -3.87511 -2.81731 0
M  V30 10752 H 975.274 -2.0017 -1.57493 0
M  V30 10753 H 976.057 -3.3759 -0.62351 0
M  V30 10754 N 978.502 0.731368 -1.39602 0
M  V30 10755 C 979.434 1.85575 -1.34516 0
M  V30 10756 C 980.447 1.60818 -0.253287 0
M  V30 10757 O 981.636 1.70984 -0.512505 0
M  V30 10758 C 978.736 3.21673 -1.06676 0
M  V30 10759 C 977.909 3.73757 -2.27211 0
M  V30 10760 C 976.968 4.88426 -1.95773 0
M  V30 10761 O 975.994 5.01898 -2.68491 0
M  V30 10762 N 977.196 5.73065 -0.926083 0
M  V30 10763 H 979.961 1.90442 -2.31413 0
M  V30 10764 H 977.522 0.912258 -1.33752 0
M  V30 10765 H 979.514 3.95959 -0.836577 0
M  V30 10766 H 978.084 3.12052 -0.185003 0
M  V30 10767 H 977.304 2.90781 -2.66158 0
M  V30 10768 H 978.592 4.05289 -3.07601 0
M  V30 10769 H 977.99 5.64774 -0.323497 0
M  V30 10770 H 976.547 6.47403 -0.755795 0
M  V30 10771 N 979.98 1.24838 0.961938 0
M  V30 10772 C 981.208 1.11871 1.74047 0
M  V30 10773 C 981.623 -0.328209 1.85925 0
M  V30 10774 O 980.98 -1.22616 1.35173 0
M  V30 10775 C 981.031 1.75931 3.15801 0
M  V30 10776 O 980.752 3.14967 3.04512 0
M  V30 10777 C 982.253 1.68649 4.09966 0
M  V30 10778 H 979.473 0.390569 0.545616 0
M  V30 10779 H 982.017 1.65058 1.20732 0
M  V30 10780 H 980.172 1.26733 3.66084 0
M  V30 10781 H 980.586 3.46349 3.93882 0
M  V30 10782 H 982.06 2.18144 5.07067 0
M  V30 10783 H 982.537 0.648831 4.34381 0
M  V30 10784 H 983.143 2.17301 3.65596 0
M  V30 10785 N 981.458 -1.16348 1.06306 0
M  V30 10786 C 982.388 -2.2291 0.695234 0
M  V30 10787 C 983.369 -1.67208 -0.312343 0
M  V30 10788 O 984.554 -1.93293 -0.187442 0
M  V30 10789 C 981.684 -3.47205 0.0810149 0
M  V30 10790 C 980.638 -4.15801 1.01458 0
M  V30 10791 C 979.964 -5.3405 0.263656 0
M  V30 10792 C 981.264 -4.66766 2.34365 0
M  V30 10793 H 982.958 -2.53934 1.58613 0
M  V30 10794 H 980.504 -1.22056 0.76409 0
M  V30 10795 H 982.457 -4.2098 -0.18818 0
M  V30 10796 H 981.181 -3.15482 -0.844897 0
M  V30 10797 H 979.84 -3.43954 1.26852 0
M  V30 10798 H 979.488 -4.9858 -0.665378 0
M  V30 10799 H 979.188 -5.80885 0.88582 0
M  V30 10800 H 980.712 -6.106 0.00200994 0
M  V30 10801 H 982.126 -5.3212 2.13356 0
M  V30 10802 H 980.523 -5.24223 2.9208 0
M  V30 10803 H 981.593 -3.82969 2.97426 0
M  V30 10804 N 982.937 -0.845659 -1.3299 0
M  V30 10805 C 983.867 -0.298957 -2.31578 0
M  V30 10806 C 984.848 0.597012 -1.59279 0
M  V30 10807 O 986.033 0.519142 -1.87132 0
M  V30 10808 C 983.163 0.521109 -3.43368 0
M  V30 10809 C 982.117 -0.279651 -4.27085 0
M  V30 10810 C 981.443 0.664591 -5.30554 0
M  V30 10811 C 982.743 -1.50046 -5.00283 0
M  V30 10812 H 984.437 -1.12272 -2.77552 0
M  V30 10813 H 981.983 -0.54132 -1.33438 0
M  V30 10814 H 983.936 0.913921 -4.1137 0
M  V30 10815 H 982.66 1.37815 -2.96099 0
M  V30 10816 H 981.319 -0.654106 -3.60717 0
M  V30 10817 H 980.967 1.51822 -4.79541 0
M  V30 10818 H 980.667 0.132871 -5.8745 0
M  V30 10819 H 982.191 1.05477 -6.01421 0
M  V30 10820 H 983.605 -1.18044 -5.61016 0
M  V30 10821 H 982.002 -1.96946 -5.66862 0
M  V30 10822 H 983.072 -2.26659 -4.28665 0
M  V30 10823 N 984.415 1.45619 -0.602734 0
M  V30 10824 C 985.347 2.28662 0.157012 0
M  V30 10825 C 986.36 1.39672 0.836396 0
M  V30 10826 O 987.549 1.64091 0.702599 0
M  V30 10827 C 984.649 3.1528 1.24306 0
M  V30 10828 C 983.822 4.32517 0.651731 0
M  V30 10829 C 982.881 5.00381 1.62804 0
M  V30 10830 O 981.907 5.57333 1.15624 0
M  V30 10831 N 983.109 4.99221 2.96241 0
M  V30 10832 H 985.874 2.94506 -0.555535 0
M  V30 10833 H 983.435 1.55753 -0.441881 0
M  V30 10834 H 985.427 3.57544 1.8959 0
M  V30 10835 H 983.997 2.51376 1.85819 0
M  V30 10836 H 983.217 3.93793 -0.17907 0
M  V30 10837 H 984.505 5.08249 0.236802 0
M  V30 10838 H 983.903 4.54232 3.37179 0
M  V30 10839 H 982.46 5.45364 3.56961 0
M  V30 10840 N 985.893 0.34162 1.53853 0
M  V30 10841 C 986.826 -0.559051 2.21246 0
M  V30 10842 C 987.804 -1.10179 1.1958 0
M  V30 10843 O 988.988 -1.16242 1.48392 0
M  V30 10844 C 986.115 -1.7689 2.88838 0
M  V30 10845 C 985.161 -1.3558 4.04377 0
M  V30 10846 S 985.994 -0.377225 5.3417 0
M  V30 10847 C 987.15 -1.59395 6.05264 0
M  V30 10848 H 987.383 0.013373 2.97297 0
M  V30 10849 H 984.916 0.125694 1.53888 0
M  V30 10850 H 986.874 -2.463 3.284 0
M  V30 10851 H 985.535 -2.31254 2.12557 0
M  V30 10852 H 984.728 -2.25781 4.50599 0
M  V30 10853 H 984.33 -0.741197 3.66582 0
M  V30 10854 H 986.622 -2.52872 6.2854 0
M  V30 10855 H 987.565 -1.17356 6.98307 0
M  V30 10856 H 987.973 -1.78913 5.35397 0
M  V30 10857 N 987.371 -1.57444 0.0701946 0
M  V30 10858 C 988.304 -2.08232 -0.93352 0
M  V30 10859 C 989.282 -0.987073 -1.29212 0
M  V30 10860 O 990.466 -1.26035 -1.40169 0
M  V30 10861 C 987.593 -2.53866 -2.2421 0
M  V30 10862 C 986.639 -3.7481 -2.03518 0
M  V30 10863 S 987.472 -5.1958 -1.29601 0
M  V30 10864 C 988.628 -5.68544 -2.61742 0
M  V30 10865 H 988.861 -2.93042 -0.501354 0
M  V30 10866 H 986.394 -1.53741 -0.142533 0
M  V30 10867 H 988.352 -2.80818 -2.99419 0
M  V30 10868 H 987.013 -1.69327 -2.64551 0
M  V30 10869 H 986.206 -4.04724 -3.00358 0
M  V30 10870 H 985.808 -3.48222 -1.36445 0
M  V30 10871 H 988.1 -5.75291 -3.57836 0
M  V30 10872 H 989.043 -6.67459 -2.3644 0
M  V30 10873 H 989.451 -4.96354 -2.68873 0
M  V30 10874 N 988.849 0.203349 -1.56283 0
M  V30 10875 C 989.812 1.23566 -1.93039 0
M  V30 10876 C 990.812 1.38869 -0.810687 0
M  V30 10877 O 992.002 1.36822 -1.07821 0
M  V30 10878 C 989.134 2.60645 -2.1972 0
M  V30 10879 H 990.327 0.921692 -2.85385 0
M  V30 10880 H 987.88 0.44453 -1.49845 0
M  V30 10881 H 988.615 2.9711 -1.29985 0
M  V30 10882 H 988.4 2.50911 -3.01307 0
M  V30 10883 H 989.89 3.35103 -2.4919 0
M  V30 10884 N 990.327 1.50405 0.470755 0
M  V30 10885 C 991.573 1.6165 1.22462 0
M  V30 10886 C 991.906 0.316034 1.91611 0
M  V30 10887 O 991.181 -0.682509 1.82132 0
M  V30 10888 C 991.464 2.79702 2.26801 0
M  V30 10889 C 991.317 4.19631 1.61955 0
M  V30 10890 C 992.636 2.93313 3.28109 0
M  V30 10891 H 989.755 0.588345 0.443868 0
M  V30 10892 H 992.397 1.82792 0.518376 0
M  V30 10893 H 990.547 2.61807 2.87036 0
M  V30 10894 H 992.219 4.49117 1.05316 0
M  V30 10895 H 990.462 4.23874 0.922674 0
M  V30 10896 H 991.133 4.98162 2.37779 0
M  V30 10897 H 993.609 3.09697 2.77897 0
M  V30 10898 H 992.485 3.77537 3.98443 0
M  V30 10899 H 992.746 2.03942 3.9225 0
M  V30 10900 N 991.805 -0.723954 1.39988 0
M  V30 10901 C 992.768 -1.81973 1.3935 0
M  V30 10902 C 993.768 -1.58187 0.288702 0
M  V30 10903 O 994.958 -1.65383 0.547181 0
M  V30 10904 C 992.09 -3.19937 1.177 0
M  V30 10905 H 993.283 -1.83939 2.36868 0
M  V30 10906 H 990.836 -0.928742 1.25714 0
M  V30 10907 H 991.571 -3.23625 0.209093 0
M  V30 10908 H 991.356 -3.386 1.97719 0
M  V30 10909 H 992.846 -3.99981 1.20022 0
M  V30 10910 N 993.283 -1.25346 -0.955304 0
M  V30 10911 C 994.56 -1.00829 -1.67609 0
M  V30 10912 C 994.94 0.465675 -2.059 0
M  V30 10913 O 994.288 1.44287 -1.77182 0
M  V30 10914 C 994.498 -1.94337 -2.89886 0
M  V30 10915 C 995.846 -2.22142 -3.61854 0
M  V30 10916 O 996.87 -1.9209 -2.99967 0
M  V30 10917 O 995.729 -2.73239 -4.73289 0
M  V30 10918 H 992.823 -0.382314 -0.733325 0
M  V30 10919 H 995.369 -1.36498 -1.00829 0
M  V30 10920 H 994.141 -2.93867 -2.58376 0
M  V30 10921 H 993.764 -1.59062 -3.64397 0
M  V30 10922 N 994.761 1.15782 -1.06922 0
M  V30 10923 C 996.01 1.85807 -0.784774 0
M  V30 10924 C 996.323 1.82967 0.691551 0
M  V30 10925 O 997.529 2.48632 1.0906 0
M  V30 10926 C 995.985 3.33469 -1.35375 0
M  V30 10927 C 995.593 3.44766 -2.86077 0
M  V30 10928 C 997.337 4.08707 -1.14713 0
M  V30 10929 C 995.244 4.86551 -3.36187 0
M  V30 10930 H 994.174 0.696046 -0.28989 0
M  V30 10931 H 996.825 1.30629 -1.28873 0
M  V30 10932 H 995.207 3.88292 -0.77754 0
M  V30 10933 H 996.381 3.00073 -3.49704 0
M  V30 10934 H 994.696 2.82969 -3.05479 0
M  V30 10935 H 997.293 5.13336 -1.49633 0
M  V30 10936 H 997.636 4.16211 -0.0858868 0
M  V30 10937 H 998.169 3.60142 -1.68946 0
M  V30 10938 H 994.908 4.84229 -4.41818 0
M  V30 10939 H 994.428 5.31844 -2.77312 0
M  V30 10940 H 996.107 5.55392 -3.31887 0
M  V30 10941 N 996.239 0.8527 1.3254 0
M  V30 10942 C 997.467 0.469044 2.01513 0
M  V30 10943 C 997.882 -0.933701 1.64096 0
M  V30 10944 O 997.239 -1.60898 0.861283 0
M  V30 10945 C 997.29 0.596228 3.56549 0
M  V30 10946 O 997.011 1.94371 3.92621 0
M  V30 10947 C 998.512 0.211324 4.42796 0
M  V30 10948 H 995.732 0.184589 0.645111 0
M  V30 10949 H 998.276 1.1491 1.69163 0
M  V30 10950 H 996.431 -0.0360712 3.87383 0
M  V30 10951 H 996.845 1.93909 4.87339 0
M  V30 10952 H 998.319 0.351324 5.50881 0
M  V30 10953 H 998.796 -0.848055 4.30935 0
M  V30 10954 H 999.402 0.818617 4.17347 0
M  V30 10955 N 997.718 -1.45297 0.610449 0
M  V30 10956 C 998.943 -2.07101 0.111414 0
M  V30 10957 C 999.368 -1.45161 -1.19625 0
M  V30 10958 O 998.726 -0.545368 -1.72903 0
M  V30 10959 C 998.774 -3.60598 -0.0117372 0
M  V30 10960 O 997.878 -3.98512 -1.06122 0
M  V30 10961 H 997.219 -0.659709 0.075364 0
M  V30 10962 H 999.749 -1.86504 0.841269 0
M  V30 10963 H 999.759 -4.07464 -0.209028 0
M  V30 10964 H 998.434 -4.05067 0.943076 0
M  V30 10965 H 997.011 -3.63312 -0.840158 0
M  V30 10966 N 999.196 -0.349774 -1.5367 0
M  V30 10967 C 1000.42 0.246038 -2.05432 0
M  V30 10968 C 1000.84 1.43719 -1.22435 0
M  V30 10969 O 1000.2 1.80622 -0.261166 0
M  V30 10970 C 1000.25 0.65501 -3.55516 0
M  V30 10971 O 999.968 -0.488782 -4.35365 0
M  V30 10972 C 1001.47 1.31088 -4.23475 0
M  V30 10973 H 998.689 0.0463952 -0.669394 0
M  V30 10974 H 1001.23 -0.503566 -1.98203 0
M  V30 10975 H 999.388 1.35455 -3.62947 0
M  V30 10976 H 999.802 -0.161528 -5.24251 0
M  V30 10977 H 1001.28 1.54774 -5.29857 0
M  V30 10978 H 1001.75 2.26636 -3.76208 0
M  V30 10979 H 1002.36 0.653211 -4.20254 0
M  V30 10980 N 1000.67 1.57404 -0.0785433 0
M  V30 10981 C 1001.91 1.95621 0.592595 0
M  V30 10982 C 1002.28 0.958429 1.66367 0
M  V30 10983 O 1003.48 1.2285 2.39084 0
M  V30 10984 C 1001.75 3.38445 1.14846 0
M  V30 10985 S 1003.31 3.98645 1.83378 0
M  V30 10986 H 1000.13 0.684063 0.193851 0
M  V30 10987 H 1002.73 1.94892 -0.154007 0
M  V30 10988 H 1001.43 4.08843 0.357179 0
M  V30 10989 H 1000.96 3.42733 1.93127 0
M  V30 10990 H 1002.98 3.86099 3.11676 0
M  V30 10991 N 1002.15 -0.195058 1.56388 0
M  V30 10992 C 1003.56 -0.75973 1.70543 0
M  V30 10993 C 1003.91 -1.83849 0.685118 0
M  V30 10994 O 1003.04 -2.15819 -0.158457 0
M  V30 10995 C 1003.63 -1.38485 3.09204 0
M  V30 10996 C 1002.19 -1.89661 3.25124 0
M  V30 10997 C 1001.34 -0.766563 2.66494 0
M  V30 10998 H 1004.29 0.0300148 1.58672 0
M  V30 10999 H 1004.31 -2.25424 3.06536 0
M  V30 11000 H 1003.82 -0.599479 3.83442 0
M  V30 11001 H 1001.92 -2.70917 2.55802 0
M  V30 11002 H 1002.04 -2.05837 4.32629 0
M  V30 11003 H 1000.4 -1.18086 2.25672 0
M  V30 11004 H 1001.18 0.00657102 3.43299 0
M  V30 11005 N 1003.63 -1.50653 -0.462772 0
M  V30 11006 C 1004.86 -1.65826 -1.23731 0
M  V30 11007 C 1005.27 -0.345002 -1.85621 0
M  V30 11008 O 1004.63 0.673935 -1.69601 0
M  V30 11009 C 1004.68 -2.7555 -2.33997 0
M  V30 11010 O 1004.4 -4.01785 -1.74643 0
M  V30 11011 C 1005.9 -3.0177 -3.2473 0
M  V30 11012 H 1003.12 -0.557177 -0.373892 0
M  V30 11013 H 1005.67 -1.96925 -0.551434 0
M  V30 11014 H 1003.82 -2.47122 -2.98345 0
M  V30 11015 H 1004.24 -4.62529 -2.4732 0
M  V30 11016 H 1005.71 -3.82188 -3.98292 0
M  V30 11017 H 1006.19 -2.13167 -3.84001 0
M  V30 11018 H 1006.79 -3.31761 -2.66111 0
M  V30 11019 N 1005.11 0.71652 -1.4037 0
M  V30 11020 C 1006.36 1.47347 -1.38324 0
M  V30 11021 C 1006.68 1.94995 0.0139949 0
M  V30 11022 O 1005.95 1.7028 0.968585 0
M  V30 11023 H 1004.53 0.546662 -0.509087 0
M  V30 11024 H 1007.19 0.849455 -1.75415 0
M  V30 11025 H 1006.29 2.34675 -2.05752 0
M  V30 11026 N 1006.59 1.25851 0.948643 0
M  V30 11027 C 1008 1.09975 1.50872 0
M  V30 11028 C 1008.35 -0.322497 1.93531 0
M  V30 11029 O 1007.47 -1.21316 1.79197 0
M  V30 11030 C 1008.07 1.99021 2.74182 0
M  V30 11031 C 1006.63 1.87313 3.26483 0
M  V30 11032 C 1005.77 1.92815 1.99293 0
M  V30 11033 H 1008.73 1.3905 0.764908 0
M  V30 11034 H 1008.75 1.53372 3.4822 0
M  V30 11035 H 1008.26 3.02527 2.43103 0
M  V30 11036 H 1006.36 0.867136 3.62369 0
M  V30 11037 H 1006.47 2.72446 3.94094 0
M  V30 11038 H 1004.84 1.36774 2.1486 0
M  V30 11039 H 1005.62 2.97936 1.70554 0
M  V30 11040 N 1008.06 -1.15214 1.07534 0
M  V30 11041 C 1009.34 -1.82155 0.71267 0
M  V30 11042 C 1009.72 -1.95163 -0.804655 0
M  V30 11043 O 1009.07 -1.50451 -1.71979 0
M  V30 11044 C 1009.28 -3.18392 1.42925 0
M  V30 11045 C 1010.63 -3.94005 1.58256 0
M  V30 11046 O 1011.65 -3.27952 1.39018 0
M  V30 11047 O 1010.51 -5.12436 1.89925 0
M  V30 11048 H 1007.6 -0.78709 0.253808 0
M  V30 11049 H 1010.15 -1.22309 1.17638 0
M  V30 11050 H 1008.92 -3.04034 2.46331 0
M  V30 11051 H 1008.55 -3.85925 0.956439 0
M  V30 11052 N 1009.54 -0.859717 -1.32086 0
M  V30 11053 C 1010.77 -0.478865 -2.01796 0
M  V30 11054 C 1011.19 0.918274 -1.64163 0
M  V30 11055 O 1010.55 1.60409 -0.844896 0
M  V30 11056 C 1010.6 -0.631356 -3.5503 0
M  V30 11057 O 1009.7 0.333712 -4.11048 0
M  V30 11058 H 1009.04 -0.191775 -0.635703 0
M  V30 11059 H 1011.57 -1.16031 -1.68517 0
M  V30 11060 H 1011.58 -0.520783 -4.04663 0
M  V30 11061 H 1010.26 -1.65015 -3.81763 0
M  V30 11062 H 1008.84 0.178953 -3.7247 0
M  V30 11063 N 1011.02 1.44971 -0.618145 0
M  V30 11064 C 1011.93 2.34403 0.0960457 0
M  V30 11065 C 1012.95 1.51862 0.849355 0
M  V30 11066 O 1014.12 1.84632 0.804557 0
M  V30 11067 C 1011.19 3.29646 1.07397 0
M  V30 11068 C 1010.25 4.28095 0.321466 0
M  V30 11069 C 1009.48 5.18787 1.25281 0
M  V30 11070 O 1009.7 5.1313 2.49106 0
M  V30 11071 O 1008.64 5.97282 0.744156 0
M  V30 11072 H 1012.46 2.96898 -0.639176 0
M  V30 11073 H 1010.05 1.44529 -0.37837 0
M  V30 11074 H 1011.93 3.88307 1.63694 0
M  V30 11075 H 1010.61 2.69702 1.79004 0
M  V30 11076 H 1009.51 3.73019 -0.284223 0
M  V30 11077 H 1010.85 4.90923 -0.354315 0
M  V30 11078 N 1012.5 0.357919 1.53482 0
M  V30 11079 C 1013.72 -0.237769 2.06033 0
M  V30 11080 C 1014.15 -1.42292 1.23023 0
M  V30 11081 O 1013.51 -1.79604 0.247427 0
M  V30 11082 C 1013.55 -0.616806 3.55286 0
M  V30 11083 O 1012.66 -1.71503 3.75047 0
M  V30 11084 H 1012 -0.0364322 0.663 0
M  V30 11085 H 1014.53 0.516301 1.97979 0
M  V30 11086 H 1014.54 -0.88996 3.98175 0
M  V30 11087 H 1013.21 0.249825 4.15149 0
M  V30 11088 H 1011.79 -1.43803 3.44057 0
M  V30 11089 N 1013.98 -1.5736 0.0868897 0
M  V30 11090 C 1015.22 -1.94341 -0.579598 0
M  V30 11091 C 1015.56 -0.968238 -1.68341 0
M  V30 11092 O 1014.83 8.29649e-05 -1.945 0
M  V30 11093 C 1015.11 -3.41497 -1.14245 0
M  V30 11094 C 1014.97 -4.49778 -0.044255 0
M  V30 11095 C 1016.29 -3.89788 -2.04336 0
M  V30 11096 H 1013.4 -0.70668 -0.20922 0
M  V30 11097 H 1016.05 -1.89359 0.15593 0
M  V30 11098 H 1014.2 -3.45873 -1.76929 0
M  V30 11099 H 1015.87 -4.57517 0.58959 0
M  V30 11100 H 1014.11 -4.293 0.623207 0
M  V30 11101 H 1014.78 -5.4992 -0.478749 0
M  V30 11102 H 1017.26 -3.87513 -1.51569 0
M  V30 11103 H 1016.13 -4.93335 -2.40648 0
M  V30 11104 H 1016.4 -3.28603 -2.95757 0
M  V30 11105 N 1015.45 0.186762 -1.56489 0
M  V30 11106 C 1016.38 1.23395 -1.98232 0
M  V30 11107 C 1017.37 1.4702 -0.855526 0
M  V30 11108 O 1018.55 1.58616 -1.12048 0
M  V30 11109 C 1015.68 2.57635 -2.32898 0
M  V30 11110 C 1014.63 2.48607 -3.48394 0
M  V30 11111 C 1013.96 3.87196 -3.68759 0
M  V30 11112 C 1015.26 2.00398 -4.82325 0
M  V30 11113 H 1016.95 0.887026 -2.85958 0
M  V30 11114 H 1014.5 0.42525 -1.37578 0
M  V30 11115 H 1016.45 3.31082 -2.60696 0
M  V30 11116 H 1015.18 2.94084 -1.42064 0
M  V30 11117 H 1013.84 1.77615 -3.207 0
M  V30 11118 H 1013.48 4.21012 -2.75241 0
M  V30 11119 H 1013.18 3.82029 -4.46462 0
M  V30 11120 H 1014.71 4.62253 -3.98941 0
M  V30 11121 H 1016.12 2.6361 -5.091 0
M  V30 11122 H 1014.52 2.06214 -5.63556 0
M  V30 11123 H 1015.59 0.957562 -4.75351 0
M  V30 11124 N 1016.93 1.50896 0.454776 0
M  V30 11125 C 1018.16 1.66759 1.23313 0
M  V30 11126 C 1018.58 0.35722 1.84677 0
M  V30 11127 O 1017.94 -0.680771 1.68033 0
M  V30 11128 C 1017.99 2.77254 2.3057 0
M  V30 11129 O 1017.09 2.39642 3.35627 0
M  V30 11130 H 1016.43 0.556599 0.362068 0
M  V30 11131 H 1018.96 1.97365 0.539274 0
M  V30 11132 H 1018.97 3.0082 2.75629 0
M  V30 11133 H 1017.65 3.72349 1.85281 0
M  V30 11134 H 1016.23 2.26584 2.96165 0
M  V30 11135 N 1018.41 -0.709066 1.40748 0
M  V30 11136 C 1019.66 -1.47119 1.39585 0
M  V30 11137 C 1019.99 -1.942 0.000245323 0
M  V30 11138 O 1019.26 -1.68609 -0.969593 0
M  V30 11139 C 1019.55 -2.69266 2.39099 0
M  V30 11140 C 1019.4 -2.28037 3.8771 0
M  V30 11141 C 1020.72 -3.71438 2.36055 0
M  V30 11142 H 1017.84 -0.533632 0.508336 0
M  V30 11143 H 1020.48 -0.808718 1.7193 0
M  V30 11144 H 1018.63 -3.25788 2.11647 0
M  V30 11145 H 1020.3 -1.76946 4.26014 0
M  V30 11146 H 1018.55 -1.59966 4.03229 0
M  V30 11147 H 1019.22 -3.15621 4.52866 0
M  V30 11148 H 1021.69 -3.24559 2.60385 0
M  V30 11149 H 1020.57 -4.54532 3.07721 0
M  V30 11150 H 1020.83 -4.20193 1.37443 0
M  V30 11151 N 1019.89 -1.26353 -0.941956 0
M  V30 11152 C 1021.11 -1.14731 -1.72776 0
M  V30 11153 C 1021.54 0.293766 -1.85792 0
M  V30 11154 O 1020.9 1.21284 -1.34759 0
M  V30 11155 C 1020.95 -1.82041 -3.11277 0
M  V30 11156 O 1020.05 -1.10867 -3.97218 0
M  V30 11157 H 1019.39 -0.399823 -0.53013 0
M  V30 11158 H 1021.92 -1.67157 -1.17981 0
M  V30 11159 H 1021.93 -1.88834 -3.61671 0
M  V30 11160 H 1020.61 -2.86879 -3.0112 0
M  V30 11161 H 1019.18 -1.12044 -3.55669 0
M  V30 11162 N 1021.37 1.14642 -1.08144 0
M  V30 11163 C 1022.78 1.37604 -0.808537 0
M  V30 11164 C 1022.98 1.92868 0.583452 0
M  V30 11165 O 1022.04 2.13964 1.34073 0
M  V30 11166 C 1023.35 2.3396 -1.889 0
M  V30 11167 C 1024.9 2.47605 -1.9147 0
M  V30 11168 C 1025.38 3.47258 -2.98623 0
M  V30 11169 N 1026.87 3.548 -2.97777 0
M  V30 11170 C 1027.6 4.31751 -3.77331 0
M  V30 11171 N 1027.1 5.11966 -4.66757 0
M  V30 11172 N 1028.89 4.2692 -3.65645 0
M  V30 11173 H 1021.04 0.771154 -1.97906 0
M  V30 11174 H 1023.3 0.401694 -0.858688 0
M  V30 11175 H 1023.01 2.00484 -2.88962 0
M  V30 11176 H 1022.88 3.33833 -1.756 0
M  V30 11177 H 1025.27 2.80375 -0.920548 0
M  V30 11178 H 1025.35 1.47702 -2.08848 0
M  V30 11179 H 1025 3.15223 -3.98243 0
M  V30 11180 H 1024.93 4.46935 -2.7849 0
M  V30 11181 H 1027.42 2.97553 -2.3296 0
M  V30 11182 H 1027.73 5.67951 -5.24072 0
M  V30 11183 H 1026.08 5.11245 -4.70801 0
M  V30 11184 H 1029.27 3.63322 -2.95152 0
M  V30 11185 H 1029.44 4.8664 -4.27885 0
M  V30 11186 N 1022.85 0.866709 1.31628 0
M  V30 11187 C 1023.78 0.277328 2.27516 0
M  V30 11188 C 1024.79 -0.557786 1.52946 0
M  V30 11189 O 1025.98 -0.38031 1.74402 0
M  V30 11190 C 1023.08 -0.625742 3.33073 0
M  V30 11191 C 1022.25 0.176204 4.37045 0
M  V30 11192 C 1021.31 -0.654497 5.22114 0
M  V30 11193 O 1020.34 -0.0836961 5.69138 0
M  V30 11194 N 1021.54 -1.96708 5.46156 0
M  V30 11195 H 1024.3 1.10133 2.78731 0
M  V30 11196 H 1021.87 0.72787 1.44616 0
M  V30 11197 H 1023.86 -1.18709 3.86898 0
M  V30 11198 H 1022.43 -1.35042 2.81926 0
M  V30 11199 H 1021.65 0.918999 3.83338 0
M  V30 11200 H 1022.94 0.726594 5.03585 0
M  V30 11201 H 1022.33 -2.454 5.09701 0
M  V30 11202 H 1020.89 -2.47629 6.02929 0
M  V30 11203 N 1024.32 -1.44642 0.625825 0
M  V30 11204 C 1025.23 -2.34451 -0.0836134 0
M  V30 11205 C 1026.25 -1.5231 -0.841289 0
M  V30 11206 O 1027.43 -1.85056 -0.794754 0
M  V30 11207 C 1024.49 -3.30211 -1.05648 0
M  V30 11208 C 1023.55 -4.28259 -0.298759 0
M  V30 11209 C 1022.78 -5.19444 -1.22528 0
M  V30 11210 O 1023.01 -5.14444 -2.46382 0
M  V30 11211 O 1021.94 -5.97668 -0.71247 0
M  V30 11212 H 1025.77 -2.96555 0.654912 0
M  V30 11213 H 1023.35 -1.44327 0.386029 0
M  V30 11214 H 1025.23 -3.8917 -1.61632 0
M  V30 11215 H 1023.91 -2.70648 -1.77571 0
M  V30 11216 H 1022.82 -3.72863 0.304001 0
M  V30 11217 H 1024.15 -4.90728 0.380345 0
M  V30 11218 N 1025.8 -0.366053 -1.5329 0
M  V30 11219 C 1027.05 0.223051 -2.00865 0
M  V30 11220 C 1027.37 1.49244 -1.25504 0
M  V30 11221 O 1026.64 1.92404 -0.368444 0
M  V30 11222 H 1025.22 0.085413 -0.742101 0
M  V30 11223 H 1027.88 -0.492396 -1.88578 0
M  V30 11224 H 1026.98 0.449701 -3.08843 0
M  V30 11225 N 1027.28 1.57312 -0.0952337 0
M  V30 11226 C 1028.23 2.14032 0.863657 0
M  V30 11227 C 1029.2 1.0589 1.27971 0
M  V30 11228 O 1030.38 1.33678 1.36143 0
M  V30 11229 C 1027.52 2.72513 2.11733 0
M  V30 11230 C 1026.63 3.94887 1.7518 0
M  V30 11231 C 1025.77 4.41533 2.95334 0
M  V30 11232 C 1024.81 5.56496 2.54908 0
M  V30 11233 N 1023.95 5.97993 3.67897 0
M  V30 11234 H 1028.79 2.95655 0.373115 0
M  V30 11235 H 1026.32 1.46085 0.172497 0
M  V30 11236 H 1028.28 3.04539 2.85153 0
M  V30 11237 H 1026.91 1.93618 2.58287 0
M  V30 11238 H 1025.96 3.69175 0.917279 0
M  V30 11239 H 1027.27 4.78322 1.41455 0
M  V30 11240 H 1026.43 4.75343 3.77007 0
M  V30 11241 H 1025.17 3.56999 3.3227 0
M  V30 11242 H 1024.17 5.22314 1.71662 0
M  V30 11243 H 1025.4 6.42779 2.19117 0
M  V30 11244 H 1023.34 5.16405 4.04551 0
M  V30 11245 H 1023.26 6.76225 3.38018 0
M  V30 11246 H 1024.53 6.36434 4.5008 0
M  V30 11247 N 1028.76 -0.17846 1.56586 0
M  V30 11248 C 1029.99 -0.911996 1.85715 0
M  V30 11249 C 1030.4 -1.76138 0.679766 0
M  V30 11250 O 1029.76 -1.79088 -0.351266 0
M  V30 11251 C 1029.81 -1.79459 3.1381 0
M  V30 11252 O 1029.53 -0.979476 4.2701 0
M  V30 11253 C 1031.03 -2.6384 3.56235 0
M  V30 11254 H 1028.25 -0.265299 0.616326 0
M  V30 11255 H 1030.79 -0.180704 2.037 0
M  V30 11256 H 1028.95 -2.4793 2.97673 0
M  V30 11257 H 1029.36 -1.58244 5.00059 0
M  V30 11258 H 1030.84 -3.21396 4.48786 0
M  V30 11259 H 1031.31 -3.38363 2.80013 0
M  V30 11260 H 1031.92 -2.00712 3.7496 0
M  V30 11261 N 1030.24 -1.51135 -0.446768 0
M  V30 11262 C 1031.18 -1.71767 -1.54158 0
M  V30 11263 C 1032.15 -0.559201 -1.56404 0
M  V30 11264 O 1033.34 -0.792567 -1.7356 0
M  V30 11265 C 1030.48 -1.84006 -2.91952 0
M  V30 11266 C 1029.59 -3.11511 -2.99308 0
M  V30 11267 C 1028.73 -3.144 -4.28166 0
M  V30 11268 C 1027.76 -4.36258 -4.29355 0
M  V30 11269 N 1026.9 -4.3675 -5.49722 0
M  V30 11270 H 1031.74 -2.65224 -1.35869 0
M  V30 11271 H 1029.28 -1.31453 -0.660186 0
M  V30 11272 H 1031.24 -1.89083 -3.71892 0
M  V30 11273 H 1029.87 -0.939661 -3.08821 0
M  V30 11274 H 1028.92 -3.15788 -2.12089 0
M  V30 11275 H 1030.23 -4.01445 -2.96047 0
M  V30 11276 H 1029.38 -3.18341 -5.16473 0
M  V30 11277 H 1028.12 -2.22338 -4.3407 0
M  V30 11278 H 1027.13 -4.32503 -3.39442 0
M  V30 11279 H 1028.35 -5.29574 -4.25122 0
M  V30 11280 H 1026.3 -3.47554 -5.56365 0
M  V30 11281 H 1026.22 -5.20481 -5.48302 0
M  V30 11282 H 1027.48 -4.4487 -6.40086 0
M  V30 11283 N 1031.71 0.701592 -1.41122 0
M  V30 11284 C 1032.99 1.45569 -1.30648 0
M  V30 11285 C 1033.37 2.10988 0.068744 0
M  V30 11286 O 1032.72 2.01228 1.08257 0
M  V30 11287 C 1032.93 2.48003 -2.45551 0
M  V30 11288 C 1034.28 3.13431 -2.86437 0
M  V30 11289 O 1035.3 2.58327 -2.45247 0
M  V30 11290 O 1034.16 4.13221 -3.57646 0
M  V30 11291 H 1031.25 0.648 -0.513834 0
M  V30 11292 H 1033.8 0.73258 -1.53073 0
M  V30 11293 H 1032.57 1.98276 -3.37346 0
M  V30 11294 H 1032.19 3.27832 -2.24971 0
M  V30 11295 N 1033.19 1.2685 0.935242 0
M  V30 11296 C 1034.6 1.11569 1.49697 0
M  V30 11297 C 1034.95 -0.301952 1.93863 0
M  V30 11298 O 1034.08 -1.19408 1.80473 0
M  V30 11299 C 1034.67 2.01918 2.72056 0
M  V30 11300 C 1033.23 1.90765 3.24477 0
M  V30 11301 C 1032.38 1.94918 1.97237 0
M  V30 11302 H 1035.33 1.39853 0.750116 0
M  V30 11303 H 1035.35 1.57056 3.46574 0
M  V30 11304 H 1034.86 3.05088 2.39881 0
M  V30 11305 H 1032.96 0.905521 3.61429 0
M  V30 11306 H 1033.08 2.76611 3.91182 0
M  V30 11307 H 1031.44 1.39046 2.13397 0
M  V30 11308 H 1032.22 2.99729 1.67385 0
M  V30 11309 N 1034.67 -1.14067 1.0875 0
M  V30 11310 C 1035.9 -1.88767 0.839682 0
M  V30 11311 C 1036.31 -1.79024 -0.612119 0
M  V30 11312 O 1035.65 -1.14986 -1.43262 0
M  V30 11313 C 1035.71 -3.39333 1.18716 0
M  V30 11314 C 1035.38 -3.72858 2.64245 0
M  V30 11315 C 1036.37 -3.72683 3.62496 0
M  V30 11316 C 1034.06 -4.0273 3.0019 0
M  V30 11317 C 1036.05 -4.01909 4.9472 0
M  V30 11318 C 1033.74 -4.31618 4.32607 0
M  V30 11319 C 1034.74 -4.31192 5.29682 0
M  V30 11320 O 1034.43 -4.59377 6.59718 0
M  V30 11321 H 1034.16 -0.604665 0.302253 0
M  V30 11322 H 1036.71 -1.45364 1.45115 0
M  V30 11323 H 1034.94 -3.83205 0.518707 0
M  V30 11324 H 1036.63 -3.95346 0.919599 0
M  V30 11325 H 1037.4 -3.49688 3.3607 0
M  V30 11326 H 1033.28 -4.02213 2.25268 0
M  V30 11327 H 1036.82 -4.01491 5.70483 0
M  V30 11328 H 1032.72 -4.54083 4.58779 0
M  V30 11329 H 1033.49 -4.77078 6.65086 0
M  V30 11330 N 1036.15 -0.873678 -1.31166 0
M  V30 11331 C 1037.37 -0.500242 -2.01277 0
M  V30 11332 C 1037.8 0.900811 -1.65127 0
M  V30 11333 O 1037.16 1.59504 -0.861862 0
M  V30 11334 C 1037.2 -0.668976 -3.5434 0
M  V30 11335 O 1036.31 0.290096 -4.11378 0
M  V30 11336 H 1035.65 -0.198507 -0.633633 0
M  V30 11337 H 1038.18 -1.17811 -1.67277 0
M  V30 11338 H 1038.19 -0.563673 -4.04088 0
M  V30 11339 H 1036.86 -1.69055 -3.79991 0
M  V30 11340 H 1035.44 0.139437 -3.72639 0
M  V30 11341 N 1037.63 1.44308 -0.633487 0
M  V30 11342 C 1039.04 1.85387 -0.221009 0
M  V30 11343 C 1039.39 1.5301 1.22811 0
M  V30 11344 O 1038.51 0.969325 1.93476 0
M  V30 11345 C 1039.11 3.36497 -0.394331 0
M  V30 11346 C 1037.67 3.76382 -0.0363405 0
M  V30 11347 C 1036.81 2.68146 -0.706598 0
M  V30 11348 H 1039.77 1.34741 -0.83849 0
M  V30 11349 H 1039.79 3.78735 0.366026 0
M  V30 11350 H 1039.3 3.60031 -1.44911 0
M  V30 11351 H 1037.4 3.58463 1.01661 0
M  V30 11352 H 1037.51 4.77 -0.448045 0
M  V30 11353 H 1035.88 2.54306 -0.14168 0
M  V30 11354 H 1036.66 2.94512 -1.76401 0
M  V30 11355 N 1039.1 0.374177 1.53094 0
M  V30 11356 C 1040.35 -0.213131 2.01677 0
M  V30 11357 C 1040.68 -1.47715 1.26071 0
M  V30 11358 O 1039.96 -1.91199 0.356834 0
M  V30 11359 C 1040.24 -0.496392 3.56662 0
M  V30 11360 C 1040.09 0.781859 4.42953 0
M  V30 11361 C 1041.41 -1.29339 4.20666 0
M  V30 11362 H 1038.53 -0.0759885 0.733072 0
M  V30 11363 H 1041.17 0.500765 1.83282 0
M  V30 11364 H 1039.32 -1.10455 3.72467 0
M  V30 11365 H 1041 1.41914 4.38928 0
M  V30 11366 H 1039.24 1.40041 4.10574 0
M  V30 11367 H 1039.91 0.538508 5.49367 0
M  V30 11368 H 1042.39 -0.778848 4.08746 0
M  V30 11369 H 1041.26 -1.46033 5.29118 0
M  V30 11370 H 1041.52 -2.30435 3.77296 0
M  V30 11371 N 1040.58 -1.57259 0.103575 0
M  V30 11372 C 1041.51 -2.17509 -0.84923 0
M  V30 11373 C 1042.49 -1.11079 -1.28824 0
M  V30 11374 O 1043.68 -1.39252 -1.35361 0
M  V30 11375 C 1040.81 -2.76221 -2.10522 0
M  V30 11376 C 1039.76 -3.88098 -1.80454 0
M  V30 11377 C 1039.09 -4.33549 -3.12952 0
M  V30 11378 C 1040.39 -5.10909 -1.08486 0
M  V30 11379 H 1042.08 -2.9738 -0.347217 0
M  V30 11380 H 1039.63 -1.43045 -0.165568 0
M  V30 11381 H 1041.58 -3.17024 -2.77621 0
M  V30 11382 H 1040.31 -1.93617 -2.63021 0
M  V30 11383 H 1038.96 -3.47847 -1.15749 0
M  V30 11384 H 1038.61 -3.47825 -3.63355 0
M  V30 11385 H 1038.31 -5.08984 -2.93614 0
M  V30 11386 H 1039.84 -4.76992 -3.81196 0
M  V30 11387 H 1041.25 -5.48828 -1.65711 0
M  V30 11388 H 1039.65 -5.91828 -0.992973 0
M  V30 11389 H 1040.72 -4.84851 -0.0690108 0
M  V30 11390 N 1042.06 0.170153 -1.56679 0
M  V30 11391 C 1043.31 0.884902 -1.81252 0
M  V30 11392 C 1043.62 1.83361 -0.681024 0
M  V30 11393 O 1044.83 2.59082 -0.811722 0
M  V30 11394 C 1043.28 1.62408 -3.21172 0
M  V30 11395 C 1042.89 0.718947 -4.42194 0
M  V30 11396 C 1044.64 2.32699 -3.55037 0
M  V30 11397 C 1042.54 1.45843 -5.73135 0
M  V30 11398 H 1041.47 0.33418 -0.675899 0
M  V30 11399 H 1044.12 0.137818 -1.82982 0
M  V30 11400 H 1042.51 2.41596 -3.13763 0
M  V30 11401 H 1043.68 -0.0360521 -4.60786 0
M  V30 11402 H 1042 0.125634 -4.1621 0
M  V30 11403 H 1044.59 2.88621 -4.50114 0
M  V30 11404 H 1044.94 3.08092 -2.79974 0
M  V30 11405 H 1045.47 1.60453 -3.64005 0
M  V30 11406 H 1042.21 0.746799 -6.51232 0
M  V30 11407 H 1041.73 2.18672 -5.58518 0
M  V30 11408 H 1043.41 2.0056 -6.1513 0
M  V30 11409 N 1043.54 1.5137 0.438746 0
M  V30 11410 C 1044.47 1.75528 1.53987 0
M  V30 11411 C 1045.45 0.605067 1.58975 0
M  V30 11412 O 1046.63 0.847634 1.74725 0
M  V30 11413 C 1043.76 1.87904 2.92078 0
M  V30 11414 C 1042.72 3.0333 3.01951 0
M  V30 11415 C 1042.04 3.00888 4.42007 0
M  V30 11416 C 1043.34 4.43319 2.76163 0
M  V30 11417 H 1045.04 2.67728 1.34022 0
M  V30 11418 H 1042.58 1.28831 0.643308 0
M  V30 11419 H 1044.54 2.03388 3.69068 0
M  V30 11420 H 1043.26 0.923514 3.13271 0
M  V30 11421 H 1041.92 2.87549 2.274 0
M  V30 11422 H 1041.57 2.03116 4.60166 0
M  V30 11423 H 1041.27 3.78397 4.49544 0
M  V30 11424 H 1042.79 3.18464 5.20973 0
M  V30 11425 H 1044.21 4.59458 3.42887 0
M  V30 11426 H 1042.6 5.22523 2.9511 0
M  V30 11427 H 1043.67 4.53453 1.71779 0
M  V30 11428 N 1045.02 -0.694098 1.41492 0
M  V30 11429 C 1045.95 -1.81841 1.37873 0
M  V30 11430 C 1046.93 -1.60732 0.245772 0
M  V30 11431 O 1048.11 -1.83461 0.432917 0
M  V30 11432 C 1045.24 -3.18543 1.15099 0
M  V30 11433 C 1044.28 -3.5844 2.31133 0
M  V30 11434 S 1045.12 -3.63079 3.93617 0
M  V30 11435 C 1046.27 -5.02505 3.73148 0
M  V30 11436 H 1046.51 -1.84634 2.33018 0
M  V30 11437 H 1044.04 -0.862948 1.28033 0
M  V30 11438 H 1046 -3.9746 1.02646 0
M  V30 11439 H 1044.66 -3.13358 0.21572 0
M  V30 11440 H 1043.85 -4.57754 2.10896 0
M  V30 11441 H 1043.45 -2.86837 2.40002 0
M  V30 11442 H 1045.75 -5.90046 3.32945 0
M  V30 11443 H 1046.69 -5.27784 4.72069 0
M  V30 11444 H 1047.1 -4.74113 3.06394 0
M  V30 11445 O 1046.53 -1.38164 -0.836233 0
M  V30 11446 H 1047.22 -1.25159 -1.47834 0
M  V30 END ATOM
M  V30 BEGIN BOND
M  V30 END BOND
M  V30 END CTAB
M  END
$$$$
