drugbank_target|Q6PIU1 Potassium voltage-gated channel subfamily V member 1 (DB00228; DB01069; DB01110)
 OpenBabel12092121213D

  0  0  0     0  0            999 V3000
M  V30 BEGIN CTAB
M  V30 COUNTS 7940 8019 0 0 0
M  V30 BEGIN ATOM
M  V30 1 H -0.908 1.98254 -0.117106 0
M  V30 2 N 0 1.576 0 0
M  V30 3 C 0.933 2.03868 1.02534 0
M  V30 4 C 1.911 0.928543 1.3348 0
M  V30 5 O 3.095 1.19667 1.45644 0
M  V30 6 C 0.222 2.43627 2.35294 0
M  V30 7 C -0.732 3.65373 2.2001 0
M  V30 8 S 0.101 5.13292 1.52614 0
M  V30 9 C 1.257 5.56322 2.86805 0
M  V30 10 H 1.49 2.90518 0.631377 0
M  V30 11 H -0.977 1.52953 0.210867 0
M  V30 12 H 0.981 2.67203 3.11629 0
M  V30 13 H -0.358 1.57376 2.7183 0
M  V30 14 H -1.165 3.90944 3.18086 0
M  V30 15 H -1.563 3.418 1.51819 0
M  V30 16 H 0.729 5.58782 3.83104 0
M  V30 17 H 1.672 6.56266 2.65933 0
M  V30 18 H 2.08 4.83886 2.90714 0
M  V30 19 N 1.4781 -0.272755 1.55222 0
M  V30 20 C 2.8891 -0.84378 1.66545 0
M  V30 21 C 3.2401 -1.87035 0.592641 0
M  V30 22 O 2.3651 -2.14761 -0.265818 0
M  V30 23 C 2.9601 -1.53723 3.01918 0
M  V30 24 C 1.5191 -2.05628 3.15268 0
M  V30 25 C 0.6661 -0.898424 2.62343 0
M  V30 26 H 3.6171 -0.0490998 1.58624 0
M  V30 27 H 3.6381 -2.40421 2.94921 0
M  V30 28 H 3.1501 -0.78983 3.79978 0
M  V30 29 H 1.2511 -2.83329 2.41983 0
M  V30 30 H 1.3641 -2.27142 4.21833 0
M  V30 31 H -0.2719 -1.29186 2.19506 0
M  V30 32 H 0.5111 -0.164528 3.42906 0
M  V30 33 N 2.9562 -1.48159 -0.537278 0
M  V30 34 C 4.1812 -1.59707 -1.32319 0
M  V30 35 C 4.6062 -0.254859 -1.86365 0
M  V30 36 O 3.9642 0.772378 -1.64024 0
M  V30 37 C 4.0122 -2.6412 -2.45505 0
M  V30 38 O 3.1162 -2.20774 -3.48328 0
M  V30 39 H 2.4572 -0.535791 -0.392204 0
M  V30 40 H 4.9872 -1.94092 -0.647268 0
M  V30 41 H 4.9972 -2.85166 -2.91795 0
M  V30 42 H 3.6722 -3.61567 -2.05528 0
M  V30 43 H 2.2492 -2.09911 -3.08207 0
M  V30 44 N 4.4343 0.785586 -1.36625 0
M  V30 45 C 5.6593 1.57963 -1.34397 0
M  V30 46 C 6.0843 1.87964 0.071526 0
M  V30 47 O 5.4423 1.48182 1.0446 0
M  V30 48 C 5.4903 2.87511 -2.17646 0
M  V30 49 O 4.5943 3.81281 -1.57158 0
M  V30 50 H 3.9353 0.479014 -0.459828 0
M  V30 51 H 6.4653 0.973411 -1.79961 0
M  V30 52 H 6.4753 3.36745 -2.30362 0
M  V30 53 H 5.1503 2.65002 -3.20541 0
M  V30 54 H 3.7273 3.39885 -1.53403 0
M  V30 55 N 5.9124 1.20967 1.01018 0
M  V30 56 C 7.1604 1.02172 1.74371 0
M  V30 57 C 7.4814 -0.446414 1.89821 0
M  V30 58 O 6.7514 -1.32234 1.44537 0
M  V30 59 H 5.3314 0.375066 0.646014 0
M  V30 60 H 7.9934 1.52187 1.21758 0
M  V30 61 H 7.0894 1.48538 2.74487 0
M  V30 62 N 7.3905 -1.2043 1.01659 0
M  V30 63 C 8.8065 -1.41852 0.731442 0
M  V30 64 C 9.0065 -1.89358 -0.688898 0
M  V30 65 O 8.0625 -2.06247 -1.45666 0
M  V30 66 C 9.3755 -2.44019 1.75714 0
M  V30 67 C 10.9235 -2.57785 1.77527 0
M  V30 68 C 11.3985 -3.63194 2.79023 0
M  V30 69 N 12.8895 -3.70678 2.77763 0
M  V30 70 C 13.6245 -4.51897 3.52954 0
M  V30 71 N 13.1205 -5.36921 4.37821 0
M  V30 72 N 14.9135 -4.4643 3.41551 0
M  V30 73 H 7.0645 -0.879093 1.93354 0
M  V30 74 H 9.3275 -0.448425 0.835236 0
M  V30 75 H 9.0335 -2.1611 2.77469 0
M  V30 76 H 8.9075 -3.43007 1.56927 0
M  V30 77 H 11.2945 -2.85023 0.764569 0
M  V30 78 H 11.3755 -1.58992 2.00387 0
M  V30 79 H 11.0195 -3.36699 3.80258 0
M  V30 80 H 10.9495 -4.61609 2.53425 0
M  V30 81 H 13.4405 -3.09944 2.16201 0
M  V30 82 H 13.7535 -5.95981 4.91962 0
M  V30 83 H 12.0985 -5.36424 4.41899 0
M  V30 84 H 15.2895 -3.79042 2.74672 0
M  V30 85 H 15.4625 -5.09491 4.00404 0
M  V30 86 N 8.8686 -0.792821 -1.36206 0
M  V30 87 C 9.8316 -0.199459 -2.2833 0
M  V30 88 C 10.8316 0.605189 -1.48977 0
M  V30 89 O 12.0216 0.425685 -1.68919 0
M  V30 90 C 9.1536 0.723523 -3.33134 0
M  V30 91 H 10.3466 -1.01181 -2.82316 0
M  V30 92 H 7.8996 -0.562485 -1.45828 0
M  V30 93 H 8.6346 1.56008 -2.84309 0
M  V30 94 H 8.4196 0.148436 -3.91819 0
M  V30 95 H 9.9096 1.13344 -4.01924 0
M  V30 96 N 10.3467 1.47872 -0.545128 0
M  V30 97 C 11.2767 2.32661 0.197793 0
M  V30 98 C 12.2577 1.43041 0.920504 0
M  V30 99 O 13.4427 1.71912 0.90333 0
M  V30 100 C 10.5727 3.24569 1.23582 0
M  V30 101 C 9.5267 4.23333 0.630323 0
M  V30 102 C 8.8527 5.0448 1.77211 0
M  V30 103 C 10.1527 5.20704 -0.407974 0
M  V30 104 H 11.8467 2.95024 -0.510045 0
M  V30 105 H 9.3927 1.4187 -0.246731 0
M  V30 106 H 11.3457 3.8272 1.76362 0
M  V30 107 H 10.0697 2.60236 1.97344 0
M  V30 108 H 8.7287 3.6639 0.123922 0
M  V30 109 H 8.3767 4.36561 2.49847 0
M  V30 110 H 8.0767 5.71339 1.37281 0
M  V30 111 H 9.6007 5.65487 2.3034 0
M  V30 112 H 11.0147 5.7329 0.033305 0
M  V30 113 H 9.4117 5.95699 -0.725486 0
M  V30 114 H 10.4817 4.66917 -1.30828 0
M  V30 115 N 11.8248 0.280983 1.55075 0
M  V30 116 C 12.7548 -0.597469 2.25727 0
M  V30 117 C 13.7358 -1.15417 1.24952 0
M  V30 118 O 14.9208 -1.18722 1.53684 0
M  V30 119 C 12.0508 -1.7789 2.98283 0
M  V30 120 C 11.0048 -1.35347 4.06036 0
M  V30 121 C 10.3308 -2.61846 4.66198 0
M  V30 122 C 11.6308 -0.499354 5.19907 0
M  V30 123 H 13.3248 -0.00824265 2.99399 0
M  V30 124 H 10.8708 -0.0025244 1.44 0
M  V30 125 H 12.8238 -2.39937 3.46422 0
M  V30 126 H 11.5478 -2.39405 2.22155 0
M  V30 127 H 10.2068 -0.756156 3.58717 0
M  V30 128 H 9.8548 -3.21632 3.86732 0
M  V30 129 H 9.5548 -2.3409 5.38958 0
M  V30 130 H 11.0788 -3.24732 5.1709 0
M  V30 131 H 12.4928 -1.02498 5.64063 0
M  V30 132 H 10.8898 -0.316424 5.99265 0
M  V30 133 H 11.9598 0.480459 4.82514 0
M  V30 134 N 13.3029 -1.57598 0.00835791 0
M  V30 135 C 14.5799 -1.82172 -0.712235 0
M  V30 136 C 14.9599 -0.887873 -1.9152 0
M  V30 137 O 14.3079 0.06146 -2.28417 0
M  V30 138 C 14.5179 -3.30875 -1.11008 0
M  V30 139 C 15.8659 -3.96826 -1.51044 0
M  V30 140 O 16.8899 -3.35248 -1.20364 0
M  V30 141 O 15.7489 -5.05318 -2.08125 0
M  V30 142 H 12.8429 -0.750435 -0.347529 0
M  V30 143 H 15.3889 -1.69665 0.0344523 0
M  V30 144 H 14.1609 -3.90481 -0.252982 0
M  V30 145 H 13.7839 -3.48412 -1.9156 0
M  V30 146 N 14.781 0.264519 -1.55364 0
M  V30 147 C 16.006 1.01726 -1.80739 0
M  V30 148 C 16.431 1.78836 -0.583044 0
M  V30 149 O 15.789 1.75167 0.467566 0
M  V30 150 C 15.837 1.94482 -3.03659 0
M  V30 151 O 14.941 3.03386 -2.7934 0
M  V30 152 H 14.282 0.290395 -0.597132 0
M  V30 153 H 16.812 0.290854 -2.02522 0
M  V30 154 H 16.822 2.36278 -3.32621 0
M  V30 155 H 15.497 1.37772 -3.92418 0
M  V30 156 H 14.074 2.65844 -2.61498 0
M  V30 157 N 16.2591 1.48442 0.529413 0
M  V30 158 C 17.6701 1.5002 1.11134 0
M  V30 159 C 18.0211 0.27031 1.94329 0
M  V30 160 O 17.1461 -0.622507 2.07253 0
M  V30 161 C 17.7411 2.71834 2.02217 0
M  V30 162 C 16.3001 2.76283 2.55627 0
M  V30 163 C 15.4471 2.43542 1.326 0
M  V30 164 H 18.3981 1.5555 0.314641 0
M  V30 165 H 18.4191 2.50384 2.8651 0
M  V30 166 H 17.9311 3.61331 1.41639 0
M  V30 167 H 16.0321 1.90995 3.19924 0
M  V30 168 H 16.1451 3.77725 2.94721 0
M  V30 169 H 14.5091 1.94709 1.64196 0
M  V30 170 H 15.2921 3.3528 0.737734 0
M  V30 171 N 17.7372 -0.778329 1.37039 0
M  V30 172 C 18.6672 -1.90546 1.34962 0
M  V30 173 C 19.6482 -1.68681 0.219274 0
M  V30 174 O 20.8332 -1.89634 0.418624 0
M  V30 175 C 17.9632 -3.27734 1.14925 0
M  V30 176 C 16.9172 -3.64147 2.24902 0
M  V30 177 C 16.2432 -4.99806 1.89996 0
M  V30 178 C 17.5432 -3.71579 3.67051 0
M  V30 179 H 19.2372 -1.92541 2.29277 0
M  V30 180 H 16.7832 -0.924948 1.10366 0
M  V30 181 H 18.7362 -4.06215 1.12104 0
M  V30 182 H 17.4602 -3.26154 0.170631 0
M  V30 183 H 16.1192 -2.8797 2.26868 0
M  V30 184 H 15.7672 -4.94759 0.906796 0
M  V30 185 H 15.4672 -5.25139 2.63634 0
M  V30 186 H 16.9912 -5.80694 1.88749 0
M  V30 187 H 18.4052 -4.40227 3.67251 0
M  V30 188 H 16.8022 -4.08405 4.39688 0
M  V30 189 H 17.8722 -2.72404 4.01154 0
M  V30 190 N 19.2153 -1.21501 -1.00376 0
M  V30 191 C 20.4923 -0.941745 -1.71437 0
M  V30 192 C 20.8723 0.546114 -2.03914 0
M  V30 193 O 20.2203 1.51128 -1.71384 0
M  V30 194 C 20.4303 -1.82812 -2.97289 0
M  V30 195 C 21.7783 -2.07771 -3.70292 0
M  V30 196 O 22.8023 -1.80171 -3.07273 0
M  V30 197 O 21.6613 -2.54456 -4.83647 0
M  V30 198 H 18.7553 -0.353243 -0.747762 0
M  V30 199 H 21.3013 -1.32436 -1.06108 0
M  V30 200 H 20.0733 -2.83501 -2.69709 0
M  V30 201 H 19.6963 -1.4464 -3.70358 0
M  V30 202 N 20.6934 1.19889 -1.02296 0
M  V30 203 C 21.9184 1.9393 -0.735237 0
M  V30 204 C 22.3434 1.74639 0.698782 0
M  V30 205 O 21.7014 1.04481 1.48167 0
M  V30 206 C 21.7494 3.43916 -1.08417 0
M  V30 207 O 20.8534 4.11917 -0.199446 0
M  V30 208 H 20.1944 0.605645 -0.272196 0
M  V30 209 H 22.7244 1.52137 -1.36804 0
M  V30 210 H 22.7344 3.9456 -1.03856 0
M  V30 211 H 21.4094 3.5728 -2.12894 0
M  V30 212 H 19.9864 3.71666 -0.303136 0
M  V30 213 N 22.1715 0.800033 1.35784 0
M  V30 214 C 23.4195 0.376597 1.9856 0
M  V30 215 C 23.7405 -1.05812 1.63795 0
M  V30 216 O 23.0105 -1.73103 0.917171 0
M  V30 217 H 21.5905 0.136261 0.734467 0
M  V30 218 H 24.2525 1.02442 1.65806 0
M  V30 219 H 23.3485 0.477002 3.08433 0
M  V30 220 N 23.6496 -1.47581 0.552962 0
M  V30 221 C 24.8746 -2.07378 0.0300593 0
M  V30 222 C 25.2996 -1.40355 -1.25229 0
M  V30 223 O 24.6576 -0.477099 -1.7491 0
M  V30 224 C 24.7056 -3.60274 -0.153231 0
M  V30 225 O 23.8096 -3.94041 -1.21678 0
M  V30 226 H 23.1506 -0.662158 0.0494182 0
M  V30 227 H 25.6806 -1.89662 0.767434 0
M  V30 228 H 25.6906 -4.0633 -0.368761 0
M  V30 229 H 24.3656 -4.08455 0.783397 0
M  V30 230 H 22.9426 -3.59735 -0.982079 0
M  V30 231 N 25.1277 -0.289203 -1.54924 0
M  V30 232 C 26.0577 0.58549 -2.2604 0
M  V30 233 C 27.0387 1.14753 -1.25562 0
M  V30 234 O 28.2237 1.17906 -1.54311 0
M  V30 235 C 25.3537 1.76305 -2.99222 0
M  V30 236 C 24.3077 1.33191 -4.06748 0
M  V30 237 C 23.6337 2.5937 -4.6758 0
M  V30 238 C 24.9337 0.471775 -5.20165 0
M  V30 239 H 26.6277 -0.00763532 -2.99399 0
M  V30 240 H 24.1737 -0.00511229 -1.43999 0
M  V30 241 H 26.1267 2.38097 -3.47689 0
M  V30 242 H 24.8507 2.38223 -2.23422 0
M  V30 243 H 23.5097 0.737121 -3.59113 0
M  V30 244 H 23.1577 3.19576 -3.88433 0
M  V30 245 H 22.8577 2.31228 -5.40192 0
M  V30 246 H 24.3817 3.21985 -5.18804 0
M  V30 247 H 25.7957 0.995056 -5.64599 0
M  V30 248 H 24.1927 0.284639 -5.99425 0
M  V30 249 H 25.2627 -0.506041 -4.82252 0
M  V30 250 N 26.6058 1.57591 -0.0167156 0
M  V30 251 C 27.8338 1.95575 0.675128 0
M  V30 252 C 28.2488 0.892542 1.6637 0
M  V30 253 O 27.6058 -0.126912 1.82058 0
M  V30 254 C 27.6568 3.33608 1.39239 0
M  V30 255 O 27.3778 4.3585 0.443444 0
M  V30 256 C 28.8788 3.86151 2.17721 0
M  V30 257 H 26.0988 0.644423 0.186978 0
M  V30 258 H 28.6428 2.0437 -0.0728 0
M  V30 259 H 26.7978 3.2607 2.09182 0
M  V30 260 H 27.2118 5.158 0.951358 0
M  V30 261 H 28.6858 4.85114 2.63379 0
M  V30 262 H 29.1628 3.19738 3.01105 0
M  V30 263 H 29.7688 3.96918 1.52761 0
M  V30 264 N 28.0839 -0.256276 1.55502 0
M  V30 265 C 29.3089 -1.00766 1.81276 0
M  V30 266 C 29.7339 -1.78524 0.59252 0
M  V30 267 O 29.0919 -1.75413 -0.45827 0
M  V30 268 C 29.1399 -1.92869 3.04687 0
M  V30 269 O 28.2439 -3.019 2.80945 0
M  V30 270 H 27.5849 -0.287224 0.598664 0
M  V30 271 H 30.1149 -0.280109 2.02674 0
M  V30 272 H 30.1249 -2.34511 3.33869 0
M  V30 273 H 28.7999 -1.35689 3.93143 0
M  V30 274 H 27.3769 -2.64454 2.62904 0
M  V30 275 N 29.562 -1.4872 -0.521534 0
M  V30 276 C 30.492 -1.66771 -1.63431 0
M  V30 277 C 31.473 -0.516499 -1.62069 0
M  V30 278 O 32.658 -0.750013 -1.79132 0
M  V30 279 C 29.788 -1.71515 -3.01993 0
M  V30 280 C 28.742 -2.86222 -3.18216 0
M  V30 281 C 28.068 -2.76061 -4.57924 0
M  V30 282 C 29.368 -4.27419 -3.00184 0
M  V30 283 H 31.062 -2.59932 -1.48579 0
M  V30 284 H 28.608 -1.25089 -0.713358 0
M  V30 285 H 30.561 -1.82731 -3.7972 0
M  V30 286 H 29.285 -0.749393 -3.17886 0
M  V30 287 H 27.944 -2.74575 -2.42908 0
M  V30 288 H 27.592 -1.77437 -4.70665 0
M  V30 289 H 27.292 -3.53037 -4.69722 0
M  V30 290 H 28.816 -2.89256 -5.37739 0
M  V30 291 H 30.23 -4.39855 -3.67697 0
M  V30 292 H 28.627 -5.05458 -3.2347 0
M  V30 293 H 29.697 -4.43293 -1.96518 0
M  V30 294 N 31.0401 0.771051 -1.3745 0
M  V30 295 C 32.3171 1.519 -1.23231 0
M  V30 296 C 32.6971 2.10383 0.173809 0
M  V30 297 O 32.0451 1.95583 1.18151 0
M  V30 298 C 32.2551 2.59933 -2.32886 0
M  V30 299 C 33.6031 3.27316 -2.70461 0
M  V30 300 O 34.6271 2.70228 -2.32068 0
M  V30 301 O 33.4861 4.30531 -3.36608 0
M  V30 302 H 30.5801 0.672803 -0.480901 0
M  V30 303 H 33.1261 0.807957 -1.49232 0
M  V30 304 H 31.8981 2.14842 -3.27045 0
M  V30 305 H 31.5211 3.38637 -2.08353 0
M  V30 306 N 32.5182 1.22032 0.997298 0
M  V30 307 C 33.7432 1.06921 1.77715 0
M  V30 308 C 34.1682 -0.376226 1.84299 0
M  V30 309 O 33.5262 -1.27165 1.29223 0
M  V30 310 C 33.5742 1.67996 3.19076 0
M  V30 311 O 32.6782 0.930653 4.01762 0
M  V30 312 H 32.0192 0.375814 0.547412 0
M  V30 313 H 34.5492 1.61737 1.25309 0
M  V30 314 H 34.5592 1.72538 3.69723 0
M  V30 315 H 33.2342 2.73182 3.13599 0
M  V30 316 H 31.8112 0.960917 3.60307 0
M  V30 317 N 33.9963 -1.19345 1.0293 0
M  V30 318 C 35.2213 -1.93538 0.745511 0
M  V30 319 C 35.6463 -1.75007 -0.689511 0
M  V30 320 O 35.0043 -1.05265 -1.47611 0
M  V30 321 C 35.0523 -3.43336 1.10239 0
M  V30 322 O 34.1563 -4.11806 0.221289 0
M  V30 323 H 33.4973 -0.604193 0.275404 0
M  V30 324 H 36.0273 -1.5141 1.37609 0
M  V30 325 H 36.0373 -3.94004 1.05947 0
M  V30 326 H 34.7123 -3.56146 2.14786 0
M  V30 327 H 33.2893 -3.715 0.322842 0
M  V30 328 N 35.4744 -0.807222 -1.35358 0
M  V30 329 C 36.7204 -0.388463 -1.99045 0
M  V30 330 C 37.0534 1.04184 -1.63888 0
M  V30 331 O 36.3284 1.72292 -0.902535 0
M  V30 332 C 36.6114 -0.572783 -3.55515 0
M  V30 333 C 36.4644 -2.04807 -4.00468 0
M  V30 334 C 37.7834 0.00114064 -4.401 0
M  V30 335 H 34.9024 -0.142619 -0.723069 0
M  V30 336 H 37.5444 -1.01687 -1.60498 0
M  V30 337 H 35.6944 -0.0378425 -3.88482 0
M  V30 338 H 37.3664 -2.64544 -3.77908 0
M  V30 339 H 35.6094 -2.54427 -3.51353 0
M  V30 340 H 36.2804 -2.12792 -5.09337 0
M  V30 341 H 38.7564 -0.455716 -4.13597 0
M  V30 342 H 37.6324 -0.157737 -5.48673 0
M  V30 343 H 37.8934 1.09488 -4.28328 0
M  V30 344 N 36.9525 1.47285 -0.560781 0
M  V30 345 C 38.1995 2.02464 -0.038062 0
M  V30 346 C 38.5275 1.43474 1.31322 0
M  V30 347 O 37.7825 0.581311 1.86867 0
M  V30 348 C 38.0815 3.57258 0.100784 0
M  V30 349 C 37.7475 4.35184 -1.18007 0
M  V30 350 C 36.4095 4.56194 -1.53103 0
M  V30 351 C 38.7615 4.80098 -2.02867 0
M  V30 352 C 36.0895 5.19367 -2.729 0
M  V30 353 C 38.4415 5.44593 -3.21871 0
M  V30 354 C 37.1055 5.63835 -3.57276 0
M  V30 355 H 36.3755 0.740869 -0.0139279 0
M  V30 356 H 39.0225 1.76916 -0.733012 0
M  V30 357 H 37.3275 3.81819 0.878724 0
M  V30 358 H 39.0245 3.97606 0.520639 0
M  V30 359 H 35.6145 4.19113 -0.8968 0
M  V30 360 H 39.7985 4.63642 -1.7706 0
M  V30 361 H 35.0545 5.32459 -3.00496 0
M  V30 362 H 39.2285 5.78358 -3.87911 0
M  V30 363 H 36.8555 6.12557 -4.50197 0
M  V30 364 N 38.4306 0.297415 1.54768 0
M  V30 365 C 39.6706 -0.313829 2.01976 0
M  V30 366 C 40.0346 -1.51366 1.1812 0
M  V30 367 O 41.2356 -2.19603 1.5501 0
M  V30 368 C 39.5066 -0.664964 3.51159 0
M  V30 369 S 41.0656 -1.25958 4.20333 0
M  V30 370 H 37.8836 -0.0965014 0.704421 0
M  V30 371 H 40.4856 0.424451 1.90837 0
M  V30 372 H 39.1896 0.21681 4.09827 0
M  V30 373 H 38.7206 -1.43413 3.66328 0
M  V30 374 H 40.7356 -2.54751 4.25813 0
M  V30 375 N 39.9087 -1.5758 0.0250728 0
M  V30 376 C 41.1337 -1.96337 -0.668317 0
M  V30 377 C 41.5587 -0.901314 -1.651 0
M  V30 378 O 40.9167 0.138187 -1.80773 0
M  V30 379 C 40.9647 -3.34191 -1.35457 0
M  V30 380 O 40.0687 -3.30269 -2.46974 0
M  V30 381 H 39.4097 -0.640281 -0.175887 0
M  V30 382 H 41.9397 -2.0442 0.0857224 0
M  V30 383 H 41.9497 -3.70331 -1.71228 0
M  V30 384 H 40.6247 -4.11036 -0.634218 0
M  V30 385 H 39.2017 -3.05841 -2.13344 0
M  V30 386 N 41.3868 0.248026 -1.55636 0
M  V30 387 C 42.2968 1.32859 -1.93354 0
M  V30 388 C 43.3128 1.52719 -0.833838 0
M  V30 389 O 44.4888 1.66363 -1.13513 0
M  V30 390 C 41.5538 2.66337 -2.21958 0
M  V30 391 C 40.6148 2.55008 -3.45354 0
M  V30 392 C 39.8478 3.82121 -3.72584 0
M  V30 393 O 40.0708 4.83951 -3.01907 0
M  V30 394 O 39.0048 3.80822 -4.6611 0
M  V30 395 H 42.8308 1.03862 -2.85388 0
M  V30 396 H 40.4158 0.448686 -1.42503 0
M  V30 397 H 42.2978 3.45216 -2.4167 0
M  V30 398 H 40.9728 2.95068 -1.33103 0
M  V30 399 H 39.8798 1.7442 -3.30951 0
M  V30 400 H 41.2128 2.31222 -4.34508 0
M  V30 401 N 42.8649 1.48995 0.513639 0
M  V30 402 C 44.1129 1.57531 1.26604 0
M  V30 403 C 44.4339 0.258236 1.93283 0
M  V30 404 O 43.7039 -0.721502 1.8213 0
M  V30 405 H 42.2839 0.580387 0.470276 0
M  V30 406 H 44.9459 1.85552 0.596373 0
M  V30 407 H 44.0419 2.36486 2.03669 0
M  V30 408 N 44.343 -0.763751 1.37857 0
M  V30 409 C 45.253 -1.90817 1.36478 0
M  V30 410 C 46.269 -1.71997 0.263248 0
M  V30 411 O 47.445 -1.95095 0.499979 0
M  V30 412 C 44.51 -3.2605 1.17864 0
M  V30 413 C 43.571 -3.57467 2.3773 0
M  V30 414 C 42.804 -4.86249 2.19995 0
M  V30 415 O 43.027 -5.57884 1.18836 0
M  V30 416 O 41.961 -5.16911 3.08361 0
M  V30 417 H 45.787 -1.94933 2.32884 0
M  V30 418 H 43.372 -0.907619 1.1867 0
M  V30 419 H 45.254 -4.06924 1.09504 0
M  V30 420 H 43.929 -3.22769 0.245372 0
M  V30 421 H 42.836 -2.76796 2.51664 0
M  V30 422 H 44.169 -3.655 3.29652 0
M  V30 423 N 45.8211 -1.22559 -0.990812 0
M  V30 424 C 47.0691 -1.04933 -1.72724 0
M  V30 425 C 47.3901 0.416158 -1.90508 0
M  V30 426 O 46.6601 1.29918 -1.46622 0
M  V30 427 H 45.2401 -0.385296 -0.639965 0
M  V30 428 H 47.9021 -1.54105 -1.19322 0
M  V30 429 H 46.9981 -1.52886 -2.72089 0
M  V30 430 N 47.2992 1.18797 -1.03562 0
M  V30 431 C 48.2092 2.25913 -0.632505 0
M  V30 432 C 49.2252 1.70668 0.338882 0
M  V30 433 O 50.4012 2.00453 0.195076 0
M  V30 434 C 47.4662 3.467 0.00350942 0
M  V30 435 C 46.5272 4.17098 -1.01624 0
M  V30 436 C 45.7602 5.32119 -0.410478 0
M  V30 437 O 45.9832 5.64976 0.784725 0
M  V30 438 O 44.9172 5.9107 -1.13667 0
M  V30 439 H 48.7432 2.62648 -1.52478 0
M  V30 440 H 46.3282 1.25781 -0.806195 0
M  V30 441 H 48.2102 4.19878 0.35781 0
M  V30 442 H 46.8852 3.11798 0.869686 0
M  V30 443 H 45.7922 3.4601 -1.42224 0
M  V30 444 H 47.1252 4.55987 -1.85301 0
M  V30 445 N 48.7773 0.814389 1.34928 0
M  V30 446 C 50.1883 0.458364 1.80986 0
M  V30 447 C 50.5393 -1.02042 1.67577 0
M  V30 448 O 49.6643 -1.79352 1.21086 0
M  V30 449 C 50.2593 0.825212 3.28597 0
M  V30 450 C 48.8183 0.521677 3.72767 0
M  V30 451 C 47.9653 1.04668 2.56788 0
M  V30 452 H 50.9163 1.00533 1.22795 0
M  V30 453 H 50.9373 0.12571 3.80292 0
M  V30 454 H 50.4493 1.90154 3.38324 0
M  V30 455 H 48.5503 -0.545589 3.68584 0
M  V30 456 H 48.6633 1.05977 4.67232 0
M  V30 457 H 47.0273 0.468622 2.50352 0
M  V30 458 H 47.8103 2.12927 2.6929 0
M  V30 459 N 50.2554 -1.46986 0.568584 0
M  V30 460 C 51.1854 -2.32946 -0.160753 0
M  V30 461 C 52.1664 -1.44487 -0.897631 0
M  V30 462 O 53.3514 -1.73327 -0.875867 0
M  V30 463 C 50.4814 -3.26494 -1.18403 0
M  V30 464 C 49.4354 -4.24282 -0.562895 0
M  V30 465 C 48.7614 -5.07236 -1.69163 0
M  V30 466 C 50.0614 -5.19989 0.490761 0
M  V30 467 H 51.7554 -2.94175 0.556916 0
M  V30 468 H 49.3014 -1.4146 0.26927 0
M  V30 469 H 51.2544 -3.85477 -1.70251 0
M  V30 470 H 49.9784 -2.63343 -1.93179 0
M  V30 471 H 48.6374 -3.66541 -0.0656164 0
M  V30 472 H 48.2854 -4.4048 -2.42871 0
M  V30 473 H 47.9854 -5.7345 -1.28174 0
M  V30 474 H 49.5094 -5.6908 -2.21314 0
M  V30 475 H 50.9234 -5.73271 0.0579047 0
M  V30 476 H 49.3204 -5.94469 0.820165 0
M  V30 477 H 50.3904 -4.64777 1.3824 0
M  V30 478 N 51.7335 -0.305618 -1.54608 0
M  V30 479 C 52.6965 0.555591 -2.22364 0
M  V30 480 C 53.6965 1.05768 -1.21119 0
M  V30 481 O 54.8865 0.952972 -1.45822 0
M  V30 482 C 52.0185 1.76974 -2.91364 0
M  V30 483 H 53.2115 -0.0364572 -2.99878 0
M  V30 484 H 50.7645 -0.0565007 -1.56198 0
M  V30 485 H 51.4995 2.40151 -2.17941 0
M  V30 486 H 51.2845 1.41732 -3.65588 0
M  V30 487 H 52.7745 2.38148 -3.43038 0
M  V30 488 N 53.2116 1.57565 -0.0334293 0
M  V30 489 C 54.1416 2.13511 0.945265 0
M  V30 490 C 55.1226 1.05231 1.33643 0
M  V30 491 O 56.3076 1.33084 1.41429 0
M  V30 492 C 53.4376 2.6657 2.22616 0
M  V30 493 C 52.3916 3.79676 1.97561 0
M  V30 494 C 51.7176 4.1918 3.31952 0
M  V30 495 C 53.0176 5.0557 1.31135 0
M  V30 496 H 54.7116 2.95538 0.479325 0
M  V30 497 H 52.2576 1.42166 0.229115 0
M  V30 498 H 54.2106 3.04344 2.91466 0
M  V30 499 H 52.9346 1.8171 2.71384 0
M  V30 500 H 51.5936 3.42347 1.31127 0
M  V30 501 H 51.2416 3.31296 3.78487 0
M  V30 502 H 50.9416 4.95402 3.15992 0
M  V30 503 H 52.4656 4.59541 4.02063 0
M  V30 504 H 53.8796 5.40903 1.89992 0
M  V30 505 H 52.2766 5.86818 1.25559 0
M  V30 506 H 53.3466 4.84062 0.284894 0
M  V30 507 N 54.6897 -0.239769 1.55765 0
M  V30 508 C 55.9377 -0.964892 1.77579 0
M  V30 509 C 56.2587 -1.85582 0.598699 0
M  V30 510 O 55.5287 -1.92075 -0.385226 0
M  V30 511 H 54.1087 -0.359265 0.654933 0
M  V30 512 H 56.7707 -0.256001 1.93211 0
M  V30 513 H 55.8667 -1.58243 2.69009 0
M  V30 514 N 56.1678 -1.49265 -0.50573 0
M  V30 515 C 57.4448 -1.49012 -1.26707 0
M  V30 516 C 57.8248 -0.215205 -2.1 0
M  V30 517 O 57.1728 0.802547 -2.13943 0
M  V30 518 C 57.3828 -2.7663 -2.12783 0
M  V30 519 C 58.7308 -3.25932 -2.72127 0
M  V30 520 O 59.7548 -2.77715 -2.23054 0
M  V30 521 O 58.6138 -4.09897 -3.61451 0
M  V30 522 H 55.7078 -0.596197 -0.57313 0
M  V30 523 H 58.2538 -1.61524 -0.52039 0
M  V30 524 H 57.0258 -3.60916 -1.5118 0
M  V30 525 H 56.6488 -2.66956 -2.94653 0
M  V30 526 N 57.6459 0.756429 -1.3826 0
M  V30 527 C 58.8859 1.52833 -1.35725 0
M  V30 528 C 59.2499 1.91926 0.0534106 0
M  V30 529 O 60.4509 2.68028 0.203613 0
M  V30 530 C 58.7219 2.74919 -2.28373 0
M  V30 531 S 60.2809 3.64817 -2.43832 0
M  V30 532 H 57.0989 0.523043 -0.481608 0
M  V30 533 H 59.7009 0.888212 -1.74158 0
M  V30 534 H 58.4049 2.44304 -3.29763 0
M  V30 535 H 57.9359 3.43878 -1.91079 0
M  V30 536 H 59.9509 4.676 -1.66027 0
M  V30 537 N 59.124 1.23083 0.984299 0
M  V30 538 C 60.371 1.06057 1.72505 0
M  V30 539 C 60.699 -0.403105 1.90277 0
M  V30 540 O 59.954 -1.3149 1.44944 0
M  V30 541 C 60.253 1.72673 3.1292 0
M  V30 542 C 59.919 3.22586 3.15038 0
M  V30 543 C 58.581 3.63489 3.15324 0
M  V30 544 C 60.933 4.185 3.10657 0
M  V30 545 C 58.261 4.98772 3.08939 0
M  V30 546 C 60.613 5.53769 3.05814 0
M  V30 547 C 59.277 5.94041 3.04419 0
M  V30 548 H 58.547 0.388091 0.631242 0
M  V30 549 H 61.194 1.52963 1.15215 0
M  V30 550 H 59.499 1.18116 3.73572 0
M  V30 551 H 61.196 1.56982 3.68996 0
M  V30 552 H 57.786 2.90022 3.15571 0
M  V30 553 H 61.97 3.87911 3.09579 0
M  V30 554 H 57.226 5.29193 3.0621 0
M  V30 555 H 61.4 6.27808 3.0138 0
M  V30 556 H 59.027 6.98833 2.99227 0
M  V30 557 N 60.6021 -1.18246 1.0419 0
M  V30 558 C 61.8301 -1.92195 0.766072 0
M  V30 559 C 62.2451 -1.76247 -0.676933 0
M  V30 560 O 61.6021 -1.09293 -1.46155 0
M  V30 561 C 61.6531 -3.43568 1.12442 0
M  V30 562 O 61.3741 -3.59015 2.51078 0
M  V30 563 C 62.8751 -4.34613 0.873275 0
M  V30 564 H 60.0951 -0.610114 0.279288 0
M  V30 565 H 62.6391 -1.50007 1.38989 0
M  V30 566 H 60.7941 -3.8354 0.545542 0
M  V30 567 H 61.2081 -4.5273 2.64831 0
M  V30 568 H 62.6821 -5.39374 1.17385 0
M  V30 569 H 63.1591 -4.38781 -0.191909 0
M  V30 570 H 63.7651 -4.00341 1.43551 0
M  V30 571 N 62.0802 -0.821533 -1.34494 0
M  V30 572 C 63.3262 -0.409552 -1.98622 0
M  V30 573 C 63.6592 1.0244 -1.64984 0
M  V30 574 O 62.9342 1.71325 -0.920758 0
M  V30 575 C 63.2172 -0.610458 -3.54888 0
M  V30 576 C 63.0702 -2.09043 -3.98273 0
M  V30 577 C 64.3892 -0.0455379 -4.40076 0
M  V30 578 H 61.5082 -0.15028 -0.721516 0
M  V30 579 H 64.1502 -1.03384 -1.59411 0
M  V30 580 H 62.3002 -0.079044 -3.8842 0
M  V30 581 H 63.9722 -2.68537 -3.75081 0
M  V30 582 H 62.2152 -2.58139 -3.48635 0
M  V30 583 H 62.8862 -2.18182 -5.07051 0
M  V30 584 H 65.3622 -0.499557 -4.1309 0
M  V30 585 H 64.2382 -0.215922 -5.48475 0
M  V30 586 H 64.4992 1.04939 -4.29465 0
M  V30 587 N 63.5583 1.46682 -0.576371 0
M  V30 588 C 64.5063 2.31953 0.17335 0
M  V30 589 C 65.5003 1.44098 0.89062 0
M  V30 590 O 66.7063 1.60759 0.809728 0
M  V30 591 H 63.0813 0.748273 0.0747727 0
M  V30 592 H 65.0523 2.93007 -0.564738 0
M  V30 593 C 63.8013 3.27142 1.17786 0
M  V30 594 H 63.1243 3.94719 0.635361 0
M  V30 595 H 64.5643 3.896 1.67296 0
M  V30 596 C 63.0233 2.52036 2.23561 0
M  V30 597 O 63.5533 2.27877 3.3081 0
M  V30 598 N 61.7593 2.12709 1.97998 0
M  V30 599 H 61.3063 2.32557 1.10792 0
M  V30 600 H 61.2643 1.62776 2.68982 0
M  V30 601 N 65.0364 0.313813 1.54444 0
M  V30 602 C 66.2824 -0.292108 2.00685 0
M  V30 603 C 66.6154 -1.52548 1.20177 0
M  V30 604 O 65.8904 -1.92452 0.281531 0
M  V30 605 C 66.1734 -0.635968 3.5444 0
M  V30 606 C 66.0264 0.607437 4.4568 0
M  V30 607 C 67.3454 -1.45747 4.15266 0
M  V30 608 H 64.4644 -0.104697 0.729526 0
M  V30 609 H 67.1064 0.428457 1.85106 0
M  V30 610 H 65.2564 -1.24986 3.67846 0
M  V30 611 H 66.9284 1.24581 4.44159 0
M  V30 612 H 65.1714 1.23822 4.15753 0
M  V30 613 H 65.8424 0.322515 5.51057 0
M  V30 614 H 68.3184 -0.938645 4.05375 0
M  V30 615 H 67.1944 -1.66683 5.2298 0
M  V30 616 H 67.4554 -2.45063 3.67963 0
M  V30 617 N 66.5145 -1.57545 0.0417849 0
M  V30 618 C 67.7625 -1.91937 -0.632829 0
M  V30 619 C 68.0835 -0.919978 -1.71934 0
M  V30 620 O 67.3535 0.0366064 -1.95866 0
M  V30 621 H 65.9335 -0.708493 -0.236742 0
M  V30 622 H 68.5955 -1.9468 0.0925745 0
M  V30 623 H 67.6915 -2.92912 -1.07746 0
M  V30 624 N 67.9926 0.231505 -1.5589 0
M  V30 625 C 69.2406 0.955461 -1.78088 0
M  V30 626 C 69.5616 1.85262 -0.608533 0
M  V30 627 O 68.8316 1.92277 0.375035 0
M  V30 628 H 67.4116 0.355787 -0.656829 0
M  V30 629 H 70.0736 0.245751 -1.93344 0
M  V30 630 H 69.1696 1.56814 -2.69844 0
M  V30 631 N 69.4707 1.49531 0.497807 0
M  V30 632 C 70.6957 1.63159 1.28039 0
M  V30 633 C 71.1207 0.30418 1.85624 0
M  V30 634 O 70.4787 -0.728618 1.66015 0
M  V30 635 C 70.5267 2.70537 2.38416 0
M  V30 636 O 69.6307 2.29931 3.42353 0
M  V30 637 H 68.9717 0.546001 0.377861 0
M  V30 638 H 71.5017 1.9574 0.59558 0
M  V30 639 H 71.5117 2.92802 2.84132 0
M  V30 640 H 70.1867 3.6689 1.95869 0
M  V30 641 H 68.7637 2.18009 3.02533 0
M  V30 642 N 70.9488 -0.749086 1.3866 0
M  V30 643 C 72.3648 -1.05276 1.19955 0
M  V30 644 C 72.5648 -2.01435 0.05134 0
M  V30 645 O 71.6208 -2.45232 -0.60147 0
M  V30 646 C 72.9338 -1.62853 2.52783 0
M  V30 647 C 74.4818 -1.75002 2.59506 0
M  V30 648 C 74.9568 -2.35991 3.92521 0
M  V30 649 N 76.4478 -2.43416 3.94085 0
M  V30 650 C 77.1828 -2.91511 4.9377 0
M  V30 651 N 76.6788 -3.39608 6.03853 0
M  V30 652 N 78.4718 -2.90592 4.81157 0
M  V30 653 H 70.6228 -0.111066 2.12109 0
M  V30 654 H 72.8858 -0.111901 0.941373 0
M  V30 655 H 72.5918 -0.99664 3.37283 0
M  V30 656 H 72.4658 -2.61854 2.715 0
M  V30 657 H 74.8528 -2.37317 1.75398 0
M  V30 658 H 74.9338 -0.74693 2.44652 0
M  V30 659 H 74.5778 -1.74308 4.77053 0
M  V30 660 H 74.5078 -3.3695 4.04688 0
M  V30 661 H 76.9988 -2.09405 3.14576 0
M  V30 662 H 77.3118 -3.74775 6.75843 0
M  V30 663 H 75.6568 -3.37653 6.07466 0
M  V30 664 H 78.8478 -2.52332 3.94267 0
M  V30 665 H 79.0208 -3.27762 5.58996 0
M  V30 666 N 72.4269 -1.23603 -0.977757 0
M  V30 667 C 73.6739 -1.06971 -1.71941 0
M  V30 668 C 74.0019 0.393009 -1.90488 0
M  V30 669 O 73.2569 1.30719 -1.4564 0
M  V30 670 C 73.5559 -1.7433 -3.11999 0
M  V30 671 C 73.2219 -3.24252 -3.13323 0
M  V30 672 C 71.8839 -3.65156 -3.13392 0
M  V30 673 C 74.2359 -4.20141 -3.08433 0
M  V30 674 C 71.5639 -5.00403 -3.0629 0
M  V30 675 C 73.9159 -5.55384 -3.02873 0
M  V30 676 C 72.5799 -5.95647 -3.01265 0
M  V30 677 H 71.8499 -0.391433 -0.629175 0
M  V30 678 H 74.4969 -1.53572 -1.14403 0
M  V30 679 H 72.8019 -1.20096 -3.7294 0
M  V30 680 H 74.4989 -1.58936 -3.68158 0
M  V30 681 H 71.0889 -2.91692 -3.14029 0
M  V30 682 H 75.2729 -3.89547 -3.07517 0
M  V30 683 H 70.5289 -5.3081 -3.03399 0
M  V30 684 H 74.7029 -6.29398 -2.98046 0
M  V30 685 H 72.3299 -7.0041 -2.95516 0
M  V30 686 N 73.905 1.17692 -1.04816 0
M  V30 687 C 75.151 1.88137 -0.75711 0
M  V30 688 C 75.484 1.80604 0.713841 0
M  V30 689 O 74.759 1.21146 1.52164 0
M  V30 690 C 75.042 3.38318 -1.2334 0
M  V30 691 C 74.895 3.54622 -2.76701 0
M  V30 692 C 76.214 4.32214 -0.829415 0
M  V30 693 H 73.333 0.683163 -0.27651 0
M  V30 694 H 75.975 1.38424 -1.30149 0
M  V30 695 H 74.125 3.80787 -0.770286 0
M  V30 696 H 75.797 3.21194 -3.31107 0
M  V30 697 H 74.04 2.97026 -3.16161 0
M  V30 698 H 74.711 4.60028 -3.05088 0
M  V30 699 H 77.187 3.97565 -1.22805 0
M  V30 700 H 76.063 5.35838 -1.19033 0
M  V30 701 H 76.324 4.41294 0.266891 0
M  V30 702 N 75.3831 0.828654 1.34056 0
M  V30 703 C 76.3131 0.269443 2.3194 0
M  V30 704 C 77.2941 -0.617247 1.58506 0
M  V30 705 O 78.4791 -0.542931 1.86456 0
M  V30 706 C 75.6091 -0.564793 3.42677 0
M  V30 707 C 74.5631 0.225241 4.27407 0
M  V30 708 C 73.8891 -0.7321 5.29664 0
M  V30 709 C 75.1891 1.43663 5.02154 0
M  V30 710 H 76.8831 1.08728 2.7896 0
M  V30 711 H 74.4291 0.524283 1.34117 0
M  V30 712 H 76.3821 -0.966233 4.10173 0
M  V30 713 H 75.1061 -1.41574 2.9432 0
M  V30 714 H 73.7651 0.608117 3.61521 0
M  V30 715 H 73.4131 -1.57916 4.77568 0
M  V30 716 H 73.1131 -0.20767 5.87233 0
M  V30 717 H 74.6371 -1.13128 6.00029 0
M  V30 718 H 76.0511 1.1089 5.62473 0
M  V30 719 H 74.4481 1.89711 5.69324 0
M  V30 720 H 75.5181 2.21181 4.31517 0
M  V30 721 N 76.8612 -1.46375 0.584142 0
M  V30 722 C 78.0862 -2.07268 0.0740405 0
M  V30 723 C 78.5112 -1.42979 -1.22223 0
M  V30 724 O 77.8692 -0.514092 -1.73859 0
M  V30 725 C 77.9172 -3.60518 -0.0767769 0
M  V30 726 O 77.0212 -3.96533 -1.13292 0
M  V30 727 H 76.3622 -0.660961 0.0634524 0
M  V30 728 H 78.8922 -1.87991 0.807492 0
M  V30 729 H 78.9022 -4.07021 -0.282489 0
M  V30 730 H 77.5772 -4.06702 0.86986 0
M  V30 731 H 76.1542 -3.61738 -0.905553 0
M  V30 732 N 78.3393 -0.321999 -1.54275 0
M  V30 733 C 79.2713 0.578671 -2.21775 0
M  V30 734 C 80.2843 1.08109 -1.21722 0
M  V30 735 O 81.4733 0.994938 -1.482 0
M  V30 736 C 78.5733 1.80661 -2.86731 0
M  V30 737 C 77.7463 1.44314 -4.12907 0
M  V30 738 C 76.8053 2.52845 -4.61472 0
M  V30 739 O 75.8313 2.17054 -5.2619 0
M  V30 740 N 77.0333 3.83748 -4.35566 0
M  V30 741 H 79.7983 0.000709447 -2.997 0
M  V30 742 H 77.3593 -0.145132 -1.61248 0
M  V30 743 H 79.3513 2.52655 -3.16145 0
M  V30 744 H 77.9213 2.29245 -2.12521 0
M  V30 745 H 77.1413 0.554906 -3.90275 0
M  V30 746 H 78.4293 1.17598 -4.95023 0
M  V30 747 H 77.8273 4.15625 -3.83761 0
M  V30 748 H 76.3843 4.51977 -4.69638 0
M  V30 749 N 79.8174 1.5752 -0.0501392 0
M  V30 750 C 80.7494 2.08413 0.95376 0
M  V30 751 C 81.7624 1.01175 1.27544 0
M  V30 752 O 82.9514 1.28744 1.23641 0
M  V30 753 C 80.0514 2.51138 2.27559 0
M  V30 754 C 79.2244 3.817 2.13598 0
M  V30 755 C 78.2834 4.10749 3.28895 0
M  V30 756 O 77.3094 4.80685 3.04845 0
M  V30 757 N 78.5114 3.62579 4.5334 0
M  V30 758 H 81.2764 2.95165 0.519383 0
M  V30 759 H 78.8374 1.61327 0.136127 0
M  V30 760 H 80.8294 2.67648 3.03557 0
M  V30 761 H 79.3994 1.6964 2.62567 0
M  V30 762 H 78.6194 3.74782 1.22197 0
M  V30 763 H 79.9074 4.67201 2.01496 0
M  V30 764 H 79.3054 3.06039 4.75769 0
M  V30 765 H 77.8624 3.84329 5.26436 0
M  V30 766 N 81.2955 -0.223234 1.56011 0
M  V30 767 C 82.2585 -1.26014 1.9145 0
M  V30 768 C 83.2585 -1.3989 0.792937 0
M  V30 769 O 84.4485 -1.38184 1.0607 0
M  V30 770 C 81.5805 -2.63422 2.16383 0
M  V30 771 H 82.7735 -0.95796 2.84189 0
M  V30 772 H 80.3265 -0.463576 1.49267 0
M  V30 773 H 81.0615 -2.98741 1.2619 0
M  V30 774 H 80.8465 -2.54728 2.98088 0
M  V30 775 H 82.3365 -3.38249 2.44903 0
M  V30 776 N 82.7736 -1.49793 -0.48987 0
M  V30 777 C 83.7036 -1.70201 -1.59856 0
M  V30 778 C 84.6846 -0.55076 -1.60937 0
M  V30 779 O 85.8696 -0.787841 -1.77501 0
M  V30 780 C 82.9996 -1.77882 -2.98287 0
M  V30 781 C 81.9536 -2.92907 -3.12073 0
M  V30 782 C 81.2796 -2.85712 -4.51965 0
M  V30 783 C 82.5796 -4.3369 -2.91051 0
M  V30 784 H 84.2736 -2.63025 -1.43032 0
M  V30 785 H 81.8196 -1.26574 -0.686664 0
M  V30 786 H 83.7726 -1.90744 -3.75759 0
M  V30 787 H 82.4966 -0.816653 -3.16225 0
M  V30 788 H 81.1556 -2.79665 -2.37029 0
M  V30 789 H 80.8036 -1.8738 -4.66795 0
M  V30 790 H 80.5036 -3.62921 -4.62128 0
M  V30 791 H 82.0276 -3.00598 -5.31482 0
M  V30 792 H 83.4416 -4.47555 -3.58284 0
M  V30 793 H 81.8386 -5.12205 -3.12675 0
M  V30 794 H 82.9086 -4.47362 -1.87071 0
M  V30 795 N 84.2517 0.741722 -1.39055 0
M  V30 796 C 85.4767 1.53607 -1.39354 0
M  V30 797 C 85.9017 1.88096 0.0116905 0
M  V30 798 O 85.2597 1.5143 0.996924 0
M  V30 799 C 85.3077 2.80441 -2.26682 0
M  V30 800 O 84.4117 3.76088 -1.69208 0
M  V30 801 H 83.7527 0.464142 -0.474835 0
M  V30 802 H 86.2827 0.915665 -1.82967 0
M  V30 803 H 86.2927 3.29246 -2.40959 0
M  V30 804 H 84.9677 2.5467 -3.2881 0
M  V30 805 H 83.5447 3.34833 -1.64138 0
M  V30 806 N 85.7298 1.2412 0.971189 0
M  V30 807 C 86.9698 1.09066 1.7287 0
M  V30 808 C 87.3338 -0.364794 1.88503 0
M  V30 809 O 88.5348 -0.636748 2.61149 0
M  V30 810 C 86.8058 1.80629 3.08396 0
M  V30 811 S 88.3648 1.81263 3.99611 0
M  V30 812 H 85.1828 0.390145 0.594397 0
M  V30 813 H 87.7848 1.57397 1.15959 0
M  V30 814 H 86.4888 2.85647 2.94676 0
M  V30 815 H 86.0198 1.32617 3.70373 0
M  V30 816 H 88.0348 0.877804 4.88374 0
M  V30 817 N 87.2079 -1.17134 1.05439 0
M  V30 818 C 88.4549 -1.87456 0.765942 0
M  V30 819 C 88.7829 -1.81189 -0.707153 0
M  V30 820 O 88.0379 -1.21633 -1.5331 0
M  V30 821 C 88.3369 -3.36833 1.19491 0
M  V30 822 C 88.0029 -3.63301 2.67063 0
M  V30 823 C 86.6649 -3.70234 3.07376 0
M  V30 824 C 89.0169 -3.74575 3.62413 0
M  V30 825 C 86.3449 -3.85933 4.41896 0
M  V30 826 C 88.6969 -3.91793 4.9667 0
M  V30 827 C 87.3609 -3.96966 5.36633 0
M  V30 828 H 86.6309 -0.685948 0.280278 0
M  V30 829 H 89.2779 -1.38556 1.32192 0
M  V30 830 H 87.5829 -3.87807 0.557969 0
M  V30 831 H 89.2799 -3.89611 0.948893 0
M  V30 832 H 85.8699 -3.58532 2.34846 0
M  V30 833 H 90.0539 -3.68537 3.32406 0
M  V30 834 H 85.3099 -3.88187 4.72357 0
M  V30 835 H 89.4839 -3.99458 5.70444 0
M  V30 836 H 87.1109 -4.08883 6.40874 0
M  V30 837 N 88.686 -0.835752 -1.33615 0
M  V30 838 C 90.097 -0.487099 -1.80234 0
M  V30 839 C 90.448 0.993627 -1.69179 0
M  V30 840 O 89.573 1.77403 -1.23924 0
M  V30 841 C 90.168 -0.877385 -3.27242 0
M  V30 842 C 88.727 -0.580915 -3.7189 0
M  V30 843 C 87.874 -1.0874 -2.5509 0
M  V30 844 H 90.825 -1.02474 -1.2118 0
M  V30 845 H 90.846 -0.186195 -3.80044 0
M  V30 846 H 90.358 -1.95512 -3.35256 0
M  V30 847 H 88.459 0.486881 -3.69405 0
M  V30 848 H 88.572 -1.13396 -4.65487 0
M  V30 849 H 86.936 -0.508392 -2.49575 0
M  V30 850 H 87.719 -2.17184 -2.65868 0
M  V30 851 N 90.1641 1.46063 -0.591896 0
M  V30 852 C 91.1141 2.27458 0.157172 0
M  V30 853 C 92.0981 1.3641 0.853301 0
M  V30 854 O 93.2901 1.60517 0.74588 0
M  V30 855 C 90.4191 3.22956 1.16423 0
M  V30 856 C 89.5051 4.2149 0.469742 0
M  V30 857 N 89.8961 5.03519 -0.479839 0
M  V30 858 C 88.1941 4.40161 0.719319 0
M  V30 859 C 88.8951 5.74904 -0.886591 0
M  V30 860 N 87.8711 5.43097 -0.233731 0
M  V30 861 H 91.6731 2.88272 -0.572392 0
M  V30 862 H 89.1871 1.57024 -0.414375 0
M  V30 863 H 91.1841 3.79986 1.71513 0
M  V30 864 H 89.8441 2.63701 1.89451 0
M  V30 865 H 90.8551 5.1078 -0.855823 0
M  V30 866 H 87.5321 3.92046 1.43548 0
M  V30 867 H 88.9221 6.50844 -1.66888 0
M  V30 868 N 91.6422 0.330177 1.54103 0
M  V30 869 C 92.8702 -0.272179 2.05102 0
M  V30 870 C 93.2852 -1.45267 1.20595 0
M  V30 871 O 92.6422 -1.8094 0.238144 0
M  V30 872 C 92.6932 -0.70023 3.54653 0
M  V30 873 O 92.4142 0.433301 4.35952 0
M  V30 874 C 93.9152 -1.3647 4.21771 0
M  V30 875 H 91.1352 -0.0549159 0.668749 0
M  V30 876 H 93.6792 0.478285 1.98828 0
M  V30 877 H 91.8342 -1.40066 3.61193 0
M  V30 878 H 92.2482 0.0947539 5.24414 0
M  V30 879 H 93.7222 -1.61509 5.27843 0
M  V30 880 H 94.1992 -2.31409 3.73292 0
M  V30 881 H 94.8052 -0.706675 4.19388 0
M  V30 882 N 93.1203 -1.57491 0.0584922 0
M  V30 883 C 94.5363 -1.56792 -0.298091 0
M  V30 884 C 94.7363 -1.06679 -1.70944 0
M  V30 885 O 93.7923 -0.726672 -2.41818 0
M  V30 886 C 95.1053 -3.00461 -0.119879 0
M  V30 887 C 96.6533 -3.1242 -0.190428 0
M  V30 888 C 97.1283 -4.57982 -0.0406567 0
M  V30 889 N 98.6193 -4.63099 -0.0966958 0
M  V30 890 C 99.3543 -5.734 -0.00502943 0
M  V30 891 N 98.8503 -6.9266 0.139402 0
M  V30 892 N 100.643 -5.62067 -0.0611391 0
M  V30 893 H 92.7943 -1.88386 0.98105 0
M  V30 894 H 95.0573 -0.867865 0.381463 0
M  V30 895 H 94.7633 -3.41187 0.85349 0
M  V30 896 H 94.6373 -3.66843 -0.877833 0
M  V30 897 H 97.0243 -2.71589 -1.15427 0
M  V30 898 H 97.1053 -2.48702 0.598405 0
M  V30 899 H 96.7493 -4.995 0.919897 0
M  V30 900 H 96.6793 -5.19715 -0.848727 0
M  V30 901 H 99.1703 -3.77331 -0.207277 0
M  V30 902 H 99.4833 -7.72536 0.201855 0
M  V30 903 H 97.8283 -6.94781 0.174586 0
M  V30 904 H 101.019 -4.67782 -0.172583 0
M  V30 905 H 101.192 -6.47999 0.0137562 0
M  V30 906 N 94.5984 0.214957 -1.56127 0
M  V30 907 C 95.5284 1.2695 -1.95974 0
M  V30 908 C 96.5094 1.48539 -0.828868 0
M  V30 909 O 97.6944 1.60611 -1.09168 0
M  V30 910 C 94.8244 2.61794 -2.28214 0
M  V30 911 C 93.7784 2.54851 -3.43853 0
M  V30 912 C 93.1044 3.93785 -3.61715 0
M  V30 913 C 94.4044 2.09065 -4.78632 0
M  V30 914 H 96.0984 0.93846 -2.84312 0
M  V30 915 H 93.6444 0.449996 -1.36788 0
M  V30 916 H 95.5974 3.35731 -2.54682 0
M  V30 917 H 94.3214 2.96599 -1.36736 0
M  V30 918 H 92.9804 1.8337 -3.17444 0
M  V30 919 H 92.6284 4.25908 -2.67602 0
M  V30 920 H 92.3284 3.90019 -4.39498 0
M  V30 921 H 93.8524 4.69374 -3.90539 0
M  V30 922 H 95.2664 2.7275 -5.04262 0
M  V30 923 H 93.6634 2.16346 -5.59745 0
M  V30 924 H 94.7334 1.04315 -4.73547 0
M  V30 925 N 96.0765 1.50051 0.48192 0
M  V30 926 C 97.3245 1.60181 1.23234 0
M  V30 927 C 97.6455 0.299176 1.92691 0
M  V30 928 O 96.9155 -0.682708 1.83619 0
M  V30 929 H 95.4955 0.590232 0.457859 0
M  V30 930 H 98.1575 1.86775 0.556881 0
M  V30 931 H 97.2535 2.40753 1.98607 0
M  V30 932 N 97.5546 -0.734337 1.39446 0
M  V30 933 C 98.5016 -1.84835 1.38219 0
M  V30 934 C 99.4716 -1.64331 0.24179 0
M  V30 935 O 100.657 -1.85728 0.437002 0
M  V30 936 C 97.7966 -3.22355 1.23212 0
M  V30 937 C 96.9096 -3.5456 2.46801 0
M  V30 938 C 96.0446 -4.81485 2.24377 0
M  V30 939 C 95.0836 -5.06536 3.43639 0
M  V30 940 N 94.2206 -6.24665 3.20528 0
M  V30 941 H 99.0606 -1.85219 2.33448 0
M  V30 942 H 96.5976 -0.905039 1.15963 0
M  V30 943 H 98.5556 -4.0174 1.12522 0
M  V30 944 H 97.1856 -3.21248 0.316121 0
M  V30 945 H 96.2376 -2.69872 2.68092 0
M  V30 946 H 97.5496 -3.6899 3.3563 0
M  V30 947 H 96.7036 -5.68852 2.10933 0
M  V30 948 H 95.4426 -4.6923 1.32944 0
M  V30 949 H 94.4476 -4.17632 3.5758 0
M  V30 950 H 95.6726 -5.20676 4.35974 0
M  V30 951 H 93.6186 -6.13696 2.3176 0
M  V30 952 H 93.5356 -6.39685 4.02913 0
M  V30 953 H 94.8036 -7.14868 3.10779 0
M  V30 954 N 99.0327 -1.24633 -0.964593 0
M  V30 955 C 99.9627 -1.06611 -2.07741 0
M  V30 956 C 100.944 0.0218666 -1.70086 0
M  V30 957 O 102.129 -0.145793 -1.93652 0
M  V30 958 C 99.2587 -0.673444 -3.40708 0
M  V30 959 C 98.2127 -1.71054 -3.92332 0
M  V30 960 C 97.5387 -1.17285 -5.21678 0
M  V30 961 C 98.8387 -3.10718 -4.19824 0
M  V30 962 H 100.533 -1.99693 -2.23076 0
M  V30 963 H 98.0787 -0.96152 -1.07195 0
M  V30 964 H 100.032 -0.534345 -4.17998 0
M  V30 965 H 98.7557 0.293073 -3.25282 0
M  V30 966 H 97.4147 -1.83791 -3.17201 0
M  V30 967 H 97.0627 -0.196847 -5.02615 0
M  V30 968 H 96.7627 -1.86592 -5.57187 0
M  V30 969 H 98.2867 -1.04593 -6.01575 0
M  V30 970 H 99.7007 -3.01192 -4.87808 0
M  V30 971 H 98.0977 -3.77406 -4.66567 0
M  V30 972 H 99.1677 -3.58524 -3.26479 0
M  V30 973 N 100.511 1.16574 -1.06058 0
M  V30 974 C 101.474 2.19085 -0.673392 0
M  V30 975 C 102.474 1.5835 0.279648 0
M  V30 976 O 103.664 1.74088 0.0623488 0
M  V30 977 C 100.796 3.40899 0.00954234 0
M  V30 978 H 101.989 2.54853 -1.58081 0
M  V30 979 H 99.5418 1.30808 -0.855516 0
M  V30 980 H 100.277 3.10684 0.929826 0
M  V30 981 H 100.062 3.86233 -0.67573 0
M  V30 982 H 101.552 4.1675 0.266245 0
M  V30 983 N 101.989 0.842826 1.3317 0
M  V30 984 C 103.235 0.441099 1.97945 0
M  V30 985 C 103.568 -0.998024 1.66593 0
M  V30 986 O 102.843 -1.69839 0.947898 0
M  V30 987 C 103.126 0.666841 3.53872 0
M  V30 988 C 102.979 2.15352 3.94897 0
M  V30 989 C 104.298 0.115544 4.39948 0
M  V30 990 H 101.417 0.161739 0.719034 0
M  V30 991 H 104.059 1.05907 1.57746 0
M  V30 992 H 102.209 0.140828 3.88245 0
M  V30 993 H 103.881 2.7447 3.70761 0
M  V30 994 H 102.124 2.63653 3.44484 0
M  V30 995 H 102.795 2.26221 5.03516 0
M  V30 996 H 105.271 0.565213 4.12243 0
M  V30 997 H 104.147 0.303152 5.48062 0
M  V30 998 H 104.408 -0.980935 4.3108 0
M  V30 999 N 103.467 -1.45747 0.599634 0
M  V30 1000 C 104.713 -2.02592 0.0918643 0
M  V30 1001 C 105.046 -1.46806 -1.27128 0
M  V30 1002 O 104.321 -0.639658 -1.83681 0
M  V30 1003 C 104.604 -3.60073 0.0443398 0
M  V30 1004 C 104.457 -4.26208 1.43759 0
M  V30 1005 C 105.776 -4.35309 -0.647608 0
M  V30 1006 H 102.895 -0.736175 0.034857 0
M  V30 1007 H 105.537 -1.73694 0.770081 0
M  V30 1008 H 103.687 -3.84823 -0.533224 0
M  V30 1009 H 105.359 -4.12668 2.06162 0
M  V30 1010 H 103.602 -3.84916 2.00056 0
M  V30 1011 H 104.273 -5.35069 1.35665 0
M  V30 1012 H 106.749 -4.15805 -0.156776 0
M  V30 1013 H 105.625 -5.45038 -0.649942 0
M  V30 1014 H 105.886 -4.07598 -1.71219 0
M  V30 1015 N 104.945 -0.338344 -1.53925 0
M  V30 1016 C 106.191 0.260143 -2.01125 0
M  V30 1017 C 106.524 1.50617 -1.22589 0
M  V30 1018 O 105.799 1.91979 -0.312113 0
M  V30 1019 C 106.082 0.579499 -3.55407 0
M  V30 1020 C 105.935 -0.678264 -4.44657 0
M  V30 1021 C 107.254 1.39122 -4.17532 0
M  V30 1022 H 104.373 0.0930772 -0.731099 0
M  V30 1023 H 107.015 -0.457852 -1.84401 0
M  V30 1024 H 105.165 1.19118 -3.69788 0
M  V30 1025 H 106.837 -1.31631 -4.42121 0
M  V30 1026 H 105.08 -1.3042 -4.13731 0
M  V30 1027 H 105.751 -0.410143 -5.50474 0
M  V30 1028 H 108.227 0.874035 -4.06817 0
M  V30 1029 H 107.103 1.58342 -5.25565 0
M  V30 1030 H 107.364 2.39178 -3.71815 0
M  V30 1031 N 106.423 1.57458 -0.0668435 0
M  V30 1032 C 107.386 2.11323 0.887422 0
M  V30 1033 C 108.386 1.03618 1.22964 0
M  V30 1034 O 109.576 1.29626 1.16373 0
M  V30 1035 C 106.708 2.61048 2.19242 0
M  V30 1036 H 107.901 2.96942 0.420194 0
M  V30 1037 H 105.454 1.55239 0.181793 0
M  V30 1038 H 106.189 1.78868 2.70512 0
M  V30 1039 H 105.974 3.39769 1.95702 0
M  V30 1040 H 107.464 3.02814 2.87565 0
M  V30 1041 N 107.901 -0.206675 1.56239 0
M  V30 1042 C 109.126 -0.949474 1.8439 0
M  V30 1043 C 109.551 -1.76549 0.649016 0
M  V30 1044 O 108.909 -1.76782 -0.402231 0
M  V30 1045 C 108.957 -1.83078 3.10668 0
M  V30 1046 O 108.061 -2.9281 2.90407 0
M  V30 1047 H 107.402 -0.268033 0.607499 0
M  V30 1048 H 109.932 -0.215488 2.03462 0
M  V30 1049 H 109.942 -2.2377 3.41161 0
M  V30 1050 H 108.617 -1.23112 3.97261 0
M  V30 1051 H 107.194 -2.55956 2.71184 0
M  V30 1052 N 109.379 -1.50304 -0.473955 0
M  V30 1053 C 110.609 -1.64663 -1.24778 0
M  V30 1054 C 111.017 -0.328174 -1.86332 0
M  V30 1055 O 110.36 0.699536 -1.69859 0
M  V30 1056 C 110.422 -2.6778 -2.39863 0
M  V30 1057 C 110.086 -4.11413 -1.98969 0
M  V30 1058 C 111.083 -4.97372 -1.51385 0
M  V30 1059 C 108.768 -4.57312 -2.07777 0
M  V30 1060 C 110.762 -6.27277 -1.13148 0
M  V30 1061 C 108.449 -5.87223 -1.69152 0
M  V30 1062 C 109.447 -6.72031 -1.21915 0
M  V30 1063 O 109.135 -7.99518 -0.838237 0
M  V30 1064 H 108.867 -0.556602 -0.383627 0
M  V30 1065 H 111.421 -1.9726 -0.572491 0
M  V30 1066 H 109.651 -2.30419 -3.10554 0
M  V30 1067 H 111.34 -2.71388 -3.01833 0
M  V30 1068 H 112.106 -4.63128 -1.44004 0
M  V30 1069 H 107.985 -3.91449 -2.43493 0
M  V30 1070 H 111.529 -6.93425 -0.762077 0
M  V30 1071 H 107.426 -6.20989 -1.76191 0
M  V30 1072 H 108.194 -8.12764 -0.967339 0
M  V30 1073 N 110.857 0.726932 -1.39834 0
M  V30 1074 C 112.273 1.03354 -1.21615 0
M  V30 1075 C 112.473 2.01327 -0.08338 0
M  V30 1076 O 111.529 2.46158 0.56238 0
M  V30 1077 C 112.842 1.58811 -2.55342 0
M  V30 1078 C 114.39 1.70851 -2.62257 0
M  V30 1079 C 114.865 2.29716 -3.96225 0
M  V30 1080 N 116.356 2.37116 -3.97907 0
M  V30 1081 C 117.091 2.83619 -4.98345 0
M  V30 1082 N 116.587 3.29958 -6.09179 0
M  V30 1083 N 118.38 2.82901 -4.8572 0
M  V30 1084 H 110.531 0.0773069 -2.12259 0
M  V30 1085 H 112.794 0.0969102 -0.943034 0
M  V30 1086 H 112.5 0.942855 -3.38826 0
M  V30 1087 H 112.374 2.57502 -2.75632 0
M  V30 1088 H 114.761 2.34497 -1.79152 0
M  V30 1089 H 114.842 0.707913 -2.45809 0
M  V30 1090 H 114.486 1.66696 -4.79765 0
M  V30 1091 H 114.416 3.30469 -4.09997 0
M  V30 1092 H 116.907 2.04374 -3.17868 0
M  V30 1093 H 117.22 3.63976 -6.8172 0
M  V30 1094 H 115.565 3.27946 -6.12761 0
M  V30 1095 H 118.756 2.46027 -3.98231 0
M  V30 1096 H 118.929 3.18827 -5.6414 0
M  V30 1097 N 112.336 1.25143 0.95797 0
M  V30 1098 C 113.752 1.01892 1.22842 0
M  V30 1099 C 113.952 -0.266311 1.99732 0
M  V30 1100 O 113.008 -0.979913 2.3271 0
M  V30 1101 C 114.321 2.24004 2.00606 0
M  V30 1102 C 115.869 2.28731 2.13662 0
M  V30 1103 C 116.344 3.5049 2.94823 0
M  V30 1104 N 117.835 3.50866 3.02403 0
M  V30 1105 C 118.57 4.4174 3.65586 0
M  V30 1106 N 118.066 5.42882 4.30408 0
M  V30 1107 N 119.859 4.29429 3.62694 0
M  V30 1108 H 112.01 2.07718 0.443493 0
M  V30 1109 H 114.273 0.912031 0.258657 0
M  V30 1110 H 113.979 3.17395 1.51503 0
M  V30 1111 H 113.853 2.26907 3.01319 0
M  V30 1112 H 116.24 1.35865 2.61963 0
M  V30 1113 H 116.321 2.29848 1.12265 0
M  V30 1114 H 115.965 4.43676 2.47213 0
M  V30 1115 H 115.895 3.46617 3.96439 0
M  V30 1116 H 118.386 2.777 2.56302 0
M  V30 1117 H 118.699 6.0844 4.76467 0
M  V30 1118 H 117.044 5.46758 4.29047 0
M  V30 1119 H 120.235 3.49643 3.11236 0
M  V30 1120 H 120.408 5.00448 4.1165 0
M  V30 1121 N 113.814 -1.1601 1.06675 0
M  V30 1122 C 115.225 -1.68235 0.809565 0
M  V30 1123 C 115.576 -1.8454 -0.666303 0
M  V30 1124 O 114.701 -1.54374 -1.5165 0
M  V30 1125 C 115.296 -3.05585 1.46299 0
M  V30 1126 C 113.855 -3.54915 1.25349 0
M  V30 1127 C 113.002 -2.30804 1.53703 0
M  V30 1128 H 115.953 -1.00318 1.22971 0
M  V30 1129 H 115.974 -3.70174 0.880431 0
M  V30 1130 H 115.486 -2.93686 2.53713 0
M  V30 1131 H 113.587 -3.72067 0.199261 0
M  V30 1132 H 113.7 -4.36774 1.9689 0
M  V30 1133 H 112.064 -2.36007 0.957739 0
M  V30 1134 H 112.847 -2.21499 2.62284 0
M  V30 1135 N 115.292 -0.849877 -1.32721 0
M  V30 1136 C 116.54 -0.450032 -1.97026 0
M  V30 1137 C 116.861 0.996604 -1.67609 0
M  V30 1138 O 116.131 1.6958 -0.980786 0
M  V30 1139 H 114.711 -0.163426 -0.728904 0
M  V30 1140 H 117.373 -1.08526 -1.6189 0
M  V30 1141 H 116.469 -0.591146 -3.0645 0
M  V30 1142 N 116.77 1.45427 -0.607355 0
M  V30 1143 C 117.733 2.28974 0.101693 0
M  V30 1144 C 118.733 1.39754 0.795329 0
M  V30 1145 O 119.923 1.61878 0.643527 0
M  V30 1146 C 117.055 3.20768 1.15414 0
M  V30 1147 H 118.248 2.93147 -0.632844 0
M  V30 1148 H 115.801 1.51945 -0.366391 0
M  V30 1149 H 116.536 2.61395 1.91945 0
M  V30 1150 H 116.321 3.86489 0.66098 0
M  V30 1151 H 117.811 3.83589 1.65073 0
M  V30 1152 N 118.248 0.346503 1.53744 0
M  V30 1153 C 119.178 -0.501193 2.28058 0
M  V30 1154 C 120.159 -1.10014 1.29734 0
M  V30 1155 O 121.344 -1.12097 1.58581 0
M  V30 1156 C 118.474 -1.65078 3.05559 0
M  V30 1157 C 117.428 -1.18003 4.11411 0
M  V30 1158 C 116.754 -2.41837 4.76884 0
M  V30 1159 C 118.054 -0.278394 5.21558 0
M  V30 1160 H 119.748 0.11875 2.99164 0
M  V30 1161 H 117.294 0.0585531 1.43881 0
M  V30 1162 H 119.247 -2.25028 3.56287 0
M  V30 1163 H 117.971 -2.29767 2.32109 0
M  V30 1164 H 116.63 -0.603331 3.61601 0
M  V30 1165 H 116.278 -3.0494 4.00026 0
M  V30 1166 H 115.978 -2.1102 5.48402 0
M  V30 1167 H 117.502 -3.02508 5.30397 0
M  V30 1168 H 118.916 -0.784823 5.67903 0
M  V30 1169 H 117.313 -0.0619707 6.00068 0
M  V30 1170 H 118.383 0.684677 4.80042 0
M  V30 1171 N 119.726 -1.57421 0.075193 0
M  V30 1172 C 120.689 -2.11791 -0.876203 0
M  V30 1173 C 121.689 -1.04268 -1.22412 0
M  V30 1174 O 122.879 -1.30242 -1.15684 0
M  V30 1175 C 120.011 -2.62207 -2.17854 0
M  V30 1176 H 121.204 -2.9716 -0.40444 0
M  V30 1177 H 118.757 -1.55333 -0.173557 0
M  V30 1178 H 119.492 -1.803 -2.6956 0
M  V30 1179 H 119.277 -3.40802 -1.93897 0
M  V30 1180 H 120.767 -3.04335 -2.85955 0
M  V30 1181 N 121.204 0.198386 -1.56346 0
M  V30 1182 C 122.167 1.22952 -1.93431 0
M  V30 1183 C 123.167 1.38611 -0.815092 0
M  V30 1184 O 124.357 1.36479 -1.08255 0
M  V30 1185 C 121.489 2.59946 -2.20546 0
M  V30 1186 H 122.682 0.912626 -2.85677 0
M  V30 1187 H 120.235 0.43977 -1.49986 0
M  V30 1188 H 120.97 2.96696 -1.30927 0
M  V30 1189 H 120.755 2.49953 -3.02102 0
M  V30 1190 H 122.245 3.3431 -2.50253 0
M  V30 1191 N 122.682 1.50554 0.465978 0
M  V30 1192 C 123.928 1.62038 1.21949 0
M  V30 1193 C 124.261 0.322116 1.9151 0
M  V30 1194 O 123.536 -0.676723 1.82348 0
M  V30 1195 C 123.819 2.80421 2.25912 0
M  V30 1196 C 123.672 4.20144 1.60622 0
M  V30 1197 C 124.991 2.94354 3.27176 0
M  V30 1198 H 122.11 0.589752 0.441998 0
M  V30 1199 H 124.752 1.82956 0.51257 0
M  V30 1200 H 122.902 2.62717 2.86203 0
M  V30 1201 H 124.574 4.49449 1.03889 0
M  V30 1202 H 122.817 4.24165 0.909211 0
M  V30 1203 H 123.488 4.98914 2.36196 0
M  V30 1204 H 125.964 3.10578 2.76913 0
M  V30 1205 H 124.84 3.788 3.97242 0
M  V30 1206 H 125.101 2.05186 3.916 0
M  V30 1207 N 124.16 -0.719506 1.40217 0
M  V30 1208 C 125.571 -1.29848 1.34151 0
M  V30 1209 C 125.922 -1.96196 0.0131349 0
M  V30 1210 O 125.047 -1.973 -0.88892 0
M  V30 1211 C 125.642 -2.36118 2.42968 0
M  V30 1212 C 124.201 -2.8965 2.40374 0
M  V30 1213 C 123.348 -1.63393 2.24049 0
M  V30 1214 H 126.299 -0.51591 1.5008 0
M  V30 1215 H 126.32 -3.16871 2.10649 0
M  V30 1216 H 125.832 -1.878 3.39636 0
M  V30 1217 H 123.933 -3.42208 1.47392 0
M  V30 1218 H 124.046 -3.4171 3.35814 0
M  V30 1219 H 122.41 -1.88312 1.71495 0
M  V30 1220 H 123.193 -1.17104 3.2271 0
M  V30 1221 N 125.638 -1.25649 -0.95132 0
M  V30 1222 C 126.863 -1.13443 -1.73624 0
M  V30 1223 C 127.288 0.307565 -1.85568 0
M  V30 1224 O 126.646 1.22282 -1.33854 0
M  V30 1225 C 126.694 -1.79723 -3.12621 0
M  V30 1226 O 125.798 -1.07912 -3.98031 0
M  V30 1227 H 125.139 -0.395872 -0.533086 0
M  V30 1228 H 127.669 -1.66276 -1.1922 0
M  V30 1229 H 127.679 -1.86141 -3.63064 0
M  V30 1230 H 126.354 -2.84633 -3.03244 0
M  V30 1231 H 124.931 -1.09398 -3.56492 0
M  V30 1232 N 127.117 1.15442 -1.07289 0
M  V30 1233 C 128.528 1.67803 -0.818475 0
M  V30 1234 C 128.879 1.8489 0.656507 0
M  V30 1235 O 128.004 1.55176 1.50829 0
M  V30 1236 C 128.599 3.04805 -1.47917 0
M  V30 1237 C 127.158 3.54245 -1.27229 0
M  V30 1238 C 126.305 2.29986 -1.54925 0
M  V30 1239 H 129.256 0.996646 -1.23502 0
M  V30 1240 H 129.277 3.69702 -0.90005 0
M  V30 1241 H 128.789 2.92336 -2.55267 0
M  V30 1242 H 126.89 3.71956 -0.21899 0
M  V30 1243 H 127.003 4.35723 -1.99203 0
M  V30 1244 H 125.367 2.35496 -0.970242 0
M  V30 1245 H 126.15 2.20105 -2.63455 0
M  V30 1246 N 128.595 0.856903 1.32268 0
M  V30 1247 C 129.525 0.31858 2.31316 0
M  V30 1248 C 130.506 -0.583487 1.59779 0
M  V30 1249 O 131.691 -0.503259 1.87566 0
M  V30 1250 C 128.821 -0.491979 3.43798 0
M  V30 1251 C 127.775 0.315849 4.26833 0
M  V30 1252 C 127.101 -0.619586 5.31098 0
M  V30 1253 C 128.401 1.54282 4.98993 0
M  V30 1254 H 130.095 1.14621 2.76591 0
M  V30 1255 H 127.641 0.552613 1.32974 0
M  V30 1256 H 129.594 -0.879012 4.1213 0
M  V30 1257 H 128.318 -1.35299 2.97257 0
M  V30 1258 H 126.977 0.684664 3.6015 0
M  V30 1259 H 126.625 -1.47751 4.8081 0
M  V30 1260 H 126.325 -0.0830621 5.87541 0
M  V30 1261 H 127.849 -1.00375 6.02293 0
M  V30 1262 H 129.263 1.22796 5.59995 0
M  V30 1263 H 127.66 2.01745 5.65172 0
M  V30 1264 H 128.73 2.30285 4.26728 0
M  V30 1265 N 130.073 -1.45103 0.615059 0
M  V30 1266 C 130.983 -2.34382 -0.101034 0
M  V30 1267 C 131.999 -1.51681 -0.852585 0
M  V30 1268 O 133.175 -1.8446 -0.808484 0
M  V30 1269 C 130.24 -3.29417 -1.08099 0
M  V30 1270 C 129.301 -4.28025 -0.330577 0
M  V30 1271 C 128.534 -5.1852 -1.26385 0
M  V30 1272 O 128.757 -5.12598 -2.50198 0
M  V30 1273 O 127.691 -5.97122 -0.756866 0
M  V30 1274 H 131.517 -2.97033 0.632855 0
M  V30 1275 H 129.102 -1.4461 0.375293 0
M  V30 1276 H 130.984 -3.87958 -1.6452 0
M  V30 1277 H 129.659 -2.69321 -1.79577 0
M  V30 1278 H 128.566 -3.73078 0.276283 0
M  V30 1279 H 129.899 -4.90997 0.343866 0
M  V30 1280 N 131.551 -0.354651 -1.53558 0
M  V30 1281 C 132.481 0.489091 -2.2832 0
M  V30 1282 C 133.462 1.09324 -1.30316 0
M  V30 1283 O 134.647 1.11255 -1.59173 0
M  V30 1284 C 131.777 1.63456 -3.0643 0
M  V30 1285 C 130.731 1.1582 -4.12031 0
M  V30 1286 C 130.057 2.39305 -4.7816 0
M  V30 1287 C 131.357 0.250731 -5.21698 0
M  V30 1288 H 133.051 -0.134614 -2.99097 0
M  V30 1289 H 130.597 -0.0661826 -1.43848 0
M  V30 1290 H 132.55 2.23136 -3.57475 0
M  V30 1291 H 131.274 2.28533 -2.33325 0
M  V30 1292 H 129.933 0.584146 -3.61916 0
M  V30 1293 H 129.581 3.02814 -4.01637 0
M  V30 1294 H 129.281 2.08109 -5.49513 0
M  V30 1295 H 130.805 2.99691 -5.31994 0
M  V30 1296 H 132.219 0.754695 -5.68311 0
M  V30 1297 H 130.616 0.0301468 -6.00092 0
M  V30 1298 H 131.686 -0.710125 -4.79672 0
M  V30 1299 N 133.029 1.57378 -0.0835403 0
M  V30 1300 C 134.269 1.95808 0.586381 0
M  V30 1301 C 134.633 0.963706 1.66062 0
M  V30 1302 O 135.834 1.23608 2.38693 0
M  V30 1303 C 134.105 3.38808 1.13771 0
M  V30 1304 S 135.664 3.99225 1.82112 0
M  V30 1305 H 132.482 0.684675 0.191679 0
M  V30 1306 H 135.084 1.94843 -0.160194 0
M  V30 1307 H 133.788 4.08954 0.344197 0
M  V30 1308 H 133.319 3.43344 1.92038 0
M  V30 1309 H 135.334 3.87087 3.10449 0
M  V30 1310 N 134.507 -0.190092 1.56449 0
M  V30 1311 C 135.784 -0.935886 1.71757 0
M  V30 1312 C 136.164 -2.01173 0.639726 0
M  V30 1313 O 135.512 -2.25827 -0.348502 0
M  V30 1314 C 135.722 -1.51775 3.1427 0
M  V30 1315 C 137.07 -1.99794 3.74656 0
M  V30 1316 O 138.094 -1.61607 3.1743 0
M  V30 1317 O 136.953 -2.70079 4.751 0
M  V30 1318 H 134.047 -0.439229 0.700719 0
M  V30 1319 H 136.593 -0.179395 1.68749 0
M  V30 1320 H 135.365 -0.742505 3.84191 0
M  V30 1321 H 134.988 -2.33894 3.21527 0
M  V30 1322 N 135.985 -1.50799 -0.457987 0
M  V30 1323 C 137.262 -1.52968 -1.21902 0
M  V30 1324 C 137.642 -0.281906 -2.09209 0
M  V30 1325 O 136.99 0.734076 -2.16388 0
M  V30 1326 C 137.2 -2.8326 -2.03875 0
M  V30 1327 C 138.548 -3.34425 -2.6162 0
M  V30 1328 O 139.572 -2.8467 -2.14106 0
M  V30 1329 O 138.431 -4.21188 -3.48228 0
M  V30 1330 H 135.525 -0.614129 -0.553873 0
M  V30 1331 H 138.071 -1.63098 -0.468739 0
M  V30 1332 H 136.843 -3.65543 -1.39621 0
M  V30 1333 H 136.466 -2.76195 -2.8601 0
M  V30 1334 N 137.463 0.71206 -1.40597 0
M  V30 1335 C 138.426 1.80785 -1.40888 0
M  V30 1336 C 139.426 1.57937 -0.302103 0
M  V30 1337 O 140.616 1.64913 -0.561182 0
M  V30 1338 C 137.748 3.18927 -1.20409 0
M  V30 1339 H 138.941 1.81924 -2.38419 0
M  V30 1340 H 136.494 0.91805 -1.26497 0
M  V30 1341 H 137.229 3.23436 -0.236522 0
M  V30 1342 H 137.014 3.36911 -2.00582 0
M  V30 1343 H 138.504 3.98949 -1.23408 0
M  V30 1344 N 138.941 1.26152 0.944643 0
M  V30 1345 C 139.889 1.07215 2.06417 0
M  V30 1346 C 140.883 9.2007e-05 1.694 0
M  V30 1347 O 142.089 0.1565 1.79318 0
M  V30 1348 H 138.464 0.329837 0.675805 0
M  V30 1349 H 140.435 2.02099 2.19541 0
M  V30 1350 C 139.184 0.718197 3.40202 0
M  V30 1351 H 138.507 1.53497 3.69159 0
M  V30 1352 H 139.947 0.625459 4.19361 0
M  V30 1353 C 138.406 -0.576435 3.31932 0
M  V30 1354 O 138.936 -1.61574 3.67773 0
M  V30 1355 N 137.142 -0.565781 2.85039 0
M  V30 1356 H 136.689 0.280367 2.5607 0
M  V30 1357 H 136.647 -1.43213 2.79888 0
M  V30 1358 N 140.419 -1.14872 1.07899 0
M  V30 1359 C 141.83 -1.67367 0.827363 0
M  V30 1360 C 142.181 -1.85236 -0.646693 0
M  V30 1361 O 141.306 -1.55974 -1.50004 0
M  V30 1362 C 141.901 -3.04016 1.49532 0
M  V30 1363 C 140.46 -3.53566 1.29106 0
M  V30 1364 C 139.607 -2.29161 1.56143 0
M  V30 1365 H 142.558 -0.990083 1.24028 0
M  V30 1366 H 142.579 -3.69219 0.919643 0
M  V30 1367 H 142.091 -2.90978 2.56814 0
M  V30 1368 H 140.192 -3.71835 0.238713 0
M  V30 1369 H 140.305 -4.34661 2.01511 0
M  V30 1370 H 138.669 -2.34978 0.982717 0
M  V30 1371 H 139.452 -2.18705 2.64619 0
M  V30 1372 N 141.898 -0.863906 -1.31812 0
M  V30 1373 C 143.144 -0.472535 -1.97218 0
M  V30 1374 C 143.477 0.971394 -1.68159 0
M  V30 1375 O 142.752 1.68309 -0.974798 0
M  V30 1376 C 143.035 -0.723054 -3.52766 0
M  V30 1377 C 142.888 -2.21608 -3.91421 0
M  V30 1378 C 144.207 -0.185522 -4.39709 0
M  V30 1379 H 141.326 -0.173158 -0.71637 0
M  V30 1380 H 143.968 -1.08403 -1.56041 0
M  V30 1381 H 142.118 -0.202577 -3.87971 0
M  V30 1382 H 143.79 -2.80334 -3.66347 0
M  V30 1383 H 142.033 -2.691 -3.40246 0
M  V30 1384 H 142.704 -2.34203 -4.99853 0
M  V30 1385 H 145.18 -0.630726 -4.11292 0
M  V30 1386 H 144.056 -0.390306 -5.47511 0
M  V30 1387 H 144.317 0.912229 -4.32586 0
M  V30 1388 N 143.376 1.44774 -0.622745 0
M  V30 1389 C 144.653 1.95522 -0.0551974 0
M  V30 1390 C 145.033 1.5649 1.41683 0
M  V30 1391 O 144.381 0.834848 2.12703 0
M  V30 1392 C 144.591 3.4796 -0.269242 0
M  V30 1393 C 145.939 4.24306 -0.158014 0
M  V30 1394 O 146.963 3.55637 -0.200162 0
M  V30 1395 O 145.822 5.46471 -0.0558693 0
M  V30 1396 H 142.916 0.826556 0.0271015 0
M  V30 1397 H 145.462 1.54866 -0.693864 0
M  V30 1398 H 144.234 3.6939 -1.29099 0
M  V30 1399 H 143.857 3.95543 0.403966 0
M  V30 1400 N 144.854 0.36279 1.53368 0
M  V30 1401 C 145.802 -0.500155 2.27159 0
M  V30 1402 C 146.796 -1.08575 1.3003 0
M  V30 1403 O 148.002 -1.02927 1.47668 0
M  V30 1404 H 144.377 -0.180009 0.730138 0
M  V30 1405 H 146.348 0.14401 2.98052 0
M  V30 1406 C 145.097 -1.62937 3.07159 0
M  V30 1407 H 144.42 -1.18806 3.8174 0
M  V30 1408 H 145.86 -2.20795 3.61975 0
M  V30 1409 C 144.319 -2.57007 2.17829 0
M  V30 1410 O 144.849 -3.59752 1.78721 0
M  V30 1411 N 143.055 -2.26131 1.82518 0
M  V30 1412 H 142.602 -1.42616 2.14519 0
M  V30 1413 H 142.56 -2.89327 1.23034 0
M  V30 1414 N 146.332 -1.57332 0.0918853 0
M  V30 1415 C 147.242 -2.17368 -0.882505 0
M  V30 1416 C 148.258 -1.14226 -1.31257 0
M  V30 1417 O 149.434 -1.46582 -1.38115 0
M  V30 1418 C 146.499 -2.73962 -2.12476 0
M  V30 1419 C 145.56 -3.92048 -1.7492 0
M  V30 1420 C 144.793 -4.45933 -2.93223 0
M  V30 1421 O 145.016 -3.98764 -4.07852 0
M  V30 1422 O 143.95 -5.36999 -2.71875 0
M  V30 1423 H 147.776 -3.01031 -0.40172 0
M  V30 1424 H 145.361 -1.48813 -0.132291 0
M  V30 1425 H 147.243 -3.10147 -2.85283 0
M  V30 1426 H 145.918 -1.93347 -2.59613 0
M  V30 1427 H 144.825 -3.6068 -0.993025 0
M  V30 1428 H 146.158 -4.74017 -1.32548 0
M  V30 1429 N 147.81 0.181792 -1.56548 0
M  V30 1430 C 149.04 0.914618 -1.85252 0
M  V30 1431 C 149.448 1.76791 -0.673914 0
M  V30 1432 O 148.791 1.80009 0.366416 0
M  V30 1433 C 148.853 1.85019 -3.08234 0
M  V30 1434 C 148.517 1.17754 -4.41569 0
M  V30 1435 C 149.514 0.548035 -5.17003 0
M  V30 1436 C 147.199 1.17742 -4.88305 0
M  V30 1437 C 149.193 -0.0726128 -6.37359 0
M  V30 1438 C 146.88 0.552946 -6.08593 0
M  V30 1439 C 147.878 -0.070978 -6.82963 0
M  V30 1440 O 147.566 -0.685635 -8.00971 0
M  V30 1441 H 147.298 0.271695 -0.618998 0
M  V30 1442 H 149.852 0.189944 -2.0452 0
M  V30 1443 H 148.082 2.61491 -2.84885 0
M  V30 1444 H 149.771 2.45195 -3.23472 0
M  V30 1445 H 150.537 0.540174 -4.81982 0
M  V30 1446 H 146.416 1.65246 -4.30366 0
M  V30 1447 H 149.96 -0.560213 -6.95347 0
M  V30 1448 H 145.857 0.558354 -6.43081 0
M  V30 1449 H 146.625 -0.58385 -8.16415 0
M  V30 1450 N 149.288 1.51039 0.449983 0
M  V30 1451 C 150.535 1.63081 1.20045 0
M  V30 1452 C 150.863 0.341024 1.91487 0
M  V30 1453 O 150.118 -0.674276 1.83717 0
M  V30 1454 C 150.417 2.77556 2.25161 0
M  V30 1455 C 150.083 4.17289 1.70823 0
M  V30 1456 C 148.745 4.55305 1.55725 0
M  V30 1457 C 151.097 5.04536 1.3074 0
M  V30 1458 C 148.425 5.78287 0.989999 0
M  V30 1459 C 150.777 6.28085 0.754482 0
M  V30 1460 C 149.441 6.64885 0.590308 0
M  V30 1461 H 148.711 0.596755 0.439277 0
M  V30 1462 H 151.358 1.85037 0.49333 0
M  V30 1463 H 149.663 2.49771 3.01863 0
M  V30 1464 H 151.36 2.84073 2.83026 0
M  V30 1465 H 147.95 3.8731 1.83546 0
M  V30 1466 H 152.134 4.75782 1.41229 0
M  V30 1467 H 147.39 6.05456 0.850451 0
M  V30 1468 H 151.564 6.95038 0.435324 0
M  V30 1469 H 149.191 7.60055 0.14862 0
M  V30 1470 N 150.766 -0.704594 1.40972 0
M  V30 1471 C 152.013 -1.46458 1.39844 0
M  V30 1472 C 152.341 -1.94499 0.00447594 0
M  V30 1473 O 151.596 -1.69275 -0.982057 0
M  V30 1474 C 151.895 -2.698 2.34399 0
M  V30 1475 C 151.561 -2.40464 3.81429 0
M  V30 1476 C 150.223 -2.32174 4.21484 0
M  V30 1477 C 152.575 -2.16086 4.74296 0
M  V30 1478 C 149.903 -1.97589 5.52427 0
M  V30 1479 C 152.255 -1.83011 6.05549 0
M  V30 1480 C 150.919 -1.7321 6.44635 0
M  V30 1481 H 150.189 -0.535927 0.511725 0
M  V30 1482 H 152.836 -0.806124 1.73706 0
M  V30 1483 H 151.141 -3.40536 1.93759 0
M  V30 1484 H 152.838 -3.27919 2.30804 0
M  V30 1485 H 149.428 -2.47808 3.49699 0
M  V30 1486 H 153.612 -2.2144 4.4416 0
M  V30 1487 H 148.868 -1.88547 5.81601 0
M  V30 1488 H 153.042 -1.63164 6.77016 0
M  V30 1489 H 150.669 -1.46179 7.46013 0
M  V30 1490 N 152.244 -1.26651 -0.937939 0
M  V30 1491 C 153.521 -1.0313 -1.66204 0
M  V30 1492 C 153.901 0.437256 -2.06522 0
M  V30 1493 O 153.249 1.41831 -1.79154 0
M  V30 1494 C 153.459 -1.98314 -2.87181 0
M  V30 1495 C 154.807 -2.27107 -3.58758 0
M  V30 1496 O 155.831 -1.96205 -2.97291 0
M  V30 1497 O 154.69 -2.79736 -4.69479 0
M  V30 1498 H 151.784 -0.392384 -0.727986 0
M  V30 1499 H 154.33 -1.37874 -0.989382 0
M  V30 1500 H 153.102 -2.97399 -2.54302 0
M  V30 1501 H 152.725 -1.64068 -3.6217 0
M  V30 1502 N 153.722 1.14298 -1.08507 0
M  V30 1503 C 155.138 1.37347 -0.812901 0
M  V30 1504 C 155.338 1.93052 0.577325 0
M  V30 1505 O 154.394 2.14389 1.33393 0
M  V30 1506 C 155.707 2.33359 -1.89642 0
M  V30 1507 C 157.255 2.46996 -1.92255 0
M  V30 1508 C 157.73 3.46309 -2.99724 0
M  V30 1509 N 159.221 3.53853 -2.98902 0
M  V30 1510 C 159.956 4.3055 -3.787 0
M  V30 1511 N 159.452 5.10482 -4.6838 0
M  V30 1512 N 161.245 4.25757 -3.66998 0
M  V30 1513 H 153.396 0.764867 -1.9815 0
M  V30 1514 H 155.659 0.398966 -0.859959 0
M  V30 1515 H 155.365 1.99565 -2.89597 0
M  V30 1516 H 155.239 3.33274 -1.76659 0
M  V30 1517 H 157.626 2.80081 -0.929445 0
M  V30 1518 H 157.707 1.47039 -2.09316 0
M  V30 1519 H 157.351 3.13957 -3.99241 0
M  V30 1520 H 157.281 4.46049 -2.79907 0
M  V30 1521 H 159.772 2.96812 -2.33904 0
M  V30 1522 H 160.085 5.66284 -5.25873 0
M  V30 1523 H 158.43 5.09747 -4.72422 0
M  V30 1524 H 161.621 3.62383 -2.96304 0
M  V30 1525 H 161.794 4.85279 -4.29427 0
M  V30 1526 N 155.201 0.870884 1.31352 0
M  V30 1527 C 156.426 0.495957 2.01383 0
M  V30 1528 C 156.851 -0.904324 1.64935 0
M  V30 1529 O 156.209 -1.59687 0.858466 0
M  V30 1530 C 156.257 0.661433 3.54482 0
M  V30 1531 O 155.361 -0.298851 4.11316 0
M  V30 1532 H 154.702 0.197158 0.634054 0
M  V30 1533 H 157.232 1.17455 1.67527 0
M  V30 1534 H 157.242 0.555072 4.04207 0
M  V30 1535 H 155.917 1.68246 3.8035 0
M  V30 1536 H 154.494 -0.147368 3.72609 0
M  V30 1537 N 156.679 -1.44442 0.630414 0
M  V30 1538 C 157.904 -2.06927 0.139944 0
M  V30 1539 C 158.329 -1.46795 -1.17613 0
M  V30 1540 O 157.687 -0.569144 -1.72135 0
M  V30 1541 C 157.735 -3.6058 0.0379581 0
M  V30 1542 O 156.839 -3.99937 -1.0062 0
M  V30 1543 H 156.18 -0.658608 0.0844483 0
M  V30 1544 H 158.71 -1.85327 0.866891 0
M  V30 1545 H 158.72 -4.07714 -0.152856 0
M  V30 1546 H 157.395 -4.03728 0.998809 0
M  V30 1547 H 155.972 -3.64436 -0.79001 0
M  V30 1548 N 158.157 -0.370918 -1.53173 0
M  V30 1549 C 159.089 0.507823 -2.23503 0
M  V30 1550 C 160.102 1.04182 -1.251 0
M  V30 1551 O 161.291 0.947286 -1.5129 0
M  V30 1552 C 158.391 1.71447 -2.92334 0
M  V30 1553 C 157.564 1.31105 -4.17289 0
M  V30 1554 C 156.623 2.38035 -4.69282 0
M  V30 1555 O 155.649 2.00204 -5.32829 0
M  V30 1556 N 156.851 3.69697 -4.47554 0
M  V30 1557 H 159.616 -0.0946382 -2.99551 0
M  V30 1558 H 157.177 -0.196358 -1.60705 0
M  V30 1559 H 159.169 2.42469 -3.24023 0
M  V30 1560 H 157.739 2.22368 -2.19707 0
M  V30 1561 H 156.959 0.430462 -3.91843 0
M  V30 1562 H 158.247 1.0179 -4.98514 0
M  V30 1563 H 157.645 4.03205 -3.9679 0
M  V30 1564 H 156.202 4.36807 -4.8378 0
M  V30 1565 N 159.635 1.57281 -0.100228 0
M  V30 1566 C 160.598 2.13158 0.842398 0
M  V30 1567 C 161.598 1.06202 1.20738 0
M  V30 1568 O 162.788 1.32066 1.13597 0
M  V30 1569 C 159.92 2.65639 2.13655 0
M  V30 1570 H 161.113 2.97766 0.357114 0
M  V30 1571 H 158.666 1.5559 0.148823 0
M  V30 1572 H 159.401 1.84566 2.66657 0
M  V30 1573 H 159.186 3.43844 1.88451 0
M  V30 1574 H 160.676 3.08846 2.81077 0
M  V30 1575 N 161.113 -0.173488 1.56642 0
M  V30 1576 C 162.36 -0.890465 1.81871 0
M  V30 1577 C 162.688 -1.82339 0.67696 0
M  V30 1578 O 161.943 -1.92795 -0.335926 0
M  V30 1579 C 162.242 -1.72069 3.13252 0
M  V30 1580 C 161.908 -0.936878 4.41059 0
M  V30 1581 C 160.57 -0.720545 4.75775 0
M  V30 1582 C 162.922 -0.386919 5.19762 0
M  V30 1583 C 160.25 0.0568829 5.86672 0
M  V30 1584 C 162.602 0.37741 6.31473 0
M  V30 1585 C 161.266 0.604563 6.64757 0
M  V30 1586 H 160.536 -0.325844 0.665512 0
M  V30 1587 H 163.183 -0.155527 1.90867 0
M  V30 1588 H 161.488 -2.52496 2.99588 0
M  V30 1589 H 163.185 -2.27844 3.29982 0
M  V30 1590 H 159.775 -1.11553 4.13828 0
M  V30 1591 H 163.959 -0.541398 4.93338 0
M  V30 1592 H 159.215 0.242635 6.10918 0
M  V30 1593 H 163.389 0.810825 6.91664 0
M  V30 1594 H 161.016 1.20885 7.50527 0
M  V30 1595 N 162.591 -1.51276 -0.441967 0
M  V30 1596 C 164.007 -1.39349 -0.778083 0
M  V30 1597 C 164.207 -0.472212 -1.95889 0
M  V30 1598 O 163.263 0.0743551 -2.5239 0
M  V30 1599 C 164.576 -2.81292 -1.0628 0
M  V30 1600 C 166.124 -2.9041 -1.16751 0
M  V30 1601 C 166.599 -4.33251 -1.48519 0
M  V30 1602 N 168.09 -4.36336 -1.55453 0
M  V30 1603 C 168.825 -5.43885 -1.81596 0
M  V30 1604 N 168.321 -6.61601 -2.05562 0
M  V30 1605 N 170.114 -5.3136 -1.8334 0
M  V30 1606 H 162.265 -2.09729 0.335774 0
M  V30 1607 H 164.528 -0.943925 0.0878028 0
M  V30 1608 H 164.234 -3.50678 -0.267905 0
M  V30 1609 H 164.108 -3.20334 -1.99163 0
M  V30 1610 H 166.495 -2.21225 -1.95304 0
M  V30 1611 H 166.576 -2.54871 -0.217801 0
M  V30 1612 H 166.22 -5.02984 -0.704958 0
M  V30 1613 H 166.15 -4.66299 -2.44689 0
M  V30 1614 H 168.641 -3.51466 -1.38853 0
M  V30 1615 H 168.954 -7.39361 -2.24867 0
M  V30 1616 H 167.299 -6.64725 -2.02894 0
M  V30 1617 H 170.49 -4.38382 -1.64132 0
M  V30 1618 H 170.663 -6.15258 -2.03377 0
M  V30 1619 N 164.069 0.697108 -1.41344 0
M  V30 1620 C 165.299 1.48377 -1.43763 0
M  V30 1621 C 165.707 1.89156 -0.0408726 0
M  V30 1622 O 165.05 1.57239 0.949812 0
M  V30 1623 C 165.112 2.7781 -2.2817 0
M  V30 1624 C 164.776 2.59244 -3.76353 0
M  V30 1625 C 165.773 2.25292 -4.68551 0
M  V30 1626 C 163.458 2.74933 -4.20378 0
M  V30 1627 C 165.452 2.07264 -6.02761 0
M  V30 1628 C 163.139 2.56521 -5.54653 0
M  V30 1629 C 164.137 2.22737 -6.4566 0
M  V30 1630 O 163.825 2.04485 -7.77458 0
M  V30 1631 H 163.557 0.463842 -0.491759 0
M  V30 1632 H 166.111 0.865934 -1.86255 0
M  V30 1633 H 164.341 3.41995 -1.8049 0
M  V30 1634 H 166.03 3.39608 -2.22309 0
M  V30 1635 H 166.796 2.12787 -4.35829 0
M  V30 1636 H 162.675 3.00213 -3.49848 0
M  V30 1637 H 166.219 1.80817 -6.73759 0
M  V30 1638 H 162.116 2.68616 -5.86955 0
M  V30 1639 H 162.884 2.1926 -7.88586 0
M  V30 1640 N 165.547 1.27147 0.931209 0
M  V30 1641 C 166.793 1.13446 1.68101 0
M  V30 1642 C 167.126 -0.319628 1.91552 0
M  V30 1643 O 166.401 -1.23407 1.50336 0
M  V30 1644 C 166.684 1.91482 3.0497 0
M  V30 1645 C 166.537 3.44855 2.88782 0
M  V30 1646 C 167.856 1.71651 4.05246 0
M  V30 1647 H 164.975 0.413498 0.610072 0
M  V30 1648 H 167.617 1.56261 1.08086 0
M  V30 1649 H 165.767 1.55095 3.56199 0
M  V30 1650 H 167.439 3.9105 2.44698 0
M  V30 1651 H 165.682 3.71373 2.24198 0
M  V30 1652 H 166.353 3.94694 3.85902 0
M  V30 1653 H 168.829 2.0337 3.63015 0
M  V30 1654 H 167.705 2.28651 4.99009 0
M  V30 1655 H 167.966 0.663555 4.37092 0
M  V30 1656 N 167.025 -1.13721 1.09112 0
M  V30 1657 C 167.955 -2.21148 0.749385 0
M  V30 1658 C 168.936 -1.6792 -0.271475 0
M  V30 1659 O 170.121 -1.93693 -0.140251 0
M  V30 1660 C 167.251 -3.46905 0.165659 0
M  V30 1661 C 166.205 -4.13203 1.11567 0
M  V30 1662 C 165.531 -5.33248 0.393809 0
M  V30 1663 C 166.831 -4.60912 2.45678 0
M  V30 1664 H 168.525 -2.4999 1.64758 0
M  V30 1665 H 166.071 -1.20156 0.793626 0
M  V30 1666 H 168.024 -4.21313 -0.085466 0
M  V30 1667 H 166.748 -3.17449 -0.767714 0
M  V30 1668 H 165.407 -3.40758 1.35202 0
M  V30 1669 H 165.055 -5.00054 -0.543599 0
M  V30 1670 H 164.755 -5.78552 1.02721 0
M  V30 1671 H 166.279 -6.10413 0.150908 0
M  V30 1672 H 167.693 -5.26759 2.26269 0
M  V30 1673 H 166.09 -5.16944 3.04776 0
M  V30 1674 H 167.16 -3.75603 3.06677 0
M  V30 1675 N 168.503 -0.877838 -1.30888 0
M  V30 1676 C 169.453 -0.310872 -2.25871 0
M  V30 1677 C 170.437 0.556596 -1.50966 0
M  V30 1678 O 171.629 0.402187 -1.7237 0
M  V30 1679 C 168.758 0.479821 -3.3993 0
M  V30 1680 C 167.844 -0.401333 -4.22197 0
M  V30 1681 N 168.235 -1.49848 -4.83093 0
M  V30 1682 C 166.533 -0.195167 -4.45573 0
M  V30 1683 C 167.234 -2.0425 -5.44662 0
M  V30 1684 N 166.21 -1.33843 -5.26865 0
M  V30 1685 H 170.012 -1.1493 -2.70496 0
M  V30 1686 H 167.526 -0.726458 -1.45246 0
M  V30 1687 H 169.523 0.902582 -4.07012 0
M  V30 1688 H 168.183 1.31577 -2.96846 0
M  V30 1689 H 169.194 -1.88137 -4.82519 0
M  V30 1690 H 165.871 0.604192 -4.13105 0
M  V30 1691 H 167.261 -2.96345 -6.03017 0
M  V30 1692 N 169.982 1.44106 -0.638065 0
M  V30 1693 C 171.212 2.06037 -0.152394 0
M  V30 1694 C 171.62 1.47808 1.18108 0
M  V30 1695 O 170.963 0.598092 1.73691 0
M  V30 1696 C 171.025 3.59488 0.0293714 0
M  V30 1697 C 170.689 4.4022 -1.22702 0
M  V30 1698 C 171.686 4.73256 -2.15232 0
M  V30 1699 C 169.371 4.8048 -1.46437 0
M  V30 1700 C 171.365 5.45444 -3.29802 0
M  V30 1701 C 169.052 5.52417 -2.61303 0
M  V30 1702 C 170.05 5.84819 -3.52811 0
M  V30 1703 O 169.738 6.55289 -4.65673 0
M  V30 1704 H 169.47 0.671233 -0.0801401 0
M  V30 1705 H 172.024 1.85851 -0.874563 0
M  V30 1706 H 170.254 3.78191 0.806758 0
M  V30 1707 H 171.943 4.03164 0.470475 0
M  V30 1708 H 172.709 4.42684 -1.98131 0
M  V30 1709 H 168.588 4.54676 -0.760977 0
M  V30 1710 H 172.132 5.70653 -4.01249 0
M  V30 1711 H 168.029 5.82404 -2.78344 0
M  V30 1712 H 168.797 6.73762 -4.64744 0
M  V30 1713 N 171.46 0.379036 1.52974 0
M  V30 1714 C 172.69 -0.20649 2.05566 0
M  V30 1715 C 173.098 -1.41906 1.25137 0
M  V30 1716 O 172.441 -1.81421 0.288464 0
M  V30 1717 C 172.503 -0.651086 3.53555 0
M  V30 1718 C 172.167 0.446626 4.54812 0
M  V30 1719 C 173.164 1.30079 5.03364 0
M  V30 1720 C 170.849 0.610719 4.98573 0
M  V30 1721 C 172.843 2.30426 5.94292 0
M  V30 1722 C 170.53 1.61754 5.89304 0
M  V30 1723 C 171.528 2.46274 6.37054 0
M  V30 1724 O 171.216 3.45237 7.25994 0
M  V30 1725 H 170.948 -0.0372381 0.674974 0
M  V30 1726 H 173.502 0.539718 1.98182 0
M  V30 1727 H 171.732 -1.44911 3.58522 0
M  V30 1728 H 173.421 -1.16112 3.88938 0
M  V30 1729 H 174.187 1.18527 4.70294 0
M  V30 1730 H 170.066 -0.0374044 4.60985 0
M  V30 1731 H 173.61 2.96432 6.31485 0
M  V30 1732 H 169.507 1.73348 6.21788 0
M  V30 1733 H 170.275 3.41124 7.44027 0
M  V30 1734 N 172.938 -1.57226 0.108567 0
M  V30 1735 C 174.354 -1.5766 -0.248058 0
M  V30 1736 C 174.554 -1.12063 -1.67464 0
M  V30 1737 O 173.61 -0.803236 -2.39383 0
M  V30 1738 C 174.923 -3.0069 -0.0242287 0
M  V30 1739 C 176.471 -3.12868 -0.0909372 0
M  V30 1740 C 176.946 -4.57879 0.105067 0
M  V30 1741 N 178.437 -4.63172 0.0506846 0
M  V30 1742 C 179.172 -5.73126 0.177396 0
M  V30 1743 N 178.668 -6.91866 0.359696 0
M  V30 1744 N 180.461 -5.61977 0.117709 0
M  V30 1745 H 172.612 -1.85169 1.04049 0
M  V30 1746 H 174.875 -0.85529 0.40888 0
M  V30 1747 H 174.581 -3.38299 0.961604 0
M  V30 1748 H 174.455 -3.6945 -0.76068 0
M  V30 1749 H 176.842 -2.75124 -1.06729 0
M  V30 1750 H 176.923 -2.46672 0.677225 0
M  V30 1751 H 176.567 -4.96321 1.07834 0
M  V30 1752 H 176.497 -5.22153 -0.682954 0
M  V30 1753 H 178.988 -3.778 -0.0871266 0
M  V30 1754 H 179.301 -7.71503 0.447529 0
M  V30 1755 H 177.646 -6.93874 0.395536 0
M  V30 1756 H 180.837 -4.68094 -0.0236741 0
M  V30 1757 H 181.01 -6.47627 0.219905 0
M  V30 1758 N 174.416 0.165178 -1.56732 0
M  V30 1759 C 175.644 0.896218 -1.86482 0
M  V30 1760 C 176.059 1.75555 -0.694675 0
M  V30 1761 O 175.416 1.79379 0.33607 0
M  V30 1762 C 175.467 1.76792 -3.1532 0
M  V30 1763 O 175.188 0.943239 -4.27825 0
M  V30 1764 C 176.689 2.6081 -3.58459 0
M  V30 1765 H 173.909 0.260064 -0.618553 0
M  V30 1766 H 176.453 0.163428 -2.03846 0
M  V30 1767 H 174.608 2.45398 -2.99764 0
M  V30 1768 H 175.022 1.53998 -5.01383 0
M  V30 1769 H 176.496 3.17579 -4.51495 0
M  V30 1770 H 176.973 3.35977 -2.82872 0
M  V30 1771 H 177.579 1.97526 -3.76648 0
M  V30 1772 N 175.894 1.51508 0.433938 0
M  V30 1773 C 177.142 1.6402 1.18075 0
M  V30 1774 C 177.463 0.360328 1.91642 0
M  V30 1775 O 176.733 -0.623945 1.85698 0
M  V30 1776 H 175.313 0.6045 0.43885 0
M  V30 1777 H 177.975 1.88452 0.497178 0
M  V30 1778 H 177.071 2.46949 1.90847 0
M  V30 1779 N 177.372 -0.689602 1.41712 0
M  V30 1780 C 178.788 -1.00093 1.24312 0
M  V30 1781 C 178.988 -2.01036 0.136729 0
M  V30 1782 O 178.044 -2.47562 -0.496918 0
M  V30 1783 C 179.357 -1.51985 2.59463 0
M  V30 1784 C 180.905 -1.63838 2.66695 0
M  V30 1785 C 181.38 -2.1913 4.02177 0
M  V30 1786 N 182.871 -2.26483 4.04054 0
M  V30 1787 C 183.606 -2.70306 5.0569 0
M  V30 1788 N 183.102 -3.13691 6.17713 0
M  V30 1789 N 184.895 -2.69923 4.9305 0
M  V30 1790 H 177.046 -0.0210029 2.1239 0
M  V30 1791 H 179.309 -0.0718733 0.945272 0
M  V30 1792 H 179.015 -0.85269 3.41207 0
M  V30 1793 H 178.889 -2.50103 2.82362 0
M  V30 1794 H 181.276 -2.29664 1.85306 0
M  V30 1795 H 181.357 -0.642492 2.476 0
M  V30 1796 H 181.001 -1.53918 4.84016 0
M  V30 1797 H 180.931 -3.19482 4.18615 0
M  V30 1798 H 183.422 -1.95874 3.23174 0
M  V30 1799 H 183.735 -3.45773 6.9113 0
M  V30 1800 H 182.08 -3.11585 6.21241 0
M  V30 1801 H 185.271 -2.35382 4.04614 0
M  V30 1802 H 185.444 -3.03758 5.72394 0
M  V30 1803 N 178.85 -1.27639 -0.924453 0
M  V30 1804 C 179.78 -1.13166 -2.04244 0
M  V30 1805 C 180.761 -0.032256 -1.70069 0
M  V30 1806 O 181.946 -0.207328 -1.9309 0
M  V30 1807 C 179.076 -0.781496 -3.38393 0
M  V30 1808 C 178.03 -1.83449 -3.86692 0
M  V30 1809 C 177.356 -1.33822 -5.17683 0
M  V30 1810 C 178.656 -3.23917 -4.09726 0
M  V30 1811 H 180.35 -2.06689 -2.1661 0
M  V30 1812 H 177.896 -0.995136 -1.04082 0
M  V30 1813 H 179.849 -0.667057 -4.16087 0
M  V30 1814 H 178.573 0.189439 -3.2605 0
M  V30 1815 H 177.232 -1.93789 -3.11193 0
M  V30 1816 H 176.88 -0.35665 -5.01734 0
M  V30 1817 H 176.58 -2.04224 -5.50968 0
M  V30 1818 H 178.104 -1.23679 -5.97943 0
M  V30 1819 H 179.518 -3.16559 -4.77978 0
M  V30 1820 H 177.915 -3.92059 -4.54324 0
M  V30 1821 H 178.985 -3.68729 -3.14908 0
M  V30 1822 N 180.328 1.1314 -1.09713 0
M  V30 1823 C 181.278 2.16709 -0.708593 0
M  V30 1824 C 182.262 1.58471 0.278523 0
M  V30 1825 O 183.454 1.76779 0.088427 0
M  V30 1826 C 180.583 3.43039 -0.133923 0
M  V30 1827 C 179.669 4.08277 -1.14763 0
M  V30 1828 N 180.06 4.48637 -2.33577 0
M  V30 1829 C 178.358 4.34954 -0.986446 0
M  V30 1830 C 179.059 4.9952 -2.98085 0
M  V30 1831 N 178.035 4.94561 -2.25632 0
M  V30 1832 H 181.837 2.45672 -1.61315 0
M  V30 1833 H 179.351 1.29967 -0.973775 0
M  V30 1834 H 181.348 4.16583 0.162465 0
M  V30 1835 H 180.008 3.15549 0.765447 0
M  V30 1836 H 181.019 4.41246 -2.7115 0
M  V30 1837 H 177.696 4.17258 -0.142008 0
M  V30 1838 H 179.086 5.40521 -3.99108 0
M  V30 1839 N 181.806 0.884767 1.30421 0
M  V30 1840 C 183.052 0.503851 1.96441 0
M  V30 1841 C 183.385 -0.944518 1.69684 0
M  V30 1842 O 182.66 -1.66737 1.00145 0
M  V30 1843 C 182.943 0.779085 3.51571 0
M  V30 1844 C 182.796 2.27807 3.87846 0
M  V30 1845 C 184.115 0.255452 4.39358 0
M  V30 1846 H 181.234 0.184533 0.713524 0
M  V30 1847 H 183.876 1.10872 1.54297 0
M  V30 1848 H 182.026 0.264274 3.876 0
M  V30 1849 H 183.698 2.86127 3.61841 0
M  V30 1850 H 181.941 2.74479 3.35922 0
M  V30 1851 H 182.612 2.42125 4.96064 0
M  V30 1852 H 185.088 0.696079 4.10236 0
M  V30 1853 H 183.964 0.477361 5.4682 0
M  V30 1854 H 184.225 -0.843293 4.33983 0
M  V30 1855 N 183.284 -1.43765 0.645699 0
M  V30 1856 C 184.217 -2.2798 -0.100072 0
M  V30 1857 C 185.195 -1.39391 -0.837194 0
M  V30 1858 O 186.379 -1.68833 -0.838306 0
M  V30 1859 C 183.506 -3.18643 -1.14823 0
M  V30 1860 C 182.552 -4.2344 -0.510009 0
M  V30 1861 S 183.385 -5.30761 0.710824 0
M  V30 1862 C 184.541 -6.24992 -0.33699 0
M  V30 1863 H 184.774 -2.90884 0.614322 0
M  V30 1864 H 182.307 -1.48166 0.434304 0
M  V30 1865 H 184.265 -3.71424 -1.74799 0
M  V30 1866 H 182.926 -2.54932 -1.8349 0
M  V30 1867 H 182.119 -4.86948 -1.29991 0
M  V30 1868 H 181.721 -3.73997 0.0154577 0
M  V30 1869 H 184.013 -6.66691 -1.20537 0
M  V30 1870 H 184.956 -7.07612 0.262879 0
M  V30 1871 H 185.364 -5.60517 -0.669425 0
M  V30 1872 N 184.763 -0.387143 -1.52771 0
M  V30 1873 C 185.673 0.456442 -2.30117 0
M  V30 1874 C 186.689 1.07342 -1.36944 0
M  V30 1875 O 187.865 1.07971 -1.70013 0
M  V30 1876 C 184.93 1.56957 -3.09136 0
M  V30 1877 C 183.991 0.977916 -4.18014 0
M  V30 1878 C 183.224 2.038 -4.93256 0
M  V30 1879 O 183.447 3.25271 -4.68567 0
M  V30 1880 O 182.381 1.6565 -5.78657 0
M  V30 1881 H 186.207 -0.17359 -3.03203 0
M  V30 1882 H 183.792 -0.150919 -1.48636 0
M  V30 1883 H 185.674 2.21628 -3.58412 0
M  V30 1884 H 184.349 2.18461 -2.38865 0
M  V30 1885 H 183.256 0.294525 -3.72939 0
M  V30 1886 H 184.589 0.407128 -4.90513 0
M  V30 1887 N 186.241 1.57166 -0.116904 0
M  V30 1888 C 187.173 2.12271 0.864507 0
M  V30 1889 C 188.186 1.06494 1.23138 0
M  V30 1890 O 189.375 1.33873 1.18069 0
M  V30 1891 C 186.475 2.60564 2.16702 0
M  V30 1892 C 185.648 3.90416 1.97216 0
M  V30 1893 C 184.707 4.24329 3.11178 0
M  V30 1894 O 183.733 4.93182 2.84184 0
M  V30 1895 N 184.935 3.8148 4.37554 0
M  V30 1896 H 187.7 2.97102 0.393726 0
M  V30 1897 H 185.261 1.61759 0.0675805 0
M  V30 1898 H 187.253 2.80282 2.91932 0
M  V30 1899 H 185.823 1.80623 2.55135 0
M  V30 1900 H 185.043 3.79627 1.06192 0
M  V30 1901 H 186.331 4.75327 1.81499 0
M  V30 1902 H 185.729 3.25943 4.62361 0
M  V30 1903 H 184.286 4.06311 5.09661 0
M  V30 1904 N 187.719 -0.156864 1.56817 0
M  V30 1905 C 188.649 -1.19589 2.00551 0
M  V30 1906 C 189.63 -1.4536 0.883426 0
M  V30 1907 O 190.815 -1.56449 1.15054 0
M  V30 1908 C 187.945 -2.53143 2.37773 0
M  V30 1909 C 186.899 -2.41913 3.53075 0
M  V30 1910 C 186.225 -3.80088 3.76081 0
M  V30 1911 C 187.525 -1.91157 4.86062 0
M  V30 1912 H 189.219 -0.832293 2.87599 0
M  V30 1913 H 186.765 -0.398918 1.38364 0
M  V30 1914 H 188.718 -3.26047 2.66967 0
M  V30 1915 H 187.442 -2.91319 1.4765 0
M  V30 1916 H 186.101 -1.71462 3.24031 0
M  V30 1917 H 185.749 -4.15683 2.83225 0
M  V30 1918 H 185.449 -3.73439 4.53671 0
M  V30 1919 H 186.973 -4.54556 4.0769 0
M  V30 1920 H 188.387 -2.53846 5.14038 0
M  V30 1921 H 186.784 -1.95422 5.67389 0
M  V30 1922 H 187.854 -0.866673 4.77092 0
M  V30 1923 N 189.197 -1.51736 -0.425897 0
M  V30 1924 C 190.437 -1.66636 -1.18371 0
M  V30 1925 C 190.801 -0.379854 -1.88205 0
M  V30 1926 O 192.002 -0.404758 -2.65735 0
M  V30 1927 C 190.273 -2.84382 -2.16476 0
M  V30 1928 S 191.832 -3.19673 -3.0059 0
M  V30 1929 H 188.65 -0.586957 -0.40125 0
M  V30 1930 H 191.252 -1.89679 -0.473518 0
M  V30 1931 H 189.956 -3.76281 -1.63831 0
M  V30 1932 H 189.487 -2.63562 -2.92059 0
M  V30 1933 H 191.502 -2.66994 -4.18245 0
M  V30 1934 N 190.675 0.682077 -1.42076 0
M  V30 1935 C 191.638 1.77756 -1.44691 0
M  V30 1936 C 192.638 1.5726 -0.335535 0
M  V30 1937 O 193.828 1.63686 -0.596037 0
M  V30 1938 C 190.96 3.16301 -1.27146 0
M  V30 1939 H 192.153 1.76826 -2.42224 0
M  V30 1940 H 189.706 0.891012 -1.28416 0
M  V30 1941 H 190.441 3.22862 -0.305075 0
M  V30 1942 H 190.226 3.32581 -2.07683 0
M  V30 1943 H 191.716 3.96241 -1.31843 0
M  V30 1944 N 192.153 1.28127 0.917671 0
M  V30 1945 C 193.083 1.14248 2.03641 0
M  V30 1946 C 194.064 0.0412748 1.7005 0
M  V30 1947 O 195.249 0.217566 1.92977 0
M  V30 1948 C 192.379 0.799431 3.37974 0
M  V30 1949 C 191.333 1.85497 3.85713 0
M  V30 1950 C 190.659 1.36565 5.16966 0
M  V30 1951 C 191.959 3.26085 4.08002 0
M  V30 1952 H 193.653 2.07835 2.15511 0
M  V30 1953 H 191.199 1.00064 1.03553 0
M  V30 1954 H 193.152 0.689114 4.15727 0
M  V30 1955 H 191.876 -0.172145 3.26146 0
M  V30 1956 H 190.535 1.95437 3.10161 0
M  V30 1957 H 190.183 0.383253 5.01538 0
M  V30 1958 H 189.883 2.07143 5.49878 0
M  V30 1959 H 191.407 1.26848 5.97279 0
M  V30 1960 H 192.821 3.19089 4.76293 0
M  V30 1961 H 191.218 3.94462 4.52238 0
M  V30 1962 H 192.288 3.70394 3.12948 0
M  V30 1963 N 193.631 -1.12557 1.10312 0
M  V30 1964 C 194.856 -1.88405 0.867085 0
M  V30 1965 C 195.281 -1.79038 -0.576817 0
M  V30 1966 O 194.639 -1.14439 -1.40618 0
M  V30 1967 C 194.687 -3.3563 1.31851 0
M  V30 1968 O 193.791 -4.09565 0.482734 0
M  V30 1969 H 193.132 -0.585455 0.313271 0
M  V30 1970 H 195.662 -1.42352 1.4696 0
M  V30 1971 H 195.672 -3.86469 1.3079 0
M  V30 1972 H 194.347 -3.41765 2.37001 0
M  V30 1973 H 192.924 -3.68695 0.558448 0
M  V30 1974 N 195.109 -0.891671 -1.2995 0
M  V30 1975 C 196.356 -0.513501 -1.95881 0
M  V30 1976 C 196.684 0.938655 -1.70351 0
M  V30 1977 O 195.939 1.67936 -1.00478 0
M  V30 1978 C 196.238 -0.742868 -3.49594 0
M  V30 1979 C 195.904 -2.17114 -3.95186 0
M  V30 1980 C 194.566 -2.56169 -4.07346 0
M  V30 1981 C 196.918 -3.10162 -4.18866 0
M  V30 1982 C 194.246 -3.87469 -4.4055 0
M  V30 1983 C 196.598 -4.41001 -4.53542 0
M  V30 1984 C 195.262 -4.79941 -4.63911 0
M  V30 1985 H 194.532 -0.187903 -0.71678 0
M  V30 1986 H 197.179 -1.1288 -1.54694 0
M  V30 1987 H 195.484 -0.044586 -3.91775 0
M  V30 1988 H 197.181 -0.429767 -3.9869 0
M  V30 1989 H 193.771 -1.85801 -3.86233 0
M  V30 1990 H 197.955 -2.81206 -4.08946 0
M  V30 1991 H 193.211 -4.17371 -4.46779 0
M  V30 1992 H 197.385 -5.13133 -4.70815 0
M  V30 1993 H 195.012 -5.81719 -4.89395 0
M  V30 1994 N 196.587 1.43421 -0.653314 0
M  V30 1995 C 197.517 2.33487 0.0246656 0
M  V30 1996 C 198.498 1.49475 0.811863 0
M  V30 1997 O 199.683 1.78139 0.773322 0
M  V30 1998 C 196.813 3.32841 0.99166 0
M  V30 1999 C 195.767 4.26842 0.314568 0
M  V30 2000 C 195.093 5.16236 1.39302 0
M  V30 2001 C 196.393 5.16243 -0.793095 0
M  V30 2002 H 198.087 2.90427 -0.727481 0
M  V30 2003 H 195.633 1.39649 -0.351287 0
M  V30 2004 H 197.586 3.94747 1.47487 0
M  V30 2005 H 196.31 2.74158 1.77497 0
M  V30 2006 H 194.969 3.663 -0.148199 0
M  V30 2007 H 194.617 4.53891 2.16776 0
M  V30 2008 H 194.317 5.79948 0.945223 0
M  V30 2009 H 195.841 5.81015 1.87759 0
M  V30 2010 H 197.255 5.71958 -0.392039 0
M  V30 2011 H 195.652 5.88676 -1.16536 0
M  V30 2012 H 196.722 4.55927 -1.65103 0
M  V30 2013 N 198.065 0.39524 1.52563 0
M  V30 2014 C 198.997 -0.472201 2.24283 0
M  V30 2015 C 200.01 -1.02178 1.26742 0
M  V30 2016 O 201.199 -0.923097 1.52778 0
M  V30 2017 C 198.299 -1.66775 2.95024 0
M  V30 2018 C 197.472 -1.2445 4.19322 0
M  V30 2019 C 196.531 -2.30539 4.7301 0
M  V30 2020 O 195.557 -1.91702 5.35947 0
M  V30 2021 N 196.759 -3.6253 4.53379 0
M  V30 2022 H 199.524 0.142282 2.99362 0
M  V30 2023 H 197.085 0.2219 1.60372 0
M  V30 2024 H 199.077 -2.37283 3.27839 0
M  V30 2025 H 197.647 -2.18845 2.23217 0
M  V30 2026 H 196.867 -0.368069 3.92478 0
M  V30 2027 H 198.155 -0.938457 5.0007 0
M  V30 2028 H 197.553 -3.96841 4.03154 0
M  V30 2029 H 196.11 -4.29055 4.90668 0
M  V30 2030 N 199.544 -1.57102 0.125237 0
M  V30 2031 C 200.454 -2.19191 -0.8362 0
M  V30 2032 C 201.47 -1.16985 -1.28805 0
M  V30 2033 O 202.646 -1.49479 -1.34974 0
M  V30 2034 C 199.711 -2.78407 -2.06617 0
M  V30 2035 C 198.772 -3.9567 -1.66565 0
M  V30 2036 C 198.005 -4.52052 -2.83698 0
M  V30 2037 O 198.228 -4.07326 -3.99302 0
M  V30 2038 O 197.162 -5.42645 -2.60423 0
M  V30 2039 H 200.988 -3.01816 -0.337776 0
M  V30 2040 H 198.573 -1.4906 -0.100695 0
M  V30 2041 H 200.455 -3.16129 -2.7864 0
M  V30 2042 H 199.13 -1.9881 -2.55453 0
M  V30 2043 H 198.037 -3.62705 -0.916296 0
M  V30 2044 H 199.37 -4.76722 -1.22464 0
M  V30 2045 N 201.022 0.148545 -1.56898 0
M  V30 2046 C 202.271 0.85984 -1.82454 0
M  V30 2047 C 202.584 1.82406 -0.706229 0
M  V30 2048 O 203.79 2.57938 -0.847349 0
M  V30 2049 C 202.246 1.57967 -3.2338 0
M  V30 2050 C 201.854 0.65794 -4.43142 0
M  V30 2051 C 203.598 2.27784 -3.58211 0
M  V30 2052 C 201.505 1.3793 -5.75091 0
M  V30 2053 H 200.435 0.324834 -0.68044 0
M  V30 2054 H 203.086 0.112588 -1.83154 0
M  V30 2055 H 201.468 2.37249 -3.17063 0
M  V30 2056 H 202.642 -0.0995497 -4.60692 0
M  V30 2057 H 200.957 0.0682643 -4.16344 0
M  V30 2058 H 203.554 2.8239 -4.54048 0
M  V30 2059 H 203.897 3.04204 -2.84193 0
M  V30 2060 H 204.43 1.55421 -3.66182 0
M  V30 2061 H 201.169 0.656982 -6.52199 0
M  V30 2062 H 200.689 2.10954 -5.61479 0
M  V30 2063 H 202.368 1.92063 -6.17835 0
M  V30 2064 N 202.5 1.5196 0.417844 0
M  V30 2065 C 203.432 1.70895 1.52733 0
M  V30 2066 C 204.445 0.589405 1.51756 0
M  V30 2067 O 205.634 0.864312 1.56179 0
M  V30 2068 C 202.734 1.72627 2.91639 0
M  V30 2069 C 201.907 3.01479 3.16905 0
M  V30 2070 C 200.966 2.95139 4.35637 0
M  V30 2071 O 199.992 3.69059 4.3334 0
M  V30 2072 N 201.194 2.12328 5.40275 0
M  V30 2073 H 203.959 2.66612 1.36888 0
M  V30 2074 H 201.52 1.50089 0.607037 0
M  V30 2075 H 203.512 1.65928 3.6912 0
M  V30 2076 H 202.082 0.844216 3.00985 0
M  V30 2077 H 201.302 3.21895 2.27546 0
M  V30 2078 H 202.59 3.86736 3.30625 0
M  V30 2079 H 201.988 1.51685 5.44985 0
M  V30 2080 H 200.545 2.11494 6.16534 0
M  V30 2081 N 203.978 -0.674533 1.42435 0
M  V30 2082 C 205.208 -1.46071 1.46105 0
M  V30 2083 C 205.616 -1.89067 0.0709605 0
M  V30 2084 O 204.959 -1.58731 -0.924677 0
M  V30 2085 C 205.021 -2.74145 2.32561 0
M  V30 2086 C 204.685 -2.53224 3.8043 0
M  V30 2087 C 205.682 -2.17809 4.72075 0
M  V30 2088 C 203.367 -2.6821 4.24698 0
M  V30 2089 C 205.361 -1.97648 6.05982 0
M  V30 2090 C 203.048 -2.47665 5.58664 0
M  V30 2091 C 204.046 -2.12437 6.49122 0
M  V30 2092 O 203.734 -1.9209 7.80613 0
M  V30 2093 H 203.466 -0.455959 0.499076 0
M  V30 2094 H 206.02 -0.836193 1.87609 0
M  V30 2095 H 204.25 -3.3908 1.85908 0
M  V30 2096 H 205.939 -3.36028 2.27683 0
M  V30 2097 H 206.705 -2.05826 4.39159 0
M  V30 2098 H 202.584 -2.94609 3.54579 0
M  V30 2099 H 206.128 -1.70075 6.7655 0
M  V30 2100 H 202.025 -2.59244 5.91154 0
M  V30 2101 H 202.793 -2.06686 7.91974 0
M  V30 2102 N 205.456 -1.28612 -0.910864 0
M  V30 2103 C 206.702 -1.17116 -1.66299 0
M  V30 2104 C 207.057 0.276917 -1.90397 0
M  V30 2105 O 206.35 1.19795 -1.49532 0
M  V30 2106 C 206.544 -1.90624 -3.0232 0
M  V30 2107 C 206.373 -3.42431 -2.91498 0
M  V30 2108 C 205.143 -4.11773 -2.92867 0
M  V30 2109 C 207.341 -4.38124 -2.69355 0
M  V30 2110 N 205.323 -5.50025 -2.72664 0
M  V30 2111 C 206.694 -5.63759 -2.58023 0
M  V30 2112 C 208.749 -4.28016 -2.54375 0
M  V30 2113 C 207.452 -6.80436 -2.33238 0
M  V30 2114 C 209.478 -5.44433 -2.30969 0
M  V30 2115 C 208.84 -6.69034 -2.20394 0
M  V30 2116 H 204.939 -0.483506 -0.61461 0
M  V30 2117 H 207.523 -1.62299 -1.0755 0
M  V30 2118 H 205.694 -1.4787 -3.5915 0
M  V30 2119 H 207.426 -1.71488 -3.66571 0
M  V30 2120 H 204.181 -3.63378 -3.03732 0
M  V30 2121 H 204.605 -6.22705 -2.65646 0
M  V30 2122 H 209.247 -3.32388 -2.613 0
M  V30 2123 H 206.965 -7.7613 -2.25051 0
M  V30 2124 H 210.551 -5.38504 -2.20238 0
M  V30 2125 H 209.431 -7.57595 -2.02531 0
M  V30 2126 N 206.934 1.1197 -1.10907 0
M  V30 2127 C 208.182 1.83225 -0.852819 0
M  V30 2128 C 208.503 1.84769 0.623341 0
M  V30 2129 O 207.773 1.3143 1.45269 0
M  V30 2130 H 206.353 0.67849 -0.312507 0
M  V30 2131 H 209.015 1.3556 -1.40033 0
M  V30 2132 H 208.111 2.87265 -1.22005 0
M  V30 2133 N 208.412 0.89855 1.29475 0
M  V30 2134 C 209.661 0.519863 1.94885 0
M  V30 2135 C 209.974 -0.9383 1.71625 0
M  V30 2136 O 211.18 -1.42445 2.31131 0
M  V30 2137 C 209.636 0.878836 3.49005 0
M  V30 2138 C 209.244 2.35569 3.81066 0
M  V30 2139 C 210.988 0.570004 4.20656 0
M  V30 2140 C 208.895 2.65558 5.28425 0
M  V30 2141 H 207.825 0.190692 0.729488 0
M  V30 2142 H 210.476 1.09539 1.47219 0
M  V30 2143 H 208.858 0.232253 3.95318 0
M  V30 2144 H 210.032 3.04773 3.45616 0
M  V30 2145 H 208.347 2.63343 3.22552 0
M  V30 2146 H 210.944 0.770925 5.29113 0
M  V30 2147 H 211.287 -0.491404 4.1339 0
M  V30 2148 H 211.82 1.17438 3.8007 0
M  V30 2149 H 208.559 3.70493 5.40754 0
M  V30 2150 H 208.079 2.00977 5.65127 0
M  V30 2151 H 209.758 2.51765 5.96006 0
M  V30 2152 N 209.89 -1.43072 0.660911 0
M  V30 2153 C 211.167 -1.95307 0.107017 0
M  V30 2154 C 211.547 -1.60192 -1.37484 0
M  V30 2155 O 210.895 -0.890949 -2.10415 0
M  V30 2156 C 211.105 -3.47124 0.361402 0
M  V30 2157 C 212.453 -4.23738 0.270455 0
M  V30 2158 O 213.477 -3.54981 0.294382 0
M  V30 2159 O 212.336 -5.46131 0.200737 0
M  V30 2160 H 209.43 -0.826984 -0.00517729 0
M  V30 2161 H 211.976 -1.52972 0.734681 0
M  V30 2162 H 210.748 -3.65837 1.38848 0
M  V30 2163 H 210.371 -3.96475 -0.298953 0
M  V30 2164 N 211.368 -0.403325 -1.52352 0
M  V30 2165 C 212.278 0.432009 -2.30588 0
M  V30 2166 C 213.294 1.05884 -1.38075 0
M  V30 2167 O 214.47 1.06161 -1.71148 0
M  V30 2168 C 211.535 1.53669 -3.10784 0
M  V30 2169 C 210.596 0.933525 -4.19027 0
M  V30 2170 C 209.829 1.98557 -4.9539 0
M  V30 2171 O 210.052 3.20283 -4.71991 0
M  V30 2172 O 208.986 1.59504 -5.80381 0
M  V30 2173 H 212.812 -0.205739 -3.03002 0
M  V30 2174 H 210.397 -0.166675 -1.48467 0
M  V30 2175 H 212.279 2.17814 -3.60742 0
M  V30 2176 H 210.954 2.15915 -2.41169 0
M  V30 2177 H 209.861 0.254954 -3.7323 0
M  V30 2178 H 211.194 0.35508 -4.90918 0
M  V30 2179 N 212.846 1.57033 -0.133567 0
M  V30 2180 C 213.776 2.1909 0.807567 0
M  V30 2181 C 214.757 1.13517 1.26681 0
M  V30 2182 O 215.942 1.41809 1.32679 0
M  V30 2183 C 213.072 2.80188 2.05212 0
M  V30 2184 C 212.026 3.91471 1.73015 0
M  V30 2185 C 211.352 4.39443 3.04622 0
M  V30 2186 C 212.652 5.12886 0.987168 0
M  V30 2187 H 214.346 2.97988 0.290403 0
M  V30 2188 H 211.892 1.43335 0.138239 0
M  V30 2189 H 213.845 3.22264 2.71521 0
M  V30 2190 H 212.569 1.98601 2.59278 0
M  V30 2191 H 211.228 3.49993 1.0909 0
M  V30 2192 H 210.876 3.54695 3.56651 0
M  V30 2193 H 210.576 5.14495 2.83847 0
M  V30 2194 H 212.1 4.8418 3.72024 0
M  V30 2195 H 213.514 5.51891 1.55208 0
M  V30 2196 H 211.911 5.93615 0.87985 0
M  V30 2197 H 212.981 4.84894 -0.0235286 0
M  V30 2198 N 214.325 -0.140222 1.56975 0
M  V30 2199 C 215.55 -0.870414 1.88251 0
M  V30 2200 C 215.975 -1.73637 0.723312 0
M  V30 2201 O 215.333 -1.78329 -0.32689 0
M  V30 2202 C 215.381 -1.69737 3.18154 0
M  V30 2203 O 214.485 -2.80229 3.02565 0
M  V30 2204 H 213.826 -0.242025 0.61832 0
M  V30 2205 H 216.356 -0.128999 2.04193 0
M  V30 2206 H 216.366 -2.09099 3.50345 0
M  V30 2207 H 215.041 -1.06152 4.02125 0
M  V30 2208 H 213.618 -2.44224 2.81796 0
M  V30 2209 N 215.803 -1.52179 -0.40978 0
M  V30 2210 C 217.052 -1.65434 -1.15388 0
M  V30 2211 C 217.365 -0.390056 -1.91671 0
M  V30 2212 O 218.571 -0.402399 -2.68501 0
M  V30 2213 C 217.027 -2.92279 -2.10003 0
M  V30 2214 C 216.635 -4.25813 -1.39239 0
M  V30 2215 C 218.379 -3.14897 -2.84675 0
M  V30 2216 C 216.286 -5.43782 -2.32498 0
M  V30 2217 H 215.216 -0.616267 -0.434432 0
M  V30 2218 H 217.867 -1.78666 -0.418401 0
M  V30 2219 H 216.249 -2.72744 -2.871 0
M  V30 2220 H 217.423 -4.55828 -0.675099 0
M  V30 2221 H 215.738 -4.09292 -0.766097 0
M  V30 2222 H 218.335 -4.0021 -3.54593 0
M  V30 2223 H 218.678 -2.29103 -3.47588 0
M  V30 2224 H 219.211 -3.34901 -2.14677 0
M  V30 2225 H 215.95 -6.3192 -1.74233 0
M  V30 2226 H 215.47 -5.18106 -3.02201 0
M  V30 2227 H 217.149 -5.76834 -2.93038 0
M  V30 2228 N 217.281 0.66697 -1.42791 0
M  V30 2229 C 218.558 1.4234 -1.34159 0
M  V30 2230 C 218.938 2.11093 0.0172729 0
M  V30 2231 O 218.286 2.03808 1.03318 0
M  V30 2232 C 218.496 2.41942 -2.51526 0
M  V30 2233 C 219.844 3.06353 -2.93995 0
M  V30 2234 O 220.868 2.52269 -2.51473 0
M  V30 2235 O 219.727 4.04376 -3.67617 0
M  V30 2236 H 216.821 0.635277 -0.529483 0
M  V30 2237 H 219.367 0.695034 -1.54814 0
M  V30 2238 H 218.139 1.89991 -3.42081 0
M  V30 2239 H 217.762 3.22249 -2.32898 0
M  V30 2240 N 218.759 1.29093 0.90403 0
M  V30 2241 C 219.984 1.19809 1.69294 0
M  V30 2242 C 220.409 -0.238481 1.86582 0
M  V30 2243 O 219.767 -1.1723 1.383 0
M  V30 2244 C 219.815 1.91202 3.05736 0
M  V30 2245 O 218.919 1.22611 3.93752 0
M  V30 2246 H 218.26 0.415385 0.518027 0
M  V30 2247 H 220.79 1.70586 1.12967 0
M  V30 2248 H 220.8 1.99487 3.55906 0
M  V30 2249 H 219.475 2.95692 2.92471 0
M  V30 2250 H 218.052 1.22554 3.52186 0
M  V30 2251 N 220.237 -1.11381 1.11499 0
M  V30 2252 C 221.477 -1.84763 0.874188 0
M  V30 2253 C 221.841 -1.82726 -0.589496 0
M  V30 2254 O 223.042 -2.51562 -0.947089 0
M  V30 2255 C 221.313 -3.27931 1.42112 0
M  V30 2256 S 222.872 -4.18557 1.31739 0
M  V30 2257 H 219.69 -0.637115 0.315603 0
M  V30 2258 H 222.292 -1.34097 1.42261 0
M  V30 2259 H 220.996 -3.26978 2.48019 0
M  V30 2260 H 220.527 -3.83665 0.869761 0
M  V30 2261 H 222.542 -4.95396 0.282335 0
M  V30 2262 N 221.715 -0.905404 -1.28997 0
M  V30 2263 C 222.955 -0.541232 -1.97104 0
M  V30 2264 C 223.319 0.896841 -1.69767 0
M  V30 2265 O 224.52 1.36817 -2.31375 0
M  V30 2266 C 222.791 -0.832134 -3.47578 0
M  V30 2267 S 224.35 -0.573127 -4.35041 0
M  V30 2268 H 221.168 -0.200576 -0.682122 0
M  V30 2269 H 223.77 -1.16906 -1.56694 0
M  V30 2270 H 222.474 -1.87687 -3.64968 0
M  V30 2271 H 222.005 -0.192636 -3.92928 0
M  V30 2272 H 224.02 0.579297 -4.92807 0
M  V30 2273 N 223.193 1.4272 -0.668489 0
M  V30 2274 C 224.609 1.55992 -0.33745 0
M  V30 2275 C 224.809 1.64933 1.15756 0
M  V30 2276 O 223.865 1.61278 1.94282 0
M  V30 2277 C 225.178 2.81314 -1.06222 0
M  V30 2278 C 226.726 2.95078 -1.04394 0
M  V30 2279 C 227.201 4.23252 -1.74991 0
M  V30 2280 N 228.692 4.3015 -1.71829 0
M  V30 2281 C 229.427 5.28127 -2.23315 0
M  V30 2282 N 228.923 6.32293 -2.83156 0
M  V30 2283 N 230.716 5.19882 -2.13726 0
M  V30 2284 H 222.867 1.3516 -1.63846 0
M  V30 2285 H 225.13 0.650174 -0.689912 0
M  V30 2286 H 224.836 2.80823 -2.11734 0
M  V30 2287 H 224.71 3.72012 -0.62344 0
M  V30 2288 H 227.097 2.951 0.0028244 0
M  V30 2289 H 227.178 2.05627 -1.52155 0
M  V30 2290 H 226.822 4.2399 -2.79633 0
M  V30 2291 H 226.752 5.11626 -1.24685 0
M  V30 2292 H 229.243 3.55499 -1.28175 0
M  V30 2293 H 229.556 7.03398 -3.20079 0
M  V30 2294 H 227.901 6.32873 -2.87223 0
M  V30 2295 H 231.092 4.37423 -1.66669 0
M  V30 2296 H 231.265 5.96077 -2.54158 0
M  V30 2297 N 224.671 0.411399 1.52136 0
M  V30 2298 C 225.948 -0.222308 1.94333 0
M  V30 2299 C 226.328 -1.6242 1.34844 0
M  V30 2300 O 225.676 -2.22384 0.525145 0
M  V30 2301 C 225.886 -0.226345 3.48265 0
M  V30 2302 C 227.234 -0.444592 4.22266 0
M  V30 2303 O 228.258 -0.305602 3.54887 0
M  V30 2304 O 227.117 -0.718749 5.41753 0
M  V30 2305 H 224.211 -0.143907 0.814383 0
M  V30 2306 H 226.757 0.467506 1.63133 0
M  V30 2307 H 225.529 0.75475 3.83952 0
M  V30 2308 H 225.152 -0.960163 3.85832 0
M  V30 2309 N 226.149 -1.5696 0.141893 0
M  V30 2310 C 227.565 -1.58151 -0.21456 0
M  V30 2311 C 227.765 -1.1559 -1.65049 0
M  V30 2312 O 226.821 -0.853832 -2.37626 0
M  V30 2313 C 228.134 -3.00674 0.0395576 0
M  V30 2314 C 229.682 -3.1299 -0.0245529 0
M  V30 2315 C 230.157 -4.57554 0.202167 0
M  V30 2316 N 231.648 -4.62961 0.148919 0
M  V30 2317 C 232.383 -5.7262 0.298924 0
M  V30 2318 N 231.879 -6.90947 0.50637 0
M  V30 2319 N 233.672 -5.61601 0.236886 0
M  V30 2320 H 225.823 -1.8292 1.07953 0
M  V30 2321 H 228.086 -0.846425 0.42693 0
M  V30 2322 H 227.792 -3.36183 1.03315 0
M  V30 2323 H 227.666 -3.70981 -0.682143 0
M  V30 2324 H 230.053 -2.77326 -1.00869 0
M  V30 2325 H 230.134 -2.4518 0.729396 0
M  V30 2326 H 229.778 -4.93922 1.18338 0
M  V30 2327 H 229.708 -5.23484 -0.572044 0
M  V30 2328 H 232.199 -3.77899 -0.00697015 0
M  V30 2329 H 232.512 -7.7038 0.611076 0
M  V30 2330 H 230.857 -6.92878 0.542628 0
M  V30 2331 H 234.048 -4.68039 0.0756209 0
M  V30 2332 H 234.221 -6.47015 0.357227 0
M  V30 2333 N 227.627 0.131896 -1.57047 0
M  V30 2334 C 228.857 0.855219 -1.88068 0
M  V30 2335 C 229.265 1.74557 -0.729817 0
M  V30 2336 O 228.608 1.81083 0.308962 0
M  V30 2337 C 228.67 1.75119 -3.13964 0
M  V30 2338 C 228.334 1.03646 -4.45091 0
M  V30 2339 C 229.331 0.383276 -5.18485 0
M  V30 2340 C 227.016 1.02148 -4.91804 0
M  V30 2341 C 229.01 -0.275347 -6.36805 0
M  V30 2342 C 226.697 0.359047 -6.10044 0
M  V30 2343 C 227.695 -0.288222 -6.82392 0
M  V30 2344 O 227.383 -0.94011 -7.98384 0
M  V30 2345 H 227.115 0.251864 -0.627328 0
M  V30 2346 H 229.669 0.124782 -2.05021 0
M  V30 2347 H 227.899 2.52295 -2.9306 0
M  V30 2348 H 229.588 2.3478 -3.31109 0
M  V30 2349 H 230.354 0.386562 -4.83457 0
M  V30 2350 H 226.233 1.5147 -4.35405 0
M  V30 2351 H 229.777 -0.781148 -6.93213 0
M  V30 2352 H 225.674 0.35348 -6.44531 0
M  V30 2353 H 226.442 -0.84329 -8.14144 0
M  V30 2354 N 229.106 1.52395 0.401703 0
M  V30 2355 C 230.353 1.66817 1.14796 0
M  V30 2356 C 230.681 0.401772 1.90305 0
M  V30 2357 O 229.936 -0.615487 1.85769 0
M  V30 2358 C 230.235 2.84578 2.16217 0
M  V30 2359 C 229.901 4.22513 1.5746 0
M  V30 2360 C 228.563 4.60029 1.41161 0
M  V30 2361 C 230.915 5.0844 1.14622 0
M  V30 2362 C 228.243 5.81144 0.80552 0
M  V30 2363 C 230.595 6.30167 0.55428 0
M  V30 2364 C 229.259 6.66426 0.378482 0
M  V30 2365 H 228.529 0.610428 0.420069 0
M  V30 2366 H 231.176 1.86512 0.434212 0
M  V30 2367 H 229.481 2.59248 2.93764 0
M  V30 2368 H 231.178 2.92933 2.73845 0
M  V30 2369 H 227.768 3.92953 1.71132 0
M  V30 2370 H 231.952 4.80034 1.26021 0
M  V30 2371 H 227.208 6.07855 0.657399 0
M  V30 2372 H 231.382 6.96071 0.213983 0
M  V30 2373 H 229.009 7.60143 -0.0932606 0
M  V30 2374 N 230.584 -0.659388 1.43143 0
M  V30 2375 C 232 -0.974337 1.26407 0
M  V30 2376 C 232.2 -2.007 0.179341 0
M  V30 2377 O 231.256 -2.4856 -0.444295 0
M  V30 2378 C 232.569 -1.46447 2.62628 0
M  V30 2379 C 234.117 -1.58144 2.7011 0
M  V30 2380 C 234.592 -2.1055 4.06734 0
M  V30 2381 N 236.083 -2.17861 4.08767 0
M  V30 2382 C 236.818 -2.59519 5.1131 0
M  V30 2383 N 236.314 -3.00518 6.24228 0
M  V30 2384 N 238.107 -2.59404 4.98664 0
M  V30 2385 H 230.258 0.0240528 2.12386 0
M  V30 2386 H 232.521 -0.0518065 0.946583 0
M  V30 2387 H 232.227 -0.780123 3.42939 0
M  V30 2388 H 232.101 -2.44058 2.87603 0
M  V30 2389 H 234.488 -2.25682 1.90136 0
M  V30 2390 H 234.569 -0.589828 2.48907 0
M  V30 2391 H 234.213 -1.43616 4.87172 0
M  V30 2392 H 234.143 -3.10531 4.25298 0
M  V30 2393 H 236.634 -1.88975 3.27257 0
M  V30 2394 H 236.947 -3.31036 6.98309 0
M  V30 2395 H 235.292 -2.98337 6.2771 0
M  V30 2396 H 238.483 -2.26747 4.09516 0
M  V30 2397 H 238.656 -2.91548 5.78709 0
M  V30 2398 N 232.062 -1.29571 -0.897171 0
M  V30 2399 C 233.478 -1.07637 -1.17841 0
M  V30 2400 C 233.678 0.170713 -2.00776 0
M  V30 2401 O 232.734 0.867768 -2.3712 0
M  V30 2402 C 234.047 -2.3332 -1.8969 0
M  V30 2403 C 235.595 -2.38664 -2.02505 0
M  V30 2404 C 236.07 -3.64157 -2.77765 0
M  V30 2405 N 237.561 -3.64894 -2.85318 0
M  V30 2406 C 238.296 -4.58679 -3.44094 0
M  V30 2407 N 237.792 -5.62799 -4.04017 0
M  V30 2408 N 239.585 -4.46245 -3.41793 0
M  V30 2409 H 231.736 -2.09598 -0.343883 0
M  V30 2410 H 233.999 -0.923333 -0.214848 0
M  V30 2411 H 233.705 -3.24262 -1.36187 0
M  V30 2412 H 233.579 -2.41025 -2.9015 0
M  V30 2413 H 235.966 -1.48208 -2.55183 0
M  V30 2414 H 236.047 -2.34943 -1.01171 0
M  V30 2415 H 235.691 -4.54965 -2.25763 0
M  V30 2416 H 235.621 -3.65137 -3.7945 0
M  V30 2417 H 238.112 -2.89613 -2.42761 0
M  V30 2418 H 238.425 -6.3048 -4.46895 0
M  V30 2419 H 236.77 -5.66605 -4.02472 0
M  V30 2420 H 239.961 -3.64094 -2.94199 0
M  V30 2421 H 240.134 -5.19518 -3.87304 0
M  V30 2422 N 233.54 1.10788 -1.12088 0
M  V30 2423 C 234.487 2.17025 -0.785407 0
M  V30 2424 C 235.457 1.64265 0.246191 0
M  V30 2425 O 236.642 1.90412 0.121584 0
M  V30 2426 C 233.782 3.44249 -0.242177 0
M  V30 2427 C 232.895 4.1098 -1.33115 0
M  V30 2428 C 232.03 5.25911 -0.747741 0
M  V30 2429 C 231.069 5.84538 -1.81609 0
M  V30 2430 N 230.206 6.90853 -1.25167 0
M  V30 2431 H 235.046 2.45066 -1.69548 0
M  V30 2432 H 232.583 1.20297 -0.846582 0
M  V30 2433 H 234.541 4.17101 0.0908026 0
M  V30 2434 H 233.171 3.16571 0.631072 0
M  V30 2435 H 232.223 3.36133 -1.78097 0
M  V30 2436 H 233.535 4.50601 -2.13917 0
M  V30 2437 H 232.689 6.056 -0.365216 0
M  V30 2438 H 231.428 4.87614 0.0915188 0
M  V30 2439 H 230.433 5.03522 -2.20785 0
M  V30 2440 H 231.658 6.249 -2.6585 0
M  V30 2441 H 229.604 6.54562 -0.434174 0
M  V30 2442 H 229.521 7.29166 -1.99633 0
M  V30 2443 H 230.789 7.7433 -0.896259 0
M  V30 2444 N 235.018 0.912232 1.28515 0
M  V30 2445 C 235.928 0.404506 2.31086 0
M  V30 2446 C 236.944 -0.50707 1.66448 0
M  V30 2447 O 238.12 -0.393624 1.97516 0
M  V30 2448 C 235.185 -0.348572 3.44943 0
M  V30 2449 C 234.246 0.59604 4.25142 0
M  V30 2450 C 233.479 -0.121194 5.33562 0
M  V30 2451 O 233.702 -1.34317 5.5436 0
M  V30 2452 O 232.636 0.542716 5.99448 0
M  V30 2453 H 236.462 1.25579 2.76521 0
M  V30 2454 H 234.047 0.676998 1.33181 0
M  V30 2455 H 235.929 -0.77395 4.14232 0
M  V30 2456 H 234.604 -1.17571 3.01594 0
M  V30 2457 H 233.511 1.07079 3.58448 0
M  V30 2458 H 234.844 1.38995 4.72167 0
M  V30 2459 N 236.496 -1.42363 0.676048 0
M  V30 2460 C 237.426 -2.33497 0.0124832 0
M  V30 2461 C 238.407 -1.50748 -0.787981 0
M  V30 2462 O 239.592 -1.79346 -0.744884 0
M  V30 2463 C 236.722 -3.34377 -0.938582 0
M  V30 2464 C 235.676 -4.27289 -0.246622 0
M  V30 2465 C 235.002 -5.18386 -1.31071 0
M  V30 2466 C 236.302 -5.14916 0.875125 0
M  V30 2467 H 237.996 -2.89233 0.773593 0
M  V30 2468 H 235.542 -1.39073 0.37346 0
M  V30 2469 H 237.495 -3.97044 -1.41188 0
M  V30 2470 H 236.219 -2.76947 -1.73113 0
M  V30 2471 H 234.878 -3.66018 0.206456 0
M  V30 2472 H 234.526 -4.57282 -2.09528 0
M  V30 2473 H 234.226 -5.81378 -0.852839 0
M  V30 2474 H 235.75 -5.83929 -1.78492 0
M  V30 2475 H 237.164 -5.71262 0.482983 0
M  V30 2476 H 235.561 -5.86747 1.25887 0
M  V30 2477 H 236.631 -4.53242 1.72335 0
M  V30 2478 N 237.974 -0.419461 -1.51915 0
M  V30 2479 C 239.199 0.154572 -2.06823 0
M  V30 2480 C 239.624 1.3722 -1.28656 0
M  V30 2481 O 238.982 1.78461 -0.319583 0
M  V30 2482 C 239.03 0.473172 -3.57482 0
M  V30 2483 O 238.134 1.56255 -3.81652 0
M  V30 2484 H 237.475 0.0096924 -0.663929 0
M  V30 2485 H 240.005 -0.595642 -1.95738 0
M  V30 2486 H 240.015 0.728825 -4.01438 0
M  V30 2487 H 238.69 -0.416873 -4.13805 0
M  V30 2488 H 237.267 1.29825 -3.49571 0
M  V30 2489 N 239.452 1.56882 -0.150215 0
M  V30 2490 C 240.362 2.20494 0.801222 0
M  V30 2491 C 241.378 1.19019 1.26927 0
M  V30 2492 O 242.554 1.51607 1.32579 0
M  V30 2493 C 239.619 2.81659 2.02161 0
M  V30 2494 C 238.68 3.9827 1.60249 0
M  V30 2495 C 237.913 4.56508 2.7647 0
M  V30 2496 O 238.136 4.13627 3.92771 0
M  V30 2497 O 237.07 5.46719 2.51757 0
M  V30 2498 H 240.896 3.02315 0.289717 0
M  V30 2499 H 238.481 1.49202 0.0769684 0
M  V30 2500 H 240.363 3.20522 2.73576 0
M  V30 2501 H 239.038 2.02849 2.52258 0
M  V30 2502 H 237.945 3.64117 0.858477 0
M  V30 2503 H 239.278 4.78609 1.14864 0
M  V30 2504 N 240.93 -0.123565 1.57115 0
M  V30 2505 C 242.158 -0.846461 1.88793 0
M  V30 2506 C 242.573 -1.73652 0.740976 0
M  V30 2507 O 241.93 -1.80207 -0.288393 0
M  V30 2508 C 241.981 -1.6837 3.19897 0
M  V30 2509 O 241.702 -0.829477 4.30176 0
M  V30 2510 C 243.203 -2.51214 3.65248 0
M  V30 2511 H 240.423 -0.243573 0.625231 0
M  V30 2512 H 242.967 -0.109324 2.04208 0
M  V30 2513 H 241.122 -2.37364 3.06165 0
M  V30 2514 H 241.536 -1.40651 5.0529 0
M  V30 2515 H 243.01 -3.05497 4.59756 0
M  V30 2516 H 243.487 -3.28359 2.9168 0
M  V30 2517 H 244.093 -1.8747 3.81752 0
M  V30 2518 N 242.408 -1.52605 -0.393616 0
M  V30 2519 C 243.338 -1.80022 -1.48709 0
M  V30 2520 C 244.319 -0.651995 -1.57108 0
M  V30 2521 O 245.504 -0.89913 -1.72132 0
M  V30 2522 C 242.634 -1.96492 -2.86371 0
M  V30 2523 C 241.588 -3.12161 -2.92813 0
M  V30 2524 C 240.914 -3.13877 -4.3288 0
M  V30 2525 C 242.214 -4.51322 -2.6288 0
M  V30 2526 H 243.908 -2.71589 -1.26015 0
M  V30 2527 H 241.454 -1.30684 -0.604778 0
M  V30 2528 H 243.407 -2.14255 -3.62867 0
M  V30 2529 H 242.131 -1.01611 -3.10391 0
M  V30 2530 H 240.79 -2.94173 -2.18764 0
M  V30 2531 H 240.438 -2.16687 -4.53933 0
M  V30 2532 H 240.138 -3.91576 -4.38112 0
M  V30 2533 H 241.662 -3.33789 -5.1129 0
M  V30 2534 H 243.076 -4.69435 -3.29096 0
M  V30 2535 H 241.473 -5.31053 -2.79468 0
M  V30 2536 H 242.543 -4.58353 -1.58242 0
M  V30 2537 N 243.887 0.651787 -1.4349 0
M  V30 2538 C 245.164 1.40909 -1.35661 0
M  V30 2539 C 245.544 2.11099 -0.00511733 0
M  V30 2540 O 244.892 2.04892 1.0115 0
M  V30 2541 C 245.102 2.3926 -2.54078 0
M  V30 2542 C 246.45 3.03217 -2.97228 0
M  V30 2543 O 247.474 2.49588 -2.54135 0
M  V30 2544 O 246.333 4.00455 -3.71885 0
M  V30 2545 H 243.427 0.629625 -0.536191 0
M  V30 2546 H 245.973 0.678575 -1.55542 0
M  V30 2547 H 244.745 1.86352 -3.44076 0
M  V30 2548 H 244.368 3.1976 -2.36303 0
M  V30 2549 N 245.365 1.30045 0.890287 0
M  V30 2550 C 246.612 1.18561 1.64163 0
M  V30 2551 C 246.94 -0.260852 1.92743 0
M  V30 2552 O 246.195 -1.20376 1.54299 0
M  V30 2553 C 246.494 1.95409 2.99249 0
M  V30 2554 C 246.16 3.45066 2.90242 0
M  V30 2555 C 244.822 3.85878 2.87492 0
M  V30 2556 C 247.174 4.4039 2.78758 0
M  V30 2557 C 244.502 5.20314 2.7109 0
M  V30 2558 C 246.854 5.74928 2.63894 0
M  V30 2559 C 245.518 6.14986 2.59516 0
M  V30 2560 H 244.788 0.433846 0.600715 0
M  V30 2561 H 247.435 1.61088 1.03552 0
M  V30 2562 H 245.74 1.45501 3.63781 0
M  V30 2563 H 247.437 1.8392 3.56334 0
M  V30 2564 H 244.027 3.12631 2.93189 0
M  V30 2565 H 248.211 4.09806 2.79952 0
M  V30 2566 H 243.467 5.50449 2.66112 0
M  V30 2567 H 247.641 6.48434 2.53981 0
M  V30 2568 H 245.268 7.19104 2.46565 0
M  V30 2569 N 246.843 -1.10192 1.12674 0
M  V30 2570 C 247.79 -2.16606 0.796906 0
M  V30 2571 C 248.76 -1.64394 -0.237476 0
M  V30 2572 O 249.945 -1.90474 -0.111484 0
M  V30 2573 C 247.085 -3.44116 0.26043 0
M  V30 2574 C 246.198 -4.10268 1.35293 0
M  V30 2575 C 245.333 -5.25507 0.775621 0
M  V30 2576 C 244.372 -5.83567 1.84706 0
M  V30 2577 N 243.509 -6.90179 1.28829 0
M  V30 2578 H 248.349 -2.44163 1.70846 0
M  V30 2579 H 245.886 -1.19846 0.85295 0
M  V30 2580 H 247.844 -4.17143 -0.0686814 0
M  V30 2581 H 246.474 -3.16901 -0.614274 0
M  V30 2582 H 245.526 -3.35184 1.79877 0
M  V30 2583 H 246.838 -4.4946 2.16303 0
M  V30 2584 H 245.992 -6.05398 0.397327 0
M  V30 2585 H 244.731 -4.87656 -0.0656581 0
M  V30 2586 H 243.736 -5.02344 2.23452 0
M  V30 2587 H 244.961 -6.23482 2.69161 0
M  V30 2588 H 242.907 -6.54322 0.468881 0
M  V30 2589 H 242.824 -7.28097 2.03497 0
M  V30 2590 H 244.092 -7.73844 0.937311 0
M  V30 2591 N 248.321 -0.919034 -1.28029 0
M  V30 2592 C 249.268 -0.410005 -2.27129 0
M  V30 2593 C 250.238 0.518405 -1.57803 0
M  V30 2594 O 251.423 0.439451 -1.8567 0
M  V30 2595 C 248.563 0.339054 -3.4343 0
M  V30 2596 C 247.676 -0.622468 -4.27492 0
M  V30 2597 C 246.811 0.145567 -5.31001 0
M  V30 2598 C 245.85 -0.809226 -6.06727 0
M  V30 2599 N 244.987 -0.0743728 -7.02061 0
M  V30 2600 H 249.827 -1.26011 -2.70047 0
M  V30 2601 H 247.364 -0.632663 -1.328 0
M  V30 2602 H 249.322 0.789586 -4.0966 0
M  V30 2603 H 247.952 1.15346 -3.01488 0
M  V30 2604 H 247.004 -1.19153 -3.61257 0
M  V30 2605 H 248.316 -1.35252 -4.80113 0
M  V30 2606 H 247.47 0.656417 -6.03139 0
M  V30 2607 H 246.209 0.908643 -4.79161 0
M  V30 2608 H 245.214 -1.3314 -5.33436 0
M  V30 2609 H 246.439 -1.57194 -6.60656 0
M  V30 2610 H 244.385 0.670616 -6.52563 0
M  V30 2611 H 244.302 -0.744157 -7.52329 0
M  V30 2612 H 245.57 0.416109 -7.78389 0
M  V30 2613 N 249.799 1.42003 -0.683588 0
M  V30 2614 C 251.076 1.95112 -0.138075 0
M  V30 2615 C 251.456 1.62359 1.34918 0
M  V30 2616 O 250.804 0.924311 2.08971 0
M  V30 2617 C 251.014 3.46505 -0.416581 0
M  V30 2618 C 252.362 4.23254 -0.337834 0
M  V30 2619 O 253.386 3.54468 -0.35082 0
M  V30 2620 O 252.245 5.45743 -0.287596 0
M  V30 2621 H 249.339 0.826961 -0.00797996 0
M  V30 2622 H 251.885 1.51784 -0.758924 0
M  V30 2623 H 250.657 3.63582 -1.4465 0
M  V30 2624 H 250.28 3.969 0.235839 0
M  V30 2625 N 251.277 0.427512 1.51691 0
M  V30 2626 C 252.505 -0.141191 2.06418 0
M  V30 2627 C 252.92 -1.37303 1.29589 0
M  V30 2628 O 252.277 -1.79059 0.352732 0
M  V30 2629 C 252.328 -0.473266 3.58389 0
M  V30 2630 O 252.049 0.709673 4.32314 0
M  V30 2631 C 253.55 -1.09371 4.29596 0
M  V30 2632 H 250.77 -0.0122747 0.670888 0
M  V30 2633 H 253.314 0.603764 1.95384 0
M  V30 2634 H 251.469 -1.16812 3.69369 0
M  V30 2635 H 251.883 0.42807 5.2275 0
M  V30 2636 H 253.357 -1.27613 5.37046 0
M  V30 2637 H 253.834 -2.072 3.87253 0
M  V30 2638 H 254.44 -0.43853 4.23033 0
M  V30 2639 N 252.755 -1.56801 0.158532 0
M  V30 2640 C 253.665 -2.20916 -0.789518 0
M  V30 2641 C 254.681 -1.1969 -1.26294 0
M  V30 2642 O 255.857 -1.52308 -1.31773 0
M  V30 2643 C 252.922 -2.82727 -2.00665 0
M  V30 2644 C 251.983 -3.99114 -1.58134 0
M  V30 2645 C 251.216 -4.57968 -2.74045 0
M  V30 2646 O 251.439 -4.15704 -3.90572 0
M  V30 2647 O 250.373 -5.48047 -2.48855 0
M  V30 2648 H 254.199 -3.02464 -0.273681 0
M  V30 2649 H 251.784 -1.4924 -0.0690548 0
M  V30 2650 H 253.666 -3.21968 -2.71872 0
M  V30 2651 H 252.341 -2.04184 -2.51179 0
M  V30 2652 H 251.248 -3.64567 -0.839155 0
M  V30 2653 H 252.581 -4.79212 -1.12325 0
M  V30 2654 N 254.233 0.115231 -1.57178 0
M  V30 2655 C 255.51 0.852873 -1.76027 0
M  V30 2656 C 255.89 1.97892 -0.73498 0
M  V30 2657 O 255.238 2.27232 0.24036 0
M  V30 2658 C 255.448 1.36608 -3.21153 0
M  V30 2659 C 256.796 1.81692 -3.83762 0
M  V30 2660 O 257.82 1.46278 -3.24779 0
M  V30 2661 O 256.679 2.47104 -4.87444 0
M  V30 2662 H 253.773 0.405296 -0.720877 0
M  V30 2663 H 256.319 0.0986785 -1.69413 0
M  V30 2664 H 255.091 0.558357 -3.87296 0
M  V30 2665 H 254.714 2.18287 -3.3232 0
M  V30 2666 N 255.711 1.52812 0.385517 0
M  V30 2667 C 256.643 1.74096 1.49074 0
M  V30 2668 C 257.656 0.621462 1.50472 0
M  V30 2669 O 258.845 0.897245 1.54311 0
M  V30 2670 C 255.945 1.78774 2.87911 0
M  V30 2671 C 255.118 3.08134 3.10439 0
M  V30 2672 C 254.177 3.04313 4.29278 0
M  V30 2673 O 253.203 3.78168 4.25415 0
M  V30 2674 N 254.405 2.23741 5.35649 0
M  V30 2675 H 257.17 2.69455 1.31202 0
M  V30 2676 H 254.731 1.51343 0.575065 0
M  V30 2677 H 256.723 1.73721 3.65518 0
M  V30 2678 H 255.293 0.907869 2.99126 0
M  V30 2679 H 254.513 3.26649 2.20667 0
M  V30 2680 H 255.801 3.93662 3.22347 0
M  V30 2681 H 255.199 1.63211 5.41645 0
M  V30 2682 H 253.756 2.24524 6.11909 0
M  V30 2683 N 257.189 -0.644168 1.43834 0
M  V30 2684 C 258.099 -1.78563 1.52159 0
M  V30 2685 C 259.115 -1.69147 0.408069 0
M  V30 2686 O 260.291 -1.90156 0.663524 0
M  V30 2687 C 257.356 -3.14888 1.45073 0
M  V30 2688 C 256.417 -3.36034 2.6717 0
M  V30 2689 C 255.65 -4.65855 2.60413 0
M  V30 2690 O 255.873 -5.45805 1.65689 0
M  V30 2691 O 254.807 -4.88918 3.5106 0
M  V30 2692 H 258.633 -1.74494 2.48567 0
M  V30 2693 H 256.218 -0.80378 1.25935 0
M  V30 2694 H 258.1 -3.96179 1.43597 0
M  V30 2695 H 256.775 -3.19528 0.518037 0
M  V30 2696 H 255.682 -2.54472 2.74217 0
M  V30 2697 H 257.015 -3.36247 3.59442 0
M  V30 2698 N 258.668 -1.30515 -0.883378 0
M  V30 2699 C 259.893 -1.22487 -1.67367 0
M  V30 2700 C 260.318 0.208767 -1.86938 0
M  V30 2701 O 259.676 1.15015 -1.40148 0
M  V30 2702 C 259.724 -1.96041 -3.02655 0
M  V30 2703 O 258.828 -1.28859 -3.91751 0
M  V30 2704 H 258.169 -0.423573 -0.511353 0
M  V30 2705 H 260.699 -1.72362 -1.10239 0
M  V30 2706 H 260.709 -2.05124 -3.52687 0
M  V30 2707 H 259.384 -3.00307 -2.8773 0
M  V30 2708 H 257.961 -1.28141 -3.50192 0
M  V30 2709 N 260.146 1.09593 -1.13257 0
M  V30 2710 C 261.078 2.16015 -0.766167 0
M  V30 2711 C 262.091 1.61423 0.211303 0
M  V30 2712 O 263.28 1.78498 -0.00863946 0
M  V30 2713 C 260.38 3.38706 -0.114662 0
M  V30 2714 C 259.553 4.22717 -1.12379 0
M  V30 2715 C 258.612 5.23835 -0.498301 0
M  V30 2716 O 257.638 5.573 -1.15781 0
M  V30 2717 N 258.84 5.75886 0.730417 0
M  V30 2718 H 261.605 2.48055 -1.68193 0
M  V30 2719 H 259.166 1.25292 -1.02535 0
M  V30 2720 H 261.158 4.03464 0.315991 0
M  V30 2721 H 259.728 3.04569 0.704011 0
M  V30 2722 H 258.948 3.54122 -1.73179 0
M  V30 2723 H 260.236 4.75673 -1.80589 0
M  V30 2724 H 259.634 5.50911 1.28504 0
M  V30 2725 H 258.191 6.42387 1.10376 0
M  V30 2726 N 261.624 0.925811 1.2754 0
M  V30 2727 C 262.574 0.394488 2.24561 0
M  V30 2728 C 263.558 -0.500183 1.52928 0
M  V30 2729 O 264.75 -0.337936 1.73744 0
M  V30 2730 C 261.879 -0.353328 3.41477 0
M  V30 2731 C 260.965 0.557752 4.20416 0
M  V30 2732 N 261.356 1.67674 4.77199 0
M  V30 2733 C 259.654 0.360404 4.44541 0
M  V30 2734 C 260.355 2.24324 5.36706 0
M  V30 2735 N 259.331 1.53305 5.21535 0
M  V30 2736 H 263.133 1.2489 2.66045 0
M  V30 2737 H 260.647 0.779864 1.4245 0
M  V30 2738 H 262.644 -0.7509 4.10082 0
M  V30 2739 H 261.304 -1.20469 3.01525 0
M  V30 2740 H 262.315 2.05915 4.75204 0
M  V30 2741 H 258.992 -0.450454 4.15063 0
M  V30 2742 H 260.382 3.18521 5.91603 0
M  V30 2743 N 263.102 -1.41638 0.69111 0
M  V30 2744 C 264.012 -2.34588 0.0233487 0
M  V30 2745 C 265.028 -1.55987 -0.770984 0
M  V30 2746 O 266.204 -1.88486 -0.709569 0
M  V30 2747 C 263.269 -3.34684 -0.904851 0
M  V30 2748 C 262.33 -4.29176 -0.103225 0
M  V30 2749 C 261.563 -5.2449 -0.987216 0
M  V30 2750 O 261.786 -5.2514 -2.22674 0
M  V30 2751 O 260.72 -6.00295 -0.439281 0
M  V30 2752 H 264.546 -2.93261 0.789416 0
M  V30 2753 H 262.131 -1.42417 0.45142 0
M  V30 2754 H 264.013 -3.96133 -1.43724 0
M  V30 2755 H 262.688 -2.78461 -1.65049 0
M  V30 2756 H 261.595 -3.71089 0.473655 0
M  V30 2757 H 262.928 -4.88484 0.60365 0
M  V30 2758 N 264.58 -0.43555 -1.51462 0
M  V30 2759 C 265.805 0.132627 -2.06976 0
M  V30 2760 C 266.23 1.35848 -1.30104 0
M  V30 2761 O 265.588 1.78112 -0.338493 0
M  V30 2762 C 265.636 0.43523 -3.57964 0
M  V30 2763 O 264.74 1.52198 -3.83288 0
M  V30 2764 H 264.081 0.00265 -0.663995 0
M  V30 2765 H 266.611 -0.616369 -1.95095 0
M  V30 2766 H 266.621 0.686206 -4.02188 0
M  V30 2767 H 265.296 -0.460739 -4.1334 0
M  V30 2768 H 263.873 1.2611 -3.50928 0
M  V30 2769 N 266.058 1.56714 -0.166846 0
M  V30 2770 C 266.968 2.21331 0.777791 0
M  V30 2771 C 267.984 1.20358 1.25658 0
M  V30 2772 O 269.16 1.53005 1.30964 0
M  V30 2773 C 266.225 2.83787 1.99163 0
M  V30 2774 C 265.286 3.99947 1.56016 0
M  V30 2775 C 264.519 4.59415 2.71613 0
M  V30 2776 O 264.742 4.17769 3.88362 0
M  V30 2777 O 263.676 5.49359 2.45945 0
M  V30 2778 H 267.502 3.02605 0.257636 0
M  V30 2779 H 265.087 1.49275 0.0611393 0
M  V30 2780 H 266.969 3.23405 2.70161 0
M  V30 2781 H 265.644 2.05513 2.50092 0
M  V30 2782 H 264.551 3.65007 0.819809 0
M  V30 2783 H 265.884 4.79801 1.09782 0
M  V30 2784 N 267.536 -0.106894 1.57237 0
M  V30 2785 C 268.468 -1.15646 1.97885 0
M  V30 2786 C 269.481 -1.36981 0.879779 0
M  V30 2787 O 270.67 -1.35841 1.15799 0
M  V30 2788 C 267.77 -2.51425 2.27241 0
M  V30 2789 C 266.943 -2.50529 3.58545 0
M  V30 2790 C 266.002 -3.68145 3.75973 0
M  V30 2791 O 265.028 -3.51176 4.47956 0
M  V30 2792 N 266.23 -4.87177 3.15656 0
M  V30 2793 H 268.995 -0.81059 2.8853 0
M  V30 2794 H 266.556 -0.296024 1.59171 0
M  V30 2795 H 268.548 -3.28689 2.36105 0
M  V30 2796 H 267.118 -2.78147 1.42663 0
M  V30 2797 H 266.338 -1.58894 3.60758 0
M  V30 2798 H 267.626 -2.46997 4.44826 0
M  V30 2799 H 267.024 -5.03868 2.57165 0
M  V30 2800 H 265.581 -5.62075 3.30023 0
M  V30 2801 N 269.014 -1.53014 -0.377408 0
M  V30 2802 C 270.291 -1.59215 -1.13622 0
M  V30 2803 C 270.671 -0.392407 -2.07421 0
M  V30 2804 O 270.019 0.618342 -2.19975 0
M  V30 2805 C 270.229 -2.93669 -1.88573 0
M  V30 2806 C 271.577 -3.47822 -2.43526 0
M  V30 2807 O 272.601 -2.9562 -1.98715 0
M  V30 2808 O 271.46 -4.39055 -3.25412 0
M  V30 2809 H 268.554 -0.642625 -0.52054 0
M  V30 2810 H 271.1 -1.65353 -0.381625 0
M  V30 2811 H 269.872 -3.7243 -1.20048 0
M  V30 2812 H 269.495 -2.90968 -2.70968 0
M  V30 2813 N 270.492 0.636531 -1.44174 0
M  V30 2814 C 271.739 1.39619 -1.46672 0
M  V30 2815 C 272.067 1.94257 -0.0972691 0
M  V30 2816 O 271.322 1.73768 0.900175 0
M  V30 2817 C 271.621 2.58309 -2.47005 0
M  V30 2818 C 271.287 2.21992 -3.92467 0
M  V30 2819 C 269.949 2.118 -4.32081 0
M  V30 2820 C 272.301 1.9321 -4.84065 0
M  V30 2821 C 269.629 1.71007 -5.61225 0
M  V30 2822 C 271.981 1.53911 -6.13591 0
M  V30 2823 C 270.645 1.42257 -6.52165 0
M  V30 2824 H 269.915 0.510902 -0.536712 0
M  V30 2825 H 272.562 0.722328 -1.77355 0
M  V30 2826 H 270.867 3.30903 -2.09786 0
M  V30 2827 H 272.564 3.16533 -2.46186 0
M  V30 2828 H 269.154 2.30841 -3.61124 0
M  V30 2829 H 273.338 1.99997 -4.54219 0
M  V30 2830 H 268.594 1.60583 -5.89935 0
M  V30 2831 H 272.768 1.30677 -6.8403 0
M  V30 2832 H 270.395 1.10419 -7.52138 0
M  V30 2833 N 271.97 1.30982 0.876444 0
M  V30 2834 C 273.195 1.23373 1.66715 0
M  V30 2835 C 273.62 -0.19885 1.87046 0
M  V30 2836 O 272.978 -1.1427 1.40756 0
M  V30 2837 C 273.026 1.97644 3.01611 0
M  V30 2838 O 272.13 1.30935 3.91062 0
M  V30 2839 H 271.471 0.426279 0.509099 0
M  V30 2840 H 274.001 1.72944 1.09323 0
M  V30 2841 H 274.011 2.06992 3.51594 0
M  V30 2842 H 272.686 3.01829 2.86133 0
M  V30 2843 H 271.263 1.29996 3.49507 0
M  V30 2844 N 273.449 -1.08991 1.13837 0
M  V30 2845 C 274.381 -2.15606 0.777612 0
M  V30 2846 C 275.394 -1.61533 -0.202739 0
M  V30 2847 O 276.583 -1.78491 0.0181055 0
M  V30 2848 C 273.683 -3.3864 0.132623 0
M  V30 2849 C 272.856 -4.22115 1.1462 0
M  V30 2850 C 271.915 -5.23564 0.526074 0
M  V30 2851 O 270.941 -5.56678 1.18735 0
M  V30 2852 N 272.143 -5.76266 -0.699866 0
M  V30 2853 H 274.908 -2.47159 1.69506 0
M  V30 2854 H 272.469 -1.24747 1.03198 0
M  V30 2855 H 274.461 -4.03626 -0.29459 0
M  V30 2856 H 273.031 -3.04938 -0.687849 0
M  V30 2857 H 272.251 -3.53199 1.75055 0
M  V30 2858 H 273.539 -4.74709 1.83109 0
M  V30 2859 H 272.937 -5.51585 -1.25581 0
M  V30 2860 H 271.494 -6.42963 -1.06968 0
M  V30 2861 N 274.927 -0.932562 -1.27047 0
M  V30 2862 C 276.175 -0.574422 -1.93765 0
M  V30 2863 C 276.496 0.887993 -1.73608 0
M  V30 2864 O 275.766 1.62999 -1.08665 0
M  V30 2865 H 274.346 -0.209451 -0.717035 0
M  V30 2866 H 277.008 -1.18601 -1.5466 0
M  V30 2867 H 276.104 -0.784841 -3.02071 0
M  V30 2868 N 276.405 1.4127 -0.698611 0
M  V30 2869 C 277.816 1.84187 -0.305289 0
M  V30 2870 C 278.167 1.58449 1.15708 0
M  V30 2871 O 277.292 1.05651 1.88856 0
M  V30 2872 C 277.887 3.3435 -0.547314 0
M  V30 2873 C 276.446 3.75826 -0.207878 0
M  V30 2874 C 275.593 2.64647 -0.828099 0
M  V30 2875 H 278.544 1.30778 -0.89904 0
M  V30 2876 H 278.565 3.8001 0.192998 0
M  V30 2877 H 278.077 3.53051 -1.61172 0
M  V30 2878 H 276.178 3.62725 0.852143 0
M  V30 2879 H 276.291 4.74462 -0.665021 0
M  V30 2880 H 274.655 2.53395 -0.257458 0
M  V30 2881 H 275.438 2.86165 -1.89643 0
M  V30 2882 N 277.883 0.443576 1.51229 0
M  V30 2883 C 279.123 -0.119889 2.04048 0
M  V30 2884 C 279.487 -1.39418 1.32009 0
M  V30 2885 O 280.688 -2.03829 1.75235 0
M  V30 2886 C 278.959 -0.327233 3.55899 0
M  V30 2887 S 280.518 -0.853208 4.30425 0
M  V30 2888 H 277.336 -0.028921 0.710412 0
M  V30 2889 H 279.938 0.604413 1.85922 0
M  V30 2890 H 278.642 0.606445 4.05895 0
M  V30 2891 H 278.173 -1.07844 3.7833 0
M  V30 2892 H 280.188 -2.13005 4.48155 0
M  V30 2893 N 279.361 -1.56624 0.175154 0
M  V30 2894 C 280.772 -1.83561 -0.340916 0
M  V30 2895 C 281.123 -1.09511 -1.62794 0
M  V30 2896 O 280.248 -0.349389 -2.13561 0
M  V30 2897 C 280.843 -3.32979 -0.625313 0
M  V30 2898 C 279.402 -3.60399 -1.08581 0
M  V30 2899 C 278.549 -2.77024 -0.123722 0
M  V30 2900 H 281.5 -1.53593 0.399344 0
M  V30 2901 H 281.521 -3.50666 -1.47694 0
M  V30 2902 H 281.033 -3.86847 0.311575 0
M  V30 2903 H 279.134 -3.11945 -2.03767 0
M  V30 2904 H 279.247 -4.68711 -0.992317 0
M  V30 2905 H 277.611 -2.46993 -0.621821 0
M  V30 2906 H 278.394 -3.33674 0.807256 0
M  V30 2907 N 280.839 0.0985539 -1.57292 0
M  V30 2908 C 282.067 0.816318 -1.90115 0
M  V30 2909 C 282.482 1.72451 -0.768509 0
M  V30 2910 O 281.839 1.80643 0.259687 0
M  V30 2911 C 281.89 1.63259 -3.22535 0
M  V30 2912 O 281.611 0.760934 -4.31441 0
M  V30 2913 C 283.112 2.45372 -3.69199 0
M  V30 2914 H 280.332 0.233595 -0.629027 0
M  V30 2915 H 282.876 0.0768229 -2.04356 0
M  V30 2916 H 281.031 2.32463 -3.09903 0
M  V30 2917 H 281.445 1.32595 -5.07463 0
M  V30 2918 H 282.919 2.98144 -4.64558 0
M  V30 2919 H 283.396 3.23677 -2.96867 0
M  V30 2920 H 284.002 1.81373 -3.84687 0
M  V30 2921 N 282.317 1.53212 0.369288 0
M  V30 2922 C 283.563 1.69466 1.11397 0
M  V30 2923 C 283.896 0.443257 1.89074 0
M  V30 2924 O 283.171 -0.559386 1.86282 0
M  V30 2925 C 283.454 2.9422 2.07621 0
M  V30 2926 C 283.307 4.29508 1.33577 0
M  V30 2927 C 284.626 3.14565 3.07794 0
M  V30 2928 H 281.745 0.616667 0.403597 0
M  V30 2929 H 284.387 1.85845 0.395179 0
M  V30 2930 H 282.537 2.80387 2.68916 0
M  V30 2931 H 284.209 4.55147 0.750955 0
M  V30 2932 H 282.452 4.29088 0.637618 0
M  V30 2933 H 283.123 5.12926 2.03989 0
M  V30 2934 H 285.599 3.2756 2.56601 0
M  V30 2935 H 284.475 4.03297 3.72348 0
M  V30 2936 H 284.736 2.29675 3.77759 0
M  V30 2937 N 283.795 -0.628877 1.44509 0
M  V30 2938 C 285.211 -0.947305 1.28446 0
M  V30 2939 C 285.411 -2.00275 0.221872 0
M  V30 2940 O 284.467 -2.49447 -0.391471 0
M  V30 2941 C 285.78 -1.40843 2.65676 0
M  V30 2942 C 287.328 -1.52379 2.73404 0
M  V30 2943 C 287.803 -2.01875 4.11109 0
M  V30 2944 N 289.294 -2.09142 4.13296 0
M  V30 2945 C 290.029 -2.48615 5.16699 0
M  V30 2946 N 289.525 -2.87209 6.30462 0
M  V30 2947 N 291.318 -2.48768 5.04054 0
M  V30 2948 H 283.469 0.0690977 2.12288 0
M  V30 2949 H 285.732 -0.0317164 0.947469 0
M  V30 2950 H 285.438 -0.707206 3.44516 0
M  V30 2951 H 285.312 -2.37902 2.92716 0
M  V30 2952 H 287.699 -2.21598 1.9488 0
M  V30 2953 H 287.78 -0.536898 2.50102 0
M  V30 2954 H 287.424 -1.3325 4.90109 0
M  V30 2955 H 287.354 -3.0144 4.31789 0
M  V30 2956 H 289.845 -1.81991 3.31191 0
M  V30 2957 H 290.158 -3.16149 7.05174 0
M  V30 2958 H 288.503 -2.84955 6.33897 0
M  V30 2959 H 291.694 -2.18009 4.14234 0
M  V30 2960 H 291.867 -2.79207 5.84763 0
M  V30 2961 N 285.273 -1.31445 -0.869486 0
M  V30 2962 C 286.205 -1.14955 -1.98287 0
M  V30 2963 C 287.218 -0.0885037 -1.62559 0
M  V30 2964 O 288.407 -0.336044 -1.75308 0
M  V30 2965 C 285.507 -0.734255 -3.3085 0
M  V30 2966 C 284.68 -1.88042 -3.94917 0
M  V30 2967 C 283.739 -1.4511 -5.05796 0
M  V30 2968 O 282.765 -2.16082 -5.2659 0
M  V30 2969 N 283.967 -0.338763 -5.79511 0
M  V30 2970 H 286.732 -2.10856 -2.12979 0
M  V30 2971 H 284.293 -1.23786 -1.04349 0
M  V30 2972 H 286.285 -0.42975 -4.02412 0
M  V30 2973 H 284.855 0.133158 -3.12316 0
M  V30 2974 H 284.075 -2.35222 -3.1633 0
M  V30 2975 H 285.363 -2.6481 -4.34457 0
M  V30 2976 H 284.761 0.252274 -5.65137 0
M  V30 2977 H 283.318 -0.0937925 -6.51733 0
M  V30 2978 N 286.751 1.08385 -1.14413 0
M  V30 2979 C 287.698 2.15311 -0.831265 0
M  V30 2980 C 288.668 1.64751 0.211292 0
M  V30 2981 O 289.853 1.90627 0.0811674 0
M  V30 2982 C 286.993 3.43658 -0.315143 0
M  V30 2983 C 286.106 4.08064 -1.41802 0
M  V30 2984 C 285.241 5.24207 -0.859126 0
M  V30 2985 C 284.28 5.80554 -1.93967 0
M  V30 2986 N 283.417 6.88042 -1.39793 0
M  V30 2987 H 288.257 2.41415 -1.74708 0
M  V30 2988 H 285.794 1.18474 -0.871909 0
M  V30 2989 H 287.752 4.172 0.00230884 0
M  V30 2990 H 286.382 3.17839 0.56378 0
M  V30 2991 H 285.434 3.3228 -1.85187 0
M  V30 2992 H 286.746 4.45962 -2.23427 0
M  V30 2993 H 285.9 6.04689 -0.49359 0
M  V30 2994 H 284.639 4.87699 -0.011932 0
M  V30 2995 H 283.644 4.98725 -2.31415 0
M  V30 2996 H 284.869 6.19121 -2.79046 0
M  V30 2997 H 282.815 6.53493 -0.572919 0
M  V30 2998 H 282.732 7.24767 -2.15054 0
M  V30 2999 H 284 7.72255 -1.0603 0
M  V30 3000 N 288.23 0.939286 1.26551 0
M  V30 3001 C 289.16 0.465044 2.28822 0
M  V30 3002 C 290.141 -0.480692 1.63167 0
M  V30 3003 O 291.326 -0.382955 1.90387 0
M  V30 3004 C 288.456 -0.27234 3.46231 0
M  V30 3005 C 287.41 0.58666 4.2396 0
M  V30 3006 C 286.736 -0.280573 5.33963 0
M  V30 3007 C 288.036 1.85704 4.88171 0
M  V30 3008 H 289.73 1.31979 2.68741 0
M  V30 3009 H 287.276 0.636061 1.29191 0
M  V30 3010 H 289.229 -0.615133 4.16886 0
M  V30 3011 H 287.953 -1.16121 3.0526 0
M  V30 3012 H 286.612 0.91232 3.55067 0
M  V30 3013 H 286.26 -1.16874 4.89234 0
M  V30 3014 H 285.96 0.29076 5.8688 0
M  V30 3015 H 287.484 -0.618678 6.07458 0
M  V30 3016 H 288.898 1.58161 5.51052 0
M  V30 3017 H 287.295 2.37279 5.51197 0
M  V30 3018 H 288.365 2.56957 4.11219 0
M  V30 3019 N 289.708 -1.40897 0.706093 0
M  V30 3020 C 290.954 -2.01849 0.250681 0
M  V30 3021 C 291.309 -1.5496 -1.14041 0
M  V30 3022 O 290.602 -0.755566 -1.76073 0
M  V30 3023 C 290.796 -3.5646 0.259099 0
M  V30 3024 C 290.625 -4.18357 1.64947 0
M  V30 3025 C 289.395 -4.522 2.25485 0
M  V30 3026 C 291.593 -4.43856 2.598 0
M  V30 3027 N 289.575 -4.9944 3.56977 0
M  V30 3028 C 290.946 -4.92986 3.75985 0
M  V30 3029 C 293.001 -4.25882 2.57933 0
M  V30 3030 C 291.704 -5.2603 4.90597 0
M  V30 3031 C 293.73 -4.6002 3.71665 0
M  V30 3032 C 293.092 -5.09331 4.86581 0
M  V30 3033 H 289.191 -0.769843 0.137353 0
M  V30 3034 H 291.775 -1.71278 0.925845 0
M  V30 3035 H 289.946 -3.86481 -0.385592 0
M  V30 3036 H 291.678 -4.04144 -0.21213 0
M  V30 3037 H 288.433 -4.3901 1.77671 0
M  V30 3038 H 288.857 -5.27454 4.24407 0
M  V30 3039 H 293.499 -3.86986 1.70298 0
M  V30 3040 H 291.217 -5.63843 5.78884 0
M  V30 3041 H 294.803 -4.47762 3.71484 0
M  V30 3042 H 293.683 -5.35251 5.73129 0
M  V30 3043 N 291.186 -0.45159 -1.50991 0
M  V30 3044 C 292.134 0.366864 -2.29689 0
M  V30 3045 C 293.128 1.00809 -1.36139 0
M  V30 3046 O 294.334 0.941427 -1.53418 0
M  V30 3047 H 290.709 0.137133 -0.739391 0
M  V30 3048 H 292.68 -0.317538 -2.96706 0
M  V30 3049 C 291.429 1.44751 -3.16137 0
M  V30 3050 H 290.752 0.963473 -3.88017 0
M  V30 3051 H 292.192 1.99315 -3.74232 0
M  V30 3052 C 290.651 2.43869 -2.32442 0
M  V30 3053 O 291.181 3.4872 -1.99392 0
M  V30 3054 N 289.387 2.15105 -1.95392 0
M  V30 3055 H 288.934 1.29866 -2.22469 0
M  V30 3056 H 288.892 2.81661 -1.39693 0
M  V30 3057 N 292.664 1.56529 -0.183458 0
M  V30 3058 C 293.913 1.96419 0.458511 0
M  V30 3059 C 294.226 1.0727 1.63562 0
M  V30 3060 O 295.432 1.36893 2.34462 0
M  V30 3061 C 293.888 3.49298 0.867122 0
M  V30 3062 C 293.496 4.47092 -0.285057 0
M  V30 3063 C 295.24 3.97983 1.47683 0
M  V30 3064 C 293.147 5.91225 0.143862 0
M  V30 3065 H 292.077 0.733394 0.175071 0
M  V30 3066 H 294.728 1.81448 -0.273624 0
M  V30 3067 H 293.11 3.59731 1.65559 0
M  V30 3068 H 294.284 4.48383 -1.0625 0
M  V30 3069 H 292.599 4.08535 -0.805503 0
M  V30 3070 H 295.196 5.03134 1.80999 0
M  V30 3071 H 295.539 3.41618 2.37914 0
M  V30 3072 H 296.072 3.90617 0.752562 0
M  V30 3073 H 292.811 6.5149 -0.723974 0
M  V30 3074 H 292.331 5.93214 0.886413 0
M  V30 3075 H 294.01 6.44362 0.583628 0
M  V30 3076 N 294.142 -0.090211 1.57342 0
M  V30 3077 C 295.072 -1.10976 2.05443 0
M  V30 3078 C 296.053 -1.41482 0.944284 0
M  V30 3079 O 297.238 -1.51428 1.21586 0
M  V30 3080 C 294.368 -2.42831 2.48295 0
M  V30 3081 C 293.322 -2.26721 3.63018 0
M  V30 3082 C 292.648 -3.63796 3.91863 0
M  V30 3083 C 293.948 -1.7037 4.93732 0
M  V30 3084 H 295.642 -0.709564 2.9087 0
M  V30 3085 H 293.188 -0.339874 1.39932 0
M  V30 3086 H 295.141 -3.14431 2.80555 0
M  V30 3087 H 293.865 -2.84795 1.59873 0
M  V30 3088 H 292.524 -1.57565 3.31012 0
M  V30 3089 H 292.172 -4.03297 3.00601 0
M  V30 3090 H 291.872 -3.53861 4.69101 0
M  V30 3091 H 293.396 -4.36855 4.26603 0
M  V30 3092 H 294.81 -2.31816 5.24342 0
M  V30 3093 H 293.207 -1.71181 5.75167 0
M  V30 3094 H 294.277 -0.663542 4.80339 0
M  V30 3095 N 295.62 -1.53406 -0.361157 0
M  V30 3096 C 296.53 -1.83122 -1.4664 0
M  V30 3097 C 297.546 -0.719943 -1.58407 0
M  V30 3098 O 298.722 -1.01046 -1.74218 0
M  V30 3099 C 295.787 -2.01891 -2.81853 0
M  V30 3100 C 294.848 -3.25784 -2.79577 0
M  V30 3101 C 294.081 -3.43648 -4.0834 0
M  V30 3102 O 294.304 -2.65714 -5.0473 0
M  V30 3103 O 293.238 -4.37018 -4.13883 0
M  V30 3104 H 297.064 -2.7703 -1.24451 0
M  V30 3105 H 294.649 -1.38841 -0.551678 0
M  V30 3106 H 296.531 -2.15782 -3.61962 0
M  V30 3107 H 295.206 -1.11173 -3.0401 0
M  V30 3108 H 294.113 -3.17312 -1.98151 0
M  V30 3109 H 295.446 -4.16439 -2.62373 0
M  V30 3110 N 297.098 0.621204 -1.44841 0
M  V30 3111 C 298.045 1.73267 -1.5247 0
M  V30 3112 C 299.015 1.6189 -0.371611 0
M  V30 3113 O 300.2 1.81668 -0.58321 0
M  V30 3114 C 297.34 3.11545 -1.48438 0
M  V30 3115 C 296.453 3.33827 -2.74196 0
M  V30 3116 C 295.588 4.62133 -2.61929 0
M  V30 3117 C 294.627 4.77627 -3.82804 0
M  V30 3118 N 293.764 5.97219 -3.69153 0
M  V30 3119 H 298.604 1.66082 -2.47428 0
M  V30 3120 H 296.141 0.810026 -1.22788 0
M  V30 3121 H 298.099 3.91528 -1.4409 0
M  V30 3122 H 296.729 3.1772 -0.570402 0
M  V30 3123 H 295.781 2.47715 -2.88689 0
M  V30 3124 H 297.093 3.41153 -3.6389 0
M  V30 3125 H 296.247 5.50291 -2.5547 0
M  V30 3126 H 294.986 4.57182 -1.69811 0
M  V30 3127 H 293.991 3.87896 -3.89637 0
M  V30 3128 H 295.216 4.84385 -4.75971 0
M  V30 3129 H 293.162 5.93339 -2.79794 0
M  V30 3130 H 293.079 6.05644 -4.52472 0
M  V30 3131 H 294.347 6.87912 -3.66603 0
M  V30 3132 N 298.576 1.31904 0.862503 0
M  V30 3133 C 299.987 1.19803 1.43193 0
M  V30 3134 C 300.338 -0.192567 1.95253 0
M  V30 3135 O 299.463 -1.09081 1.86896 0
M  V30 3136 C 300.058 2.16883 2.60283 0
M  V30 3137 C 298.617 2.08692 3.13248 0
M  V30 3138 C 297.764 2.05691 1.85975 0
M  V30 3139 H 300.715 1.43846 0.670365 0
M  V30 3140 H 300.736 1.76278 3.37204 0
M  V30 3141 H 300.248 3.18083 2.22363 0
M  V30 3142 H 298.349 1.10713 3.55771 0
M  V30 3143 H 298.462 2.9815 3.75025 0
M  V30 3144 H 296.826 1.50814 2.05249 0
M  V30 3145 H 297.609 3.08659 1.50282 0
M  V30 3146 N 300.054 -1.07777 1.14986 0
M  V30 3147 C 301.302 -1.79934 0.920235 0
M  V30 3148 C 301.623 -1.86955 -0.554336 0
M  V30 3149 O 300.893 -1.36731 -1.40291 0
M  V30 3150 H 299.473 -0.666424 0.337473 0
M  V30 3151 H 302.135 -1.3027 1.44968 0
M  V30 3152 H 301.231 -2.82539 1.32583 0
M  V30 3153 N 301.532 -0.945985 -1.26051 0
M  V30 3154 C 302.757 -0.612525 -1.98149 0
M  V30 3155 C 303.182 0.806623 -1.69927 0
M  V30 3156 O 302.54 1.54411 -0.950108 0
M  V30 3157 C 302.588 -0.866981 -3.50023 0
M  V30 3158 O 301.692 0.0585333 -4.12358 0
M  V30 3159 H 301.033 -0.23379 -0.621481 0
M  V30 3160 H 303.563 -1.27023 -1.60395 0
M  V30 3161 H 303.573 -0.789792 -4.00283 0
M  V30 3162 H 302.248 -1.90135 -3.69894 0
M  V30 3163 H 300.825 -0.0701241 -3.72834 0
M  V30 3164 N 303.011 1.40521 -0.713556 0
M  V30 3165 C 304.236 2.05759 -0.26035 0
M  V30 3166 C 304.661 1.53403 1.08854 0
M  V30 3167 O 304.019 0.668535 1.68524 0
M  V30 3168 C 304.067 3.59745 -0.248122 0
M  V30 3169 O 303.171 4.05123 0.77131 0
M  V30 3170 H 302.512 0.652564 -0.122703 0
M  V30 3171 H 305.042 1.79958 -0.973467 0
M  V30 3172 H 305.052 4.07911 -0.0851129 0
M  V30 3173 H 303.727 3.97218 -1.2325 0
M  V30 3174 H 302.304 3.68422 0.57619 0
M  V30 3175 N 304.489 0.459591 1.5075 0
M  V30 3176 C 305.717 -0.0973749 2.06671 0
M  V30 3177 C 306.132 -1.34524 1.32472 0
M  V30 3178 O 305.489 -1.7827 0.390634 0
M  V30 3179 C 305.54 -0.39714 3.59312 0
M  V30 3180 O 305.261 0.801214 4.30711 0
M  V30 3181 C 306.762 -1.00234 4.31819 0
M  V30 3182 H 303.982 0.00195854 0.670997 0
M  V30 3183 H 306.526 0.645072 1.94059 0
M  V30 3184 H 304.681 -1.08951 3.71764 0
M  V30 3185 H 305.095 0.538857 5.21725 0
M  V30 3186 H 306.569 -1.16193 5.39632 0
M  V30 3187 H 307.046 -1.98939 3.91561 0
M  V30 3188 H 307.652 -0.348699 4.23868 0
M  V30 3189 N 305.967 -1.56429 0.191757 0
M  V30 3190 C 306.93 -2.17707 -0.716688 0
M  V30 3191 C 307.93 -1.13061 -1.14341 0
M  V30 3192 O 309.12 -1.38464 -1.05704 0
M  V30 3193 C 306.252 -2.77644 -1.97804 0
M  V30 3194 H 307.445 -2.99342 -0.1829 0
M  V30 3195 H 304.998 -1.56193 -0.0578566 0
M  V30 3196 H 305.733 -1.99799 -2.55443 0
M  V30 3197 H 305.518 -3.54246 -1.68083 0
M  V30 3198 H 307.008 -3.24708 -2.62592 0
M  V30 3199 N 307.445 0.0818655 -1.57387 0
M  V30 3200 C 308.408 1.08265 -2.02018 0
M  V30 3201 C 309.408 1.32183 -0.915664 0
M  V30 3202 O 310.598 1.28073 -1.18081 0
M  V30 3203 C 307.73 2.42871 -2.39221 0
M  V30 3204 H 308.923 0.698204 -2.91659 0
M  V30 3205 H 306.476 0.327303 -1.52835 0
M  V30 3206 H 307.211 2.86167 -1.52575 0
M  V30 3207 H 306.996 2.26855 -3.19811 0
M  V30 3208 H 308.486 3.14826 -2.74362 0
M  V30 3209 N 308.923 1.53595 0.353017 0
M  V30 3210 C 310.339 1.43648 0.695516 0
M  V30 3211 C 310.539 0.585617 1.92802 0
M  V30 3212 O 309.595 0.0729223 2.52395 0
M  V30 3213 C 310.908 2.8701 0.896991 0
M  V30 3214 C 312.456 2.96723 0.996209 0
M  V30 3215 C 312.931 4.41173 1.23007 0
M  V30 3216 N 314.422 4.44657 1.29749 0
M  V30 3217 C 315.157 5.53547 1.49577 0
M  V30 3218 N 314.653 6.72461 1.66639 0
M  V30 3219 N 316.446 5.41145 1.52048 0
M  V30 3220 H 308.597 2.07415 -0.457481 0
M  V30 3221 H 310.86 0.9372 -0.142687 0
M  V30 3222 H 310.566 3.51644 0.0629938 0
M  V30 3223 H 310.44 3.31401 1.80148 0
M  V30 3224 H 312.827 2.32235 1.82074 0
M  V30 3225 H 312.908 2.55707 0.0688331 0
M  V30 3226 H 312.552 5.06238 0.410505 0
M  V30 3227 H 312.482 4.79772 2.17086 0
M  V30 3228 H 314.973 3.58963 1.18126 0
M  V30 3229 H 315.286 7.51214 1.81378 0
M  V30 3230 H 313.631 6.75423 1.63794 0
M  V30 3231 H 316.822 4.47205 1.38294 0
M  V30 3232 H 316.995 6.26068 1.67159 0
M  V30 3233 N 310.401 -0.613514 1.45168 0
M  V30 3234 C 311.65 -1.36874 1.4815 0
M  V30 3235 C 311.963 -1.952 0.124982 0
M  V30 3236 O 313.169 -2.71481 0.0324176 0
M  V30 3237 C 311.625 -2.47905 2.60904 0
M  V30 3238 C 311.233 -1.96016 4.02842 0
M  V30 3239 C 312.977 -3.24965 2.73126 0
M  V30 3240 C 310.884 -3.04494 5.06988 0
M  V30 3241 H 309.814 -0.514428 0.551253 0
M  V30 3242 H 312.465 -0.658182 1.7129 0
M  V30 3243 H 310.847 -3.21618 2.31037 0
M  V30 3244 H 312.021 -1.29051 4.4236 0
M  V30 3245 H 310.336 -1.31719 3.95018 0
M  V30 3246 H 312.933 -4.05865 3.48106 0
M  V30 3247 H 313.276 -3.75588 1.79553 0
M  V30 3248 H 313.809 -2.5835 3.0249 0
M  V30 3249 H 310.548 -2.58795 6.0225 0
M  V30 3250 H 310.068 -3.70044 4.72046 0
M  V30 3251 H 311.747 -3.68976 5.31475 0
M  V30 3252 N 311.879 -1.3236 -0.855495 0
M  V30 3253 C 313.126 -1.22872 -1.60962 0
M  V30 3254 C 313.454 0.209658 -1.93367 0
M  V30 3255 O 312.709 1.16243 -1.57436 0
M  V30 3256 C 313.008 -2.03275 -2.93963 0
M  V30 3257 C 312.674 -3.5264 -2.80991 0
M  V30 3258 C 311.336 -3.93364 -2.7716 0
M  V30 3259 C 313.688 -4.47626 -2.66983 0
M  V30 3260 C 311.016 -5.27319 -2.572 0
M  V30 3261 C 313.368 -5.81723 -2.48558 0
M  V30 3262 C 312.032 -6.2165 -2.4312 0
M  V30 3263 H 311.302 -0.44962 -0.589001 0
M  V30 3264 H 313.949 -1.63777 -0.992442 0
M  V30 3265 H 312.254 -1.55095 -3.59795 0
M  V30 3266 H 313.951 -1.93303 -3.51333 0
M  V30 3267 H 310.541 -3.20295 -2.84797 0
M  V30 3268 H 314.725 -4.17084 -2.68988 0
M  V30 3269 H 309.981 -5.57311 -2.51424 0
M  V30 3270 H 314.155 -6.5494 -2.36699 0
M  V30 3271 H 311.782 -7.25388 -2.27412 0
M  V30 3272 N 313.357 1.07166 -1.15556 0
M  V30 3273 C 314.605 1.79443 -0.929764 0
M  V30 3274 C 314.926 1.87246 0.544414 0
M  V30 3275 O 314.196 1.37473 1.39564 0
M  V30 3276 H 312.776 0.664625 -0.341003 0
M  V30 3277 H 315.438 1.29499 -1.45657 0
M  V30 3278 H 314.534 2.81832 -1.34079 0
M  V30 3279 N 314.835 0.952656 1.25548 0
M  V30 3280 C 316.081 0.607272 1.93494 0
M  V30 3281 C 316.414 -0.853245 1.74452 0
M  V30 3282 O 315.689 -1.61194 1.08843 0
M  V30 3283 C 315.972 0.96435 3.46947 0
M  V30 3284 C 315.825 2.48045 3.75225 0
M  V30 3285 C 317.144 0.487987 4.37386 0
M  V30 3286 H 314.263 0.222096 0.702739 0
M  V30 3287 H 316.905 1.18895 1.48203 0
M  V30 3288 H 315.055 0.469361 3.85654 0
M  V30 3289 H 316.727 3.04905 3.46166 0
M  V30 3290 H 314.97 2.919 3.209 0
M  V30 3291 H 315.641 2.6808 4.82532 0
M  V30 3292 H 318.117 0.912558 4.0597 0
M  V30 3293 H 316.993 0.766547 5.43521 0
M  V30 3294 H 317.254 -0.612063 4.37843 0
M  V30 3295 N 316.313 -1.40141 0.720998 0
M  V30 3296 C 317.562 -2.0002 0.259804 0
M  V30 3297 C 317.875 -1.57839 -1.15526 0
M  V30 3298 O 319.081 -2.10455 -1.71525 0
M  V30 3299 C 317.537 -3.57516 0.413566 0
M  V30 3300 C 317.145 -4.08667 1.83562 0
M  V30 3301 C 318.889 -4.24498 0.0134387 0
M  V30 3302 C 316.796 -5.58686 1.93968 0
M  V30 3303 H 315.726 -0.748195 0.0933806 0
M  V30 3304 H 318.377 -1.60313 0.892866 0
M  V30 3305 H 316.759 -3.9495 -0.288169 0
M  V30 3306 H 317.933 -3.82598 2.56817 0
M  V30 3307 H 316.248 -3.543 2.1877 0
M  V30 3308 H 318.845 -5.34654 0.0703954 0
M  V30 3309 H 319.188 -4.03375 -1.02927 0
M  V30 3310 H 319.721 -3.92188 0.665815 0
M  V30 3311 H 316.46 -5.8467 2.96379 0
M  V30 3312 H 315.98 -5.86602 1.25131 0
M  V30 3313 H 317.659 -6.23875 1.71431 0
M  V30 3314 N 317.792 -0.46758 -1.50504 0
M  V30 3315 C 319.017 0.0886943 -2.0721 0
M  V30 3316 C 319.442 1.33057 -1.32956 0
M  V30 3317 O 318.8 1.77354 -0.376197 0
M  V30 3318 C 318.848 0.359202 -3.58806 0
M  V30 3319 O 317.952 1.44034 -3.8643 0
M  V30 3320 H 317.293 -0.0114349 -0.663902 0
M  V30 3321 H 319.823 -0.657613 -1.93744 0
M  V30 3322 H 319.833 0.600742 -4.03553 0
M  V30 3323 H 318.508 -0.548311 -4.1227 0
M  V30 3324 H 317.085 1.18638 -3.53524 0
M  V30 3325 N 319.27 1.56325 -0.20005 0
M  V30 3326 C 320.519 1.96895 0.437652 0
M  V30 3327 C 320.832 1.08999 1.62415 0
M  V30 3328 O 322.038 1.39372 2.32997 0
M  V30 3329 C 320.494 3.50198 0.830025 0
M  V30 3330 C 320.102 4.46765 -0.332461 0
M  V30 3331 C 321.846 3.99526 1.43453 0
M  V30 3332 C 319.753 5.91344 0.0811468 0
M  V30 3333 H 318.683 0.735209 0.167282 0
M  V30 3334 H 321.334 1.81148 -0.292853 0
M  V30 3335 H 319.716 3.61467 1.61734 0
M  V30 3336 H 320.89 4.47231 -1.11 0
M  V30 3337 H 319.205 4.07657 -0.848789 0
M  V30 3338 H 321.802 5.05025 1.75652 0
M  V30 3339 H 322.145 3.44122 2.34277 0
M  V30 3340 H 322.678 3.91393 0.71109 0
M  V30 3341 H 319.417 6.50685 -0.793033 0
M  V30 3342 H 318.937 5.94121 0.823445 0
M  V30 3343 H 320.616 6.44945 0.515252 0
M  V30 3344 N 320.748 -0.0735177 1.57428 0
M  V30 3345 C 321.997 -0.771809 1.86349 0
M  V30 3346 C 322.31 -1.78828 0.792452 0
M  V30 3347 O 323.516 -2.53602 0.96945 0
M  V30 3348 C 321.972 -1.42358 3.30548 0
M  V30 3349 C 321.58 -0.445761 4.45777 0
M  V30 3350 C 323.324 -2.10434 3.6867 0
M  V30 3351 C 321.231 -1.10335 5.81016 0
M  V30 3352 H 320.161 -0.291999 0.695164 0
M  V30 3353 H 322.812 -0.0250749 1.83483 0
M  V30 3354 H 321.194 -2.21852 3.28021 0
M  V30 3355 H 322.368 0.319239 4.59693 0
M  V30 3356 H 320.683 0.130457 4.16196 0
M  V30 3357 H 323.28 -2.60405 4.67004 0
M  V30 3358 H 323.623 -2.90298 2.98383 0
M  V30 3359 H 324.156 -1.37773 3.7318 0
M  V30 3360 H 320.895 -0.345061 6.54591 0
M  V30 3361 H 320.415 -1.83925 5.70904 0
M  V30 3362 H 322.094 -1.62367 6.26295 0
M  V30 3363 N 322.226 -1.5378 -0.344866 0
M  V30 3364 C 323.473 -1.70963 -1.08526 0
M  V30 3365 C 323.801 -0.472126 -1.88683 0
M  V30 3366 O 323.056 0.546116 -1.87926 0
M  V30 3367 C 323.355 -2.92407 -2.05506 0
M  V30 3368 C 323.021 -4.28066 -1.41671 0
M  V30 3369 C 321.683 -4.64951 -1.2399 0
M  V30 3370 C 324.035 -5.12344 -0.956726 0
M  V30 3371 C 321.363 -5.83733 -0.589277 0
M  V30 3372 C 323.715 -6.3179 -0.320015 0
M  V30 3373 C 322.379 -6.67372 -0.130881 0
M  V30 3374 H 321.649 -0.625598 -0.397124 0
M  V30 3375 H 324.296 -1.87995 -0.36469 0
M  V30 3376 H 322.601 -2.69973 -2.8394 0
M  V30 3377 H 324.298 -3.02895 -2.62784 0
M  V30 3378 H 320.888 -3.99034 -1.56429 0
M  V30 3379 H 325.072 -4.8438 -1.08118 0
M  V30 3380 H 320.328 -6.09877 -0.431344 0
M  V30 3381 H 324.502 -6.96386 0.0445072 0
M  V30 3382 H 322.129 -7.59273 0.375318 0
M  V30 3383 N 323.704 0.605807 -1.45491 0
M  V30 3384 C 324.95 1.36679 -1.49823 0
M  V30 3385 C 325.283 1.93693 -0.140175 0
M  V30 3386 O 324.558 1.75158 0.845581 0
M  V30 3387 C 324.841 2.51337 -2.57879 0
M  V30 3388 C 324.694 1.99508 -4.03134 0
M  V30 3389 C 326.013 3.53463 -2.62205 0
M  V30 3390 H 323.132 0.495617 -0.545466 0
M  V30 3391 H 325.774 0.682732 -1.7731 0
M  V30 3392 H 323.924 3.09691 -2.34571 0
M  V30 3393 H 325.596 1.45789 -4.37656 0
M  V30 3394 H 323.839 1.30496 -4.13707 0
M  V30 3395 H 324.51 2.82169 -4.74431 0
M  V30 3396 H 326.986 3.04953 -2.83095 0
M  V30 3397 H 325.862 4.31178 -3.39672 0
M  V30 3398 H 326.123 4.09197 -1.67363 0
M  V30 3399 N 325.182 1.32811 0.848464 0
M  V30 3400 C 326.428 1.23907 1.60546 0
M  V30 3401 C 326.761 -0.197161 1.93197 0
M  V30 3402 O 326.036 -1.13596 1.5788 0
M  V30 3403 C 326.319 2.10489 2.92175 0
M  V30 3404 C 326.172 3.62522 2.66266 0
M  V30 3405 C 327.491 1.97075 3.93509 0
M  V30 3406 H 324.61 0.451459 0.58254 0
M  V30 3407 H 327.252 1.62818 0.979296 0
M  V30 3408 H 325.402 1.77434 3.45614 0
M  V30 3409 H 327.074 4.05821 2.19334 0
M  V30 3410 H 325.317 3.84879 2.00126 0
M  V30 3411 H 325.988 4.18437 3.6002 0
M  V30 3412 H 328.464 2.26045 3.49346 0
M  V30 3413 H 327.34 2.59923 4.83457 0
M  V30 3414 H 327.601 0.940186 4.31987 0
M  V30 3415 N 326.66 -1.06551 1.16123 0
M  V30 3416 C 327.906 -1.79567 0.94252 0
M  V30 3417 C 328.239 -1.86869 -0.528547 0
M  V30 3418 O 327.514 -1.35838 -1.39206 0
M  V30 3419 C 327.797 -3.24195 1.56747 0
M  V30 3420 C 327.65 -3.24989 3.10969 0
M  V30 3421 C 328.969 -4.21678 1.25998 0
M  V30 3422 H 326.088 -0.651883 0.343828 0
M  V30 3423 H 328.73 -1.2463 1.43413 0
M  V30 3424 H 326.88 -3.71107 1.14942 0
M  V30 3425 H 328.552 -2.86258 3.61737 0
M  V30 3426 H 326.795 -2.63716 3.44436 0
M  V30 3427 H 327.466 -4.27005 3.49815 0
M  V30 3428 H 329.942 -3.83196 1.62174 0
M  V30 3429 H 328.818 -5.21146 1.7233 0
M  V30 3430 H 329.079 -4.4174 0.178367 0
M  V30 3431 N 328.138 -0.959301 -1.25041 0
M  V30 3432 C 329.363 -0.633507 -1.97488 0
M  V30 3433 C 329.788 0.788555 -1.70773 0
M  V30 3434 O 329.146 1.53394 -0.966431 0
M  V30 3435 C 329.194 -0.904057 -3.49083 0
M  V30 3436 O 328.298 0.0147939 -4.12397 0
M  V30 3437 H 327.639 -0.240368 -0.618966 0
M  V30 3438 H 330.169 -1.28717 -1.59038 0
M  V30 3439 H 330.179 -0.832203 -3.99423 0
M  V30 3440 H 328.854 -1.94048 -3.67856 0
M  V30 3441 H 327.431 -0.109664 -3.72739 0
M  V30 3442 N 329.616 1.39756 -0.72842 0
M  V30 3443 C 330.865 1.99879 -0.270407 0
M  V30 3444 C 331.178 1.58449 1.14688 0
M  V30 3445 O 332.384 2.11362 1.70407 0
M  V30 3446 C 330.84 3.57292 -0.43252 0
M  V30 3447 C 330.448 4.07688 -1.85727 0
M  V30 3448 C 332.192 4.24485 -0.0359507 0
M  V30 3449 C 330.099 5.5765 -1.96928 0
M  V30 3450 H 329.029 0.747689 -0.0973472 0
M  V30 3451 H 331.68 1.59837 -0.901355 0
M  V30 3452 H 330.062 3.95097 0.267219 0
M  V30 3453 H 331.236 3.81231 -2.58843 0
M  V30 3454 H 329.551 3.53135 -2.20646 0
M  V30 3455 H 332.148 5.34609 -0.0987484 0
M  V30 3456 H 332.491 4.03915 1.00787 0
M  V30 3457 H 333.024 3.9183 -0.686604 0
M  V30 3458 H 329.763 5.8309 -2.99476 0
M  V30 3459 H 329.283 5.8593 -1.28241 0
M  V30 3460 H 330.962 6.22957 -1.74737 0
M  V30 3461 N 331.094 0.475555 1.50254 0
M  V30 3462 C 332.343 -0.0795996 2.01543 0
M  V30 3463 C 332.656 -1.4038 1.36209 0
M  V30 3464 O 333.862 -2.04415 1.7868 0
M  V30 3465 C 332.318 -0.192363 3.59386 0
M  V30 3466 C 331.926 1.12367 4.33679 0
M  V30 3467 C 333.67 -0.699238 4.18701 0
M  V30 3468 C 331.577 0.974453 5.83317 0
M  V30 3469 H 330.507 -0.0335228 0.753254 0
M  V30 3470 H 333.158 0.611128 1.73025 0
M  V30 3471 H 331.54 -0.946974 3.84511 0
M  V30 3472 H 332.714 1.88958 4.20276 0
M  V30 3473 H 331.029 1.562 3.85993 0
M  V30 3474 H 333.626 -0.827978 5.28251 0
M  V30 3475 H 333.969 -1.69171 3.80377 0
M  V30 3476 H 334.502 -0.00188807 3.978 0
M  V30 3477 H 331.241 1.94042 6.26121 0
M  V30 3478 H 330.761 0.248998 5.99283 0
M  V30 3479 H 332.44 0.642867 6.43798 0
M  V30 3480 N 332.573 -1.56217 0.208337 0
M  V30 3481 C 333.521 -2.21053 -0.723769 0
M  V30 3482 C 334.515 -1.18578 -1.20978 0
M  V30 3483 O 335.721 -1.36691 -1.17114 0
M  V30 3484 H 332.096 -0.708595 -0.251788 0
M  V30 3485 H 334.067 -2.98006 -0.153365 0
M  V30 3486 C 332.816 -2.89417 -1.927 0
M  V30 3487 H 332.139 -3.68019 -1.56212 0
M  V30 3488 H 333.579 -3.38201 -2.55727 0
M  V30 3489 C 332.038 -1.91166 -2.77411 0
M  V30 3490 O 332.568 -1.42026 -3.75754 0
M  V30 3491 N 330.774 -1.59105 -2.43175 0
M  V30 3492 H 330.321 -1.99259 -1.63259 0
M  V30 3493 H 330.279 -0.936255 -3.00136 0
M  V30 3494 N 334.051 0.0651679 -1.57465 0
M  V30 3495 C 334.984 1.10876 -1.99453 0
M  V30 3496 C 335.962 1.37205 -0.872555 0
M  V30 3497 O 337.146 1.50468 -1.13542 0
M  V30 3498 C 334.273 2.45167 -2.3369 0
M  V30 3499 C 333.319 2.3493 -3.55964 0
M  V30 3500 S 334.152 1.73708 -5.06543 0
M  V30 3501 C 335.308 3.09563 -5.43987 0
M  V30 3502 H 335.541 0.750967 -2.87659 0
M  V30 3503 H 333.074 0.273933 -1.51951 0
M  V30 3504 H 335.032 3.22412 -2.54088 0
M  V30 3505 H 333.693 2.78105 -1.46001 0
M  V30 3506 H 332.886 3.3398 -3.77457 0
M  V30 3507 H 332.488 1.65823 -3.3523 0
M  V30 3508 H 334.78 4.05882 -5.42463 0
M  V30 3509 H 335.723 2.92843 -6.44708 0
M  V30 3510 H 336.131 3.10474 -4.71451 0
M  V30 3511 N 335.529 1.53961 0.336706 0
M  V30 3512 C 336.492 1.81724 1.39675 0
M  V30 3513 C 337.492 0.688532 1.45313 0
M  V30 3514 O 338.682 0.956829 1.45569 0
M  V30 3515 C 335.814 1.96543 2.78538 0
M  V30 3516 H 337.007 2.76424 1.16318 0
M  V30 3517 H 334.56 1.45478 0.571474 0
M  V30 3518 H 335.295 1.0401 3.07168 0
M  V30 3519 H 335.08 2.78665 2.75841 0
M  V30 3520 H 336.57 2.19516 3.5525 0
M  V30 3521 N 337.007 -0.598083 1.45811 0
M  V30 3522 C 337.937 -1.71873 1.58057 0
M  V30 3523 C 338.918 -1.64533 0.431615 0
M  V30 3524 O 340.103 -1.82787 0.65595 0
M  V30 3525 C 337.233 -3.10495 1.55597 0
M  V30 3526 C 336.187 -3.32654 2.69305 0
M  V30 3527 C 335.513 -4.71646 2.51902 0
M  V30 3528 C 336.813 -3.21981 4.11248 0
M  V30 3529 H 338.507 -1.61881 2.51863 0
M  V30 3530 H 336.053 -0.777372 1.21214 0
M  V30 3531 H 338.006 -3.88699 1.6276 0
M  V30 3532 H 336.73 -3.2135 0.583255 0
M  V30 3533 H 335.389 -2.56843 2.61586 0
M  V30 3534 H 335.037 -4.79246 1.52748 0
M  V30 3535 H 334.737 -4.87426 3.2816 0
M  V30 3536 H 336.261 -5.52038 2.60933 0
M  V30 3537 H 337.675 -3.90049 4.20161 0
M  V30 3538 H 336.072 -3.49289 4.87972 0
M  V30 3539 H 337.142 -2.1928 4.32486 0
M  V30 3540 N 338.485 -1.33259 -0.841409 0
M  V30 3541 C 339.418 -1.1764 -1.95541 0
M  V30 3542 C 340.396 -0.072501 -1.62438 0
M  V30 3543 O 341.58 -0.23427 -1.87039 0
M  V30 3544 C 338.707 -0.803794 -3.29024 0
M  V30 3545 C 337.753 -1.91482 -3.81099 0
M  V30 3546 S 338.586 -3.52538 -4.03085 0
M  V30 3547 C 339.742 -3.17279 -5.39523 0
M  V30 3548 H 339.975 -2.11941 -2.08491 0
M  V30 3549 H 337.508 -1.18072 -0.9949 0
M  V30 3550 H 339.466 -0.595592 -4.06156 0
M  V30 3551 H 338.127 0.120574 -3.13868 0
M  V30 3552 H 337.32 -1.60742 -4.7768 0
M  V30 3553 H 336.922 -2.07956 -3.10854 0
M  V30 3554 H 339.214 -2.67946 -6.22263 0
M  V30 3555 H 340.157 -4.1293 -5.75234 0
M  V30 3556 H 340.565 -2.53943 -5.04156 0
M  V30 3557 N 339.963 1.05934 -1.16686 0
M  V30 3558 C 341.188 1.83029 -0.975455 0
M  V30 3559 C 341.613 1.82096 0.471452 0
M  V30 3560 O 340.971 1.22443 1.33706 0
M  V30 3561 C 341.019 3.27372 -1.51195 0
M  V30 3562 O 340.123 4.06054 -0.720701 0
M  V30 3563 H 339.464 0.566194 -0.346872 0
M  V30 3564 H 341.994 1.33541 -1.55009 0
M  V30 3565 H 342.004 3.78186 -1.53099 0
M  V30 3566 H 340.679 3.27366 -2.56523 0
M  V30 3567 H 339.256 3.64812 -0.772458 0
M  V30 3568 N 341.441 0.965919 1.2453 0
M  V30 3569 C 342.404 0.499547 2.2369 0
M  V30 3570 C 343.404 -0.40294 1.5567 0
M  V30 3571 O 344.594 -0.19865 1.73064 0
M  V30 3572 C 341.726 -0.276792 3.39774 0
M  V30 3573 H 342.919 1.37613 2.66463 0
M  V30 3574 H 340.472 0.750324 1.37112 0
M  V30 3575 H 341.207 -1.17055 3.02438 0
M  V30 3576 H 340.992 0.370826 3.90343 0
M  V30 3577 H 342.482 -0.592175 4.1338 0
M  V30 3578 N 342.919 -1.39368 0.735821 0
M  V30 3579 C 343.829 -2.34395 0.0979693 0
M  V30 3580 C 344.845 -1.58361 -0.720968 0
M  V30 3581 O 346.021 -1.90648 -0.649245 0
M  V30 3582 C 343.086 -3.37393 -0.797916 0
M  V30 3583 C 342.147 -4.29287 0.0333662 0
M  V30 3584 C 341.38 -5.27365 -0.819854 0
M  V30 3585 O 341.603 -5.31959 -2.05855 0
M  V30 3586 O 340.537 -6.01389 -0.248079 0
M  V30 3587 H 344.363 -2.90601 0.882315 0
M  V30 3588 H 341.948 -1.40909 0.4965 0
M  V30 3589 H 343.83 -4.00505 -1.31048 0
M  V30 3590 H 342.505 -2.83571 -1.56106 0
M  V30 3591 H 341.412 -3.69395 0.591475 0
M  V30 3592 H 342.745 -4.86317 0.758752 0
M  V30 3593 N 344.397 -0.483516 -1.5 0
M  V30 3594 C 345.327 0.293829 -2.31644 0
M  V30 3595 C 346.308 0.978864 -1.39112 0
M  V30 3596 O 347.493 0.973644 -1.68029 0
M  V30 3597 C 344.623 1.36897 -3.19181 0
M  V30 3598 C 343.577 0.804833 -4.20365 0
M  V30 3599 C 342.903 1.9792 -4.96721 0
M  V30 3600 C 344.203 -0.192313 -5.21946 0
M  V30 3601 H 345.897 -0.387616 -2.9688 0
M  V30 3602 H 343.443 -0.187856 -1.42769 0
M  V30 3603 H 345.396 1.92037 -3.751 0
M  V30 3604 H 344.12 2.07936 -2.51853 0
M  V30 3605 H 342.779 0.275319 -3.65565 0
M  V30 3606 H 342.427 2.67686 -4.25856 0
M  V30 3607 H 342.127 1.60789 -5.65173 0
M  V30 3608 H 343.651 2.53526 -5.55479 0
M  V30 3609 H 345.065 0.270333 -5.72662 0
M  V30 3610 H 343.462 -0.478543 -5.98189 0
M  V30 3611 H 344.532 -1.11409 -4.71928 0
M  V30 3612 N 345.875 1.56104 -0.216619 0
M  V30 3613 C 347.1 2.0301 0.424462 0
M  V30 3614 C 347.525 1.0955 1.52907 0
M  V30 3615 O 346.883 0.0827914 1.81111 0
M  V30 3616 C 346.931 3.4819 0.937883 0
M  V30 3617 O 346.035 3.57865 2.04955 0
M  V30 3618 H 345.376 0.656925 0.0966755 0
M  V30 3619 H 347.906 2.01859 -0.33381 0
M  V30 3620 H 347.916 3.88413 1.24897 0
M  V30 3621 H 346.591 4.15699 0.129387 0
M  V30 3622 H 345.168 3.29527 1.74546 0
M  V30 3623 N 347.353 -0.0568162 1.57498 0
M  V30 3624 C 348.599 -0.748893 1.89111 0
M  V30 3625 C 348.954 -1.74422 0.81208 0
M  V30 3626 O 348.247 -1.90731 -0.182247 0
M  V30 3627 C 348.441 -1.48359 3.25153 0
M  V30 3628 C 348.27 -0.560924 4.46188 0
M  V30 3629 C 347.04 -0.192264 5.04934 0
M  V30 3630 C 349.238 0.148824 5.14085 0
M  V30 3631 N 347.22 0.734555 6.0949 0
M  V30 3632 C 348.591 0.932286 6.12951 0
M  V30 3633 C 350.646 0.218713 4.97419 0
M  V30 3634 C 349.349 1.77917 6.96949 0
M  V30 3635 C 351.375 1.05262 5.81957 0
M  V30 3636 C 350.737 1.82409 6.80372 0
M  V30 3637 H 346.836 -0.249002 0.741298 0
M  V30 3638 H 349.42 -0.00984926 1.94698 0
M  V30 3639 H 347.591 -2.19326 3.20547 0
M  V30 3640 H 349.323 -2.12586 3.44368 0
M  V30 3641 H 346.078 -0.548421 4.70414 0
M  V30 3642 H 346.502 1.19165 6.6643 0
M  V30 3643 H 351.144 -0.363407 4.21235 0
M  V30 3644 H 348.862 2.3722 7.72497 0
M  V30 3645 H 352.448 1.10987 5.71116 0
M  V30 3646 H 351.328 2.45895 7.44651 0
M  V30 3647 N 348.832 -1.54138 -0.328536 0
M  V30 3648 C 349.762 -1.86167 -1.40939 0
M  V30 3649 C 350.743 -0.718044 -1.54202 0
M  V30 3650 O 351.928 -0.971328 -1.68163 0
M  V30 3651 C 349.058 -2.08461 -2.77779 0
M  V30 3652 C 348.012 -3.24299 -2.7931 0
M  V30 3653 C 347.338 -3.31955 -4.19178 0
M  V30 3654 C 348.638 -4.62065 -2.43502 0
M  V30 3655 H 350.332 -2.76689 -1.14383 0
M  V30 3656 H 347.878 -1.33132 -0.548806 0
M  V30 3657 H 349.831 -2.29453 -3.53454 0
M  V30 3658 H 348.555 -1.14684 -3.05802 0
M  V30 3659 H 347.214 -3.03187 -2.0609 0
M  V30 3660 H 346.862 -2.35745 -4.44335 0
M  V30 3661 H 346.562 -4.09805 -4.2111 0
M  V30 3662 H 348.086 -3.55175 -4.96672 0
M  V30 3663 H 349.5 -4.8297 -3.08889 0
M  V30 3664 H 347.897 -5.42429 -2.56693 0
M  V30 3665 H 348.967 -4.64652 -1.38659 0
M  V30 3666 N 350.31 0.590341 -1.46126 0
M  V30 3667 C 351.587 1.35029 -1.41515 0
M  V30 3668 C 351.967 2.10888 -0.0946472 0
M  V30 3669 O 351.315 2.08998 0.923693 0
M  V30 3670 C 351.525 2.28269 -2.63997 0
M  V30 3671 C 352.873 2.90338 -3.09821 0
M  V30 3672 O 353.897 2.38585 -2.64492 0
M  V30 3673 O 352.756 3.84321 -3.88535 0
M  V30 3674 H 349.85 0.606317 -0.562413 0
M  V30 3675 H 352.396 0.611994 -1.58281 0
M  V30 3676 H 351.168 1.71591 -3.51671 0
M  V30 3677 H 350.791 3.0945 -2.49652 0
M  V30 3678 N 351.788 1.33704 0.83433 0
M  V30 3679 C 352.718 1.26967 1.95963 0
M  V30 3680 C 353.699 0.149337 1.69443 0
M  V30 3681 O 354.884 0.339852 1.91203 0
M  V30 3682 C 352.014 1.01275 3.32206 0
M  V30 3683 C 350.968 2.09652 3.73136 0
M  V30 3684 C 350.294 1.69166 5.07235 0
M  V30 3685 C 351.594 3.51372 3.86439 0
M  V30 3686 H 353.288 2.2112 2.01857 0
M  V30 3687 H 350.834 1.06447 0.969793 0
M  V30 3688 H 352.787 0.952106 4.10503 0
M  V30 3689 H 351.511 0.0356203 3.26581 0
M  V30 3690 H 350.17 2.14766 2.97104 0
M  V30 3691 H 349.818 0.701437 4.98085 0
M  V30 3692 H 349.518 2.41694 5.35591 0
M  V30 3693 H 351.042 1.64576 5.88003 0
M  V30 3694 H 352.456 3.48734 4.55036 0
M  V30 3695 H 350.853 4.22425 4.26236 0
M  V30 3696 H 351.923 3.89546 2.88759 0
M  V30 3697 N 353.266 -1.05314 1.17247 0
M  V30 3698 C 354.198 -2.13023 0.845812 0
M  V30 3699 C 355.211 -1.62096 -0.151246 0
M  V30 3700 O 356.4 -1.78343 0.0748818 0
M  V30 3701 C 353.5 -3.38047 0.240292 0
M  V30 3702 C 352.673 -4.18255 1.27991 0
M  V30 3703 C 351.732 -5.21625 0.692375 0
M  V30 3704 O 350.758 -5.52619 1.36385 0
M  V30 3705 N 351.96 -5.78201 -0.516178 0
M  V30 3706 H 354.725 -2.41642 1.77283 0
M  V30 3707 H 352.286 -1.21401 1.07115 0
M  V30 3708 H 354.278 -4.04359 -0.16603 0
M  V30 3709 H 352.848 -3.06972 -0.590487 0
M  V30 3710 H 352.068 -3.47451 1.86203 0
M  V30 3711 H 353.356 -4.68643 1.98119 0
M  V30 3712 H 352.754 -5.55301 -1.07969 0
M  V30 3713 H 351.311 -6.4604 -0.86458 0
M  V30 3714 N 354.744 -0.972509 -1.24016 0
M  V30 3715 C 355.674 -0.525548 -2.27509 0
M  V30 3716 C 356.655 0.437262 -1.64384 0
M  V30 3717 O 357.84 0.332343 -1.91335 0
M  V30 3718 C 354.97 0.180448 -3.46831 0
M  V30 3719 C 353.924 -0.698859 -4.22256 0
M  V30 3720 C 353.25 0.138903 -5.3452 0
M  V30 3721 C 354.55 -1.98582 -4.83076 0
M  V30 3722 H 356.244 -1.39058 -2.65148 0
M  V30 3723 H 353.79 -0.67009 -1.27459 0
M  V30 3724 H 355.743 0.504387 -4.18371 0
M  V30 3725 H 354.467 1.07987 -3.08231 0
M  V30 3726 H 353.126 -1.00614 -3.52523 0
M  V30 3727 H 352.774 1.03862 -4.9216 0
M  V30 3728 H 352.474 -0.446259 -5.85903 0
M  V30 3729 H 353.998 0.457404 -6.08884 0
M  V30 3730 H 355.412 -1.72715 -5.46665 0
M  V30 3731 H 353.809 -2.5181 -5.44713 0
M  V30 3732 H 354.879 -2.67769 -4.04262 0
M  V30 3733 N 356.222 1.38976 -0.743202 0
M  V30 3734 C 357.152 2.33171 -0.123873 0
M  V30 3735 C 358.133 1.54336 0.71516 0
M  V30 3736 O 359.318 1.82696 0.658467 0
M  V30 3737 C 356.448 3.38474 0.777978 0
M  V30 3738 C 355.402 4.27979 0.0424758 0
M  V30 3739 C 354.728 5.2405 1.06189 0
M  V30 3740 C 356.028 5.10155 -1.1198 0
M  V30 3741 H 357.722 2.85213 -0.910709 0
M  V30 3742 H 355.268 1.37133 -0.439388 0
M  V30 3743 H 357.221 4.03328 1.22084 0
M  V30 3744 H 355.945 2.84891 1.59702 0
M  V30 3745 H 354.604 3.64616 -0.380853 0
M  V30 3746 H 354.252 4.66758 1.87472 0
M  V30 3747 H 353.952 5.84785 0.574485 0
M  V30 3748 H 355.476 5.9178 1.50428 0
M  V30 3749 H 356.89 5.68307 -0.75499 0
M  V30 3750 H 355.287 5.80073 -1.53738 0
M  V30 3751 H 356.357 4.44504 -1.93764 0
M  V30 3752 N 357.7 0.491464 1.49741 0
M  V30 3753 C 358.61 -0.296835 2.32715 0
M  V30 3754 C 359.626 -0.976536 1.44013 0
M  V30 3755 O 360.802 -0.960023 1.77047 0
M  V30 3756 C 357.867 -1.35288 3.19215 0
M  V30 3757 C 356.928 -0.687632 4.23757 0
M  V30 3758 C 356.161 -1.69336 5.06123 0
M  V30 3759 O 356.384 -2.92219 4.89861 0
M  V30 3760 O 355.318 -1.25394 5.88693 0
M  V30 3761 H 359.144 0.382048 3.01287 0
M  V30 3762 H 356.729 0.252953 1.47243 0
M  V30 3763 H 358.611 -1.96411 3.72828 0
M  V30 3764 H 357.286 -2.01487 2.53347 0
M  V30 3765 H 356.193 -0.0369159 3.74082 0
M  V30 3766 H 357.526 -0.0682566 4.92153 0
M  V30 3767 N 359.178 -1.55987 0.224894 0
M  V30 3768 C 360.427 -1.97566 -0.406273 0
M  V30 3769 C 360.74 -1.11569 -1.6066 0
M  V30 3770 O 361.946 -1.43062 -2.3075 0
M  V30 3771 C 360.402 -3.51474 -0.774207 0
M  V30 3772 C 360.01 -4.46179 0.403496 0
M  V30 3773 C 361.754 -4.01758 -1.37079 0
M  V30 3774 C 359.661 -5.91399 0.0129412 0
M  V30 3775 H 358.591 -0.737777 -0.155565 0
M  V30 3776 H 361.242 -1.80659 0.321635 0
M  V30 3777 H 359.624 -3.63994 -1.55963 0
M  V30 3778 H 360.798 -4.45409 1.18101 0
M  V30 3779 H 359.113 -4.06255 0.913536 0
M  V30 3780 H 361.71 -5.07756 -1.67596 0
M  V30 3781 H 362.053 -3.47805 -2.28773 0
M  V30 3782 H 362.586 -3.92475 -0.648733 0
M  V30 3783 H 359.325 -6.49341 0.896451 0
M  V30 3784 H 358.845 -5.95356 -0.728821 0
M  V30 3785 H 360.524 -6.45683 -0.412582 0
M  V30 3786 N 360.656 0.0484629 -1.57525 0
M  V30 3787 C 361.586 1.0549 -2.08313 0
M  V30 3788 C 362.567 1.38929 -0.981463 0
M  V30 3789 O 363.752 1.48151 -1.25558 0
M  V30 3790 C 360.882 2.36162 -2.54646 0
M  V30 3791 C 359.836 2.17016 -3.68901 0
M  V30 3792 C 359.162 3.53278 -4.01371 0
M  V30 3793 C 360.462 1.57219 -4.98076 0
M  V30 3794 H 362.156 0.632195 -2.92649 0
M  V30 3795 H 359.702 0.302654 -1.40784 0
M  V30 3796 H 361.655 3.06882 -2.88793 0
M  V30 3797 H 360.379 2.80456 -1.67368 0
M  V30 3798 H 359.038 1.48733 -3.35073 0
M  V30 3799 H 358.686 3.95185 -3.11188 0
M  V30 3800 H 358.386 3.41299 -4.78318 0
M  V30 3801 H 359.91 4.25391 -4.38035 0
M  V30 3802 H 361.324 2.17832 -5.30304 0
M  V30 3803 H 359.721 1.55871 -5.79503 0
M  V30 3804 H 360.791 0.535956 -4.81929 0
M  V30 3805 N 362.134 1.5431 0.320358 0
M  V30 3806 C 363.044 1.86946 1.41734 0
M  V30 3807 C 364.06 0.761689 1.56443 0
M  V30 3808 O 365.236 1.05629 1.71477 0
M  V30 3809 C 362.301 2.09293 2.76401 0
M  V30 3810 C 361.362 3.33082 2.70841 0
M  V30 3811 C 360.595 3.54353 3.99086 0
M  V30 3812 O 360.818 2.79002 4.97508 0
M  V30 3813 O 359.752 4.47838 4.0215 0
M  V30 3814 H 363.578 2.80232 1.17062 0
M  V30 3815 H 361.163 1.40255 0.514673 0
M  V30 3816 H 363.045 2.25303 3.56113 0
M  V30 3817 H 361.72 1.19194 3.00956 0
M  V30 3818 H 360.627 3.22454 1.89668 0
M  V30 3819 H 361.96 4.23249 2.5124 0
M  V30 3820 N 363.613 -0.582584 1.46437 0
M  V30 3821 C 364.843 -1.36484 1.55099 0
M  V30 3822 C 365.251 -1.88233 0.191056 0
M  V30 3823 O 364.594 -1.6429 -0.821858 0
M  V30 3824 C 364.656 -2.588 2.49525 0
M  V30 3825 C 364.32 -2.28517 3.95764 0
M  V30 3826 C 365.317 -1.87346 4.84972 0
M  V30 3827 C 363.002 -2.40658 4.40896 0
M  V30 3828 C 364.996 -1.5871 6.17325 0
M  V30 3829 C 362.683 -2.11635 5.73284 0
M  V30 3830 C 363.681 -1.70725 6.61318 0
M  V30 3831 O 363.369 -1.42057 7.91249 0
M  V30 3832 H 363.101 -0.423297 0.527063 0
M  V30 3833 H 365.655 -0.715188 1.92547 0
M  V30 3834 H 363.885 -3.26571 2.07095 0
M  V30 3835 H 365.574 -3.20868 2.48593 0
M  V30 3836 H 366.34 -1.77481 4.5136 0
M  V30 3837 H 362.219 -2.71463 3.72598 0
M  V30 3838 H 365.763 -1.26704 6.85997 0
M  V30 3839 H 361.66 -2.21124 6.06444 0
M  V30 3840 H 362.428 -1.55901 8.03515 0
M  V30 3841 N 365.091 -1.34144 -0.827227 0
M  V30 3842 C 366.337 -1.26446 -1.58554 0
M  V30 3843 C 366.67 0.1664 -1.93486 0
M  V30 3844 O 365.945 1.1107 -1.59667 0
M  V30 3845 C 366.228 -2.15111 -2.8879 0
M  V30 3846 C 366.081 -3.66712 -2.60465 0
M  V30 3847 C 367.4 -2.03311 -3.90324 0
M  V30 3848 H 364.519 -0.46067 -0.575284 0
M  V30 3849 H 367.161 -1.64356 -0.953269 0
M  V30 3850 H 365.311 -1.8291 -3.42748 0
M  V30 3851 H 366.983 -4.09259 -2.1285 0
M  V30 3852 H 365.226 -3.88014 -1.93978 0
M  V30 3853 H 365.897 -4.24112 -3.53317 0
M  V30 3854 H 368.373 -2.31574 -3.45706 0
M  V30 3855 H 367.249 -2.67582 -4.79261 0
M  V30 3856 H 367.51 -1.00879 -4.30437 0
M  V30 3857 N 366.569 1.04691 -1.17803 0
M  V30 3858 C 367.809 1.79352 -0.980423 0
M  V30 3859 C 368.173 1.85853 0.481958 0
M  V30 3860 O 369.374 2.56656 0.798809 0
M  V30 3861 C 367.645 3.19088 -1.6099 0
M  V30 3862 S 369.204 4.10164 -1.55918 0
M  V30 3863 H 366.022 0.617631 -0.352211 0
M  V30 3864 H 368.624 1.25575 -1.49837 0
M  V30 3865 H 367.328 3.11962 -2.66661 0
M  V30 3866 H 366.859 3.77941 -1.09197 0
M  V30 3867 H 368.874 4.92907 -0.570685 0
M  V30 3868 N 368.047 0.979072 1.23499 0
M  V30 3869 C 369.296 0.642751 1.91185 0
M  V30 3870 C 369.609 -0.827253 1.77245 0
M  V30 3871 O 370.815 -1.27458 2.39722 0
M  V30 3872 C 369.271 1.09901 3.42709 0
M  V30 3873 C 368.879 2.59327 3.65313 0
M  V30 3874 C 370.623 0.836371 4.16179 0
M  V30 3875 C 368.53 2.98627 5.10467 0
M  V30 3876 H 367.46 0.236698 0.715884 0
M  V30 3877 H 370.111 1.1868 1.39955 0
M  V30 3878 H 368.493 0.48319 3.93041 0
M  V30 3879 H 369.667 3.26136 3.25533 0
M  V30 3880 H 367.982 2.83323 3.05151 0
M  V30 3881 H 370.579 1.10586 5.23139 0
M  V30 3882 H 370.922 -0.227509 4.15678 0
M  V30 3883 H 371.455 1.41371 3.71832 0
M  V30 3884 H 368.194 4.04133 5.16098 0
M  V30 3885 H 367.714 2.3651 5.51201 0
M  V30 3886 H 369.393 2.89159 5.78788 0
M  V30 3887 N 369.525 -1.3858 0.750561 0
M  V30 3888 C 370.75 -2.04997 0.314812 0
M  V30 3889 C 371.175 -1.56235 -1.04749 0
M  V30 3890 O 370.533 -0.712981 -1.66692 0
M  V30 3891 C 370.581 -3.58961 0.343415 0
M  V30 3892 O 369.685 -4.07025 -0.663628 0
M  V30 3893 H 369.026 -0.649081 0.139962 0
M  V30 3894 H 371.556 -1.77313 1.02084 0
M  V30 3895 H 371.566 -4.07542 0.193233 0
M  V30 3896 H 370.241 -3.93811 1.33738 0
M  V30 3897 H 368.818 -3.6982 -0.478307 0
M  V30 3898 N 371.003 -0.499398 -1.49478 0
M  V30 3899 C 372.249 0.0377587 -2.03365 0
M  V30 3900 C 372.604 1.3484 -1.37244 0
M  V30 3901 O 371.897 1.85 -0.498547 0
M  V30 3902 C 372.091 0.248424 -3.56536 0
M  V30 3903 C 371.92 -1.04025 -4.37503 0
M  V30 3904 C 370.69 -1.59159 -4.79579 0
M  V30 3905 C 372.888 -1.9431 -4.76181 0
M  V30 3906 N 370.87 -2.82634 -5.44969 0
M  V30 3907 C 372.241 -3.02364 -5.41272 0
M  V30 3908 C 374.296 -1.95008 -4.58123 0
M  V30 3909 C 372.999 -4.1114 -5.90217 0
M  V30 3910 C 375.025 -3.02758 -5.08027 0
M  V30 3911 C 374.387 -4.09531 -5.73118 0
M  V30 3912 H 370.486 -0.026923 -0.781536 0
M  V30 3913 H 373.07 -0.673901 -1.82665 0
M  V30 3914 H 371.241 0.929139 -3.77123 0
M  V30 3915 H 372.973 0.782445 -3.97064 0
M  V30 3916 H 369.728 -1.13696 -4.5975 0
M  V30 3917 H 370.152 -3.45416 -5.82252 0
M  V30 3918 H 374.794 -1.13766 -4.07207 0
M  V30 3919 H 372.512 -4.93181 -6.40155 0
M  V30 3920 H 376.098 -3.04315 -4.95866 0
M  V30 3921 H 374.978 -4.91534 -6.11035 0
M  V30 3922 N 372.481 1.55866 -0.233164 0
M  V30 3923 C 373.728 1.98603 0.395374 0
M  V30 3924 C 374.056 1.12105 1.58942 0
M  V30 3925 O 373.311 0.168656 1.94972 0
M  V30 3926 C 373.61 3.46856 0.861724 0
M  V30 3927 C 373.276 4.50348 -0.223066 0
M  V30 3928 C 371.938 4.78371 -0.521038 0
M  V30 3929 C 374.29 5.12355 -0.956124 0
M  V30 3930 C 371.618 5.6568 -1.55638 0
M  V30 3931 C 373.97 6.00786 -1.98089 0
M  V30 3932 C 372.634 6.27148 -2.28565 0
M  V30 3933 H 371.904 0.726739 0.144677 0
M  V30 3934 H 374.551 1.88491 -0.338114 0
M  V30 3935 H 372.856 3.5423 1.67418 0
M  V30 3936 H 374.553 3.77302 1.35809 0
M  V30 3937 H 371.143 4.28596 0.0193234 0
M  V30 3938 H 375.327 4.90765 -0.739166 0
M  V30 3939 H 370.583 5.84365 -1.798 0
M  V30 3940 H 374.757 6.4788 -2.55391 0
M  V30 3941 H 372.384 6.94597 -3.08932 0
M  V30 3942 N 373.959 -0.0401083 1.57549 0
M  V30 3943 C 375.187 -0.745196 1.93014 0
M  V30 3944 C 375.602 -1.6948 0.831984 0
M  V30 3945 O 374.959 -1.81482 -0.192463 0
M  V30 3946 C 375.01 -1.51176 3.28372 0
M  V30 3947 O 374.731 -0.600284 4.33968 0
M  V30 3948 C 376.232 -2.315 3.78051 0
M  V30 3949 H 373.452 -0.210088 0.637263 0
M  V30 3950 H 375.996 -0.000924689 2.045 0
M  V30 3951 H 374.151 -2.20801 3.18317 0
M  V30 3952 H 374.565 -1.13669 5.12035 0
M  V30 3953 H 376.039 -2.80697 4.75303 0
M  V30 3954 H 376.516 -3.12436 3.08675 0
M  V30 3955 H 377.122 -1.66971 3.91153 0
M  V30 3956 N 375.437 -1.54477 -0.31217 0
M  V30 3957 C 376.685 -1.72884 -1.04668 0
M  V30 3958 C 377.006 -0.511477 -1.88173 0
M  V30 3959 O 376.276 0.474407 -1.90069 0
M  V30 3960 H 374.856 -0.637461 -0.389425 0
M  V30 3961 H 377.518 -1.91807 -0.345852 0
M  V30 3962 H 376.614 -2.61334 -1.70619 0
M  V30 3963 N 376.915 0.57481 -1.46744 0
M  V30 3964 C 377.825 1.711 -1.60505 0
M  V30 3965 C 378.841 1.67008 -0.488307 0
M  V30 3966 O 380.017 1.86774 -0.753495 0
M  V30 3967 C 377.082 3.07608 -1.59932 0
M  V30 3968 C 376.143 3.22904 -2.82898 0
M  V30 3969 C 375.376 4.529 -2.82343 0
M  V30 3970 O 375.599 5.37278 -1.91542 0
M  V30 3971 O 374.533 4.71611 -3.73987 0
M  V30 3972 H 378.359 1.62436 -2.56609 0
M  V30 3973 H 375.944 0.742779 -1.29627 0
M  V30 3974 H 377.826 3.88877 -1.62336 0
M  V30 3975 H 376.501 3.16692 -0.669898 0
M  V30 3976 H 375.408 2.41099 -2.86046 0
M  V30 3977 H 376.741 3.18715 -3.75076 0
M  V30 3978 N 378.394 1.34581 0.820102 0
M  V30 3979 C 379.641 1.27096 1.57648 0
M  V30 3980 C 379.969 -0.158317 1.93855 0
M  V30 3981 O 379.224 -1.12028 1.60463 0
M  V30 3982 C 379.523 2.10997 2.8847 0
M  V30 3983 C 379.189 3.59966 2.71543 0
M  V30 3984 C 377.851 4.00575 2.66634 0
M  V30 3985 C 380.203 4.54548 2.55021 0
M  V30 3986 C 377.531 5.33953 2.43128 0
M  V30 3987 C 379.883 5.88109 2.33047 0
M  V30 3988 C 378.547 6.27878 2.26552 0
M  V30 3989 H 377.817 0.465078 0.576874 0
M  V30 3990 H 380.464 1.6635 0.948671 0
M  V30 3991 H 378.769 1.6458 3.55557 0
M  V30 3992 H 380.466 2.0255 3.46084 0
M  V30 3993 H 377.056 3.27733 2.76205 0
M  V30 3994 H 381.24 4.24069 2.57835 0
M  V30 3995 H 376.496 5.63781 2.3656 0
M  V30 3996 H 380.67 6.60985 2.19251 0
M  V30 3997 H 378.297 7.31162 2.081 0
M  V30 3998 N 379.872 -1.04064 1.18357 0
M  V30 3999 C 381.118 -1.77528 0.980397 0
M  V30 4000 C 381.451 -1.87948 -0.48879 0
M  V30 4001 O 380.726 -1.3876 -1.36293 0
M  V30 4002 C 381.009 -3.20797 1.63588 0
M  V30 4003 C 380.862 -3.1832 3.17793 0
M  V30 4004 C 382.181 -4.18911 1.34914 0
M  V30 4005 H 379.3 -0.644443 0.357578 0
M  V30 4006 H 381.942 -1.2156 1.46024 0
M  V30 4007 H 380.092 -3.68586 1.22788 0
M  V30 4008 H 381.764 -2.78521 3.67728 0
M  V30 4009 H 380.007 -2.56351 3.49952 0
M  V30 4010 H 380.678 -4.19489 3.58794 0
M  V30 4011 H 383.154 -3.7967 1.70265 0
M  V30 4012 H 382.03 -5.17374 1.83346 0
M  V30 4013 H 382.291 -4.41262 0.272027 0
M  V30 4014 N 381.35 -0.985608 -1.22978 0
M  V30 4015 C 382.28 -0.549649 -2.26939 0
M  V30 4016 C 383.261 0.419803 -1.64838 0
M  V30 4017 O 384.446 0.31203 -1.91677 0
M  V30 4018 C 381.576 0.143652 -3.47003 0
M  V30 4019 C 380.53 -0.743606 -4.21491 0
M  V30 4020 C 379.856 0.0822027 -5.34637 0
M  V30 4021 C 381.156 -2.03694 -4.80943 0
M  V30 4022 H 382.85 -1.41862 -2.63658 0
M  V30 4023 H 380.396 -0.683571 -1.26741 0
M  V30 4024 H 382.349 0.459985 -4.18882 0
M  V30 4025 H 381.073 1.04711 -3.09359 0
M  V30 4026 H 379.732 -1.04347 -3.51436 0
M  V30 4027 H 379.38 0.986359 -4.93234 0
M  V30 4028 H 379.08 -0.508377 -5.85397 0
M  V30 4029 H 380.604 0.392797 -6.09335 0
M  V30 4030 H 382.018 -1.78504 -5.44802 0
M  V30 4031 H 380.415 -2.57573 -5.42011 0
M  V30 4032 H 381.485 -2.72042 -4.01399 0
M  V30 4033 N 382.828 1.3818 -0.7579 0
M  V30 4034 C 384.244 1.5353 -0.435972 0
M  V30 4035 C 384.444 1.71961 1.05032 0
M  V30 4036 O 383.5 1.73307 1.83633 0
M  V30 4037 C 384.813 2.73989 -1.23898 0
M  V30 4038 C 386.361 2.87841 -1.22949 0
M  V30 4039 C 386.836 4.11266 -2.01554 0
M  V30 4040 N 388.327 4.18352 -1.98837 0
M  V30 4041 C 389.062 5.12856 -2.5645 0
M  V30 4042 N 388.558 6.13005 -3.22794 0
M  V30 4043 N 390.351 5.05238 -2.46356 0
M  V30 4044 H 382.502 1.24467 -1.7211 0
M  V30 4045 H 384.765 0.604982 -0.729864 0
M  V30 4046 H 384.471 2.66789 -2.29165 0
M  V30 4047 H 384.345 3.67294 -0.858764 0
M  V30 4048 H 386.732 2.9452 -0.184854 0
M  V30 4049 H 386.813 1.95534 -1.64924 0
M  V30 4050 H 386.457 4.05349 -3.06031 0
M  V30 4051 H 386.387 5.02661 -1.5697 0
M  V30 4052 H 388.878 3.46628 -1.50524 0
M  V30 4053 H 389.191 6.81619 -3.64165 0
M  V30 4054 H 387.536 6.13325 -3.2689 0
M  V30 4055 H 390.727 4.25938 -1.9415 0
M  V30 4056 H 390.9 5.78707 -2.91552 0
M  V30 4057 N 384.306 0.507319 1.49211 0
M  V30 4058 C 385.553 -0.0349529 2.0247 0
M  V30 4059 C 385.881 -1.36409 1.38647 0
M  V30 4060 O 385.136 -1.88841 0.513566 0
M  V30 4061 C 385.435 -0.229513 3.56662 0
M  V30 4062 C 385.101 1.02241 4.39156 0
M  V30 4063 C 383.763 1.36557 4.61417 0
M  V30 4064 C 386.115 1.85428 4.871 0
M  V30 4065 C 383.443 2.53999 5.28868 0
M  V30 4066 C 385.795 3.02028 5.55843 0
M  V30 4067 C 384.459 3.36717 5.76349 0
M  V30 4068 H 383.729 -0.0127902 0.74089 0
M  V30 4069 H 386.376 0.668756 1.79443 0
M  V30 4070 H 384.681 -1.0158 3.78403 0
M  V30 4071 H 386.378 -0.663641 3.9547 0
M  V30 4072 H 382.968 0.745124 4.22073 0
M  V30 4073 H 387.152 1.6023 4.69723 0
M  V30 4074 H 382.408 2.81105 5.42946 0
M  V30 4075 H 386.582 3.66808 5.91967 0
M  V30 4076 H 384.209 4.27821 6.28389 0
M  V30 4077 N 385.784 -1.5574 0.241426 0
M  V30 4078 C 386.714 -2.24133 -0.654722 0
M  V30 4079 C 387.695 -1.21974 -1.1856 0
M  V30 4080 O 388.88 -1.50612 -1.22595 0
M  V30 4081 C 386.01 -2.93659 -1.85423 0
M  V30 4082 C 384.964 -4.0246 -1.45636 0
M  V30 4083 C 384.29 -4.59383 -2.73626 0
M  V30 4084 C 385.59 -5.18468 -0.631506 0
M  V30 4085 H 387.284 -2.99281 -0.0844353 0
M  V30 4086 H 384.83 -1.43947 -0.0391707 0
M  V30 4087 H 386.783 -3.40203 -2.48676 0
M  V30 4088 H 385.507 -2.15991 -2.44981 0
M  V30 4089 H 384.166 -3.56676 -0.847202 0
M  V30 4090 H 383.814 -3.78422 -3.3137 0
M  V30 4091 H 383.514 -5.32826 -2.4773 0
M  V30 4092 H 385.038 -5.08658 -3.37786 0
M  V30 4093 H 386.452 -5.61272 -1.1682 0
M  V30 4094 H 384.849 -5.98266 -0.468831 0
M  V30 4095 H 385.919 -4.8358 0.357506 0
M  V30 4096 N 387.262 0.0317525 -1.57568 0
M  V30 4097 C 388.502 0.727979 -1.90997 0
M  V30 4098 C 388.866 1.72664 -0.839708 0
M  V30 4099 O 390.067 2.47092 -1.05825 0
M  V30 4100 C 388.338 1.38239 -3.29583 0
M  V30 4101 S 389.897 2.10814 -3.84841 0
M  V30 4102 H 386.715 0.241226 -0.668828 0
M  V30 4103 H 389.317 -0.0173037 -1.95492 0
M  V30 4104 H 388.021 0.642288 -4.05343 0
M  V30 4105 H 387.552 2.16628 -3.28384 0
M  V30 4106 H 389.567 3.3792 -3.63352 0
M  V30 4107 N 388.74 1.54641 0.303973 0
M  V30 4108 C 389.986 1.74038 1.04109 0
M  V30 4109 C 390.319 0.523051 1.87024 0
M  V30 4110 O 389.594 -0.479874 1.88487 0
M  V30 4111 C 389.877 3.02761 1.94955 0
M  V30 4112 C 389.73 4.34787 1.1524 0
M  V30 4113 C 391.049 3.27336 2.94175 0
M  V30 4114 H 388.168 0.63323 0.377079 0
M  V30 4115 H 390.81 1.87354 0.316001 0
M  V30 4116 H 388.96 2.9154 2.56782 0
M  V30 4117 H 390.632 4.57922 0.557236 0
M  V30 4118 H 388.875 4.31407 0.455053 0
M  V30 4119 H 389.546 5.21116 1.8205 0
M  V30 4120 H 392.022 3.38148 2.42477 0
M  V30 4121 H 390.898 4.18726 3.54908 0
M  V30 4122 H 391.159 2.45491 3.67677 0
M  V30 4123 N 390.218 -0.567019 1.47046 0
M  V30 4124 C 391.634 -0.891975 1.32348 0
M  V30 4125 C 391.834 -1.99154 0.306616 0
M  V30 4126 O 390.89 -2.50883 -0.28532 0
M  V30 4127 C 392.203 -1.29449 2.7141 0
M  V30 4128 C 393.751 -1.40646 2.79621 0
M  V30 4129 C 394.226 -1.84257 4.19301 0
M  V30 4130 N 395.717 -1.91424 4.21795 0
M  V30 4131 C 396.452 -2.26476 5.26779 0
M  V30 4132 N 395.948 -2.60211 6.42077 0
M  V30 4133 N 397.741 -2.27166 5.14152 0
M  V30 4134 H 389.892 0.159074 2.11803 0
M  V30 4135 H 392.155 0.00849752 0.947962 0
M  V30 4136 H 391.861 -0.560448 3.47206 0
M  V30 4137 H 391.735 -2.25273 3.02542 0
M  V30 4138 H 394.122 -2.13133 2.04104 0
M  V30 4139 H 394.203 -0.430339 2.52154 0
M  V30 4140 H 393.847 -1.12343 4.95319 0
M  V30 4141 H 393.777 -2.82855 4.44185 0
M  V30 4142 H 396.268 -1.6778 3.38612 0
M  V30 4143 H 396.581 -2.85956 7.17948 0
M  V30 4144 H 394.926 -2.57813 6.45413 0
M  V30 4145 H 398.117 -2.00244 4.23107 0
M  V30 4146 H 398.29 -2.54154 5.96079 0
M  V30 4147 N 391.696 -1.35014 -0.812953 0
M  V30 4148 C 392.973 -1.18502 -1.55617 0
M  V30 4149 C 393.353 0.238421 -2.09749 0
M  V30 4150 O 392.701 1.2411 -1.91857 0
M  V30 4151 C 392.911 -2.24783 -2.66971 0
M  V30 4152 C 394.259 -2.60268 -3.35478 0
M  V30 4153 O 395.283 -2.23648 -2.77236 0
M  V30 4154 O 394.142 -3.2321 -4.40678 0
M  V30 4155 H 391.236 -0.459984 -0.687272 0
M  V30 4156 H 393.782 -1.46677 -0.853464 0
M  V30 4157 H 392.554 -3.20284 -2.24798 0
M  V30 4158 H 392.177 -1.97841 -3.44884 0
M  V30 4159 N 393.175 1.03435 -1.18907 0
M  V30 4160 C 394.591 1.28973 -0.940111 0
M  V30 4161 C 394.791 1.97676 0.390691 0
M  V30 4162 O 393.847 2.26127 1.12352 0
M  V30 4163 C 395.16 2.14221 -2.11021 0
M  V30 4164 C 396.708 2.27547 -2.14922 0
M  V30 4165 C 397.183 3.16164 -3.31367 0
M  V30 4166 N 398.674 3.23752 -3.31269 0
M  V30 4167 C 399.409 3.92495 -4.18014 0
M  V30 4168 N 398.905 4.63515 -5.14904 0
M  V30 4169 N 400.698 3.88838 -4.05908 0
M  V30 4170 H 392.849 0.57252 -2.04538 0
M  V30 4171 H 395.112 0.315184 -0.894071 0
M  V30 4172 H 394.818 1.71054 -3.073 0
M  V30 4173 H 394.692 3.14919 -2.0762 0
M  V30 4174 H 397.079 2.69947 -1.19217 0
M  V30 4175 H 397.16 1.26418 -2.22378 0
M  V30 4176 H 396.804 2.74474 -4.27348 0
M  V30 4177 H 396.734 4.17339 -3.21148 0
M  V30 4178 H 399.225 2.73167 -2.61129 0
M  V30 4179 H 399.538 5.13583 -5.77453 0
M  V30 4180 H 397.883 4.62398 -5.18857 0
M  V30 4181 H 401.074 3.32491 -3.29495 0
M  V30 4182 H 401.247 4.4214 -4.73726 0
M  V30 4183 N 394.653 0.992116 1.22453 0
M  V30 4184 C 395.893 0.675727 1.92907 0
M  V30 4185 C 396.257 -0.777762 1.75542 0
M  V30 4186 O 397.458 -1.20553 2.40251 0
M  V30 4187 C 395.729 1.0696 3.4102 0
M  V30 4188 S 397.288 0.871456 4.30059 0
M  V30 4189 H 394.106 0.247089 0.666684 0
M  V30 4190 H 396.708 1.27423 1.48269 0
M  V30 4191 H 395.412 2.12383 3.51172 0
M  V30 4192 H 394.943 0.462858 3.90668 0
M  V30 4193 H 396.958 -0.238436 4.95627 0
M  V30 4194 N 396.131 -1.37776 0.765217 0
M  V30 4195 C 397.547 -1.53297 0.444108 0
M  V30 4196 C 397.747 -1.72515 -1.04119 0
M  V30 4197 O 396.803 -1.74278 -1.82711 0
M  V30 4198 C 398.116 -2.73328 1.25349 0
M  V30 4199 C 399.664 -2.87185 1.24473 0
M  V30 4200 C 400.139 -4.10191 2.03733 0
M  V30 4201 N 401.63 -4.17291 2.01053 0
M  V30 4202 C 402.365 -5.11488 2.59166 0
M  V30 4203 N 401.861 -6.11285 3.26041 0
M  V30 4204 N 403.654 -5.03924 2.49032 0
M  V30 4205 H 395.805 -1.23552 1.72768 0
M  V30 4206 H 398.068 -0.601103 0.733062 0
M  V30 4207 H 397.774 -2.6557 2.30577 0
M  V30 4208 H 397.648 -3.66834 0.87823 0
M  V30 4209 H 400.035 -2.94418 0.20047 0
M  V30 4210 H 400.116 -1.94657 1.65959 0
M  V30 4211 H 399.76 -4.0372 3.08176 0
M  V30 4212 H 399.69 -5.01821 1.59633 0
M  V30 4213 H 402.181 -3.45825 1.5236 0
M  V30 4214 H 402.494 -6.79678 3.67774 0
M  V30 4215 H 400.839 -6.11583 3.30138 0
M  V30 4216 H 404.03 -4.24902 1.96407 0
M  V30 4217 H 404.203 -5.77152 2.94617 0
M  V30 4218 N 397.609 -0.515225 -1.4894 0
M  V30 4219 C 398.856 0.024215 -2.02486 0
M  V30 4220 C 399.184 1.35671 -1.39368 0
M  V30 4221 O 398.439 1.88566 -0.523574 0
M  V30 4222 C 398.738 0.210595 -3.56779 0
M  V30 4223 C 398.404 -1.04569 -4.38607 0
M  V30 4224 C 397.066 -1.39002 -4.60686 0
M  V30 4225 C 399.418 -1.88008 -4.86109 0
M  V30 4226 C 396.746 -2.568 -5.27514 0
M  V30 4227 C 399.098 -3.04972 -5.54234 0
M  V30 4228 C 397.762 -3.39768 -5.74555 0
M  V30 4229 H 397.032 0.00886088 -0.740947 0
M  V30 4230 H 399.679 -0.678263 -1.79086 0
M  V30 4231 H 397.984 0.99572 -3.78936 0
M  V30 4232 H 399.681 0.642659 -3.95817 0
M  V30 4233 H 396.271 -0.767497 -4.21672 0
M  V30 4234 H 400.455 -1.62719 -4.68867 0
M  V30 4235 H 395.711 -2.8398 -5.41447 0
M  V30 4236 H 399.885 -3.69943 -5.90013 0
M  V30 4237 H 397.512 -4.31148 -6.26112 0
M  V30 4238 N 399.087 1.5561 -0.249682 0
M  V30 4239 C 400.017 2.24477 0.642826 0
M  V30 4240 C 400.998 1.22601 1.17911 0
M  V30 4241 O 402.183 1.5126 1.21795 0
M  V30 4242 C 399.313 2.94638 1.83863 0
M  V30 4243 C 398.267 4.03227 1.435 0
M  V30 4244 C 397.593 4.60828 2.71186 0
M  V30 4245 C 398.893 5.18796 0.604002 0
M  V30 4246 H 400.587 2.99321 0.0685625 0
M  V30 4247 H 398.133 1.43965 0.0315363 0
M  V30 4248 H 400.086 3.41517 2.46868 0
M  V30 4249 H 398.81 2.17287 2.43832 0
M  V30 4250 H 397.469 3.57121 0.828275 0
M  V30 4251 H 397.117 3.80174 3.29358 0
M  V30 4252 H 396.817 5.34132 2.44901 0
M  V30 4253 H 398.341 5.10442 3.35084 0
M  V30 4254 H 399.755 5.61883 1.13842 0
M  V30 4255 H 398.152 5.98506 0.437097 0
M  V30 4256 H 399.222 4.83384 -0.383147 0
M  V30 4257 N 400.565 -0.0233959 1.57583 0
M  V30 4258 C 401.981 -0.379134 1.55031 0
M  V30 4259 C 402.181 -1.76255 0.976548 0
M  V30 4260 O 401.237 -2.45266 0.600078 0
M  V30 4261 C 402.55 -0.275792 2.99433 0
M  V30 4262 C 404.098 -0.352458 3.11009 0
M  V30 4263 C 404.573 -0.278501 4.57152 0
M  V30 4264 N 406.064 -0.337123 4.61972 0
M  V30 4265 C 406.799 -0.302876 5.726 0
M  V30 4266 N 406.295 -0.220589 6.92449 0
M  V30 4267 N 408.088 -0.353023 5.6099 0
M  V30 4268 H 400.239 0.881869 1.93227 0
M  V30 4269 H 402.502 0.335867 0.886509 0
M  V30 4270 H 402.208 0.675108 3.4516 0
M  V30 4271 H 402.082 -1.06721 3.61788 0
M  V30 4272 H 404.469 -1.29379 2.65226 0
M  V30 4273 H 404.55 0.468409 2.51475 0
M  V30 4274 H 404.194 0.659189 5.03604 0
M  V30 4275 H 404.124 -1.11755 5.14605 0
M  V30 4276 H 406.615 -0.403002 3.75745 0
M  V30 4277 H 406.928 -0.199713 7.72542 0
M  V30 4278 H 405.273 -0.186555 6.9475 0
M  V30 4279 H 408.464 -0.415339 4.66254 0
M  V30 4280 H 408.637 -0.322866 6.47195 0
M  V30 4281 N 402.043 -1.548 -0.295768 0
M  V30 4282 C 402.99 -1.86113 -1.36494 0
M  V30 4283 C 403.96 -0.7105 -1.50137 0
M  V30 4284 O 405.145 -0.959626 -1.64912 0
M  V30 4285 C 402.285 -2.11861 -2.72413 0
M  V30 4286 C 401.398 -3.39471 -2.67177 0
M  V30 4287 C 400.533 -3.55035 -3.95125 0
M  V30 4288 C 399.572 -4.76418 -3.84308 0
M  V30 4289 N 398.709 -4.8876 -5.04042 0
M  V30 4290 H 403.549 -2.77314 -1.09091 0
M  V30 4291 H 401.086 -1.37315 -0.52753 0
M  V30 4292 H 403.044 -2.24786 -3.51464 0
M  V30 4293 H 401.674 -1.2392 -2.98066 0
M  V30 4294 H 400.726 -3.35139 -1.79962 0
M  V30 4295 H 402.038 -4.28646 -2.55076 0
M  V30 4296 H 401.192 -3.67653 -4.82614 0
M  V30 4297 H 399.931 -2.64002 -4.10066 0
M  V30 4298 H 398.936 -4.63827 -2.95202 0
M  V30 4299 H 400.161 -5.68863 -3.70906 0
M  V30 4300 H 398.107 -4.00652 -5.19436 0
M  V30 4301 H 398.024 -5.71945 -4.94384 0
M  V30 4302 H 399.292 -5.0574 -5.93167 0
M  V30 4303 N 403.521 0.559213 -1.47345 0
M  V30 4304 C 404.767 1.31843 -1.54095 0
M  V30 4305 C 405.1 1.93149 -0.201726 0
M  V30 4306 O 404.375 1.77759 0.789428 0
M  V30 4307 C 404.658 2.43006 -2.65744 0
M  V30 4308 C 404.511 1.86581 -4.09277 0
M  V30 4309 C 405.83 3.44943 -2.73318 0
M  V30 4310 H 402.949 0.478012 -0.560957 0
M  V30 4311 H 405.591 0.625977 -1.79392 0
M  V30 4312 H 403.741 3.02072 -2.44305 0
M  V30 4313 H 405.413 1.31792 -4.42073 0
M  V30 4314 H 403.656 1.17268 -4.17649 0
M  V30 4315 H 404.327 2.66933 -4.83168 0
M  V30 4316 H 406.803 2.95793 -2.92653 0
M  V30 4317 H 405.679 4.20153 -3.53218 0
M  V30 4318 H 405.94 4.03665 -1.80296 0
M  V30 4319 N 404.999 1.35443 0.805782 0
M  V30 4320 C 406.41 1.25768 1.37983 0
M  V30 4321 C 406.761 -0.10958 1.95894 0
M  V30 4322 O 405.886 -1.01056 1.91355 0
M  V30 4323 C 406.481 2.27727 2.5085 0
M  V30 4324 C 405.04 2.2179 3.04115 0
M  V30 4325 C 404.187 2.13393 1.77084 0
M  V30 4326 H 407.138 1.4656 0.608752 0
M  V30 4327 H 407.159 1.90422 3.29424 0
M  V30 4328 H 406.671 3.27227 2.08671 0
M  V30 4329 H 404.772 1.25703 3.50756 0
M  V30 4330 H 404.885 3.13788 3.62042 0
M  V30 4331 H 403.249 1.59384 1.98668 0
M  V30 4332 H 404.032 3.14755 1.37056 0
M  V30 4333 N 406.477 -1.02803 1.19454 0
M  V30 4334 C 407.425 -2.13213 0.929673 0
M  V30 4335 C 408.419 -1.69011 -0.114806 0
M  V30 4336 O 409.625 -1.79967 0.0345147 0
M  V30 4337 H 406 -0.69662 0.28324 0
M  V30 4338 H 407.971 -2.32744 1.86743 0
M  V30 4339 C 406.72 -3.4429 0.485797 0
M  V30 4340 H 406.043 -3.7872 1.28105 0
M  V30 4341 H 407.483 -4.22638 0.339582 0
M  V30 4342 C 405.942 -3.27258 -0.800244 0
M  V30 4343 O 406.472 -3.55967 -1.86146 0
M  V30 4344 N 404.678 -2.80545 -0.75781 0
M  V30 4345 H 404.225 -2.57382 0.106039 0
M  V30 4346 H 404.183 -2.6953 -1.61867 0
M  V30 4347 N 407.956 -0.998596 -1.21925 0
M  V30 4348 C 409.205 -0.673085 -1.90138 0
M  V30 4349 C 409.518 0.79895 -1.78539 0
M  V30 4350 O 410.724 1.23628 -2.4172 0
M  V30 4351 C 409.18 -1.15339 -3.40918 0
M  V30 4352 C 408.788 -2.65106 -3.61141 0
M  V30 4353 C 410.532 -0.902476 -4.14796 0
M  V30 4354 C 408.439 -3.0671 -5.05651 0
M  V30 4355 H 407.369 -0.248057 -0.712028 0
M  V30 4356 H 410.02 -1.20891 -1.38049 0
M  V30 4357 H 408.402 -0.545658 -3.92223 0
M  V30 4358 H 409.576 -3.31274 -3.20304 0
M  V30 4359 H 407.891 -2.88142 -3.00605 0
M  V30 4360 H 410.488 -1.18895 -5.21314 0
M  V30 4361 H 410.831 0.161349 -4.15987 0
M  V30 4362 H 411.364 -1.47269 -3.69536 0
M  V30 4363 H 408.103 -4.12292 -5.09603 0
M  V30 4364 H 407.623 -2.45249 -5.47369 0
M  V30 4365 H 409.302 -2.9833 -5.74115 0
M  V30 4366 N 409.434 1.37368 -0.772513 0
M  V30 4367 C 410.683 1.98918 -0.333861 0
M  V30 4368 C 410.996 1.62017 1.09589 0
M  V30 4369 O 412.202 2.16676 1.63596 0
M  V30 4370 C 410.658 3.55735 -0.545971 0
M  V30 4371 C 410.266 4.01573 -1.98603 0
M  V30 4372 C 412.01 4.24156 -0.170979 0
M  V30 4373 C 409.917 5.51102 -2.1457 0
M  V30 4374 H 408.847 0.744214 -0.121085 0
M  V30 4375 H 411.498 1.56888 -0.95175 0
M  V30 4376 H 409.88 3.95748 0.141387 0
M  V30 4377 H 411.054 3.72803 -2.7084 0
M  V30 4378 H 409.369 3.45937 -2.31769 0
M  V30 4379 H 411.966 5.34024 -0.26878 0
M  V30 4380 H 412.309 4.06917 0.878855 0
M  V30 4381 H 412.842 3.89447 -0.810914 0
M  V30 4382 H 409.581 5.73268 -3.17875 0
M  V30 4383 H 409.101 5.81554 -1.46817 0
M  V30 4384 H 410.78 6.17083 -1.94468 0
M  V30 4385 N 410.912 0.523116 1.48665 0
M  V30 4386 C 412.189 -0.0775449 1.95446 0
M  V30 4387 C 412.569 -1.5197 1.4652 0
M  V30 4388 O 411.917 -2.17876 0.688657 0
M  V30 4389 C 412.127 0.0326135 3.48985 0
M  V30 4390 C 413.475 -0.130141 4.24401 0
M  V30 4391 O 414.499 -0.0415142 3.56176 0
M  V30 4392 O 413.358 -0.31491 5.45592 0
M  V30 4393 H 410.452 -0.0831012 0.822814 0
M  V30 4394 H 412.998 0.587227 1.59216 0
M  V30 4395 H 411.77 1.03748 3.77296 0
M  V30 4396 H 411.393 -0.671317 3.91892 0
M  V30 4397 N 412.39 -1.55475 0.257931 0
M  V30 4398 C 413.32 -2.24815 -0.630912 0
M  V30 4399 C 414.301 -1.23224 -1.17259 0
M  V30 4400 O 415.486 -1.51904 -1.20991 0
M  V30 4401 C 412.616 -2.95609 -1.82298 0
M  V30 4402 C 411.57 -4.03982 -1.41359 0
M  V30 4403 C 410.896 -4.6226 -2.68738 0
M  V30 4404 C 412.196 -5.19109 -0.57648 0
M  V30 4405 H 413.89 -2.99354 -0.0526878 0
M  V30 4406 H 411.436 -1.4398 -0.023901 0
M  V30 4407 H 413.389 -3.42822 -2.45054 0
M  V30 4408 H 412.113 -2.18577 -2.42676 0
M  V30 4409 H 410.772 -3.57555 -0.809324 0
M  V30 4410 H 410.42 -3.81915 -3.27338 0
M  V30 4411 H 410.12 -5.35424 -2.42065 0
M  V30 4412 H 411.644 -5.12212 -3.32372 0
M  V30 4413 H 413.058 -5.62479 -1.10861 0
M  V30 4414 H 411.455 -5.98729 -0.405351 0
M  V30 4415 H 412.525 -4.83174 0.408776 0
M  V30 4416 N 413.868 0.0150385 -1.57593 0
M  V30 4417 C 414.798 1.01047 -2.10503 0
M  V30 4418 C 415.779 1.36816 -1.01071 0
M  V30 4419 O 416.964 1.45455 -1.28672 0
M  V30 4420 C 414.094 2.30708 -2.59598 0
M  V30 4421 C 413.048 2.09142 -3.73421 0
M  V30 4422 C 412.374 3.44685 -4.08774 0
M  V30 4423 C 413.674 1.46619 -5.01298 0
M  V30 4424 H 415.368 0.569978 -2.93925 0
M  V30 4425 H 412.914 0.272724 -1.41394 0
M  V30 4426 H 414.867 3.00687 -2.95238 0
M  V30 4427 H 413.591 2.76843 -1.73279 0
M  V30 4428 H 412.25 1.41592 -3.38153 0
M  V30 4429 H 411.898 3.88495 -3.195 0
M  V30 4430 H 411.598 3.31077 -4.8545 0
M  V30 4431 H 413.122 4.16004 -4.4696 0
M  V30 4432 H 414.536 2.06535 -5.34805 0
M  V30 4433 H 412.933 1.43544 -5.82679 0
M  V30 4434 H 414.003 0.433611 -4.82957 0
M  V30 4435 N 415.346 1.54954 0.287554 0
M  V30 4436 C 416.309 1.86076 1.33823 0
M  V30 4437 C 417.309 0.734414 1.43049 0
M  V30 4438 O 418.499 1.00266 1.42452 0
M  V30 4439 C 415.631 2.05305 2.72144 0
M  V30 4440 H 416.824 2.79984 1.07465 0
M  V30 4441 H 414.377 1.47223 0.524902 0
M  V30 4442 H 415.112 1.1373 3.03704 0
M  V30 4443 H 414.897 2.873 2.66836 0
M  V30 4444 H 416.387 2.30706 3.48087 0
M  V30 4445 N 416.824 -0.551391 1.4764 0
M  V30 4446 C 418.073 -1.30467 1.53822 0
M  V30 4447 C 418.386 -1.94495 0.207661 0
M  V30 4448 O 419.592 -2.71099 0.147533 0
M  V30 4449 C 418.048 -2.36616 2.71184 0
M  V30 4450 C 417.656 -1.78754 4.10793 0
M  V30 4451 C 419.4 -3.13088 2.86663 0
M  V30 4452 C 417.307 -2.82717 5.19447 0
M  V30 4453 H 416.237 -0.490584 0.572576 0
M  V30 4454 H 418.888 -0.58494 1.73927 0
M  V30 4455 H 417.27 -3.11529 2.4447 0
M  V30 4456 H 418.444 -1.10173 4.47435 0
M  V30 4457 H 416.759 -1.14846 4.00249 0
M  V30 4458 H 419.356 -3.90736 3.65007 0
M  V30 4459 H 419.699 -3.67635 1.95321 0
M  V30 4460 H 420.232 -2.45288 3.13175 0
M  V30 4461 H 416.971 -2.33018 6.12685 0
M  V30 4462 H 416.491 -3.4969 4.87316 0
M  V30 4463 H 418.17 -3.46102 5.46646 0
M  V30 4464 N 418.302 -1.35869 -0.798587 0
M  V30 4465 C 419.232 -1.32118 -1.92528 0
M  V30 4466 C 420.213 -0.194209 -1.68988 0
M  V30 4467 O 421.398 -0.390426 -1.90235 0
M  V30 4468 C 418.528 -1.10047 -3.29404 0
M  V30 4469 C 417.482 -2.19471 -3.67446 0
M  V30 4470 C 416.808 -1.82555 -5.02571 0
M  V30 4471 C 418.108 -3.61495 -3.76987 0
M  V30 4472 H 419.802 -2.26394 -1.95924 0
M  V30 4473 H 417.348 -1.08981 -0.94123 0
M  V30 4474 H 419.301 -1.06061 -4.07835 0
M  V30 4475 H 418.025 -0.122195 -3.26371 0
M  V30 4476 H 416.684 -2.22568 -2.91306 0
M  V30 4477 H 416.332 -0.833249 -4.9605 0
M  V30 4478 H 416.032 -2.5581 -5.28995 0
M  V30 4479 H 417.556 -1.80108 -5.83432 0
M  V30 4480 H 418.97 -3.60676 -4.4563 0
M  V30 4481 H 417.367 -4.33577 -4.14887 0
M  V30 4482 H 418.437 -3.97065 -2.78329 0
M  V30 4483 N 419.78 1.02168 -1.19998 0
M  V30 4484 C 421.191 1.57135 -1.00825 0
M  V30 4485 C 421.542 1.91276 0.436818 0
M  V30 4486 O 420.667 1.71679 1.3174 0
M  V30 4487 C 421.262 2.85514 -1.82393 0
M  V30 4488 C 419.821 3.37027 -1.67601 0
M  V30 4489 C 418.968 2.10388 -1.80644 0
M  V30 4490 H 421.919 0.846106 -1.34264 0
M  V30 4491 H 421.94 3.56711 -1.32429 0
M  V30 4492 H 421.452 2.60634 -2.87561 0
M  V30 4493 H 419.553 3.66878 -0.650485 0
M  V30 4494 H 419.666 4.09572 -2.4857 0
M  V30 4495 H 418.03 2.22601 -1.23778 0
M  V30 4496 H 418.813 1.8794 -2.87286 0
M  V30 4497 N 421.258 1.00505 1.21394 0
M  V30 4498 C 422.505 0.687774 1.90462 0
M  V30 4499 C 422.833 -0.78147 1.7811 0
M  V30 4500 O 422.088 -1.58208 1.1519 0
M  V30 4501 C 422.387 1.0546 3.41486 0
M  V30 4502 C 422.053 2.51812 3.74034 0
M  V30 4503 C 420.715 2.91804 3.82628 0
M  V30 4504 C 423.067 3.46614 3.8924 0
M  V30 4505 C 420.395 4.2556 4.03876 0
M  V30 4506 C 422.747 4.80044 4.11995 0
M  V30 4507 C 421.411 5.19759 4.18816 0
M  V30 4508 H 420.681 0.251674 0.696951 0
M  V30 4509 H 423.328 1.26349 1.43903 0
M  V30 4510 H 421.633 0.397133 3.89782 0
M  V30 4511 H 423.33 0.786976 3.93202 0
M  V30 4512 H 419.92 2.1982 3.67936 0
M  V30 4513 H 424.104 3.16883 3.81967 0
M  V30 4514 H 419.36 4.55901 4.07387 0
M  V30 4515 H 423.534 5.53439 4.22704 0
M  V30 4516 H 421.161 6.23418 4.35033 0
M  V30 4517 N 422.737 -1.36956 0.779787 0
M  V30 4518 C 423.967 -2.03459 0.358877 0
M  V30 4519 C 424.375 -1.58939 -1.02641 0
M  V30 4520 O 423.718 -0.769777 -1.66794 0
M  V30 4521 C 423.78 -3.5796 0.332393 0
M  V30 4522 C 423.444 -4.25644 1.66362 0
M  V30 4523 C 424.441 -4.49205 2.61746 0
M  V30 4524 C 422.126 -4.63313 1.94027 0
M  V30 4525 C 424.12 -5.09503 3.82996 0
M  V30 4526 C 421.807 -5.2333 3.15546 0
M  V30 4527 C 422.805 -5.46363 4.0985 0
M  V30 4528 O 422.493 -6.05122 5.29228 0
M  V30 4529 H 422.225 -0.659767 0.147254 0
M  V30 4530 H 424.779 -1.76111 1.05708 0
M  V30 4531 H 423.009 -3.84388 -0.422237 0
M  V30 4532 H 424.698 -4.05852 -0.0625389 0
M  V30 4533 H 425.464 -4.20508 2.41657 0
M  V30 4534 H 421.343 -4.44715 1.21448 0
M  V30 4535 H 424.887 -5.27397 4.56617 0
M  V30 4536 H 420.784 -5.51451 3.35517 0
M  V30 4537 H 421.552 -6.23595 5.30161 0
M  V30 4538 N 424.215 -0.530993 -1.48385 0
M  V30 4539 C 425.464 0.00474348 -2.01699 0
M  V30 4540 C 425.777 1.35227 -1.41325 0
M  V30 4541 O 426.983 1.97643 -1.86144 0
M  V30 4542 C 425.439 0.0588473 -3.59852 0
M  V30 4543 C 425.047 -1.28385 -4.2921 0
M  V30 4544 C 426.791 0.543358 -4.21008 0
M  V30 4545 C 424.698 -1.19028 -5.79298 0
M  V30 4546 H 423.628 0.00554317 -0.75398 0
M  V30 4547 H 426.279 -0.674924 -1.70637 0
M  V30 4548 H 424.661 0.803612 -3.8776 0
M  V30 4549 H 425.835 -2.04426 -4.12973 0
M  V30 4550 H 424.15 -1.70418 -3.7993 0
M  V30 4551 H 426.747 0.631351 -5.3096 0
M  V30 4552 H 427.09 1.54937 -3.86394 0
M  V30 4553 H 427.623 -0.145754 -3.97533 0
M  V30 4554 H 424.362 -2.17147 -6.18488 0
M  V30 4555 H 423.882 -0.471246 -5.97946 0
M  V30 4556 H 425.561 -0.881365 -6.40969 0
M  V30 4557 N 425.693 1.55336 -0.266172 0
M  V30 4558 C 426.921 2.03801 0.356756 0
M  V30 4559 C 427.336 1.14485 1.50129 0
M  V30 4560 O 426.693 0.163121 1.8177 0
M  V30 4561 C 426.744 3.51455 0.846281 0
M  V30 4562 O 426.465 4.37371 -0.252663 0
M  V30 4563 C 427.966 4.15767 1.53794 0
M  V30 4564 H 425.186 0.665906 0.0825218 0
M  V30 4565 H 427.73 2.00636 -0.39566 0
M  V30 4566 H 425.885 3.55092 1.54881 0
M  V30 4567 H 426.299 5.24358 0.122173 0
M  V30 4568 H 427.773 5.20714 1.83198 0
M  V30 4569 H 428.25 3.63404 2.46646 0
M  V30 4570 H 428.856 4.16107 0.879488 0
M  V30 4571 N 427.171 -0.0066808 1.57599 0
M  V30 4572 C 428.101 -0.999296 2.11036 0
M  V30 4573 C 429.082 -1.36278 1.01795 0
M  V30 4574 O 430.267 -1.4477 1.29442 0
M  V30 4575 C 427.397 -2.29328 2.60818 0
M  V30 4576 C 426.351 -2.07159 3.74525 0
M  V30 4577 C 425.677 -3.42512 4.10596 0
M  V30 4578 C 426.977 -1.43959 5.02069 0
M  V30 4579 H 428.671 -0.554382 2.94223 0
M  V30 4580 H 426.217 -0.265221 1.41536 0
M  V30 4581 H 428.17 -2.99117 2.96828 0
M  V30 4582 H 426.894 -2.7592 1.74745 0
M  V30 4583 H 425.553 -1.39797 3.38899 0
M  V30 4584 H 425.201 -3.86795 3.21556 0
M  V30 4585 H 424.901 -3.28498 4.87199 0
M  V30 4586 H 426.425 -4.13628 4.4916 0
M  V30 4587 H 427.839 -2.03696 5.35893 0
M  V30 4588 H 426.236 -1.40452 5.83432 0
M  V30 4589 H 427.306 -0.407992 4.83181 0
M  V30 4590 N 428.649 -1.55105 -0.279332 0
M  V30 4591 C 429.579 -1.90557 -1.34945 0
M  V30 4592 C 430.56 -0.766738 -1.51839 0
M  V30 4593 O 431.745 -1.02434 -1.64988 0
M  V30 4594 C 428.875 -2.17193 -2.71006 0
M  V30 4595 C 427.829 -3.33021 -2.68851 0
M  V30 4596 C 427.155 -3.45123 -4.08405 0
M  V30 4597 C 428.455 -4.69578 -2.28678 0
M  V30 4598 H 430.149 -2.80188 -1.05522 0
M  V30 4599 H 427.695 -1.34811 -0.506173 0
M  V30 4600 H 429.648 -2.40581 -3.45975 0
M  V30 4601 H 428.372 -1.24355 -3.01999 0
M  V30 4602 H 427.031 -3.0959 -1.9634 0
M  V30 4603 H 426.679 -2.49762 -4.3661 0
M  V30 4604 H 426.379 -4.22995 -4.07859 0
M  V30 4605 H 427.903 -3.70796 -4.85121 0
M  V30 4606 H 429.317 -4.92553 -2.93368 0
M  V30 4607 H 427.714 -5.5032 -2.39306 0
M  V30 4608 H 428.784 -4.68828 -1.23807 0
M  V30 4609 N 430.127 0.543554 -1.4793 0
M  V30 4610 C 431.373 1.30201 -1.55485 0
M  V30 4611 C 431.706 1.92925 -0.222201 0
M  V30 4612 O 430.981 1.78586 0.77053 0
M  V30 4613 C 431.264 2.40174 -2.68307 0
M  V30 4614 C 431.117 1.8223 -4.11233 0
M  V30 4615 C 432.436 3.42024 -2.76961 0
M  V30 4616 H 429.555 0.472036 -0.565996 0
M  V30 4617 H 432.197 0.606914 -1.80046 0
M  V30 4618 H 430.347 2.99463 -2.47495 0
M  V30 4619 H 432.019 1.27096 -4.43446 0
M  V30 4620 H 430.262 1.12832 -4.18869 0
M  V30 4621 H 430.933 2.61793 -4.85972 0
M  V30 4622 H 433.409 2.92672 -2.95774 0
M  V30 4623 H 432.285 4.16383 -3.57654 0
M  V30 4624 H 432.546 4.0173 -1.84568 0
M  V30 4625 N 431.605 1.3629 0.791371 0
M  V30 4626 C 432.515 1.32606 1.93527 0
M  V30 4627 C 433.531 0.228541 1.72493 0
M  V30 4628 O 434.707 0.460571 1.96063 0
M  V30 4629 C 431.772 1.11271 3.28359 0
M  V30 4630 C 430.833 2.3048 3.62185 0
M  V30 4631 C 430.066 2.10154 4.90583 0
M  V30 4632 O 430.289 1.07572 5.60165 0
M  V30 4633 O 429.223 2.97884 5.23019 0
M  V30 4634 H 433.049 2.28909 1.99585 0
M  V30 4635 H 430.634 1.16818 0.931344 0
M  V30 4636 H 432.516 1.01283 4.09047 0
M  V30 4637 H 431.191 0.180292 3.23198 0
M  V30 4638 H 430.098 2.46036 2.81811 0
M  V30 4639 H 431.431 3.22221 3.72068 0
M  V30 4640 N 433.083 -1.0153 1.20538 0
M  V30 4641 C 434.308 -1.79283 1.04271 0
M  V30 4642 C 434.733 -1.8372 -0.403544 0
M  V30 4643 O 434.091 -1.27321 -1.2907 0
M  V30 4644 C 434.139 -3.21535 1.63241 0
M  V30 4645 O 433.243 -4.03099 0.870908 0
M  V30 4646 H 432.584 -0.55293 0.367647 0
M  V30 4647 H 435.114 -1.27696 1.59859 0
M  V30 4648 H 435.124 -3.72243 1.6703 0
M  V30 4649 H 433.799 -3.1762 2.68497 0
M  V30 4650 H 432.376 -3.61693 0.907323 0
M  V30 4651 N 434.561 -1.01147 -1.20859 0
M  V30 4652 C 435.491 -0.597663 -2.25722 0
M  V30 4653 C 436.472 0.384744 -1.65692 0
M  V30 4654 O 437.657 0.271303 -1.92296 0
M  V30 4655 C 434.787 0.0700149 -3.47229 0
M  V30 4656 C 433.741 -0.832843 -4.19819 0
M  V30 4657 C 433.067 -0.0312202 -5.34691 0
M  V30 4658 C 434.367 -2.1385 -4.76514 0
M  V30 4659 H 436.061 -1.47423 -2.60589 0
M  V30 4660 H 433.607 -0.710301 -1.25263 0
M  V30 4661 H 435.56 0.37103 -4.19763 0
M  V30 4662 H 434.284 0.981259 -3.11511 0
M  V30 4663 H 432.943 -1.11778 -3.49144 0
M  V30 4664 H 432.591 0.881515 -4.95215 0
M  V30 4665 H 432.291 -0.632434 -5.84187 0
M  V30 4666 H 433.815 0.26346 -6.10031 0
M  V30 4667 H 435.229 -1.9002 -5.40893 0
M  V30 4668 H 433.626 -2.69012 -5.36426 0
M  V30 4669 H 434.696 -2.80495 -3.95538 0
M  V30 4670 N 436.039 1.36541 -0.78704 0
M  V30 4671 C 437.264 2.0409 -0.369053 0
M  V30 4672 C 437.689 1.58957 1.00569 0
M  V30 4673 O 437.047 0.756926 1.64743 0
M  V30 4674 C 437.095 3.57924 -0.438466 0
M  V30 4675 O 436.199 4.08642 0.555479 0
M  V30 4676 H 435.54 0.645142 -0.157122 0
M  V30 4677 H 438.07 1.74545 -1.06749 0
M  V30 4678 H 438.08 4.06887 -0.301218 0
M  V30 4679 H 436.755 3.90127 -1.44132 0
M  V30 4680 H 435.332 3.70958 0.380088 0
M  V30 4681 N 437.518 0.538854 1.48102 0
M  V30 4682 C 438.766 0.00798599 2.02098 0
M  V30 4683 C 439.087 -1.33922 1.41739 0
M  V30 4684 O 438.357 -1.86932 0.585934 0
M  V30 4685 H 436.937 -3.62179e-05 0.747 0
M  V30 4686 H 439.599 0.7047 1.81714 0
M  V30 4687 H 438.695 -0.0937672 3.11959 0
M  V30 4688 N 438.996 -1.55193 0.274407 0
M  V30 4689 C 440.221 -2.04446 -0.348824 0
M  V30 4690 C 440.646 -1.15149 -1.48735 0
M  V30 4691 O 440.004 -0.149952 -1.80679 0
M  V30 4692 C 440.052 -3.51431 -0.808009 0
M  V30 4693 O 439.156 -3.65225 -1.91531 0
M  V30 4694 H 438.497 -0.66006 -0.0722276 0
M  V30 4695 H 441.027 -2.00481 0.408498 0
M  V30 4696 H 441.037 -3.92781 -1.10395 0
M  V30 4697 H 439.712 -4.15892 0.0249865 0
M  V30 4698 H 438.289 -3.35778 -1.62196 0
M  V30 4699 N 440.474 -0.00167713 -1.576 0
M  V30 4700 C 441.406 1.0174 -2.05382 0
M  V30 4701 C 442.419 1.30595 -0.972052 0
M  V30 4702 O 443.608 1.27542 -1.24882 0
M  V30 4703 C 440.708 2.35174 -2.44022 0
M  V30 4704 C 439.881 2.25234 -3.74951 0
M  V30 4705 C 438.94 3.4137 -4.00441 0
M  V30 4706 O 437.966 3.19483 -4.71083 0
M  V30 4707 N 439.168 4.64275 -3.48467 0
M  V30 4708 H 441.933 0.609902 -2.93428 0
M  V30 4709 H 439.494 0.185672 -1.60832 0
M  V30 4710 H 441.486 3.11643 -2.58187 0
M  V30 4711 H 440.056 2.67659 -1.61485 0
M  V30 4712 H 439.276 1.33664 -3.70847 0
M  V30 4713 H 440.564 2.15767 -4.60784 0
M  V30 4714 H 439.962 4.84955 -2.91264 0
M  V30 4715 H 438.519 5.38005 -3.67959 0
M  V30 4716 N 441.952 1.55251 0.271103 0
M  V30 4717 C 443.18 1.79974 1.02064 0
M  V30 4718 C 443.595 0.574003 1.79863 0
M  V30 4719 O 442.952 -0.456962 1.76686 0
M  V30 4720 C 443.003 3.02603 1.97772 0
M  V30 4721 O 442.724 4.20443 1.23124 0
M  V30 4722 C 444.225 3.39944 2.84522 0
M  V30 4723 H 441.445 0.599489 0.301419 0
M  V30 4724 H 443.989 2.02268 0.301313 0
M  V30 4725 H 442.144 2.8243 2.65165 0
M  V30 4726 H 442.558 4.89783 1.87651 0
M  V30 4727 H 444.032 4.28915 3.47471 0
M  V30 4728 H 444.509 2.59432 3.54389 0
M  V30 4729 H 445.115 3.62383 2.22618 0
M  V30 4730 N 443.43 -0.535701 1.48216 0
M  V30 4731 C 444.658 -1.31671 1.59594 0
M  V30 4732 C 445.073 -1.87083 0.254056 0
M  V30 4733 O 444.43 -1.66112 -0.755854 0
M  V30 4734 C 444.481 -2.47158 2.63809 0
M  V30 4735 O 444.202 -1.94032 3.92789 0
M  V30 4736 C 445.703 -3.39062 2.85573 0
M  V30 4737 H 442.923 -0.400623 0.538277 0
M  V30 4738 H 445.467 -0.646827 1.94001 0
M  V30 4739 H 443.622 -3.10043 2.32276 0
M  V30 4740 H 444.036 -2.69585 4.49916 0
M  V30 4741 H 445.51 -4.16459 3.62306 0
M  V30 4742 H 445.987 -3.93941 1.94184 0
M  V30 4743 H 446.593 -2.81975 3.18387 0
M  V30 4744 N 444.908 -1.36708 -0.784132 0
M  V30 4745 C 445.84 -1.27333 -1.90575 0
M  V30 4746 C 446.853 -0.191706 -1.61667 0
M  V30 4747 O 448.042 -0.446854 -1.72816 0
M  V30 4748 C 445.142 -0.943177 -3.25511 0
M  V30 4749 C 444.315 -2.12776 -3.82158 0
M  V30 4750 C 443.374 -1.76983 -4.95544 0
M  V30 4751 O 442.4 -2.49134 -5.11782 0
M  V30 4752 N 443.602 -0.706624 -5.76183 0
M  V30 4753 H 446.367 -2.23974 -1.99138 0
M  V30 4754 H 443.928 -1.30171 -0.962656 0
M  V30 4755 H 445.92 -0.684799 -3.98864 0
M  V30 4756 H 444.49 -0.0657333 -3.12531 0
M  V30 4757 H 443.71 -2.54863 -3.0073 0
M  V30 4758 H 444.998 -2.91904 -4.16737 0
M  V30 4759 H 444.396 -0.107643 -5.65598 0
M  V30 4760 H 442.953 -0.50808 -6.49817 0
M  V30 4761 N 446.386 1.0089 -1.21074 0
M  V30 4762 C 447.296 2.13039 -0.982425 0
M  V30 4763 C 448.312 1.73881 0.0642161 0
M  V30 4764 O 449.488 2.01012 -0.12496 0
M  V30 4765 C 446.553 3.42377 -0.545803 0
M  V30 4766 C 445.614 3.95731 -1.6642 0
M  V30 4767 C 444.847 5.18896 -1.24832 0
M  V30 4768 O 445.07 5.70273 -0.120265 0
M  V30 4769 O 444.004 5.65597 -2.05873 0
M  V30 4770 H 447.83 2.35175 -1.92163 0
M  V30 4771 H 445.415 1.1142 -0.995285 0
M  V30 4772 H 447.297 4.20244 -0.311912 0
M  V30 4773 H 445.972 3.21639 0.364727 0
M  V30 4774 H 444.879 3.19108 -1.95246 0
M  V30 4775 H 446.212 4.20872 -2.55201 0
M  V30 4776 N 447.864 1.01787 1.20321 0
M  V30 4777 C 448.794 0.609625 2.25401 0
M  V30 4778 C 449.775 -0.375951 1.65893 0
M  V30 4779 O 450.96 -0.261101 1.92437 0
M  V30 4780 C 448.09 -0.0515995 3.47262 0
M  V30 4781 C 447.044 0.855095 4.19371 0
M  V30 4782 C 446.37 0.0595757 5.34667 0
M  V30 4783 C 447.67 2.16374 4.75373 0
M  V30 4784 H 449.364 1.48803 2.59804 0
M  V30 4785 H 446.91 0.716934 1.24884 0
M  V30 4786 H 448.863 -0.348764 4.19954 0
M  V30 4787 H 447.587 -0.964726 3.12027 0
M  V30 4788 H 446.246 1.13628 3.48546 0
M  V30 4789 H 445.894 -0.85524 4.95676 0
M  V30 4790 H 445.594 0.663406 5.83843 0
M  V30 4791 H 447.118 -0.231105 6.10162 0
M  V30 4792 H 448.532 1.92885 5.39878 0
M  V30 4793 H 446.929 2.71853 5.34991 0
M  V30 4794 H 447.999 2.82589 3.94045 0
M  V30 4795 N 449.342 -1.36122 0.79427 0
M  V30 4796 C 450.252 -2.33769 0.197296 0
M  V30 4797 C 451.268 -1.61276 -0.653153 0
M  V30 4798 O 452.444 -1.9323 -0.5678 0
M  V30 4799 C 449.509 -3.40474 -0.654098 0
M  V30 4800 C 448.57 -4.28759 0.215411 0
M  V30 4801 C 447.803 -5.30368 -0.595443 0
M  V30 4802 O 448.026 -5.40211 -1.83107 0
M  V30 4803 O 446.96 -6.019 0.00721351 0
M  V30 4804 H 450.786 -2.86597 1.00478 0
M  V30 4805 H 448.371 -1.38676 0.555818 0
M  V30 4806 H 450.253 -4.05703 -1.13944 0
M  V30 4807 H 448.928 -2.89937 -1.43938 0
M  V30 4808 H 447.835 -3.66554 0.747615 0
M  V30 4809 H 449.168 -4.82661 0.964332 0
M  V30 4810 N 450.82 -0.546701 -1.47814 0
M  V30 4811 C 451.768 0.220048 -2.31557 0
M  V30 4812 C 452.762 0.919472 -1.42275 0
M  V30 4813 O 453.968 0.841953 -1.59095 0
M  V30 4814 H 450.343 0.0898334 -0.746615 0
M  V30 4815 H 452.314 -0.505589 -2.94086 0
M  V30 4816 C 451.063 1.24353 -3.24702 0
M  V30 4817 H 450.386 0.714758 -3.93359 0
M  V30 4818 H 451.826 1.75112 -3.8615 0
M  V30 4819 C 450.285 2.28593 -2.47481 0
M  V30 4820 O 450.815 3.35334 -2.21165 0
M  V30 4821 N 449.021 2.02244 -2.08676 0
M  V30 4822 H 448.568 1.15455 -2.30278 0
M  V30 4823 H 448.526 2.72207 -1.57323 0
M  V30 4824 N 452.299 1.55045 -0.282633 0
M  V30 4825 C 453.545 2.00056 0.332481 0
M  V30 4826 C 453.878 1.1708 1.54939 0
M  V30 4827 O 453.153 0.2427 1.9298 0
M  V30 4828 C 453.436 3.53086 0.70725 0
M  V30 4829 C 453.289 4.46813 -0.517521 0
M  V30 4830 C 454.608 4.12245 1.54084 0
M  V30 4831 H 451.727 0.727268 0.119373 0
M  V30 4832 H 454.369 1.85932 -0.391076 0
M  V30 4833 H 452.519 3.65253 1.32372 0
M  V30 4834 H 454.191 4.46579 -1.15607 0
M  V30 4835 H 452.434 4.18163 -1.1542 0
M  V30 4836 H 453.105 5.51595 -0.211426 0
M  V30 4837 H 455.581 4.03401 1.02013 0
M  V30 4838 H 454.457 5.19515 1.77186 0
M  V30 4839 H 454.718 3.62951 2.52427 0
M  V30 4840 N 453.777 0.010035 1.57597 0
M  V30 4841 C 455.025 -0.671371 1.90623 0
M  V30 4842 C 455.346 -1.73753 0.885151 0
M  V30 4843 O 454.616 -1.95752 -0.0760611 0
M  V30 4844 H 453.196 -0.250968 0.703579 0
M  V30 4845 H 455.858 0.0533325 1.94827 0
M  V30 4846 H 454.954 -1.13626 2.90681 0
M  V30 4847 N 455.255 -1.55392 -0.262866 0
M  V30 4848 C 456.671 -1.47459 -0.610582 0
M  V30 4849 C 456.871 -0.697031 -1.8906 0
M  V30 4850 O 455.927 -0.219952 -2.5154 0
M  V30 4851 C 457.24 -2.91751 -0.728131 0
M  V30 4852 C 458.788 -3.02027 -0.821517 0
M  V30 4853 C 459.263 -4.47594 -0.97076 0
M  V30 4854 N 460.754 -4.51465 -1.03603 0
M  V30 4855 C 461.489 -5.61326 -1.17049 0
M  V30 4856 N 460.985 -6.81032 -1.2715 0
M  V30 4857 N 462.778 -5.49089 -1.20239 0
M  V30 4858 H 454.929 -2.04395 0.577632 0
M  V30 4859 H 457.192 -0.927287 0.197086 0
M  V30 4860 H 456.898 -3.51413 0.142132 0
M  V30 4861 H 456.772 -3.4134 -1.6052 0
M  V30 4862 H 459.159 -2.42456 -1.68224 0
M  V30 4863 H 459.24 -2.55674 0.0803688 0
M  V30 4864 H 458.884 -5.07771 -0.114655 0
M  V30 4865 H 458.814 -4.91613 -1.88745 0
M  V30 4866 H 461.305 -3.6524 -0.96996 0
M  V30 4867 H 461.618 -7.60511 -1.37271 0
M  V30 4868 H 459.963 -6.83824 -1.24136 0
M  V30 4869 H 463.154 -4.54507 -1.11985 0
M  V30 4870 H 463.327 -6.34749 -1.30373 0
M  V30 4871 N 456.733 0.527833 -1.48498 0
M  V30 4872 C 457.982 1.28003 -1.55878 0
M  V30 4873 C 458.295 1.9414 -0.238577 0
M  V30 4874 O 459.501 2.7083 -0.190643 0
M  V30 4875 C 457.957 2.32272 -2.74914 0
M  V30 4876 C 457.565 1.72196 -4.13585 0
M  V30 4877 C 459.309 3.08488 -2.91608 0
M  V30 4878 C 457.216 2.74417 -5.23879 0
M  V30 4879 H 456.146 0.481413 -0.580308 0
M  V30 4880 H 458.797 0.557195 -1.74836 0
M  V30 4881 H 457.179 3.07601 -2.49395 0
M  V30 4882 H 458.353 1.03041 -4.49132 0
M  V30 4883 H 456.668 1.08464 -4.02025 0
M  V30 4884 H 459.265 3.84879 -3.71177 0
M  V30 4885 H 459.608 3.64481 -2.01145 0
M  V30 4886 H 460.141 2.40274 -3.17038 0
M  V30 4887 H 456.88 2.23242 -6.16314 0
M  V30 4888 H 456.4 3.41893 -4.92818 0
M  V30 4889 H 458.079 3.37362 -5.52083 0
M  V30 4890 N 458.211 1.37122 0.776871 0
M  V30 4891 C 459.457 1.32243 1.53752 0
M  V30 4892 C 459.79 -0.0944745 1.9397 0
M  V30 4893 O 459.065 -1.05068 1.6368 0
M  V30 4894 C 459.348 2.25681 2.80607 0
M  V30 4895 C 459.201 3.76127 2.46676 0
M  V30 4896 C 460.52 2.17657 3.82509 0
M  V30 4897 H 457.639 0.481704 0.557791 0
M  V30 4898 H 460.281 1.6778 0.891612 0
M  V30 4899 H 458.431 1.95505 3.35723 0
M  V30 4900 H 460.103 4.16877 1.97513 0
M  V30 4901 H 458.346 3.94946 1.79443 0
M  V30 4902 H 459.017 4.36933 3.37333 0
M  V30 4903 H 461.493 2.44245 3.36873 0
M  V30 4904 H 460.369 2.85185 4.69 0
M  V30 4905 H 460.63 1.16785 4.26396 0
M  V30 4906 N 459.689 -1.00246 1.21608 0
M  V30 4907 C 460.621 -2.09244 0.935401 0
M  V30 4908 C 461.634 -1.62592 -0.0823594 0
M  V30 4909 O 462.823 -1.77865 0.150456 0
M  V30 4910 C 459.923 -3.36724 0.383453 0
M  V30 4911 C 459.096 -4.1245 1.45615 0
M  V30 4912 C 458.155 -5.18219 0.912991 0
M  V30 4913 O 457.181 -5.46337 1.59701 0
M  V30 4914 N 458.383 -5.7987 -0.270478 0
M  V30 4915 H 461.148 -2.33905 1.87373 0
M  V30 4916 H 458.709 -1.16748 1.12167 0
M  V30 4917 H 460.701 -4.047 0.00562157 0
M  V30 4918 H 459.271 -3.09201 -0.459758 0
M  V30 4919 H 458.491 -3.39241 2.00772 0
M  V30 4920 H 459.779 -4.59819 2.17817 0
M  V30 4921 H 459.177 -5.59381 -0.843195 0
M  V30 4922 H 457.734 -6.49126 -0.589794 0
M  V30 4923 N 461.167 -1.02423 -1.1978 0
M  V30 4924 C 462.413 -0.719051 -1.89625 0
M  V30 4925 C 462.746 0.750083 -1.7913 0
M  V30 4926 O 462.021 1.54574 -1.18056 0
M  V30 4927 C 462.304 -1.16499 -3.40735 0
M  V30 4928 C 462.157 -2.695 -3.60125 0
M  V30 4929 C 463.476 -0.742166 -4.33797 0
M  V30 4930 H 460.595 -0.26269 -0.688595 0
M  V30 4931 H 463.237 -1.27333 -1.41018 0
M  V30 4932 H 461.387 -0.69341 -3.82262 0
M  V30 4933 H 463.059 -3.24569 -3.278 0
M  V30 4934 H 461.302 -3.10113 -3.03336 0
M  V30 4935 H 461.973 -2.95757 -4.66081 0
M  V30 4936 H 464.449 -1.1477 -3.99959 0
M  V30 4937 H 463.325 -1.08213 -5.38127 0
M  V30 4938 H 463.586 0.355747 -4.40666 0
M  V30 4939 N 462.645 1.35699 -0.801477 0
M  V30 4940 C 463.575 2.32436 -0.222658 0
M  V30 4941 C 464.556 1.5723 0.649057 0
M  V30 4942 O 465.741 1.85324 0.580387 0
M  V30 4943 C 462.871 3.41469 0.633719 0
M  V30 4944 C 461.825 4.27774 -0.139083 0
M  V30 4945 C 461.151 5.28082 0.838666 0
M  V30 4946 C 462.451 5.04946 -1.33517 0
M  V30 4947 H 464.145 2.81094 -1.03086 0
M  V30 4948 H 461.691 1.35146 -0.497155 0
M  V30 4949 H 463.644 4.08143 1.04868 0
M  V30 4950 H 462.368 2.91408 1.47475 0
M  V30 4951 H 461.027 3.62673 -0.535156 0
M  V30 4952 H 460.675 4.7429 1.67506 0
M  V30 4953 H 460.375 5.86695 0.32594 0
M  V30 4954 H 461.899 5.97628 1.25194 0
M  V30 4955 H 463.313 5.64593 -0.995349 0
M  V30 4956 H 461.71 5.7303 -1.78202 0
M  V30 4957 H 462.78 4.35886 -2.12442 0
M  V30 4958 N 464.123 0.554532 1.47522 0
M  V30 4959 C 465.539 0.214107 1.58157 0
M  V30 4960 C 465.739 -1.28331 1.55349 0
M  V30 4961 O 464.795 -2.06329 1.45549 0
M  V30 4962 C 466.108 0.838391 2.88776 0
M  V30 4963 C 467.656 0.809374 3.02354 0
M  V30 4964 C 468.131 1.41268 4.35669 0
M  V30 4965 N 469.622 1.37574 4.42298 0
M  V30 4966 C 470.357 1.8122 5.4401 0
M  V30 4967 N 469.853 2.3271 6.52547 0
M  V30 4968 N 471.646 1.72307 5.35039 0
M  V30 4969 H 463.797 1.52744 1.4759 0
M  V30 4970 H 466.06 0.636812 0.702264 0
M  V30 4971 H 465.766 1.89065 2.96559 0
M  V30 4972 H 465.64 0.329847 3.75755 0
M  V30 4973 H 468.027 -0.234187 2.94169 0
M  V30 4974 H 468.108 1.35565 2.16924 0
M  V30 4975 H 467.752 2.45529 4.4461 0
M  V30 4976 H 467.682 0.841871 5.19827 0
M  V30 4977 H 470.173 0.999081 3.64454 0
M  V30 4978 H 470.486 2.63944 7.26329 0
M  V30 4979 H 468.831 2.36719 6.53444 0
M  V30 4980 H 472.022 1.3186 4.49144 0
M  V30 4981 H 472.195 2.06641 6.14169 0
M  V30 4982 N 465.601 -1.54893 0.290851 0
M  V30 4983 C 466.531 -2.26103 -0.583084 0
M  V30 4984 C 467.512 -1.25684 -1.14619 0
M  V30 4985 O 468.697 -1.54436 -1.17741 0
M  V30 4986 C 465.827 -2.99409 -1.75987 0
M  V30 4987 C 464.781 -4.0689 -1.32758 0
M  V30 4988 C 464.107 -4.67856 -2.58872 0
M  V30 4989 C 465.407 -5.20215 -0.46624 0
M  V30 4990 H 467.101 -2.99398 0.0108214 0
M  V30 4991 H 464.647 -1.43998 0.00664468 0
M  V30 4992 H 466.6 -3.47943 -2.37727 0
M  V30 4993 H 465.324 -2.23675 -2.37985 0
M  V30 4994 H 463.983 -3.59191 -0.733299 0
M  V30 4995 H 463.631 -3.88772 -3.19163 0
M  V30 4996 H 463.331 -5.40438 -2.30653 0
M  V30 4997 H 464.855 -5.19147 -3.21433 0
M  V30 4998 H 466.269 -5.64704 -0.989047 0
M  V30 4999 H 464.666 -5.99455 -0.27826 0
M  V30 5000 H 465.736 -4.82198 0.511173 0
M  V30 5001 N 467.08 -0.0183926 -1.57589 0
M  V30 5002 C 468.01 0.965596 -2.12599 0
M  V30 5003 C 468.991 1.34641 -1.0395 0
M  V30 5004 O 470.176 1.42693 -1.31729 0
M  V30 5005 C 467.306 2.25149 -2.64434 0
M  V30 5006 C 466.26 2.01175 -3.77773 0
M  V30 5007 C 465.586 3.35937 -4.15994 0
M  V30 5008 C 466.886 1.35953 -5.04296 0
M  V30 5009 H 468.58 0.507504 -2.95067 0
M  V30 5010 H 466.126 0.242671 -1.41941 0
M  V30 5011 H 468.079 2.94357 -3.01549 0
M  V30 5012 H 466.803 2.73105 -1.79112 0
M  V30 5013 H 465.462 1.34388 -3.4108 0
M  V30 5014 H 465.11 3.81631 -3.27669 0
M  V30 5015 H 464.81 3.20705 -4.92364 0
M  V30 5016 H 466.334 4.0643 -4.55683 0
M  V30 5017 H 467.748 1.95144 -5.39065 0
M  V30 5018 H 466.145 1.31152 -5.85593 0
M  V30 5019 H 467.215 0.331071 -4.83768 0
M  V30 5020 N 468.558 1.5553 0.254621 0
M  V30 5021 C 469.974 1.4778 0.602753 0
M  V30 5022 C 470.174 0.707047 1.88688 0
M  V30 5023 O 469.23 0.233288 2.5142 0
M  V30 5024 C 470.543 2.92133 0.712648 0
M  V30 5025 C 472.091 3.02458 0.805488 0
M  V30 5026 C 472.566 4.48102 0.947009 0
M  V30 5027 N 474.057 4.52008 1.01207 0
M  V30 5028 C 474.792 5.61939 1.1407 0
M  V30 5029 N 474.288 6.81697 1.23536 0
M  V30 5030 N 476.081 5.49719 1.17325 0
M  V30 5031 H 468.232 2.04085 -0.588463 0
M  V30 5032 H 470.495 0.926229 -0.202001 0
M  V30 5033 H 470.201 3.51332 -0.160766 0
M  V30 5034 H 470.075 3.42187 1.58707 0
M  V30 5035 H 472.462 2.43344 1.66936 0
M  V30 5036 H 472.543 2.55627 -0.0939266 0
M  V30 5037 H 472.187 5.07824 0.087725 0
M  V30 5038 H 472.117 4.92607 1.86135 0
M  V30 5039 H 474.608 3.65749 0.950577 0
M  V30 5040 H 474.921 7.61228 1.33236 0
M  V30 5041 H 473.266 6.84473 1.20508 0
M  V30 5042 H 476.457 4.55095 1.09573 0
M  V30 5043 H 476.63 6.35432 1.27005 0
M  V30 5044 N 470.036 -0.519951 1.48776 0
M  V30 5045 C 470.999 -1.60574 1.6355 0
M  V30 5046 C 471.999 -1.52557 0.508234 0
M  V30 5047 O 473.189 -1.56047 0.774262 0
M  V30 5048 C 470.321 -3.00211 1.61512 0
M  V30 5049 H 471.514 -1.4881 2.60376 0
M  V30 5050 H 469.067 -0.742772 1.37523 0
M  V30 5051 H 469.802 -3.17471 0.662009 0
M  V30 5052 H 469.587 -3.07439 2.43359 0
M  V30 5053 H 471.077 -3.79134 1.75064 0
M  V30 5054 N 471.514 -1.37532 -0.769588 0
M  V30 5055 C 472.444 -1.36172 -1.89682 0
M  V30 5056 C 473.425 -0.23001 -1.68538 0
M  V30 5057 O 474.61 -0.43069 -1.89364 0
M  V30 5058 C 471.74 -1.1701 -3.26995 0
M  V30 5059 C 470.694 -2.27216 -3.62708 0
M  V30 5060 C 470.02 -1.93174 -4.98586 0
M  V30 5061 C 471.32 -3.6941 -3.69234 0
M  V30 5062 H 473.014 -2.30499 -1.91078 0
M  V30 5063 H 470.56 -1.10953 -0.917902 0
M  V30 5064 H 472.513 -1.14688 -4.05493 0
M  V30 5065 H 471.237 -0.191395 -3.26039 0
M  V30 5066 H 469.896 -2.28697 -2.86519 0
M  V30 5067 H 469.544 -0.938281 -4.94171 0
M  V30 5068 H 469.244 -2.66973 -5.23449 0
M  V30 5069 H 470.768 -1.92443 -5.79481 0
M  V30 5070 H 472.182 -3.70047 -4.37879 0
M  V30 5071 H 470.579 -4.4228 -4.05597 0
M  V30 5072 H 471.649 -4.0288 -2.69844 0
M  V30 5073 N 472.992 0.995999 -1.22138 0
M  V30 5074 C 474.408 1.25917 -0.980667 0
M  V30 5075 C 474.608 1.98819 0.327604 0
M  V30 5076 O 473.664 2.29587 1.05101 0
M  V30 5077 C 474.977 2.07399 -2.17729 0
M  V30 5078 C 476.525 2.20594 -2.22052 0
M  V30 5079 C 477 3.05462 -3.41258 0
M  V30 5080 N 478.491 3.13049 -3.41401 0
M  V30 5081 C 479.226 3.78997 -4.30289 0
M  V30 5082 N 478.722 4.46899 -5.2939 0
M  V30 5083 N 480.515 3.75728 -4.18073 0
M  V30 5084 H 472.666 0.507158 -2.06256 0
M  V30 5085 H 474.929 0.28658 -0.903646 0
M  V30 5086 H 474.635 1.61191 -3.12586 0
M  V30 5087 H 474.509 3.08154 -2.17534 0
M  V30 5088 H 476.896 2.66017 -1.27745 0
M  V30 5089 H 476.977 1.1928 -2.26287 0
M  V30 5090 H 476.621 2.60739 -4.35864 0
M  V30 5091 H 476.551 4.06911 -3.34262 0
M  V30 5092 H 479.042 2.64721 -2.69688 0
M  V30 5093 H 479.355 4.94952 -5.935 0
M  V30 5094 H 477.7 4.45657 -5.33306 0
M  V30 5095 H 480.891 3.2184 -3.39907 0
M  V30 5096 H 481.064 4.26845 -4.87553 0
M  V30 5097 N 474.47 1.03057 1.19235 0
M  V30 5098 C 475.403 0.557384 2.21288 0
M  V30 5099 C 476.381 -0.402675 1.57535 0
M  V30 5100 O 477.565 -0.319376 1.85775 0
M  V30 5101 C 474.692 -0.187041 3.38183 0
M  V30 5102 C 473.738 0.72471 4.20298 0
M  V30 5103 S 474.571 2.20187 4.88137 0
M  V30 5104 C 475.727 1.46801 6.08441 0
M  V30 5105 H 475.96 1.42207 2.61083 0
M  V30 5106 H 473.493 0.840651 1.29508 0
M  V30 5107 H 475.451 -0.610405 4.05936 0
M  V30 5108 H 474.112 -1.02748 2.96819 0
M  V30 5109 H 473.305 0.149911 5.03777 0
M  V30 5110 H 472.907 1.08647 3.57871 0
M  V30 5111 H 475.199 0.755522 6.73274 0
M  V30 5112 H 476.142 2.27946 6.70407 0
M  V30 5113 H 476.55 0.964762 5.56195 0
M  V30 5114 N 475.948 -1.35272 0.808662 0
M  V30 5115 C 476.878 -2.32315 0.234981 0
M  V30 5116 C 477.859 -1.57572 -0.64071 0
M  V30 5117 O 479.044 -1.8563 -0.570551 0
M  V30 5118 C 476.174 -3.41801 -0.615601 0
M  V30 5119 C 475.128 -4.27694 0.161767 0
M  V30 5120 C 474.454 -5.28519 -0.810649 0
M  V30 5121 C 475.754 -5.04231 1.36193 0
M  V30 5122 H 477.448 -2.80543 1.04575 0
M  V30 5123 H 474.994 -1.3488 0.504315 0
M  V30 5124 H 476.947 -4.08693 -1.02702 0
M  V30 5125 H 475.671 -2.92186 -1.45928 0
M  V30 5126 H 474.33 -3.62384 0.554382 0
M  V30 5127 H 473.978 -4.75171 -1.64988 0
M  V30 5128 H 473.678 -5.8686 -0.294822 0
M  V30 5129 H 475.202 -5.98283 -1.22023 0
M  V30 5130 H 476.616 -5.64058 1.02528 0
M  V30 5131 H 475.013 -5.72077 1.81239 0
M  V30 5132 H 476.083 -4.34753 2.14751 0
M  V30 5133 N 477.426 -0.562348 -1.47226 0
M  V30 5134 C 478.373 0.182461 -2.30078 0
M  V30 5135 C 479.343 0.903503 -1.39377 0
M  V30 5136 O 480.528 0.898188 -1.68337 0
M  V30 5137 C 477.668 1.20322 -3.23445 0
M  V30 5138 C 476.781 0.487717 -4.29238 0
M  V30 5139 C 475.916 1.49422 -5.09752 0
M  V30 5140 C 474.955 0.763976 -6.07314 0
M  V30 5141 N 474.092 1.71755 -6.80768 0
M  V30 5142 H 478.932 -0.530169 -2.93246 0
M  V30 5143 H 476.469 -0.273276 -1.44539 0
M  V30 5144 H 478.427 1.80768 -3.76004 0
M  V30 5145 H 477.057 1.88382 -2.6213 0
M  V30 5146 H 476.109 -0.231374 -3.79696 0
M  V30 5147 H 477.421 -0.0841003 -4.98729 0
M  V30 5148 H 476.575 2.17206 -5.66486 0
M  V30 5149 H 475.314 2.09995 -4.40174 0
M  V30 5150 H 474.319 0.0722344 -5.49753 0
M  V30 5151 H 475.544 0.16391 -6.78902 0
M  V30 5152 H 473.49 2.31177 -6.13916 0
M  V30 5153 H 473.407 1.19802 -7.46447 0
M  V30 5154 H 474.675 2.38638 -7.42073 0
M  V30 5155 N 478.904 1.54736 -0.299062 0
M  V30 5156 C 479.834 2.26409 0.571085 0
M  V30 5157 C 480.815 1.2629 1.13951 0
M  V30 5158 O 482 1.55059 1.16921 0
M  V30 5159 C 479.13 3.00338 1.74396 0
M  V30 5160 C 478.084 4.07588 1.30599 0
M  V30 5161 C 477.41 4.69222 2.56387 0
M  V30 5162 C 478.71 5.20455 0.438645 0
M  V30 5163 H 480.404 2.99388 -0.0266991 0
M  V30 5164 H 477.95 1.43993 -0.0142812 0
M  V30 5165 H 479.903 3.49198 2.35878 0
M  V30 5166 H 478.627 2.24934 2.36796 0
M  V30 5167 H 477.286 3.59575 0.71424 0
M  V30 5168 H 476.934 3.9046 3.17097 0
M  V30 5169 H 476.634 5.41653 2.27784 0
M  V30 5170 H 478.158 5.20844 3.18675 0
M  V30 5171 H 479.572 5.65221 0.959085 0
M  V30 5172 H 477.969 5.99594 0.246466 0
M  V30 5173 H 479.039 4.8192 -0.536738 0
M  V30 5174 N 480.382 0.0267497 1.57577 0
M  V30 5175 C 481.63 -0.651116 1.91324 0
M  V30 5176 C 481.951 -1.72804 0.90353 0
M  V30 5177 O 481.221 -1.95822 -0.0552946 0
M  V30 5178 H 479.801 -0.243491 0.706202 0
M  V30 5179 H 482.463 0.0739935 1.94759 0
M  V30 5180 H 481.559 -1.10536 2.9187 0
M  V30 5181 N 481.861 -1.55662 -0.24637 0
M  V30 5182 C 483.277 -1.48098 -0.594907 0
M  V30 5183 C 483.477 -0.717044 -1.8831 0
M  V30 5184 O 482.533 -0.246618 -2.51293 0
M  V30 5185 C 483.846 -2.92507 -0.697146 0
M  V30 5186 C 485.394 -3.02881 -0.789436 0
M  V30 5187 C 485.869 -4.48598 -0.923232 0
M  V30 5188 N 487.36 -4.52538 -0.988088 0
M  V30 5189 C 488.095 -5.62536 -1.11089 0
M  V30 5190 N 487.591 -6.82342 -1.19919 0
M  V30 5191 N 489.384 -5.50334 -1.14408 0
M  V30 5192 H 481.535 -2.0377 0.599278 0
M  V30 5193 H 483.798 -0.925145 0.20691 0
M  V30 5194 H 483.504 -3.51242 0.179396 0
M  V30 5195 H 483.378 -3.43024 -1.5689 0
M  V30 5196 H 485.765 -2.44226 -1.65643 0
M  V30 5197 H 485.846 -2.55574 0.107482 0
M  V30 5198 H 485.49 -5.07864 -0.0607927 0
M  V30 5199 H 485.42 -4.93587 -1.8352 0
M  V30 5200 H 487.911 -3.66248 -0.931167 0
M  V30 5201 H 488.224 -7.61924 -1.29197 0
M  V30 5202 H 486.569 -6.85102 -1.16876 0
M  V30 5203 H 489.76 -4.5567 -1.07158 0
M  V30 5204 H 489.933 -6.36096 -1.23634 0
M  V30 5205 N 483.339 0.512053 -1.4905 0
M  V30 5206 C 484.289 1.61142 -1.61298 0
M  V30 5207 C 485.273 1.53908 -0.46916 0
M  V30 5208 O 486.465 1.61625 -0.721547 0
M  V30 5209 C 483.594 2.998 -1.67256 0
M  V30 5210 C 482.68 3.12072 -2.87179 0
M  V30 5211 N 483.071 2.94263 -4.11391 0
M  V30 5212 C 481.369 3.43156 -2.84886 0
M  V30 5213 C 482.07 3.10426 -4.91946 0
M  V30 5214 N 481.046 3.38808 -4.251 0
M  V30 5215 H 484.848 1.46011 -2.55065 0
M  V30 5216 H 482.362 0.717934 -1.45669 0
M  V30 5217 H 484.359 3.78794 -1.74128 0
M  V30 5218 H 483.019 3.1601 -0.746195 0
M  V30 5219 H 484.03 2.70661 -4.41546 0
M  V30 5220 H 480.707 3.65611 -2.01581 0
M  V30 5221 H 482.097 3.01243 -6.00585 0
M  V30 5222 N 484.817 1.37938 0.762283 0
M  V30 5223 C 486.042 1.37059 1.55659 0
M  V30 5224 C 486.467 -0.0396123 1.88058 0
M  V30 5225 O 485.825 -1.01929 1.49934 0
M  V30 5226 C 485.873 2.22494 2.83776 0
M  V30 5227 O 484.977 1.63607 3.78559 0
M  V30 5228 H 484.318 0.467892 0.47114 0
M  V30 5229 H 486.848 1.81587 0.942725 0
M  V30 5230 H 486.858 2.36045 3.32786 0
M  V30 5231 H 485.533 3.24993 2.59524 0
M  V30 5232 H 484.11 1.5915 3.37233 0
M  V30 5233 N 486.295 -0.989507 1.22664 0
M  V30 5234 C 487.523 -1.76496 1.07967 0
M  V30 5235 C 487.938 -1.85148 -0.369543 0
M  V30 5236 O 487.295 -1.32408 -1.25596 0
M  V30 5237 C 487.346 -3.19642 1.68853 0
M  V30 5238 O 487.067 -3.11453 3.08105 0
M  V30 5239 C 488.568 -4.13621 1.59475 0
M  V30 5240 H 485.788 -0.55418 0.378319 0
M  V30 5241 H 488.332 -1.24378 1.62328 0
M  V30 5242 H 486.487 -3.68816 1.18547 0
M  V30 5243 H 486.901 -4.01499 3.37489 0
M  V30 5244 H 488.375 -5.11801 2.06795 0
M  V30 5245 H 488.852 -4.35718 0.55191 0
M  V30 5246 H 489.458 -3.70346 2.09103 0
M  V30 5247 N 487.773 -1.03688 -1.18687 0
M  V30 5248 C 489.021 -0.736572 -1.88199 0
M  V30 5249 C 489.342 0.737665 -1.80509 0
M  V30 5250 O 488.612 1.53204 -1.22088 0
M  V30 5251 H 487.192 -0.269466 -0.696704 0
M  V30 5252 H 489.854 -1.31282 -1.44052 0
M  V30 5253 H 488.95 -1.03802 -2.94332 0
M  V30 5254 N 489.251 1.34841 -0.815825 0
M  V30 5255 C 490.181 2.32187 -0.247298 0
M  V30 5256 C 491.162 1.5791 0.632344 0
M  V30 5257 O 492.347 1.8593 0.560698 0
M  V30 5258 C 489.477 3.42122 0.597466 0
M  V30 5259 C 488.431 4.27602 -0.184446 0
M  V30 5260 C 487.757 5.28942 0.782609 0
M  V30 5261 C 489.057 5.03502 -1.38865 0
M  V30 5262 H 490.751 2.79985 -1.06061 0
M  V30 5263 H 488.297 1.34611 -0.511461 0
M  V30 5264 H 490.25 4.09232 1.00533 0
M  V30 5265 H 488.974 2.92956 1.44376 0
M  V30 5266 H 487.633 3.62085 -0.573592 0
M  V30 5267 H 487.281 4.7604 1.62466 0
M  V30 5268 H 486.981 5.87008 0.263695 0
M  V30 5269 H 488.505 5.98922 1.18848 0
M  V30 5270 H 489.919 5.63506 -1.05518 0
M  V30 5271 H 488.316 5.71108 -1.8427 0
M  V30 5272 H 489.386 4.33608 -2.17054 0
M  V30 5273 N 490.729 0.570148 1.46925 0
M  V30 5274 C 492.145 0.23087 1.57921 0
M  V30 5275 C 492.345 -1.26676 1.56702 0
M  V30 5276 O 491.401 -2.04774 1.47729 0
M  V30 5277 C 492.714 0.868973 2.8787 0
M  V30 5278 C 494.262 0.841397 3.01479 0
M  V30 5279 C 494.737 1.45881 4.34146 0
M  V30 5280 N 496.228 1.42258 4.40814 0
M  V30 5281 C 496.963 1.8698 5.42057 0
M  V30 5282 N 496.459 2.39618 6.50042 0
M  V30 5283 N 498.252 1.77972 5.33181 0
M  V30 5284 H 490.403 1.54301 1.45962 0
M  V30 5285 H 492.666 0.644224 0.69547 0
M  V30 5286 H 492.372 1.922 2.94537 0
M  V30 5287 H 492.246 0.369682 3.75384 0
M  V30 5288 H 494.633 -0.202973 2.94401 0
M  V30 5289 H 494.714 1.37858 2.15474 0
M  V30 5290 H 494.358 2.50231 4.4198 0
M  V30 5291 H 494.288 0.896958 5.18905 0
M  V30 5292 H 496.779 1.03768 3.63374 0
M  V30 5293 H 497.092 2.71633 7.23488 0
M  V30 5294 H 495.437 2.43636 6.50897 0
M  V30 5295 H 498.628 1.36617 4.4772 0
M  V30 5296 H 498.801 2.13143 6.11943 0
M  V30 5297 N 492.207 -1.54576 0.307264 0
M  V30 5298 C 493.432 -2.05139 -0.305379 0
M  V30 5299 C 493.857 -1.18278 -1.46259 0
M  V30 5300 O 493.215 -0.188243 -1.8032 0
M  V30 5301 C 493.263 -3.53066 -0.733283 0
M  V30 5302 O 492.367 -3.69206 -1.83741 0
M  V30 5303 H 491.708 -0.661444 -0.0582105 0
M  V30 5304 H 494.238 -1.99569 0.450931 0
M  V30 5305 H 494.248 -3.95034 -1.02039 0
M  V30 5306 H 492.923 -4.15746 0.113198 0
M  V30 5307 H 491.5 -3.39143 -1.55037 0
M  V30 5308 N 493.685 -0.035106 -1.57561 0
M  V30 5309 C 494.615 0.942993 -2.13612 0
M  V30 5310 C 495.596 1.33531 -1.05373 0
M  V30 5311 O 496.781 1.41287 -1.33235 0
M  V30 5312 C 493.911 2.22332 -2.66807 0
M  V30 5313 C 492.865 1.97156 -3.79886 0
M  V30 5314 C 492.191 3.31506 -4.19533 0
M  V30 5315 C 493.491 1.30596 -5.05709 0
M  V30 5316 H 495.185 0.476179 -2.95589 0
M  V30 5317 H 492.731 0.227602 -1.4219 0
M  V30 5318 H 494.684 2.91142 -3.04654 0
M  V30 5319 H 493.408 2.7119 -1.81999 0
M  V30 5320 H 492.067 1.30763 -3.42486 0
M  V30 5321 H 491.715 3.78134 -3.31698 0
M  V30 5322 H 491.415 3.15465 -4.95738 0
M  V30 5323 H 492.939 4.01574 -4.59968 0
M  V30 5324 H 494.353 1.89416 -5.41105 0
M  V30 5325 H 492.75 1.24934 -5.86951 0
M  V30 5326 H 493.82 0.279742 -4.84092 0
M  V30 5327 N 495.163 1.55791 0.238111 0
M  V30 5328 C 496.411 1.77681 0.963001 0
M  V30 5329 C 496.732 0.600674 1.85518 0
M  V30 5330 O 496.002 -0.383182 1.92116 0
M  V30 5331 H 494.582 0.655315 0.358568 0
M  V30 5332 H 497.244 1.93239 0.253945 0
M  V30 5333 H 496.34 2.69177 1.57956 0
M  V30 5334 N 496.642 -0.504142 1.49319 0
M  V30 5335 C 497.575 -1.62361 1.60356 0
M  V30 5336 C 498.553 -1.56169 0.45277 0
M  V30 5337 O 499.737 -1.76271 0.667892 0
M  V30 5338 C 496.864 -3.00864 1.55559 0
M  V30 5339 C 495.91 -3.25328 2.75797 0
M  V30 5340 S 496.743 -3.08791 4.37503 0
M  V30 5341 C 497.899 -4.49695 4.35345 0
M  V30 5342 H 498.132 -1.52753 2.55056 0
M  V30 5343 H 495.665 -0.689065 1.38171 0
M  V30 5344 H 497.623 -3.8073 1.53477 0
M  V30 5345 H 496.284 -3.0789 0.621515 0
M  V30 5346 H 495.477 -4.2643 2.68651 0
M  V30 5347 H 495.079 -2.53179 2.75275 0
M  V30 5348 H 497.371 -5.41721 4.06871 0
M  V30 5349 H 498.314 -4.61891 5.36714 0
M  V30 5350 H 498.722 -4.30227 3.65465 0
M  V30 5351 N 498.12 -1.38341 -0.754957 0
M  V30 5352 C 499.348 -1.37704 -1.54419 0
M  V30 5353 C 499.763 0.0335243 -1.8877 0
M  V30 5354 O 499.12 0.999773 -1.52679 0
M  V30 5355 C 499.171 -2.23136 -2.84416 0
M  V30 5356 O 498.892 -3.58697 -2.51531 0
M  V30 5357 C 500.393 -2.30664 -3.78562 0
M  V30 5358 H 497.613 -0.471061 -0.477852 0
M  V30 5359 H 500.157 -1.81902 -0.934446 0
M  V30 5360 H 498.312 -1.82403 -3.41772 0
M  V30 5361 H 498.726 -4.03665 -3.34896 0
M  V30 5362 H 500.2 -2.9473 -4.66732 0
M  V30 5363 H 500.677 -1.3199 -4.18898 0
M  V30 5364 H 501.283 -2.71781 -3.27131 0
M  V30 5365 N 499.598 0.982988 -1.23187 0
M  V30 5366 C 500.847 1.71817 -1.05649 0
M  V30 5367 C 501.16 1.91315 0.407176 0
M  V30 5368 O 502.366 2.62256 0.702436 0
M  V30 5369 C 500.822 3.09188 -1.84203 0
M  V30 5370 C 500.43 2.97586 -3.34882 0
M  V30 5371 C 502.174 3.86684 -1.75146 0
M  V30 5372 C 500.081 4.30173 -4.05839 0
M  V30 5373 H 499.011 0.644258 -0.391724 0
M  V30 5374 H 501.662 1.09659 -1.4713 0
M  V30 5375 H 500.044 3.72087 -1.35527 0
M  V30 5376 H 501.218 2.43793 -3.91026 0
M  V30 5377 H 499.533 2.33567 -3.44725 0
M  V30 5378 H 502.13 4.84836 -2.25473 0
M  V30 5379 H 502.473 4.10136 -0.713737 0
M  V30 5380 H 503.006 3.30482 -2.21419 0
M  V30 5381 H 499.745 4.11918 -5.09906 0
M  V30 5382 H 499.265 4.83841 -3.54482 0
M  V30 5383 H 500.944 4.98873 -4.11989 0
M  V30 5384 N 501.076 1.04316 1.18135 0
M  V30 5385 C 502.304 0.768117 1.92113 0
M  V30 5386 C 502.719 -0.675057 1.76319 0
M  V30 5387 O 502.076 -1.46038 1.09449 0
M  V30 5388 C 502.127 1.12808 3.43448 0
M  V30 5389 O 501.848 2.5146 3.58747 0
M  V30 5390 C 503.349 0.8779 4.3452 0
M  V30 5391 H 500.569 0.279937 0.609817 0
M  V30 5392 H 503.113 1.39149 1.49859 0
M  V30 5393 H 501.268 0.549623 3.83481 0
M  V30 5394 H 501.682 2.65313 4.52448 0
M  V30 5395 H 503.156 1.17959 5.39249 0
M  V30 5396 H 503.633 -0.187239 4.38801 0
M  V30 5397 H 504.239 1.43977 4.00188 0
M  V30 5398 N 502.554 -1.34406 0.822964 0
M  V30 5399 C 503.486 -2.28305 0.202375 0
M  V30 5400 C 504.499 -1.5103 -0.60777 0
M  V30 5401 O 505.688 -1.73057 -0.437444 0
M  V30 5402 C 502.788 -3.30836 -0.734911 0
M  V30 5403 C 501.961 -4.37388 0.0324177 0
M  V30 5404 C 501.02 -5.1968 -0.825803 0
M  V30 5405 O 500.046 -5.68556 -0.270771 0
M  V30 5406 N 501.248 -5.39393 -2.14558 0
M  V30 5407 H 504.013 -2.82201 1.00909 0
M  V30 5408 H 501.574 -1.4693 0.67993 0
M  V30 5409 H 503.566 -3.82786 -1.31365 0
M  V30 5410 H 502.136 -2.77334 -1.44238 0
M  V30 5411 H 501.356 -3.86152 0.792469 0
M  V30 5412 H 502.644 -5.05702 0.560633 0
M  V30 5413 H 502.042 -5.01357 -2.62025 0
M  V30 5414 H 500.599 -5.94461 -2.67318 0
M  V30 5415 N 504.032 -0.577932 -1.46621 0
M  V30 5416 C 505.272 -0.0643097 -2.04299 0
M  V30 5417 C 505.636 1.26967 -1.44026 0
M  V30 5418 O 506.837 1.87224 -1.92875 0
M  V30 5419 C 505.108 0.00547588 -3.574 0
M  V30 5420 S 506.667 0.462216 -4.36359 0
M  V30 5421 H 503.485 -0.0351573 -0.71013 0
M  V30 5422 H 506.087 -0.76935 -1.79725 0
M  V30 5423 H 504.791 -0.969423 -3.98786 0
M  V30 5424 H 504.322 0.733435 -3.86503 0
M  V30 5425 H 506.337 1.71791 -4.65513 0
M  V30 5426 N 505.51 1.54411 -0.315457 0
M  V30 5427 C 506.74 2.04536 0.291315 0
M  V30 5428 C 507.148 1.19162 1.4696 0
M  V30 5429 O 506.491 0.213199 1.82459 0
M  V30 5430 C 506.553 3.5056 0.796725 0
M  V30 5431 C 506.217 4.5627 -0.258178 0
M  V30 5432 C 507.214 5.08312 -1.09153 0
M  V30 5433 C 504.899 5.00672 -0.404036 0
M  V30 5434 C 506.893 6.03312 -2.05655 0
M  V30 5435 C 504.58 5.95488 -1.37248 0
M  V30 5436 C 505.578 6.46693 -2.19721 0
M  V30 5437 O 505.266 7.39648 -3.14921 0
M  V30 5438 H 504.998 0.672856 0.0651165 0
M  V30 5439 H 507.552 2.00244 -0.457308 0
M  V30 5440 H 505.782 3.52223 1.59612 0
M  V30 5441 H 507.471 3.83804 1.32096 0
M  V30 5442 H 508.237 4.74793 -0.98979 0
M  V30 5443 H 504.116 4.60436 0.22799 0
M  V30 5444 H 507.66 6.43203 -2.70067 0
M  V30 5445 H 503.557 6.28424 -1.47489 0
M  V30 5446 H 504.325 7.57496 -3.10067 0
M  V30 5447 N 506.988 0.0434614 1.5754 0
M  V30 5448 C 507.898 -0.94893 2.14552 0
M  V30 5449 C 508.914 -1.34707 1.10136 0
M  V30 5450 O 510.09 -1.42557 1.42266 0
M  V30 5451 C 507.155 -2.208 2.67298 0
M  V30 5452 C 506.216 -1.86893 3.86484 0
M  V30 5453 C 505.449 -3.06797 4.36705 0
M  V30 5454 O 505.672 -4.19921 3.86034 0
M  V30 5455 O 504.606 -2.8826 5.28384 0
M  V30 5456 H 508.432 -0.494099 2.99654 0
M  V30 5457 H 506.017 -0.177989 1.48336 0
M  V30 5458 H 507.899 -2.94686 3.01228 0
M  V30 5459 H 506.574 -2.65436 1.85272 0
M  V30 5460 H 505.481 -1.10347 3.57455 0
M  V30 5461 H 506.814 -1.47062 4.69716 0
M  V30 5462 N 508.466 -1.55915 -0.229846 0
M  V30 5463 C 509.376 -1.94891 -1.30593 0
M  V30 5464 C 510.392 -0.851604 -1.51736 0
M  V30 5465 O 511.568 -1.15447 -1.65027 0
M  V30 5466 C 508.633 -2.25052 -2.63728 0
M  V30 5467 C 507.694 -3.48306 -2.5096 0
M  V30 5468 C 506.927 -3.77019 -3.77747 0
M  V30 5469 O 507.15 -3.07534 -4.80395 0
M  V30 5470 O 506.084 -4.70523 -3.75356 0
M  V30 5471 H 509.91 -2.86581 -1.00525 0
M  V30 5472 H 507.495 -1.43017 -0.432025 0
M  V30 5473 H 509.377 -2.45682 -3.42372 0
M  V30 5474 H 508.052 -1.36538 -2.93495 0
M  V30 5475 H 506.959 -3.32964 -1.70546 0
M  V30 5476 H 508.292 -4.37177 -2.26136 0
M  V30 5477 N 509.944 0.496216 -1.49584 0
M  V30 5478 C 511.19 1.25189 -1.59548 0
M  V30 5479 C 511.523 1.9212 -0.283466 0
M  V30 5480 O 510.798 1.80947 0.713324 0
M  V30 5481 C 511.081 2.31516 -2.75812 0
M  V30 5482 C 510.934 1.69054 -4.16822 0
M  V30 5483 C 512.253 3.3304 -2.87702 0
M  V30 5484 H 509.372 0.45379 -0.580727 0
M  V30 5485 H 512.014 0.549327 -1.81886 0
M  V30 5486 H 510.164 2.91438 -2.56897 0
M  V30 5487 H 511.836 1.12923 -4.47265 0
M  V30 5488 H 510.079 0.994485 -4.22247 0
M  V30 5489 H 510.75 2.462 -4.94054 0
M  V30 5490 H 513.226 2.83114 -3.04936 0
M  V30 5491 H 512.102 4.04794 -3.7072 0
M  V30 5492 H 512.363 3.95655 -1.97255 0
M  V30 5493 N 511.423 1.38739 0.74761 0
M  V30 5494 C 512.671 1.35007 1.50391 0
M  V30 5495 C 512.992 -0.0574274 1.94915 0
M  V30 5496 O 512.262 -1.00628 1.6808 0
M  V30 5497 H 510.842 0.496784 0.557866 0
M  V30 5498 H 513.504 1.73479 0.888319 0
M  V30 5499 H 512.6 2.00474 2.392 0
M  V30 5500 N 512.901 -0.976442 1.23707 0
M  V30 5501 C 513.831 -2.08749 1.04624 0
M  V30 5502 C 514.812 -1.70057 -0.0380956 0
M  V30 5503 O 515.997 -1.93782 0.127308 0
M  V30 5504 C 513.127 -3.41335 0.640902 0
M  V30 5505 C 512.081 -3.93947 1.67302 0
M  V30 5506 C 511.407 -5.22774 1.12301 0
M  V30 5507 C 512.707 -4.22769 3.06697 0
M  V30 5508 H 514.401 -2.24972 1.97555 0
M  V30 5509 H 511.947 -1.08108 0.951247 0
M  V30 5510 H 513.9 -4.18489 0.494434 0
M  V30 5511 H 512.624 -3.24988 -0.324099 0
M  V30 5512 H 511.283 -3.18941 1.80755 0
M  V30 5513 H 510.931 -5.0278 0.148877 0
M  V30 5514 H 510.631 -5.58942 1.81267 0
M  V30 5515 H 512.155 -6.02546 0.988479 0
M  V30 5516 H 513.569 -4.90659 2.96524 0
M  V30 5517 H 511.966 -4.70147 3.72937 0
M  V30 5518 H 513.036 -3.29885 3.55392 0
M  V30 5519 N 514.379 -1.04941 -1.1758 0
M  V30 5520 C 515.309 -0.669172 -2.23706 0
M  V30 5521 C 516.29 0.331835 -1.66832 0
M  V30 5522 O 517.475 0.209988 -1.93061 0
M  V30 5523 C 514.605 -0.0404889 -3.47276 0
M  V30 5524 C 513.559 -0.965983 -4.16957 0
M  V30 5525 C 512.885 -0.201312 -5.34321 0
M  V30 5526 C 514.185 -2.28902 -4.69469 0
M  V30 5527 H 515.879 -1.55639 -2.55767 0
M  V30 5528 H 513.425 -0.749793 -1.22939 0
M  V30 5529 H 515.378 0.237298 -4.20731 0
M  V30 5530 H 514.102 0.881658 -3.14475 0
M  V30 5531 H 512.761 -1.22829 -3.45411 0
M  V30 5532 H 512.409 0.723519 -4.97769 0
M  V30 5533 H 512.109 -0.817968 -5.81879 0
M  V30 5534 H 513.633 0.0692499 -6.10561 0
M  V30 5535 H 515.047 -2.07132 -5.34574 0
M  V30 5536 H 513.444 -2.85942 -5.27596 0
M  V30 5537 H 514.514 -2.92937 -3.86414 0
M  V30 5538 N 515.857 1.33968 -0.830081 0
M  V30 5539 C 516.787 2.31911 -0.271911 0
M  V30 5540 C 517.768 1.58571 0.61556 0
M  V30 5541 O 518.953 1.86514 0.540946 0
M  V30 5542 C 516.083 3.42737 0.561146 0
M  V30 5543 C 515.037 4.27383 -0.229789 0
M  V30 5544 C 514.363 5.29742 0.726463 0
M  V30 5545 C 515.663 5.02 -1.44197 0
M  V30 5546 H 517.357 2.78844 -1.09025 0
M  V30 5547 H 514.903 1.34061 -0.52571 0
M  V30 5548 H 516.856 4.10276 0.961867 0
M  V30 5549 H 515.58 2.94471 1.41261 0
M  V30 5550 H 514.239 3.61456 -0.611964 0
M  V30 5551 H 513.887 4.77736 1.57408 0
M  V30 5552 H 513.587 5.87255 0.20142 0
M  V30 5553 H 515.111 6.00149 1.12489 0
M  V30 5554 H 516.525 5.62355 -1.11488 0
M  V30 5555 H 514.922 5.69122 -1.90317 0
M  V30 5556 H 515.992 4.31281 -2.2164 0
M  V30 5557 N 517.335 0.585699 1.46312 0
M  V30 5558 C 518.265 -0.133556 2.33118 0
M  V30 5559 C 519.246 -0.880707 1.45525 0
M  V30 5560 O 520.431 -0.855579 1.74337 0
M  V30 5561 C 517.561 -1.14585 3.27853 0
M  V30 5562 C 516.515 -0.513341 4.2491 0
M  V30 5563 C 515.841 -1.63231 5.09175 0
M  V30 5564 C 517.141 0.551413 5.19381 0
M  V30 5565 H 518.835 0.59121 2.93505 0
M  V30 5566 H 516.381 0.285761 1.41136 0
M  V30 5567 H 518.334 -1.65741 3.87438 0
M  V30 5568 H 517.058 -1.90093 2.65579 0
M  V30 5569 H 515.717 -0.0228349 3.66593 0
M  V30 5570 H 515.365 -2.37713 4.43285 0
M  V30 5571 H 515.065 -1.21473 5.74907 0
M  V30 5572 H 516.589 -2.14658 5.71624 0
M  V30 5573 H 518.003 0.124804 5.73164 0
M  V30 5574 H 516.4 0.889486 5.93471 0
M  V30 5575 H 517.47 1.43655 4.63132 0
M  V30 5576 N 518.813 -1.54241 0.323641 0
M  V30 5577 C 520.06 -2.0057 -0.27891 0
M  V30 5578 C 520.388 -1.21181 -1.52136 0
M  V30 5579 O 519.643 -0.282043 -1.93657 0
M  V30 5580 C 519.942 -3.5129 -0.658031 0
M  V30 5581 C 519.608 -4.48281 0.485252 0
M  V30 5582 C 518.27 -4.74519 0.799055 0
M  V30 5583 C 520.622 -5.05909 1.25322 0
M  V30 5584 C 517.95 -5.55643 1.88354 0
M  V30 5585 C 520.302 -5.88215 2.32779 0
M  V30 5586 C 518.966 -6.12755 2.64741 0
M  V30 5587 H 518.236 -0.733938 -0.10206 0
M  V30 5588 H 520.883 -1.862 0.447435 0
M  V30 5589 H 519.188 -3.63388 -1.4648 0
M  V30 5590 H 520.885 -3.84578 -1.1358 0
M  V30 5591 H 517.475 -4.27979 0.230593 0
M  V30 5592 H 521.659 -4.8562 1.02404 0
M  V30 5593 H 516.915 -5.72888 2.13564 0
M  V30 5594 H 521.089 -6.31888 2.92729 0
M  V30 5595 H 518.716 -6.75404 3.48904 0
M  V30 5596 N 520.291 -0.0518155 -1.57515 0
M  V30 5597 C 521.221 0.920283 -2.146 0
M  V30 5598 C 522.202 1.32406 -1.06783 0
M  V30 5599 O 523.387 1.39866 -1.34726 0
M  V30 5600 C 520.517 2.1949 -2.6915 0
M  V30 5601 C 519.471 1.93116 -3.81956 0
M  V30 5602 C 518.797 3.27037 -4.23026 0
M  V30 5603 C 520.097 1.25225 -5.07066 0
M  V30 5604 H 521.791 0.444801 -2.96077 0
M  V30 5605 H 519.337 0.212508 -1.42423 0
M  V30 5606 H 521.29 2.87894 -3.07725 0
M  V30 5607 H 520.014 2.69244 -1.84865 0
M  V30 5608 H 518.673 1.27123 -3.43854 0
M  V30 5609 H 518.321 3.74595 -3.3569 0
M  V30 5610 H 518.021 3.10189 -4.99056 0
M  V30 5611 H 519.545 3.96673 -4.64202 0
M  V30 5612 H 520.959 1.83666 -5.43083 0
M  V30 5613 H 519.356 1.18702 -5.88243 0
M  V30 5614 H 520.426 0.228382 -4.84362 0
M  V30 5615 N 521.769 1.56035 0.221574 0
M  V30 5616 C 522.994 1.83476 0.967026 0
M  V30 5617 C 523.419 0.632139 1.7716 0
M  V30 5618 O 522.777 -0.419082 1.7639 0
M  V30 5619 C 522.825 3.08907 1.86034 0
M  V30 5620 O 521.929 2.876 2.95567 0
M  V30 5621 H 521.27 0.604913 0.273817 0
M  V30 5622 H 523.8 2.03247 0.234893 0
M  V30 5623 H 523.81 3.3901 2.27016 0
M  V30 5624 H 522.485 3.96068 1.26898 0
M  V30 5625 H 521.062 2.6873 2.58532 0
M  V30 5626 N 523.247 -0.488276 1.49845 0
M  V30 5627 C 524.493 -1.24341 1.6021 0
M  V30 5628 C 524.826 -1.91967 0.293651 0
M  V30 5629 O 524.101 -1.81323 -0.703718 0
M  V30 5630 C 524.384 -2.3005 2.77036 0
M  V30 5631 C 524.237 -1.66842 4.17713 0
M  V30 5632 C 525.556 -3.31509 2.89464 0
M  V30 5633 H 522.675 -0.450704 0.583125 0
M  V30 5634 H 525.317 -0.539673 1.82174 0
M  V30 5635 H 523.467 -2.90071 2.58439 0
M  V30 5636 H 525.139 -1.1055 4.47858 0
M  V30 5637 H 523.382 -0.972079 4.22768 0
M  V30 5638 H 524.053 -2.43576 4.95353 0
M  V30 5639 H 526.529 -2.81493 3.06433 0
M  V30 5640 H 525.405 -4.02822 3.72861 0
M  V30 5641 H 525.666 -3.94603 1.99351 0
M  V30 5642 N 524.725 -1.39134 -0.740242 0
M  V30 5643 C 525.973 -1.35803 -1.49673 0
M  V30 5644 C 526.294 0.0470897 -1.94943 0
M  V30 5645 O 525.564 0.997347 -1.68611 0
M  V30 5646 H 524.144 -0.499736 -0.555224 0
M  V30 5647 H 526.806 -1.73947 -0.879107 0
M  V30 5648 H 525.902 -2.0174 -2.38133 0
M  V30 5649 N 526.204 0.969867 -1.24223 0
M  V30 5650 C 527.453 1.70687 -1.07466 0
M  V30 5651 C 527.766 1.91736 0.386861 0
M  V30 5652 O 528.972 2.62986 0.674581 0
M  V30 5653 C 527.428 3.07217 -1.87472 0
M  V30 5654 C 527.036 2.94018 -3.3802 0
M  V30 5655 C 528.78 3.84804 -1.79237 0
M  V30 5656 C 526.687 4.25844 -4.10379 0
M  V30 5657 H 525.617 0.640067 -0.398536 0
M  V30 5658 H 528.268 1.08092 -1.48285 0
M  V30 5659 H 526.65 3.70628 -1.39466 0
M  V30 5660 H 527.824 2.39632 -3.9359 0
M  V30 5661 H 526.139 2.29898 -3.47183 0
M  V30 5662 H 528.736 4.82417 -2.30603 0
M  V30 5663 H 529.079 4.09356 -0.757197 0
M  V30 5664 H 529.612 3.28115 -2.24912 0
M  V30 5665 H 526.351 4.06486 -5.14246 0
M  V30 5666 H 525.871 4.80054 -3.59594 0
M  V30 5667 H 527.55 4.94475 -4.17257 0
M  V30 5668 N 527.682 1.05563 1.17022 0
M  V30 5669 C 528.907 0.788437 1.91829 0
M  V30 5670 C 529.332 -0.650356 1.76499 0
M  V30 5671 O 528.69 -1.45229 1.08527 0
M  V30 5672 C 528.738 1.1786 3.40795 0
M  V30 5673 O 527.842 0.312965 4.11211 0
M  V30 5674 H 527.183 0.288794 0.597908 0
M  V30 5675 H 529.713 1.40948 1.48307 0
M  V30 5676 H 529.723 1.14697 3.91546 0
M  V30 5677 H 528.398 2.22666 3.51273 0
M  V30 5678 H 526.975 0.405515 3.70689 0
M  V30 5679 N 529.16 -1.33526 0.837174 0
M  V30 5680 C 530.409 -1.97098 0.428387 0
M  V30 5681 C 530.722 -1.67062 -1.01734 0
M  V30 5682 O 531.928 -2.24235 -1.53072 0
M  V30 5683 C 530.384 -3.52725 0.715075 0
M  V30 5684 C 529.992 -3.9164 2.17537 0
M  V30 5685 C 531.736 -4.22857 0.373154 0
M  V30 5686 C 529.643 -5.40237 2.40619 0
M  V30 5687 H 528.573 -0.737589 0.156455 0
M  V30 5688 H 531.224 -1.52169 1.02552 0
M  V30 5689 H 529.606 -3.95971 0.0475904 0
M  V30 5690 H 530.78 -3.59456 2.88319 0
M  V30 5691 H 529.095 -3.34485 2.4801 0
M  V30 5692 H 531.692 -5.32133 0.523264 0
M  V30 5693 H 532.035 -4.10647 -0.683708 0
M  V30 5694 H 532.568 -3.85135 0.995801 0
M  V30 5695 H 529.307 -5.57449 3.44864 0
M  V30 5696 H 528.827 -5.73887 1.74396 0
M  V30 5697 H 530.506 -6.07102 2.23688 0
M  V30 5698 N 530.638 -0.59345 -1.46 0
M  V30 5699 C 531.885 -0.0831523 -2.02329 0
M  V30 5700 C 532.213 1.28093 -1.46364 0
M  V30 5701 O 531.468 1.85526 -0.622793 0
M  V30 5702 C 531.767 0.021178 -3.57394 0
M  V30 5703 C 531.433 -1.27671 -4.32448 0
M  V30 5704 C 530.095 -1.63227 -4.5267 0
M  V30 5705 C 532.447 -2.13511 -4.7546 0
M  V30 5706 C 529.775 -2.84401 -5.1316 0
M  V30 5707 C 532.127 -3.33922 -5.37289 0
M  V30 5708 C 530.791 -3.69747 -5.55737 0
M  V30 5709 H 530.061 -0.0304276 -0.740375 0
M  V30 5710 H 532.708 -0.772239 -1.75239 0
M  V30 5711 H 531.013 0.793454 -3.83682 0
M  V30 5712 H 532.71 0.431942 -3.98667 0
M  V30 5713 H 529.3 -0.989937 -4.17011 0
M  V30 5714 H 533.484 -1.87344 -4.59582 0
M  V30 5715 H 528.74 -3.12282 -5.25633 0
M  V30 5716 H 532.914 -4.00698 -5.69574 0
M  V30 5717 H 530.541 -4.6373 -6.02377 0
M  V30 5718 N 532.116 1.54067 -0.331816 0
M  V30 5719 C 533.341 2.05599 0.272705 0
M  V30 5720 C 533.766 1.2059 1.44359 0
M  V30 5721 O 533.124 0.216907 1.79998 0
M  V30 5722 C 533.172 3.54188 0.677021 0
M  V30 5723 O 532.276 3.72082 1.77844 0
M  V30 5724 H 531.617 0.662286 0.0476801 0
M  V30 5725 H 534.147 1.98826 -0.482624 0
M  V30 5726 H 534.157 3.96608 0.957415 0
M  V30 5727 H 532.832 4.15513 -0.179325 0
M  V30 5728 H 531.409 3.41566 1.49622 0
M  V30 5729 N 533.594 0.0601682 1.57485 0
M  V30 5730 C 534.822 -0.620937 1.97363 0
M  V30 5731 C 535.237 -1.63846 0.938082 0
M  V30 5732 O 534.594 -1.82339 -0.0766578 0
M  V30 5733 C 534.645 -1.29987 3.37321 0
M  V30 5734 O 534.366 -0.323081 4.36907 0
M  V30 5735 C 535.867 -2.06989 3.92008 0
M  V30 5736 H 533.087 -0.169135 0.649334 0
M  V30 5737 H 535.631 0.129132 2.04092 0
M  V30 5738 H 533.786 -2.0011 3.31715 0
M  V30 5739 H 534.2 -0.808754 5.18227 0
M  V30 5740 H 535.674 -2.49901 4.92192 0
M  V30 5741 H 536.151 -2.92173 3.2792 0
M  V30 5742 H 536.757 -1.41757 4.0098 0
M  V30 5743 N 535.072 -1.5615 -0.213296 0
M  V30 5744 C 536.318 -1.79812 -0.937849 0
M  V30 5745 C 536.651 -0.631201 -1.83656 0
M  V30 5746 O 535.926 0.369165 -1.90964 0
M  V30 5747 C 536.209 -3.13613 -1.76972 0
M  V30 5748 C 536.062 -4.40766 -0.89695 0
M  V30 5749 C 537.381 -3.43931 -2.7459 0
M  V30 5750 H 534.5 -0.654138 -0.339518 0
M  V30 5751 H 537.142 -1.88877 -0.20623 0
M  V30 5752 H 535.292 -3.06015 -2.39347 0
M  V30 5753 H 536.964 -4.60392 -0.289306 0
M  V30 5754 H 535.207 -4.33326 -0.202756 0
M  V30 5755 H 535.878 -5.30843 -1.51358 0
M  V30 5756 H 538.354 -3.5171 -2.22349 0
M  V30 5757 H 537.23 -4.38706 -3.29891 0
M  V30 5758 H 537.491 -2.6651 -3.52739 0
M  V30 5759 N 536.55 0.480323 -1.50102 0
M  V30 5760 C 537.46 1.60547 -1.71061 0
M  V30 5761 C 538.476 1.63564 -0.593529 0
M  V30 5762 O 539.652 1.81604 -0.870751 0
M  V30 5763 C 536.717 2.96814 -1.79171 0
M  V30 5764 C 535.778 3.04259 -3.02861 0
M  V30 5765 C 535.011 4.34027 -3.10574 0
M  V30 5766 O 535.234 5.24009 -2.25323 0
M  V30 5767 O 534.168 4.46873 -4.03223 0
M  V30 5768 H 537.994 1.45788 -2.6642 0
M  V30 5769 H 535.579 0.658838 -1.34088 0
M  V30 5770 H 537.461 3.77765 -1.86738 0
M  V30 5771 H 536.136 3.11791 -0.869947 0
M  V30 5772 H 535.043 2.22419 -3.008 0
M  V30 5773 H 536.376 2.94216 -3.94586 0
M  V30 5774 N 538.028 1.39524 0.732853 0
M  V30 5775 C 539.258 1.3994 1.51988 0
M  V30 5776 C 539.666 -0.00727973 1.89199 0
M  V30 5777 O 539.009 -0.989521 1.54771 0
M  V30 5778 C 539.071 2.21026 2.83527 0
M  V30 5779 C 538.735 3.69633 2.68738 0
M  V30 5780 C 539.732 4.62665 2.37143 0
M  V30 5781 C 537.417 4.13244 2.85542 0
M  V30 5782 C 539.411 5.97291 2.22536 0
M  V30 5783 C 537.098 5.47945 2.70554 0
M  V30 5784 C 538.096 6.39783 2.39097 0
M  V30 5785 O 537.784 7.72002 2.24204 0
M  V30 5786 H 537.516 0.479795 0.476206 0
M  V30 5787 H 540.07 1.8399 0.913054 0
M  V30 5788 H 538.3 1.71728 3.46477 0
M  V30 5789 H 539.989 2.13594 3.45156 0
M  V30 5790 H 540.755 4.30272 2.2381 0
M  V30 5791 H 536.634 3.42094 3.09019 0
M  V30 5792 H 540.178 6.68939 1.97905 0
M  V30 5793 H 536.075 5.79928 2.83466 0
M  V30 5794 H 536.843 7.8275 2.39258 0
M  V30 5795 N 539.506 -0.963266 1.24736 0
M  V30 5796 C 540.753 -1.7068 1.0897 0
M  V30 5797 C 541.081 -1.90934 -0.370751 0
M  V30 5798 O 540.336 -1.47155 -1.29011 0
M  V30 5799 C 540.635 -3.09944 1.7796 0
M  V30 5800 C 540.301 -3.09518 3.27887 0
M  V30 5801 C 538.963 -3.09109 3.68789 0
M  V30 5802 C 541.315 -3.03509 4.23712 0
M  V30 5803 C 538.643 -3.00429 5.03944 0
M  V30 5804 C 540.995 -2.96371 5.5888 0
M  V30 5805 C 539.659 -2.94293 5.99123 0
M  V30 5806 H 538.929 -0.624564 0.398749 0
M  V30 5807 H 541.576 -1.12603 1.54896 0
M  V30 5808 H 539.881 -3.71513 1.2444 0
M  V30 5809 H 541.578 -3.66278 1.63222 0
M  V30 5810 H 538.168 -3.10603 2.95337 0
M  V30 5811 H 542.352 -3.0295 3.93109 0
M  V30 5812 H 537.608 -2.97183 5.34314 0
M  V30 5813 H 541.782 -2.90681 6.32833 0
M  V30 5814 H 539.409 -2.87322 7.03811 0
M  V30 5815 N 540.985 -1.06182 -1.16461 0
M  V30 5816 C 541.948 -0.675723 -2.19013 0
M  V30 5817 C 542.948 0.277963 -1.58379 0
M  V30 5818 O 544.138 0.0604962 -1.74095 0
M  V30 5819 C 541.27 0.00591459 -3.40899 0
M  V30 5820 H 542.463 -1.58353 -2.54685 0
M  V30 5821 H 540.016 -0.856908 -1.30716 0
M  V30 5822 H 540.751 0.92652 -3.10783 0
M  V30 5823 H 540.536 -0.67984 -3.86161 0
M  V30 5824 H 542.026 0.26181 -4.16778 0
M  V30 5825 N 542.463 1.3308 -0.844243 0
M  V30 5826 C 543.373 2.32876 -0.283922 0
M  V30 5827 C 544.389 1.63589 0.592846 0
M  V30 5828 O 545.565 1.95205 0.495693 0
M  V30 5829 C 542.63 3.42667 0.527283 0
M  V30 5830 C 541.691 4.27664 -0.374394 0
M  V30 5831 C 540.924 5.32212 0.39819 0
M  V30 5832 O 541.147 5.46635 1.62932 0
M  V30 5833 O 540.081 6.01458 -0.2306 0
M  V30 5834 H 543.907 2.82671 -1.11045 0
M  V30 5835 H 541.492 1.36518 -0.606903 0
M  V30 5836 H 543.374 4.09652 0.988078 0
M  V30 5837 H 542.049 2.95079 1.33078 0
M  V30 5838 H 540.956 3.63526 -0.883144 0
M  V30 5839 H 542.289 4.78749 -1.1428 0
M  V30 5840 N 543.941 0.601185 1.45683 0
M  V30 5841 C 544.873 -0.159446 2.28645 0
M  V30 5842 C 545.886 -0.837882 1.39583 0
M  V30 5843 O 547.075 -0.704344 1.64016 0
M  V30 5844 C 544.175 -1.24641 3.15147 0
M  V30 5845 C 543.348 -0.656334 4.32448 0
M  V30 5846 C 542.407 -1.63337 5.00208 0
M  V30 5847 O 541.433 -1.16217 5.57209 0
M  V30 5848 N 542.635 -2.96773 4.98905 0
M  V30 5849 H 545.4 0.5524 2.94565 0
M  V30 5850 H 542.961 0.440223 1.558 0
M  V30 5851 H 544.953 -1.8997 3.57342 0
M  V30 5852 H 543.523 -1.86087 2.51178 0
M  V30 5853 H 542.743 0.174879 3.93812 0
M  V30 5854 H 544.031 -0.242211 5.08223 0
M  V30 5855 H 543.429 -3.37662 4.53873 0
M  V30 5856 H 541.986 -3.57541 5.44984 0
M  V30 5857 N 545.419 -1.53889 0.339982 0
M  V30 5858 C 546.644 -2.05741 -0.261798 0
M  V30 5859 C 547.069 -1.21354 -1.43718 0
M  V30 5860 O 546.427 -0.22645 -1.7988 0
M  V30 5861 C 546.475 -3.54542 -0.658228 0
M  V30 5862 O 545.579 -3.7302 -1.75869 0
M  V30 5863 H 544.92 -0.662529 -0.0441672 0
M  V30 5864 H 547.45 -1.98568 0.493161 0
M  V30 5865 H 547.46 -3.9711 -0.936368 0
M  V30 5866 H 546.135 -4.15412 0.201358 0
M  V30 5867 H 544.712 -3.42355 -1.47809 0
M  V30 5868 N 546.897 -0.0685191 -1.57451 0
M  V30 5869 C 548.146 0.600898 -1.92541 0
M  V30 5870 C 548.459 1.70967 -0.950239 0
M  V30 5871 O 549.665 2.43844 -1.19384 0
M  V30 5872 C 548.121 1.12019 -3.42023 0
M  V30 5873 C 547.729 0.0426028 -4.4798 0
M  V30 5874 C 549.473 1.76386 -3.86119 0
M  V30 5875 C 547.38 0.575759 -5.88591 0
M  V30 5876 H 546.31 0.228225 -0.71863 0
M  V30 5877 H 548.961 -0.140223 -1.82963 0
M  V30 5878 H 547.343 1.91418 -3.46663 0
M  V30 5879 H 548.517 -0.73182 -4.54952 0
M  V30 5880 H 546.832 -0.504642 -4.13331 0
M  V30 5881 H 549.429 2.17302 -4.88553 0
M  V30 5882 H 549.772 2.62255 -3.23308 0
M  V30 5883 H 550.305 1.03615 -3.84069 0
M  V30 5884 H 547.044 -0.245691 -6.55039 0
M  V30 5885 H 546.564 1.31778 -5.85145 0
M  V30 5886 H 548.243 1.0532 -6.3837 0
M  V30 5887 N 548.375 1.56261 0.205012 0
M  V30 5888 C 549.786 1.70056 0.770574 0
M  V30 5889 C 550.137 0.673398 1.84282 0
M  V30 5890 O 549.262 -0.172196 2.15714 0
M  V30 5891 C 549.857 3.08316 1.40451 0
M  V30 5892 C 548.416 3.2391 1.91727 0
M  V30 5893 C 547.563 2.66001 0.783516 0
M  V30 5894 H 550.514 1.58688 -0.019911 0
M  V30 5895 H 550.535 3.05094 2.27371 0
M  V30 5896 H 550.047 3.83053 0.623882 0
M  V30 5897 H 548.148 2.54072 2.7254 0
M  V30 5898 H 548.261 4.3131 2.08588 0
M  V30 5899 H 546.625 2.24915 1.19521 0
M  V30 5900 H 547.408 3.43297 0.0152883 0
M  V30 5901 N 549.853 -0.472356 1.50355 0
M  V30 5902 C 551.13 -1.23356 1.51798 0
M  V30 5903 C 551.51 -2.09469 0.26193 0
M  V30 5904 O 550.858 -2.15677 -0.754691 0
M  V30 5905 C 551.068 -2.06568 2.81302 0
M  V30 5906 C 552.416 -2.648 3.31913 0
M  V30 5907 O 553.44 -2.16812 2.82614 0
M  V30 5908 O 552.299 -3.52231 4.17846 0
M  V30 5909 H 549.393 -0.559707 0.608816 0
M  V30 5910 H 551.939 -0.48428 1.62643 0
M  V30 5911 H 550.711 -1.43103 3.64194 0
M  V30 5912 H 550.334 -2.88633 2.73454 0
M  V30 5913 N 551.331 -1.39911 -0.725443 0
M  V30 5914 C 552.559 -1.40949 -1.51463 0
M  V30 5915 C 552.974 -0.0065242 -1.88799 0
M  V30 5916 O 552.331 0.967163 -1.54765 0
M  V30 5917 C 552.382 -2.29119 -2.79619 0
M  V30 5918 O 552.103 -3.63952 -2.43866 0
M  V30 5919 C 553.604 -2.38642 -3.73584 0
M  V30 5920 H 550.824 -0.481091 -0.467752 0
M  V30 5921 H 553.368 -1.83843 -0.895651 0
M  V30 5922 H 551.523 -1.89612 -3.37826 0
M  V30 5923 H 551.937 -4.10677 -3.26258 0
M  V30 5924 H 553.411 -3.04563 -4.60375 0
M  V30 5925 H 553.888 -1.40846 -4.16004 0
M  V30 5926 H 554.494 -2.78659 -3.21293 0
M  V30 5927 N 552.809 0.956637 -1.25245 0
M  V30 5928 C 554.037 1.73571 -1.12608 0
M  V30 5929 C 554.452 1.86063 0.320324 0
M  V30 5930 O 553.809 1.35691 1.22042 0
M  V30 5931 C 553.86 3.15053 -1.77268 0
M  V30 5932 O 553.581 3.03174 -3.16255 0
M  V30 5933 C 555.082 4.09248 -1.70386 0
M  V30 5934 H 552.302 0.543955 -0.392879 0
M  V30 5935 H 554.846 1.20031 -1.65568 0
M  V30 5936 H 553.001 3.65543 -1.28284 0
M  V30 5937 H 553.415 3.9241 -3.48015 0
M  V30 5938 H 554.889 5.06138 -2.20291 0
M  V30 5939 H 555.366 4.34102 -0.667239 0
M  V30 5940 H 555.972 3.64672 -2.18849 0
M  V30 5941 N 554.287 1.06798 1.15896 0
M  V30 5942 C 555.534 0.787767 1.86549 0
M  V30 5943 C 555.862 -0.685959 1.82002 0
M  V30 5944 O 555.117 -1.5188 1.23414 0
M  V30 5945 C 555.416 1.23414 3.35416 0
M  V30 5946 C 555.082 2.71285 3.6016 0
M  V30 5947 C 553.744 3.11676 3.66622 0
M  V30 5948 C 556.096 3.6676 3.7032 0
M  V30 5949 C 553.424 4.4637 3.8075 0
M  V30 5950 C 555.776 5.01209 3.8597 0
M  V30 5951 C 554.44 5.41229 3.90676 0
M  V30 5952 H 553.71 0.288264 0.682631 0
M  V30 5953 H 556.357 1.338 1.37003 0
M  V30 5954 H 554.662 0.60319 3.87129 0
M  V30 5955 H 556.359 0.994298 3.88477 0
M  V30 5956 H 552.949 2.39015 3.55767 0
M  V30 5957 H 557.133 3.36685 3.64633 0
M  V30 5958 H 552.389 4.76855 3.82648 0
M  V30 5959 H 556.563 5.75067 3.92773 0
M  V30 5960 H 554.19 6.45602 4.01375 0
M  V30 5961 N 555.766 -1.3263 0.851289 0
M  V30 5962 C 556.994 -2.01563 0.466899 0
M  V30 5963 C 557.409 -1.63996 -0.935447 0
M  V30 5964 O 556.766 -0.85957 -1.6099 0
M  V30 5965 C 556.817 -3.56613 0.592433 0
M  V30 5966 O 556.538 -3.92828 1.93954 0
M  V30 5967 C 558.039 -4.42818 0.206612 0
M  V30 5968 H 555.259 -0.645307 0.183902 0
M  V30 5969 H 557.803 -1.69285 1.1473 0
M  V30 5970 H 555.958 -3.87379 -0.0401936 0
M  V30 5971 H 556.372 -4.87545 1.9339 0
M  V30 5972 H 557.846 -5.50918 0.345462 0
M  V30 5973 H 558.323 -4.30844 -0.85264 0
M  V30 5974 H 558.929 -4.17434 0.814176 0
M  V30 5975 N 557.244 -0.608902 -1.45362 0
M  V30 5976 C 558.469 -0.10921 -2.07112 0
M  V30 5977 C 558.894 1.19779 -1.45033 0
M  V30 5978 O 558.252 1.72961 -0.543527 0
M  V30 5979 C 558.3 0.0155745 -3.60597 0
M  V30 5980 O 557.404 1.06546 -3.98399 0
M  V30 5981 H 556.745 -0.0746619 -0.659789 0
M  V30 5982 H 559.275 -0.839283 -1.86594 0
M  V30 5983 H 559.285 0.213364 -4.07442 0
M  V30 5984 H 557.96 -0.938765 -4.05167 0
M  V30 5985 H 556.537 0.844024 -3.63223 0
M  V30 5986 N 558.722 1.53707 -0.348139 0
M  V30 5987 C 559.968 2.01286 0.247332 0
M  V30 5988 C 560.301 1.23546 1.49834 0
M  V30 5989 O 559.576 0.324331 1.91777 0
M  V30 5990 C 559.859 3.55768 0.556858 0
M  V30 5991 C 559.712 4.44216 -0.706564 0
M  V30 5992 C 561.031 4.1841 1.3646 0
M  V30 5993 H 558.15 0.731677 0.0884201 0
M  V30 5994 H 560.792 1.84106 -0.469584 0
M  V30 5995 H 558.942 3.70539 1.16761 0
M  V30 5996 H 560.614 4.41274 -1.34444 0
M  V30 5997 H 558.857 4.12892 -1.33052 0
M  V30 5998 H 559.528 5.50202 -0.445186 0
M  V30 5999 H 562.004 4.07365 0.848113 0
M  V30 6000 H 560.88 5.26563 1.54992 0
M  V30 6001 H 561.141 3.7333 2.36805 0
M  V30 6002 N 560.2 0.0768682 1.57412 0
M  V30 6003 C 561.611 -0.455037 1.8107 0
M  V30 6004 C 561.962 -1.69323 0.991162 0
M  V30 6005 O 561.087 -2.15328 0.215156 0
M  V30 6006 C 561.682 -0.832316 3.28417 0
M  V30 6007 C 560.241 -1.30906 3.52903 0
M  V30 6008 C 559.388 -0.296714 2.75708 0
M  V30 6009 H 562.339 0.302514 1.5579 0
M  V30 6010 H 562.36 -1.69333 3.40744 0
M  V30 6011 H 561.872 0.0690532 3.88039 0
M  V30 6012 H 559.973 -2.22875 2.98592 0
M  V30 6013 H 560.086 -1.28348 4.61588 0
M  V30 6014 H 558.45 -0.775059 2.42621 0
M  V30 6015 H 559.233 0.597015 3.38069 0
M  V30 6016 N 561.678 -1.56367 -0.196722 0
M  V30 6017 C 562.918 -1.82315 -0.92415 0
M  V30 6018 C 563.282 -0.654117 -1.80514 0
M  V30 6019 O 564.483 -0.79345 -2.56823 0
M  V30 6020 C 562.754 -3.13279 -1.72021 0
M  V30 6021 S 564.313 -3.60627 -2.49988 0
M  V30 6022 H 561.131 -0.639862 -0.309997 0
M  V30 6023 H 563.733 -1.94597 -0.187684 0
M  V30 6024 H 562.437 -3.96379 -1.06358 0
M  V30 6025 H 561.968 -3.03871 -2.49852 0
M  V30 6026 H 563.983 -3.25934 -3.74141 0
M  V30 6027 N 563.156 0.464375 -1.50603 0
M  V30 6028 C 564.119 1.54393 -1.69397 0
M  V30 6029 C 565.119 1.50566 -0.564504 0
M  V30 6030 O 566.309 1.53066 -0.831645 0
M  V30 6031 C 563.441 2.9401 -1.72543 0
M  V30 6032 H 564.634 1.39044 -2.65719 0
M  V30 6033 H 562.187 0.69122 -1.40185 0
M  V30 6034 H 562.922 3.14795 -0.77938 0
M  V30 6035 H 562.707 2.98195 -2.54602 0
M  V30 6036 H 564.197 3.72375 -1.89015 0
M  V30 6037 N 564.634 1.40294 0.718013 0
M  V30 6038 C 565.88 1.39648 1.47885 0
M  V30 6039 C 566.235 -0.0023879 1.924 0
M  V30 6040 O 565.528 -0.972304 1.65096 0
M  V30 6041 C 565.722 2.31814 2.72024 0
M  V30 6042 C 565.551 3.80523 2.3965 0
M  V30 6043 C 564.321 4.49351 2.3111 0
M  V30 6044 C 566.519 4.72077 2.04079 0
M  V30 6045 N 564.501 5.83305 1.91385 0
M  V30 6046 C 565.872 5.94809 1.74935 0
M  V30 6047 C 567.927 4.59935 1.90694 0
M  V30 6048 C 566.63 7.06755 1.33753 0
M  V30 6049 C 568.656 5.7182 1.50915 0
M  V30 6050 C 568.018 6.93637 1.22668 0
M  V30 6051 H 564.117 0.566263 0.539324 0
M  V30 6052 H 566.701 1.75986 0.832891 0
M  V30 6053 H 564.872 1.97607 3.34374 0
M  V30 6054 H 566.604 2.22042 3.38348 0
M  V30 6055 H 563.359 4.03002 2.4877 0
M  V30 6056 H 563.783 6.54239 1.74068 0
M  V30 6057 H 568.425 3.66274 2.11194 0
M  V30 6058 H 566.143 8.00302 1.11995 0
M  V30 6059 H 569.729 5.64421 1.4114 0
M  V30 6060 H 568.609 7.78743 0.923502 0
M  V30 6061 N 566.112 -0.949982 1.2575 0
M  V30 6062 C 567.358 -1.69822 1.11947 0
M  V30 6063 C 567.713 -1.89455 -0.335334 0
M  V30 6064 O 567.006 -1.45778 -1.24336 0
M  V30 6065 C 567.2 -3.08039 1.81237 0
M  V30 6066 C 567.029 -3.0189 3.33305 0
M  V30 6067 C 565.799 -3.05391 4.02573 0
M  V30 6068 C 567.997 -2.827 4.29634 0
M  V30 6069 N 565.979 -2.89449 5.4138 0
M  V30 6070 C 567.35 -2.75237 5.55558 0
M  V30 6071 C 569.405 -2.67416 4.19992 0
M  V30 6072 C 568.108 -2.54051 6.72942 0
M  V30 6073 C 570.134 -2.47602 5.37073 0
M  V30 6074 C 569.496 -2.40863 6.6194 0
M  V30 6075 H 565.595 -0.629188 0.464378 0
M  V30 6076 H 568.179 -1.1249 1.58916 0
M  V30 6077 H 566.35 -3.63528 1.36756 0
M  V30 6078 H 568.082 -3.71671 1.60134 0
M  V30 6079 H 564.837 -3.14763 3.53866 0
M  V30 6080 H 565.261 -2.84669 6.14241 0
M  V30 6081 H 569.903 -2.71398 3.24196 0
M  V30 6082 H 567.621 -2.48811 7.68842 0
M  V30 6083 H 571.207 -2.36694 5.31477 0
M  V30 6084 H 570.087 -2.25732 7.51009 0
M  V30 6085 N 567.59 -1.07411 -1.15328 0
M  V30 6086 C 568.836 -0.808666 -1.86634 0
M  V30 6087 C 569.191 0.65816 -1.80793 0
M  V30 6088 O 568.484 1.47689 -1.22059 0
M  V30 6089 C 568.678 -1.25191 -3.34757 0
M  V30 6090 C 568.507 -2.76028 -3.55019 0
M  V30 6091 C 567.277 -3.43644 -3.70455 0
M  V30 6092 C 569.475 -3.74224 -3.5279 0
M  V30 6093 N 567.457 -4.83117 -3.78776 0
M  V30 6094 C 568.828 -4.9954 -3.67233 0
M  V30 6095 C 570.883 -3.67373 -3.36068 0
M  V30 6096 C 569.586 -6.18819 -3.66682 0
M  V30 6097 C 571.612 -4.86116 -3.36816 0
M  V30 6098 C 570.974 -6.10266 -3.51789 0
M  V30 6099 H 567.073 -0.348478 -0.700062 0
M  V30 6100 H 569.657 -1.37049 -1.38295 0
M  V30 6101 H 567.828 -0.717775 -3.8171 0
M  V30 6102 H 569.56 -0.933936 -3.93776 0
M  V30 6103 H 566.315 -2.94051 -3.71256 0
M  V30 6104 H 566.739 -5.55705 -3.86679 0
M  V30 6105 H 571.381 -2.72334 -3.2341 0
M  V30 6106 H 569.099 -7.14179 -3.78118 0
M  V30 6107 H 572.685 -4.82492 -3.25103 0
M  V30 6108 H 571.565 -7.00609 -3.52301 0
M  V30 6109 N 569.068 1.32177 -0.85831 0
M  V30 6110 C 570.031 2.27086 -0.310588 0
M  V30 6111 C 571.031 1.51751 0.531806 0
M  V30 6112 O 572.221 1.70794 0.34279 0
M  V30 6113 C 569.353 3.36266 0.560179 0
M  V30 6114 H 570.546 2.77045 -1.1483 0
M  V30 6115 H 568.099 1.42911 -0.632942 0
M  V30 6116 H 568.834 2.9158 1.41956 0
M  V30 6117 H 568.619 3.92077 -0.0428473 0
M  V30 6118 H 570.109 4.06974 0.936056 0
M  V30 6119 N 570.547 0.616602 1.45037 0
M  V30 6120 C 571.775 0.121968 2.0654 0
M  V30 6121 C 572.19 -1.19743 1.45969 0
M  V30 6122 O 571.547 -1.73133 0.577168 0
M  V30 6123 C 571.598 -0.0145171 3.61497 0
M  V30 6124 O 571.319 1.25269 4.19809 0
M  V30 6125 C 572.82 -0.539555 4.40004 0
M  V30 6126 H 570.04 0.0729837 0.667019 0
M  V30 6127 H 572.584 0.846891 1.8614 0
M  V30 6128 H 570.739 -0.689809 3.81209 0
M  V30 6129 H 571.153 1.08816 5.13088 0
M  V30 6130 H 572.627 -0.584112 5.48901 0
M  V30 6131 H 573.104 -1.56368 4.10421 0
M  V30 6132 H 573.71 0.101995 4.25178 0
M  V30 6133 N 572.025 -1.5352 0.356285 0
M  V30 6134 C 573.253 -2.05534 -0.237328 0
M  V30 6135 C 573.668 -1.23043 -1.43199 0
M  V30 6136 O 573.025 -0.268821 -1.80509 0
M  V30 6137 C 573.076 -3.55791 -0.639933 0
M  V30 6138 O 572.797 -4.35154 0.507233 0
M  V30 6139 C 574.298 -4.24027 -1.29292 0
M  V30 6140 H 571.518 -0.669585 -0.0435572 0
M  V30 6141 H 574.062 -1.97988 0.511963 0
M  V30 6142 H 572.217 -3.63518 -1.33915 0
M  V30 6143 H 572.631 -5.24178 0.18375 0
M  V30 6144 H 574.105 -5.30509 -1.52527 0
M  V30 6145 H 574.582 -3.77166 -2.25039 0
M  V30 6146 H 575.188 -4.20527 -0.63539 0
M  V30 6147 N 573.503 -0.0852151 -1.57369 0
M  V30 6148 C 574.728 0.592872 -1.98746 0
M  V30 6149 C 575.153 1.61538 -0.963689 0
M  V30 6150 O 574.511 1.81168 0.069071 0
M  V30 6151 C 574.559 1.22599 -3.39119 0
M  V30 6152 O 573.663 2.34185 -3.39457 0
M  V30 6153 H 573.004 0.151314 -0.646529 0
M  V30 6154 H 575.534 -0.163703 -2.03944 0
M  V30 6155 H 575.544 1.56965 -3.76598 0
M  V30 6156 H 574.219 0.476831 -4.13158 0
M  V30 6157 H 572.796 2.01512 -3.13763 0
M  V30 6158 N 574.981 1.5647 0.188427 0
M  V30 6159 C 575.914 1.90146 1.26173 0
M  V30 6160 C 576.892 0.762294 1.43624 0
M  V30 6161 O 578.076 1.01395 1.58907 0
M  V30 6162 C 575.203 2.13748 2.62735 0
M  V30 6163 C 574.249 3.36448 2.62116 0
M  V30 6164 S 575.082 4.91364 2.12889 0
M  V30 6165 C 576.238 5.18041 3.51261 0
M  V30 6166 H 576.471 2.80886 0.974192 0
M  V30 6167 H 574.004 1.49335 0.392226 0
M  V30 6168 H 575.962 2.28028 3.41341 0
M  V30 6169 H 574.623 1.23747 2.88696 0
M  V30 6170 H 573.816 3.50109 3.62546 0
M  V30 6171 H 573.418 3.21196 1.91596 0
M  V30 6172 H 575.71 5.0897 4.47164 0
M  V30 6173 H 576.653 6.19764 3.42489 0
M  V30 6174 H 577.061 4.45657 3.46482 0
M  V30 6175 N 576.459 -0.456382 1.50847 0
M  V30 6176 C 577.687 -1.23026 1.66349 0
M  V30 6177 C 578.102 -1.85473 0.352868 0
M  V30 6178 O 577.459 -1.69885 -0.666739 0
M  V30 6179 C 577.51 -2.32827 2.76539 0
M  V30 6180 O 577.231 -1.72938 4.02522 0
M  V30 6181 C 578.732 -3.23448 3.03144 0
M  V30 6182 H 575.952 -0.371527 0.558756 0
M  V30 6183 H 578.496 -0.543082 1.97157 0
M  V30 6184 H 576.651 -2.97294 2.48384 0
M  V30 6185 H 577.065 -2.45357 4.63573 0
M  V30 6186 H 578.539 -3.96669 3.83872 0
M  V30 6187 H 579.016 -3.83094 2.14793 0
M  V30 6188 H 579.622 -2.64702 3.32886 0
M  V30 6189 N 577.937 -1.40673 -0.710563 0
M  V30 6190 C 579.165 -1.42547 -1.4996 0
M  V30 6191 C 579.58 -0.0265485 -1.88781 0
M  V30 6192 O 578.937 0.950694 -1.55782 0
M  V30 6193 C 578.988 -2.32071 -2.77173 0
M  V30 6194 O 578.709 -3.66518 -2.39992 0
M  V30 6195 C 580.21 -2.42591 -3.71032 0
M  V30 6196 H 577.43 -0.486025 -0.462623 0
M  V30 6197 H 579.974 -1.84783 -0.876102 0
M  V30 6198 H 578.129 -1.93184 -3.35795 0
M  V30 6199 H 578.543 -4.14115 -3.21884 0
M  V30 6200 H 580.017 -3.09429 -4.57119 0
M  V30 6201 H 580.494 -1.4525 -4.14486 0
M  V30 6202 H 581.1 -2.82051 -3.18319 0
M  V30 6203 N 579.415 0.9433 -1.26252 0
M  V30 6204 C 580.661 1.69175 -1.11837 0
M  V30 6205 C 580.994 1.91238 0.337891 0
M  V30 6206 O 580.269 1.49152 1.24836 0
M  V30 6207 C 580.552 3.06783 -1.88563 0
M  V30 6208 C 580.405 2.9206 -3.42083 0
M  V30 6209 C 581.724 4.06865 -1.67776 0
M  V30 6210 H 578.843 0.61399 -0.407658 0
M  V30 6211 H 581.485 1.09572 -1.55222 0
M  V30 6212 H 579.635 3.57663 -1.51689 0
M  V30 6213 H 581.307 2.48419 -3.88698 0
M  V30 6214 H 579.55 2.27731 -3.69217 0
M  V30 6215 H 580.221 3.89651 -3.90994 0
M  V30 6216 H 582.697 3.64939 -1.99897 0
M  V30 6217 H 581.573 5.01168 -2.23879 0
M  V30 6218 H 581.834 4.37705 -0.621816 0
M  V30 6219 N 580.893 1.08022 1.14757 0
M  V30 6220 C 582.141 0.805913 1.85336 0
M  V30 6221 C 582.462 -0.670162 1.83122 0
M  V30 6222 O 581.732 -1.48567 1.2769 0
M  V30 6223 H 580.312 0.295138 0.686223 0
M  V30 6224 H 582.974 1.36538 1.3908 0
M  V30 6225 H 582.07 1.14655 2.90277 0
M  V30 6226 N 582.371 -1.3172 0.865308 0
M  V30 6227 C 583.601 -2.00765 0.487543 0
M  V30 6228 C 584.009 -1.65145 -0.92325 0
M  V30 6229 O 583.352 -0.874294 -1.61561 0
M  V30 6230 C 583.414 -3.55122 0.559369 0
M  V30 6231 C 583.078 -4.14202 1.93095 0
M  V30 6232 C 584.075 -4.3165 2.89784 0
M  V30 6233 C 581.76 -4.50036 2.23099 0
M  V30 6234 C 583.754 -4.84114 4.14623 0
M  V30 6235 C 581.441 -5.02203 3.48189 0
M  V30 6236 C 582.439 -5.19192 4.43767 0
M  V30 6237 O 582.127 -5.70241 5.6664 0
M  V30 6238 H 581.859 -0.649066 0.188915 0
M  V30 6239 H 584.413 -1.69032 1.16694 0
M  V30 6240 H 582.643 -3.86295 -0.176926 0
M  V30 6241 H 584.332 -4.05428 0.195694 0
M  V30 6242 H 585.098 -4.04288 2.6791 0
M  V30 6243 H 580.977 -4.36091 1.49485 0
M  V30 6244 H 584.521 -4.9729 4.89233 0
M  V30 6245 H 580.418 -5.28997 3.69908 0
M  V30 6246 H 581.186 -5.88617 5.68746 0
M  V30 6247 N 583.85 -0.624285 -1.44708 0
M  V30 6248 C 585.098 -0.125802 -2.01708 0
M  V30 6249 C 585.418 1.2543 -1.49306 0
M  V30 6250 O 584.689 1.83198 -0.693924 0
M  V30 6251 H 583.269 -0.0435161 -0.745731 0
M  V30 6252 H 585.931 -0.809446 -1.77296 0
M  V30 6253 H 585.027 -0.0882734 -3.11975 0
M  V30 6254 N 585.328 1.53329 -0.364422 0
M  V30 6255 C 586.605 1.93557 0.281962 0
M  V30 6256 C 586.985 1.29786 1.6649 0
M  V30 6257 O 586.333 0.456512 2.23893 0
M  V30 6258 C 586.543 3.47405 0.333331 0
M  V30 6259 C 587.891 4.20699 0.574231 0
M  V30 6260 O 588.915 3.53779 0.414588 0
M  V30 6261 O 587.774 5.39287 0.885002 0
M  V30 6262 H 584.868 0.809573 0.168881 0
M  V30 6263 H 587.414 1.64494 -0.417121 0
M  V30 6264 H 586.186 3.86091 -0.636326 0
M  V30 6265 H 585.809 3.82697 1.07836 0
M  V30 6266 N 586.806 0.0935595 1.57322 0
M  V30 6267 C 588.055 -0.570191 1.93473 0
M  V30 6268 C 588.368 -1.69434 0.977318 0
M  V30 6269 O 589.574 -2.41914 1.23248 0
M  V30 6270 C 588.03 -1.06564 3.43762 0
M  V30 6271 C 587.638 0.0286723 4.47991 0
M  V30 6272 C 589.382 -1.70221 3.88877 0
M  V30 6273 C 587.289 -0.482046 5.89432 0
M  V30 6274 H 586.219 -0.216764 0.72217 0
M  V30 6275 H 588.87 0.169313 1.82717 0
M  V30 6276 H 587.252 -1.85878 3.49664 0
M  V30 6277 H 588.426 0.804106 4.5373 0
M  V30 6278 H 586.741 0.570336 4.12476 0
M  V30 6279 H 589.338 -2.09502 4.91948 0
M  V30 6280 H 589.681 -2.57078 3.27439 0
M  V30 6281 H 590.214 -0.974919 3.85668 0
M  V30 6282 H 586.953 0.349871 6.54566 0
M  V30 6283 H 586.473 -1.22452 5.87167 0
M  V30 6284 H 588.152 -0.951508 6.39965 0
M  V30 6285 N 588.284 -1.56567 -0.180126 0
M  V30 6286 C 589.7 -1.50488 -0.531559 0
M  V30 6287 C 589.9 -0.796267 -1.851 0
M  V30 6288 O 588.956 -0.352978 -2.50021 0
M  V30 6289 C 590.269 -2.95201 -0.572456 0
M  V30 6290 C 591.817 -3.05957 -0.660264 0
M  V30 6291 C 592.292 -4.5211 -0.732135 0
M  V30 6292 N 593.783 -4.56322 -0.795262 0
M  V30 6293 C 594.518 -5.66742 -0.871296 0
M  V30 6294 N 594.014 -6.86815 -0.908708 0
M  V30 6295 N 595.807 -5.54691 -0.909639 0
M  V30 6296 H 587.958 -2.01045 0.685165 0
M  V30 6297 H 590.221 -0.915536 0.245962 0
M  V30 6298 H 589.927 -3.50165 0.328208 0
M  V30 6299 H 589.801 -3.49369 -1.422 0
M  V30 6300 H 592.188 -2.51032 -1.55136 0
M  V30 6301 H 592.269 -2.54888 0.215783 0
M  V30 6302 H 591.913 -5.07664 0.154664 0
M  V30 6303 H 591.843 -5.00926 -1.6242 0
M  V30 6304 H 594.334 -3.69868 -0.77499 0
M  V30 6305 H 594.647 -7.66718 -0.967654 0
M  V30 6306 H 592.992 -6.89443 -0.877132 0
M  V30 6307 H 596.183 -4.59804 -0.877353 0
M  V30 6308 H 596.356 -6.40768 -0.965434 0
M  V30 6309 N 589.762 0.448376 -1.51087 0
M  V30 6310 C 591.173 1.0286 -1.5581 0
M  V30 6311 C 591.524 1.92583 -0.374989 0
M  V30 6312 O 590.649 2.10316 0.509533 0
M  V30 6313 C 591.244 1.87223 -2.8237 0
M  V30 6314 C 589.803 2.40314 -2.897 0
M  V30 6315 C 588.95 1.19238 -2.50355 0
M  V30 6316 H 591.901 0.230075 -1.57023 0
M  V30 6317 H 591.922 2.72553 -2.6551 0
M  V30 6318 H 591.434 1.21894 -3.68461 0
M  V30 6319 H 589.535 3.09129 -2.08014 0
M  V30 6320 H 589.648 2.73866 -3.93108 0
M  V30 6321 H 588.012 1.53428 -2.03303 0
M  V30 6322 H 588.795 0.555367 -3.38778 0
M  V30 6323 N 591.24 1.41047 0.703093 0
M  V30 6324 C 592.517 1.30493 1.45708 0
M  V30 6325 C 592.897 -0.0709892 2.10981 0
M  V30 6326 O 592.245 -1.08471 2.01113 0
M  V30 6327 C 592.455 2.45287 2.48265 0
M  V30 6328 C 593.803 2.86104 3.13735 0
M  V30 6329 O 594.827 2.44971 2.58587 0
M  V30 6330 O 593.686 3.57206 4.13601 0
M  V30 6331 H 590.78 0.513144 0.648546 0
M  V30 6332 H 593.326 1.52995 0.734208 0
M  V30 6333 H 592.098 3.37135 1.98635 0
M  V30 6334 H 591.721 2.24622 3.28071 0
M  V30 6335 N 592.718 -0.936591 1.26751 0
M  V30 6336 C 593.946 -1.71758 1.15355 0
M  V30 6337 C 594.361 -1.86549 -0.290683 0
M  V30 6338 O 593.718 -1.37616 -1.19868 0
M  V30 6339 C 593.769 -3.12193 1.82258 0
M  V30 6340 O 593.49 -2.98105 3.21038 0
M  V30 6341 C 594.991 -4.06485 1.76875 0
M  V30 6342 H 592.211 -0.537636 0.401483 0
M  V30 6343 H 594.755 -1.17382 1.67457 0
M  V30 6344 H 592.91 -3.63456 1.34083 0
M  V30 6345 H 593.324 -3.86824 3.54214 0
M  V30 6346 H 594.798 -5.02569 2.28316 0
M  V30 6347 H 595.275 -4.32986 0.736216 0
M  V30 6348 H 595.881 -3.61144 2.24623 0
M  V30 6349 N 594.196 -1.08629 -1.14182 0
M  V30 6350 C 595.424 -0.838889 -1.8913 0
M  V30 6351 C 595.839 0.609153 -1.78703 0
M  V30 6352 O 595.196 1.41876 -1.14794 0
M  V30 6353 C 595.247 -1.25477 -3.39025 0
M  V30 6354 O 594.968 -2.64601 -3.49167 0
M  V30 6355 C 596.469 -1.03856 -4.30963 0
M  V30 6356 H 593.689 -0.302377 -0.599007 0
M  V30 6357 H 596.233 -1.44615 -1.44592 0
M  V30 6358 H 594.388 -0.691571 -3.81177 0
M  V30 6359 H 594.802 -2.81922 -4.42289 0
M  V30 6360 H 596.276 -1.37892 -5.345 0
M  V30 6361 H 596.753 0.0242522 -4.39193 0
M  V30 6362 H 597.359 -1.58731 -3.94569 0
M  V30 6363 N 595.674 1.31259 -0.872281 0
M  V30 6364 C 596.902 2.00795 -0.498907 0
M  V30 6365 C 597.317 1.65464 0.909238 0
M  V30 6366 O 596.674 0.885073 1.59602 0
M  V30 6367 C 596.725 3.55625 -0.649092 0
M  V30 6368 O 596.446 3.89692 -2.00179 0
M  V30 6369 C 597.947 4.42434 -0.277034 0
M  V30 6370 H 595.167 0.642299 -0.194145 0
M  V30 6371 H 597.711 1.67438 -1.17408 0
M  V30 6372 H 595.866 3.87394 -0.0214402 0
M  V30 6373 H 596.28 4.84407 -2.01122 0
M  V30 6374 H 597.754 5.50299 -0.433064 0
M  V30 6375 H 598.231 4.32146 0.783989 0
M  V30 6376 H 598.837 4.16086 -0.880483 0
M  V30 6377 N 597.152 0.631951 1.44375 0
M  V30 6378 C 598.4 0.136497 2.01639 0
M  V30 6379 C 598.721 -1.24637 1.49969 0
M  V30 6380 O 597.991 -1.82827 0.70363 0
M  V30 6381 H 596.571 0.0474703 0.74549 0
M  V30 6382 H 599.233 0.818837 1.76865 0
M  V30 6383 H 598.329 0.104817 3.11924 0
M  V30 6384 N 598.631 -1.53133 0.372548 0
M  V30 6385 C 599.578 -2.25951 -0.470631 0
M  V30 6386 C 600.548 -1.26895 -1.07176 0
M  V30 6387 O 601.733 -1.55691 -1.10294 0
M  V30 6388 C 598.873 -3.05726 -1.6008 0
M  V30 6389 C 597.986 -4.19684 -1.02416 0
M  V30 6390 C 597.121 -4.86888 -2.124 0
M  V30 6391 C 596.16 -5.92866 -1.52238 0
M  V30 6392 N 595.297 -6.53732 -2.56084 0
M  V30 6393 H 600.137 -2.97587 0.156816 0
M  V30 6394 H 597.674 -1.4683 0.0891571 0
M  V30 6395 H 599.632 -3.50258 -2.26661 0
M  V30 6396 H 598.262 -2.36331 -2.1988 0
M  V30 6397 H 597.314 -3.79588 -0.248426 0
M  V30 6398 H 598.626 -4.95821 -0.544366 0
M  V30 6399 H 597.78 -5.34638 -2.86787 0
M  V30 6400 H 596.519 -4.10239 -2.63734 0
M  V30 6401 H 595.524 -5.4447 -0.763685 0
M  V30 6402 H 596.749 -6.71439 -1.0172 0
M  V30 6403 H 594.695 -5.79932 -3.06618 0
M  V30 6404 H 594.612 -7.25429 -2.12811 0
M  V30 6405 H 595.88 -7.0613 -3.30152 0
M  V30 6406 N 600.109 -0.101901 -1.5727 0
M  V30 6407 C 601.358 0.559922 -1.93772 0
M  V30 6408 C 601.671 1.68913 -0.98629 0
M  V30 6409 O 602.877 2.41256 -1.24529 0
M  V30 6410 C 601.333 1.04739 -3.44322 0
M  V30 6411 C 600.941 -0.05243 -4.47969 0
M  V30 6412 C 602.685 1.68157 -3.89774 0
M  V30 6413 C 600.592 0.450781 -5.8968 0
M  V30 6414 H 599.522 0.212931 -0.723309 0
M  V30 6415 H 602.173 -0.179001 -1.82625 0
M  V30 6416 H 600.555 1.84021 -3.50645 0
M  V30 6417 H 601.729 -0.828157 -4.53297 0
M  V30 6418 H 600.044 -0.592202 -4.12167 0
M  V30 6419 H 602.641 2.0689 -4.93052 0
M  V30 6420 H 602.984 2.55338 -3.28798 0
M  V30 6421 H 603.517 0.954453 -3.8618 0
M  V30 6422 H 600.256 -0.38458 -6.54371 0
M  V30 6423 H 599.776 1.19336 -5.87809 0
M  V30 6424 H 601.455 0.917555 -6.40461 0
M  V30 6425 N 601.587 1.56661 0.17182 0
M  V30 6426 C 602.833 1.82235 0.889845 0
M  V30 6427 C 603.166 0.679673 1.81918 0
M  V30 6428 O 602.441 -0.318404 1.91876 0
M  V30 6429 C 602.724 3.18195 1.68595 0
M  V30 6430 C 602.577 4.42989 0.779773 0
M  V30 6431 C 603.896 3.5109 2.65375 0
M  V30 6432 H 601.015 0.66291 0.322056 0
M  V30 6433 H 603.657 1.89358 0.15608 0
M  V30 6434 H 601.807 3.12253 2.3115 0
M  V30 6435 H 603.479 4.60997 0.16714 0
M  V30 6436 H 601.722 4.33711 0.0877964 0
M  V30 6437 H 602.393 5.3467 1.3723 0
M  V30 6438 H 604.869 3.57482 2.12946 0
M  V30 6439 H 603.745 4.47298 3.18144 0
M  V30 6440 H 604.006 2.75768 3.45549 0
M  V30 6441 N 603.065 -0.440357 1.51323 0
M  V30 6442 C 604.028 -1.51679 1.71832 0
M  V30 6443 C 605.028 -1.49648 0.588386 0
M  V30 6444 O 606.218 -1.51724 0.855891 0
M  V30 6445 C 603.35 -2.91228 1.77199 0
M  V30 6446 H 604.543 -1.34799 2.67898 0
M  V30 6447 H 602.096 -0.66883 1.41267 0
M  V30 6448 H 602.831 -3.13516 0.829363 0
M  V30 6449 H 602.616 -2.94107 2.59314 0
M  V30 6450 H 604.106 -3.69321 1.94915 0
M  V30 6451 N 604.543 -1.41418 -0.695603 0
M  V30 6452 C 605.79 -1.40774 -1.45564 0
M  V30 6453 C 606.118 -0.0168604 -1.94493 0
M  V30 6454 O 605.373 0.971259 -1.69897 0
M  V30 6455 C 605.672 -2.36112 -2.68302 0
M  V30 6456 C 605.338 -3.82952 -2.38031 0
M  V30 6457 C 604 -4.22954 -2.29486 0
M  V30 6458 C 606.352 -4.75662 -2.13061 0
M  V30 6459 C 603.68 -5.53674 -1.94067 0
M  V30 6460 C 606.032 -6.06702 -1.79151 0
M  V30 6461 C 604.696 -6.45725 -1.69102 0
M  V30 6462 H 603.966 -0.515128 -0.532658 0
M  V30 6463 H 606.613 -1.74216 -0.795047 0
M  V30 6464 H 604.918 -1.95924 -3.39295 0
M  V30 6465 H 606.615 -2.32887 -3.26442 0
M  V30 6466 H 603.205 -3.5127 -2.45576 0
M  V30 6467 H 607.389 -4.45561 -2.18608 0
M  V30 6468 H 602.645 -5.8279 -1.8484 0
M  V30 6469 H 606.819 -6.78041 -1.5885 0
M  V30 6470 H 604.446 -7.46929 -1.41426 0
M  V30 6471 N 606.021 0.929856 -1.27246 0
M  V30 6472 C 606.954 2.03069 -1.04106 0
M  V30 6473 C 607.932 1.62556 0.0378417 0
M  V30 6474 O 609.116 1.88197 -0.106869 0
M  V30 6475 C 606.243 3.33718 -0.578778 0
M  V30 6476 C 605.289 3.93209 -1.65193 0
M  V30 6477 S 606.122 4.26068 -3.24386 0
M  V30 6478 C 607.278 5.598 -2.79954 0
M  V30 6479 H 607.511 2.22386 -1.97311 0
M  V30 6480 H 605.044 1.07269 -1.11053 0
M  V30 6481 H 607.002 4.09261 -0.31874 0
M  V30 6482 H 605.663 3.12328 0.333182 0
M  V30 6483 H 604.856 4.87482 -1.27973 0
M  V30 6484 H 604.458 3.24243 -1.86393 0
M  V30 6485 H 606.75 6.39004 -2.25123 0
M  V30 6486 H 607.693 6.01917 -3.72963 0
M  V30 6487 H 608.101 5.20219 -2.19164 0
M  V30 6488 N 607.499 1.09233 1.13605 0
M  V30 6489 C 608.739 0.836786 1.86487 0
M  V30 6490 C 609.103 -0.626191 1.81502 0
M  V30 6491 O 610.304 -0.99758 2.49603 0
M  V30 6492 C 608.575 1.35476 3.30728 0
M  V30 6493 S 610.134 1.2328 4.21126 0
M  V30 6494 H 606.952 0.302702 0.643345 0
M  V30 6495 H 609.554 1.3953 1.36936 0
M  V30 6496 H 608.258 2.41381 3.31909 0
M  V30 6497 H 607.789 0.792286 3.85339 0
M  V30 6498 H 609.804 0.182468 4.95864 0
M  V30 6499 N 608.977 -1.30795 0.87923 0
M  V30 6500 C 610.226 -1.95636 0.490875 0
M  V30 6501 C 610.539 -1.70214 -0.963674 0
M  V30 6502 O 611.745 -2.28991 -1.45861 0
M  V30 6503 C 610.201 -3.50271 0.826929 0
M  V30 6504 C 609.809 -3.84521 2.29886 0
M  V30 6505 C 611.553 -4.21456 0.507494 0
M  V30 6506 C 609.46 -5.32309 2.57685 0
M  V30 6507 H 608.39 -0.732238 0.179841 0
M  V30 6508 H 611.041 -1.48829 1.07341 0
M  V30 6509 H 609.423 -3.9562 0.173542 0
M  V30 6510 H 610.597 -3.50102 2.99609 0
M  V30 6511 H 608.912 -3.26425 2.58526 0
M  V30 6512 H 611.509 -5.30199 0.692293 0
M  V30 6513 H 611.852 -4.12614 -0.552718 0
M  V30 6514 H 612.385 -3.81772 1.11782 0
M  V30 6515 H 609.124 -5.46195 3.62424 0
M  V30 6516 H 608.644 -5.68048 1.92566 0
M  V30 6517 H 610.323 -5.99678 2.42889 0
M  V30 6518 N 610.455 -0.639598 -1.44038 0
M  V30 6519 C 611.385 0.0469443 -2.33453 0
M  V30 6520 C 612.366 0.82609 -1.48694 0
M  V30 6521 O 613.551 0.790285 -1.77393 0
M  V30 6522 C 610.681 1.02338 -3.3188 0
M  V30 6523 C 609.635 0.355284 -4.26523 0
M  V30 6524 C 608.961 1.44221 -5.14883 0
M  V30 6525 C 610.261 -0.743798 -5.16977 0
M  V30 6526 H 611.955 -0.699735 -2.91108 0
M  V30 6527 H 609.501 -0.337946 -1.39978 0
M  V30 6528 H 611.454 1.51247 -3.93322 0
M  V30 6529 H 610.178 1.80105 -2.72451 0
M  V30 6530 H 608.837 -0.113239 -3.66425 0
M  V30 6531 H 608.485 2.21097 -4.51802 0
M  V30 6532 H 608.185 1.00052 -5.79019 0
M  V30 6533 H 609.709 1.93295 -5.79197 0
M  V30 6534 H 611.123 -0.337444 -5.72306 0
M  V30 6535 H 609.52 -1.10914 -5.89761 0
M  V30 6536 H 610.59 -1.60745 -4.57481 0
M  V30 6537 N 611.933 1.52934 -0.380664 0
M  V30 6538 C 613.158 2.06363 0.207157 0
M  V30 6539 C 613.583 1.25122 1.4045 0
M  V30 6540 O 612.941 0.274062 1.79217 0
M  V30 6541 C 612.989 3.56162 0.563996 0
M  V30 6542 O 612.093 3.77552 1.65917 0
M  V30 6543 H 611.434 0.663468 0.0265859 0
M  V30 6544 H 613.964 1.9719 -0.545635 0
M  V30 6545 H 613.974 3.99453 0.830752 0
M  V30 6546 H 612.649 4.14732 -0.311427 0
M  V30 6547 H 611.226 3.46154 1.3868 0
M  V30 6548 N 613.412 0.11024 1.57214 0
M  V30 6549 C 614.66 -0.548783 1.94506 0
M  V30 6550 C 614.981 -1.67772 0.99386 0
M  V30 6551 O 614.251 -1.9584 0.0485841 0
M  V30 6552 H 612.831 -0.205715 0.718116 0
M  V30 6553 H 615.493 0.177127 1.94093 0
M  V30 6554 H 614.589 -0.949096 2.97319 0
M  V30 6555 N 614.89 -1.56749 -0.16351 0
M  V30 6556 C 616.139 -1.81626 -0.877211 0
M  V30 6557 C 616.452 -0.688791 -1.83071 0
M  V30 6558 O 617.658 -0.822697 -2.58735 0
M  V30 6559 C 616.114 -3.21858 -1.61045 0
M  V30 6560 C 615.722 -4.42494 -0.700195 0
M  V30 6561 C 617.466 -3.56021 -2.31192 0
M  V30 6562 C 615.373 -5.73748 -1.43412 0
M  V30 6563 H 614.303 -0.67731 -0.331312 0
M  V30 6564 H 616.954 -1.83039 -0.13006 0
M  V30 6565 H 615.336 -3.14784 -2.40264 0
M  V30 6566 H 616.51 -4.60766 0.0555849 0
M  V30 6567 H 614.825 -4.1626 -0.10799 0
M  V30 6568 H 617.422 -4.51333 -2.8671 0
M  V30 6569 H 617.765 -2.81277 -3.06902 0
M  V30 6570 H 618.298 -3.64682 -1.58909 0
M  V30 6571 H 615.037 -6.51543 -0.719186 0
M  V30 6572 H 614.557 -5.5944 -2.16302 0
M  V30 6573 H 616.236 -6.15975 -1.9795 0
M  V30 6574 N 616.368 0.432326 -1.51554 0
M  V30 6575 C 617.298 1.53242 -1.76179 0
M  V30 6576 C 618.279 1.58717 -0.611801 0
M  V30 6577 O 619.464 1.74364 -0.855033 0
M  V30 6578 C 616.594 2.91278 -1.89141 0
M  V30 6579 C 615.548 3.00663 -3.04608 0
M  V30 6580 C 614.874 4.40728 -3.02759 0
M  V30 6581 C 616.174 2.74281 -4.44485 0
M  V30 6582 H 617.868 1.32886 -2.68294 0
M  V30 6583 H 615.414 0.637841 -1.29103 0
M  V30 6584 H 617.367 3.68203 -2.04951 0
M  V30 6585 H 616.091 3.12877 -0.936785 0
M  V30 6586 H 614.75 2.26179 -2.88511 0
M  V30 6587 H 614.398 4.59301 -2.05065 0
M  V30 6588 H 614.098 4.47936 -3.80299 0
M  V30 6589 H 615.622 5.19619 -3.20669 0
M  V30 6590 H 617.036 3.40936 -4.60907 0
M  V30 6591 H 615.433 2.92893 -5.23769 0
M  V30 6592 H 616.503 1.69856 -4.54177 0
M  V30 6593 N 617.846 1.41785 0.688094 0
M  V30 6594 C 619.092 1.41753 1.4503 0
M  V30 6595 C 619.425 0.0290745 1.94178 0
M  V30 6596 O 618.7 -0.944456 1.7003 0
M  V30 6597 C 618.983 2.43069 2.65686 0
M  V30 6598 C 618.836 3.91053 2.22256 0
M  V30 6599 C 620.155 2.41543 3.67893 0
M  V30 6600 H 617.274 0.516202 0.526027 0
M  V30 6601 H 619.916 1.73111 0.783105 0
M  V30 6602 H 618.066 2.1646 3.2261 0
M  V30 6603 H 619.738 4.28594 1.70602 0
M  V30 6604 H 617.981 4.05559 1.53963 0
M  V30 6605 H 618.652 4.57501 3.08863 0
M  V30 6606 H 621.128 2.65175 3.20658 0
M  V30 6607 H 620.004 3.14434 4.49914 0
M  V30 6608 H 620.265 1.43666 4.18106 0
M  V30 6609 N 619.324 -0.923095 1.27737 0
M  V30 6610 C 620.254 -2.04124 1.13383 0
M  V30 6611 C 621.235 -1.70066 0.0340658 0
M  V30 6612 O 622.42 -1.93068 0.209383 0
M  V30 6613 C 619.55 -3.3831 0.785097 0
M  V30 6614 C 618.504 -3.86496 1.8386 0
M  V30 6615 C 617.83 -5.1754 1.34373 0
M  V30 6616 C 619.13 -4.09381 3.24353 0
M  V30 6617 H 620.824 -2.1639 2.06919 0
M  V30 6618 H 618.37 -1.03976 0.996243 0
M  V30 6619 H 620.323 -4.16016 0.671485 0
M  V30 6620 H 619.047 -3.2607 -0.185969 0
M  V30 6621 H 617.706 -3.10987 1.9412 0
M  V30 6622 H 617.354 -5.01696 0.361989 0
M  V30 6623 H 617.054 -5.50751 2.04811 0
M  V30 6624 H 618.578 -5.97811 1.24315 0
M  V30 6625 H 619.992 -4.77641 3.17067 0
M  V30 6626 H 618.389 -4.53906 3.92542 0
M  V30 6627 H 619.459 -3.14515 3.69064 0
M  V30 6628 N 620.802 -1.09834 -1.13024 0
M  V30 6629 C 621.765 -0.745058 -2.16752 0
M  V30 6630 C 622.765 0.227435 -1.59183 0
M  V30 6631 O 623.955 0.0050786 -1.74199 0
M  V30 6632 C 621.087 -0.102543 -3.40746 0
M  V30 6633 H 622.28 -1.66375 -2.49518 0
M  V30 6634 H 619.833 -0.898061 -1.27924 0
M  V30 6635 H 620.568 0.827177 -3.13573 0
M  V30 6636 H 620.353 -0.80235 -3.83803 0
M  V30 6637 H 621.843 0.129082 -4.174 0
M  V30 6638 N 622.28 1.30327 -0.886154 0
M  V30 6639 C 623.21 2.30549 -0.370028 0
M  V30 6640 C 624.191 1.61039 0.547751 0
M  V30 6641 O 625.376 1.8864 0.461353 0
M  V30 6642 C 622.506 3.44808 0.415275 0
M  V30 6643 C 621.46 4.26024 -0.41085 0
M  V30 6644 C 620.786 5.32347 0.501128 0
M  V30 6645 C 622.086 4.95433 -1.65359 0
M  V30 6646 H 623.78 2.73969 -1.20754 0
M  V30 6647 H 621.326 1.3171 -0.582097 0
M  V30 6648 H 623.279 4.13986 0.78699 0
M  V30 6649 H 622.003 3.00197 1.28644 0
M  V30 6650 H 620.662 3.58535 -0.764719 0
M  V30 6651 H 620.31 4.83982 1.37004 0
M  V30 6652 H 620.01 5.87581 -0.0478356 0
M  V30 6653 H 621.534 6.0438 0.869333 0
M  V30 6654 H 622.948 5.5712 -1.35239 0
M  V30 6655 H 621.345 5.60537 -2.14284 0
M  V30 6656 H 622.415 4.21493 -2.39733 0
M  V30 6657 N 623.758 0.647228 1.43697 0
M  V30 6658 C 625.169 0.238689 1.85168 0
M  V30 6659 C 625.52 -1.21345 1.54175 0
M  V30 6660 O 624.645 -1.92542 0.987743 0
M  V30 6661 C 625.24 0.426422 3.36106 0
M  V30 6662 C 623.799 0.0722541 3.76331 0
M  V30 6663 C 622.946 0.732153 2.6746 0
M  V30 6664 H 625.897 0.851309 1.33934 0
M  V30 6665 H 625.918 -0.32987 3.79067 0
M  V30 6666 H 625.43 1.48339 3.58632 0
M  V30 6667 H 623.531 -0.982355 3.59417 0
M  V30 6668 H 623.644 0.493541 4.76551 0
M  V30 6669 H 622.008 0.16594 2.54159 0
M  V30 6670 H 622.791 1.79204 2.92816 0
M  V30 6671 N 625.236 -1.5273 0.388769 0
M  V30 6672 C 626.485 -2.00757 -0.194833 0
M  V30 6673 C 626.798 -1.27951 -1.47946 0
M  V30 6674 O 628.004 -1.66686 -2.14308 0
M  V30 6675 C 626.46 -3.57695 -0.397762 0
M  V30 6676 C 626.068 -4.394 0.873583 0
M  V30 6677 C 627.812 -4.14012 -0.937759 0
M  V30 6678 C 625.719 -5.87938 0.638962 0
M  V30 6679 H 624.649 -0.750101 -0.0765845 0
M  V30 6680 H 627.3 -1.76239 0.511086 0
M  V30 6681 H 625.682 -3.7846 -1.16552 0
M  V30 6682 H 626.856 -4.30403 1.64591 0
M  V30 6683 H 625.171 -3.94301 1.33849 0
M  V30 6684 H 627.768 -5.22645 -1.12899 0
M  V30 6685 H 628.111 -3.7007 -1.90666 0
M  V30 6686 H 628.644 -3.97137 -0.229588 0
M  V30 6687 H 625.383 -6.36202 1.57885 0
M  V30 6688 H 624.903 -5.99726 -0.094443 0
M  V30 6689 H 626.582 -6.46423 0.273299 0
M  V30 6690 N 626.714 -0.118576 -1.57153 0
M  V30 6691 C 627.677 0.817464 -2.14127 0
M  V30 6692 C 628.677 1.1949 -1.07604 0
M  V30 6693 O 629.867 1.12048 -1.33382 0
M  V30 6694 C 626.999 2.10541 -2.68115 0
M  V30 6695 H 628.192 0.322339 -2.98163 0
M  V30 6696 H 625.745 0.130655 -1.55753 0
M  V30 6697 H 626.48 2.64485 -1.87665 0
M  V30 6698 H 626.265 1.84425 -3.4602 0
M  V30 6699 H 627.755 2.77453 -3.12105 0
M  V30 6700 N 628.193 1.56834 0.155195 0
M  V30 6701 C 629.442 1.82088 0.867567 0
M  V30 6702 C 629.755 0.69849 1.82703 0
M  V30 6703 O 630.961 0.836407 2.58295 0
M  V30 6704 C 629.417 3.22707 1.59336 0
M  V30 6705 C 629.025 4.42859 0.676719 0
M  V30 6706 C 630.769 3.57242 2.293 0
M  V30 6707 C 628.676 5.74501 1.40367 0
M  V30 6708 H 627.606 0.679057 0.327715 0
M  V30 6709 H 630.257 1.83105 0.120351 0
M  V30 6710 H 628.639 3.16054 2.38591 0
M  V30 6711 H 629.813 4.60731 -0.0800196 0
M  V30 6712 H 628.128 4.16311 0.0859129 0
M  V30 6713 H 630.725 4.52847 2.84312 0
M  V30 6714 H 631.068 2.82901 3.05406 0
M  V30 6715 H 631.601 3.6552 1.56972 0
M  V30 6716 H 628.34 6.51915 0.684623 0
M  V30 6717 H 627.86 5.60579 2.13332 0
M  V30 6718 H 629.539 6.17016 1.94681 0
M  V30 6719 N 629.671 -0.424282 1.51781 0
M  V30 6720 C 630.92 -1.16961 1.64326 0
M  V30 6721 C 631.233 -1.92035 0.371749 0
M  V30 6722 O 632.439 -2.68873 0.37676 0
M  V30 6723 C 630.895 -2.12782 2.90262 0
M  V30 6724 C 630.503 -1.43295 4.24465 0
M  V30 6725 C 632.247 -2.87667 3.12166 0
M  V30 6726 C 630.154 -2.37676 5.41538 0
M  V30 6727 H 629.084 -0.440293 0.612093 0
M  V30 6728 H 631.735 -0.435431 1.78259 0
M  V30 6729 H 630.117 -2.8969 2.69992 0
M  V30 6730 H 631.291 -0.718564 4.55163 0
M  V30 6731 H 629.606 -0.805118 4.08542 0
M  V30 6732 H 632.203 -3.58395 3.96808 0
M  V30 6733 H 632.546 -3.49758 2.25776 0
M  V30 6734 H 633.079 -2.17863 3.32837 0
M  V30 6735 H 629.818 -1.80255 6.30229 0
M  V30 6736 H 629.338 -3.07132 5.15199 0
M  V30 6737 H 631.017 -2.98529 5.74012 0
M  V30 6738 N 631.149 -1.42148 -0.680565 0
M  V30 6739 C 632.097 -1.45401 -1.81552 0
M  V30 6740 C 633.091 -0.33036 -1.66147 0
M  V30 6741 O 634.297 -0.503103 -1.72826 0
M  V30 6742 H 630.672 -0.455265 -0.59853 0
M  V30 6743 H 632.643 -2.41024 -1.75926 0
M  V30 6744 C 631.392 -1.36769 -3.19671 0
M  V30 6745 H 630.715 -2.22525 -3.32149 0
M  V30 6746 H 632.155 -1.43106 -3.9912 0
M  V30 6747 C 630.614 -0.0817752 -3.36801 0
M  V30 6748 O 631.144 0.867707 -3.92216 0
M  V30 6749 N 629.35 -0.000799811 -2.906 0
M  V30 6750 H 628.897 -0.774231 -2.4569 0
M  V30 6751 H 628.855 0.858961 -3.02439 0
M  V30 6752 N 632.627 0.916307 -1.28225 0
M  V30 6753 C 633.904 1.64429 -1.05936 0
M  V30 6754 C 634.284 2.07234 0.402139 0
M  V30 6755 O 633.632 1.81535 1.3877 0
M  V30 6756 C 633.842 2.83773 -2.03159 0
M  V30 6757 C 635.19 3.54852 -2.33164 0
M  V30 6758 O 636.214 2.93918 -2.01223 0
M  V30 6759 O 635.073 4.64663 -2.87664 0
M  V30 6760 H 632.167 0.721221 -0.404683 0
M  V30 6761 H 634.713 0.965838 -1.39534 0
M  V30 6762 H 633.485 2.49217 -3.01673 0
M  V30 6763 H 633.108 3.59333 -1.70192 0
M  V30 6764 N 634.105 1.10431 1.1244 0
M  V30 6765 C 635.521 0.836096 1.35947 0
M  V30 6766 C 635.721 -0.544475 1.94004 0
M  V30 6767 O 634.777 -1.29735 2.16622 0
M  V30 6768 C 636.09 1.93575 2.30107 0
M  V30 6769 C 637.638 1.9642 2.43697 0
M  V30 6770 C 638.113 3.05559 3.41171 0
M  V30 6771 N 639.604 3.04865 3.48728 0
M  V30 6772 C 640.339 3.85954 4.24061 0
M  V30 6773 N 639.835 4.76977 5.02458 0
M  V30 6774 N 641.628 3.74172 4.19466 0
M  V30 6775 H 633.779 1.9942 0.731124 0
M  V30 6776 H 636.042 0.866607 0.384312 0
M  V30 6777 H 635.748 2.92943 1.94621 0
M  V30 6778 H 635.622 1.8229 3.30227 0
M  V30 6779 H 638.009 0.97685 2.78463 0
M  V30 6780 H 638.09 2.11782 1.43465 0
M  V30 6781 H 637.734 4.04513 3.07135 0
M  V30 6782 H 637.664 2.87438 4.41234 0
M  V30 6783 H 640.155 2.38908 2.92799 0
M  V30 6784 H 640.468 5.35409 5.57277 0
M  V30 6785 H 638.813 4.81006 5.01655 0
M  V30 6786 H 642.004 3.02412 3.57302 0
M  V30 6787 H 642.177 4.37602 4.77921 0
M  V30 6788 N 635.583 -1.29855 0.893053 0
M  V30 6789 C 636.83 -1.95826 0.515585 0
M  V30 6790 C 637.158 -1.70451 -0.936842 0
M  V30 6791 O 636.413 -1.00657 -1.67829 0
M  V30 6792 C 636.712 -3.49515 0.746588 0
M  V30 6793 C 636.378 -3.94955 2.17535 0
M  V30 6794 C 635.04 -4.07073 2.56603 0
M  V30 6795 C 637.392 -4.18536 3.10607 0
M  V30 6796 C 634.72 -4.40138 3.87938 0
M  V30 6797 C 637.072 -4.53073 4.41484 0
M  V30 6798 C 635.736 -4.634 4.80434 0
M  V30 6799 H 635.006 -0.71658 0.188666 0
M  V30 6800 H 637.653 -1.54574 1.13045 0
M  V30 6801 H 635.958 -3.9177 0.0487551 0
M  V30 6802 H 637.655 -3.98644 0.434009 0
M  V30 6803 H 634.245 -3.86035 1.86212 0
M  V30 6804 H 638.429 -4.08646 2.81641 0
M  V30 6805 H 633.685 -4.46335 4.17846 0
M  V30 6806 H 637.859 -4.70269 5.13634 0
M  V30 6807 H 635.486 -4.88775 5.82239 0
M  V30 6808 N 637.061 -0.65484 -1.43351 0
M  V30 6809 C 638.286 -0.175046 -2.0666 0
M  V30 6810 C 638.711 1.15104 -1.4877 0
M  V30 6811 O 638.069 1.71144 -0.598279 0
M  V30 6812 C 638.117 -0.0991544 -3.60464 0
M  V30 6813 O 637.221 0.938169 -4.01587 0
M  V30 6814 H 636.562 -0.0956148 -0.65708 0
M  V30 6815 H 639.092 -0.898222 -1.83829 0
M  V30 6816 H 639.102 0.083632 -4.07914 0
M  V30 6817 H 637.777 -1.06719 -4.01975 0
M  V30 6818 H 636.354 0.72804 -3.65724 0
M  V30 6819 N 638.539 1.52521 -0.396863 0
M  V30 6820 C 639.502 2.2527 0.422604 0
M  V30 6821 C 640.502 1.27184 0.983913 0
M  V30 6822 O 641.692 1.51222 0.864723 0
M  V30 6823 C 638.824 3.01356 1.59365 0
M  V30 6824 H 640.017 2.99133 -0.214416 0
M  V30 6825 H 637.57 1.55587 -0.149128 0
M  V30 6826 H 638.305 2.31813 2.26789 0
M  V30 6827 H 638.09 3.73357 1.19779 0
M  V30 6828 H 639.58 3.56571 2.17363 0
M  V30 6829 N 640.017 0.126909 1.57088 0
M  V30 6830 C 641.257 -0.53216 1.97351 0
M  V30 6831 C 641.621 -1.63342 1.00913 0
M  V30 6832 O 642.822 -2.35194 1.30144 0
M  V30 6833 C 641.093 -1.04385 3.41817 0
M  V30 6834 S 642.652 -1.71033 4.04095 0
M  V30 6835 H 639.47 -0.172724 0.689701 0
M  V30 6836 H 642.072 0.213865 1.94327 0
M  V30 6837 H 640.776 -0.231289 4.09748 0
M  V30 6838 H 640.307 -1.82496 3.48509 0
M  V30 6839 H 642.322 -2.99656 3.95501 0
M  V30 6840 N 641.495 -1.56914 -0.146875 0
M  V30 6841 C 642.725 -1.87243 -0.873126 0
M  V30 6842 C 643.133 -0.713127 -1.75246 0
M  V30 6843 O 642.476 0.326228 -1.8078 0
M  V30 6844 C 642.538 -3.12279 -1.78107 0
M  V30 6845 C 642.202 -4.44082 -1.07889 0
M  V30 6846 C 643.199 -5.18096 -0.432734 0
M  V30 6847 C 640.884 -4.90807 -1.06836 0
M  V30 6848 C 642.878 -6.37039 0.214569 0
M  V30 6849 C 640.565 -6.09674 -0.417243 0
M  V30 6850 C 641.563 -6.82636 0.223093 0
M  V30 6851 O 641.251 -7.99245 0.863884 0
M  V30 6852 H 640.983 -0.624896 -0.257839 0
M  V30 6853 H 643.537 -2.04892 -0.14434 0
M  V30 6854 H 641.767 -2.90639 -2.5508 0
M  V30 6855 H 643.456 -3.28854 -2.37929 0
M  V30 6856 H 644.222 -4.83066 -0.432677 0
M  V30 6857 H 640.101 -4.3394 -1.55618 0
M  V30 6858 H 643.645 -6.93927 0.714965 0
M  V30 6859 H 639.542 -6.44165 -0.414967 0
M  V30 6860 H 640.31 -8.14912 0.765564 0
M  V30 6861 N 642.974 0.416227 -1.52004 0
M  V30 6862 C 644.221 1.16383 -1.65714 0
M  V30 6863 C 644.549 1.9068 -0.383594 0
M  V30 6864 O 643.804 1.85174 0.633185 0
M  V30 6865 C 644.103 2.18923 -2.82502 0
M  V30 6866 C 643.769 1.61485 -4.20991 0
M  V30 6867 C 642.431 1.45545 -4.58661 0
M  V30 6868 C 644.783 1.19468 -5.07323 0
M  V30 6869 C 642.111 0.860937 -5.80349 0
M  V30 6870 C 644.463 0.614386 -6.29609 0
M  V30 6871 C 643.127 0.442056 -6.66035 0
M  V30 6872 H 642.397 0.425875 -0.606392 0
M  V30 6873 H 645.044 0.45199 -1.8609 0
M  V30 6874 H 643.349 2.96225 -2.56433 0
M  V30 6875 H 645.046 2.76628 -2.90307 0
M  V30 6876 H 641.636 1.74873 -3.91302 0
M  V30 6877 H 645.82 1.30596 -4.78809 0
M  V30 6878 H 641.076 0.715372 -6.072 0
M  V30 6879 H 645.25 0.280393 -6.95835 0
M  V30 6880 H 642.877 -0.0207218 -7.60197 0
M  V30 6881 N 644.452 1.42507 0.673017 0
M  V30 6882 C 645.68 1.46473 1.46128 0
M  V30 6883 C 646.095 0.0765912 1.88645 0
M  V30 6884 O 645.452 -0.909057 1.58248 0
M  V30 6885 C 645.503 2.39339 2.70923 0
M  V30 6886 O 645.224 3.72752 2.3019 0
M  V30 6887 C 646.725 2.52343 3.64469 0
M  V30 6888 H 643.945 0.49812 0.449575 0
M  V30 6889 H 646.489 1.87041 0.826802 0
M  V30 6890 H 644.644 2.02019 3.30556 0
M  V30 6891 H 645.058 4.22503 3.10791 0
M  V30 6892 H 646.532 3.2144 4.48754 0
M  V30 6893 H 647.009 1.56189 4.1049 0
M  V30 6894 H 647.615 2.90392 3.10729 0
M  V30 6895 N 645.93 -0.909495 1.28709 0
M  V30 6896 C 646.86 -2.0291 1.15542 0
M  V30 6897 C 647.841 -1.7002 0.0521017 0
M  V30 6898 O 649.026 -1.92835 0.229849 0
M  V30 6899 C 646.156 -3.37458 0.820935 0
M  V30 6900 C 645.11 -3.84524 1.87949 0
M  V30 6901 C 644.436 -5.16086 1.39854 0
M  V30 6902 C 645.736 -4.05918 3.28676 0
M  V30 6903 H 647.43 -2.14183 2.09203 0
M  V30 6904 H 644.976 -1.02913 1.00722 0
M  V30 6905 H 646.929 -4.1528 0.715571 0
M  V30 6906 H 645.653 -3.26249 -0.151374 0
M  V30 6907 H 644.312 -3.08911 1.97408 0
M  V30 6908 H 643.96 -5.01284 0.41518 0
M  V30 6909 H 643.66 -5.48547 2.1064 0
M  V30 6910 H 645.184 -5.96459 1.30649 0
M  V30 6911 H 646.598 -4.74252 3.22115 0
M  V30 6912 H 644.995 -4.49717 3.97334 0
M  V30 6913 H 646.065 -3.10583 3.72379 0
M  V30 6914 N 647.408 -1.11026 -1.11852 0
M  V30 6915 C 648.355 -0.764662 -2.17765 0
M  V30 6916 C 649.325 0.261854 -1.64023 0
M  V30 6917 O 650.51 0.139748 -1.90288 0
M  V30 6918 C 647.65 -0.209317 -3.44465 0
M  V30 6919 C 646.763 -1.29187 -4.12231 0
M  V30 6920 C 645.898 -0.697523 -5.266 0
M  V30 6921 C 644.937 -1.76023 -5.86244 0
M  V30 6922 N 644.074 -1.18569 -6.92016 0
M  V30 6923 H 648.914 -1.67202 -2.46673 0
M  V30 6924 H 646.451 -0.835065 -1.21099 0
M  V30 6925 H 648.409 0.130599 -4.16996 0
M  V30 6926 H 647.039 0.661251 -3.15955 0
M  V30 6927 H 646.091 -1.74881 -3.37818 0
M  V30 6928 H 647.403 -2.09607 -4.52622 0
M  V30 6929 H 646.557 -0.307412 -6.05921 0
M  V30 6930 H 645.296 0.138044 -4.87505 0
M  V30 6931 H 644.301 -2.1597 -5.05606 0
M  V30 6932 H 645.526 -2.59875 -6.27409 0
M  V30 6933 H 643.472 -0.371695 -6.54946 0
M  V30 6934 H 643.389 -1.92666 -7.31038 0
M  V30 6935 H 644.657 -0.82233 -7.7515 0
M  V30 6936 N 648.886 1.2938 -0.899927 0
M  V30 6937 C 649.816 2.30144 -0.39446 0
M  V30 6938 C 650.797 1.61611 0.530639 0
M  V30 6939 O 651.982 1.89119 0.441319 0
M  V30 6940 C 649.112 3.45229 0.37868 0
M  V30 6941 C 648.066 4.25564 -0.456012 0
M  V30 6942 C 647.392 5.32848 0.444637 0
M  V30 6943 C 648.692 4.93651 -1.70605 0
M  V30 6944 H 650.386 2.72673 -1.23653 0
M  V30 6945 H 647.932 1.31086 -0.596034 0
M  V30 6946 H 649.885 4.14797 0.743037 0
M  V30 6947 H 648.609 3.01545 1.25453 0
M  V30 6948 H 647.268 3.57704 -0.802704 0
M  V30 6949 H 646.916 4.85408 1.31863 0
M  V30 6950 H 646.616 5.87497 -0.110154 0
M  V30 6951 H 648.14 6.05268 0.805182 0
M  V30 6952 H 649.554 5.55655 -1.41141 0
M  V30 6953 H 647.951 5.58233 -2.20217 0
M  V30 6954 H 649.021 4.18926 -2.4419 0
M  V30 6955 N 650.364 0.662433 1.43002 0
M  V30 6956 C 651.311 -0.0235324 2.30788 0
M  V30 6957 C 652.281 -0.805342 1.4527 0
M  V30 6958 O 653.466 -0.78009 1.74124 0
M  V30 6959 C 650.606 -0.977545 3.30965 0
M  V30 6960 C 649.719 -0.190865 4.31578 0
M  V30 6961 C 648.854 -1.13951 5.18834 0
M  V30 6962 C 647.893 -0.343796 6.11134 0
M  V30 6963 N 647.03 -1.2445 6.90982 0
M  V30 6964 H 651.87 0.730921 2.88897 0
M  V30 6965 H 649.407 0.372197 1.42313 0
M  V30 6966 H 651.365 -1.54437 3.87563 0
M  V30 6967 H 649.995 -1.69877 2.74484 0
M  V30 6968 H 649.047 0.492388 3.772 0
M  V30 6969 H 650.359 0.427464 4.96965 0
M  V30 6970 H 649.513 -1.77666 5.80103 0
M  V30 6971 H 648.252 -1.79174 4.53595 0
M  V30 6972 H 647.257 0.30665 5.48944 0
M  V30 6973 H 648.482 0.304161 6.78419 0
M  V30 6974 H 646.428 -1.88336 6.28383 0
M  V30 6975 H 646.345 -0.680959 7.52927 0
M  V30 6976 H 647.613 -1.86952 7.56749 0
M  V30 6977 N 651.842 -1.52309 0.404946 0
M  V30 6978 C 652.752 -2.30634 -0.429555 0
M  V30 6979 C 653.768 -1.38187 -1.05737 0
M  V30 6980 O 654.944 -1.71261 -1.05979 0
M  V30 6981 C 652.009 -3.10947 -1.53339 0
M  V30 6982 C 651.07 -4.19126 -0.929065 0
M  V30 6983 C 650.303 -4.95601 -1.9803 0
M  V30 6984 O 650.526 -4.72331 -3.1978 0
M  V30 6985 O 649.46 -5.80551 -1.58886 0
M  V30 6986 H 653.286 -3.0298 0.208963 0
M  V30 6987 H 650.871 -1.4845 0.168255 0
M  V30 6988 H 652.753 -3.60974 -2.1743 0
M  V30 6989 H 651.428 -2.41399 -2.15658 0
M  V30 6990 H 650.335 -3.73257 -0.250982 0
M  V30 6991 H 651.668 -4.90955 -0.349855 0
M  V30 6992 N 653.32 -0.135238 -1.57019 0
M  V30 6993 C 654.283 0.794707 -2.14981 0
M  V30 6994 C 655.283 1.18342 -1.08866 0
M  V30 6995 O 656.473 1.10627 -1.34563 0
M  V30 6996 C 653.605 2.07685 -2.70333 0
M  V30 6997 H 654.798 0.290696 -2.98488 0
M  V30 6998 H 652.351 0.114128 -1.55883 0
M  V30 6999 H 653.086 2.6248 -1.9046 0
M  V30 7000 H 652.871 1.80745 -3.47957 0
M  V30 7001 H 654.361 2.74127 -3.1503 0
M  V30 7002 N 654.798 1.5699 0.138552 0
M  V30 7003 C 655.761 1.97984 1.15478 0
M  V30 7004 C 656.761 0.867416 1.35398 0
M  V30 7005 O 657.951 1.13387 1.32246 0
M  V30 7006 C 655.083 2.3031 2.51337 0
M  V30 7007 H 656.276 2.88953 0.802896 0
M  V30 7008 H 653.829 1.51555 0.382189 0
M  V30 7009 H 654.564 1.42159 2.91481 0
M  V30 7010 H 654.349 3.11425 2.38237 0
M  V30 7011 H 655.839 2.62834 3.24512 0
M  V30 7012 N 656.276 -0.40816 1.52223 0
M  V30 7013 C 657.522 -1.15673 1.66576 0
M  V30 7014 C 657.855 -1.90141 0.394996 0
M  V30 7015 O 657.13 -1.84798 -0.606613 0
M  V30 7016 C 657.413 -2.15042 2.88841 0
M  V30 7017 C 657.266 -1.44465 4.25969 0
M  V30 7018 C 658.585 -3.15699 3.0663 0
M  V30 7019 H 655.704 -0.41916 0.606196 0
M  V30 7020 H 658.346 -0.442348 1.84779 0
M  V30 7021 H 656.496 -2.75964 2.73452 0
M  V30 7022 H 658.168 -0.866544 4.53088 0
M  V30 7023 H 656.411 -0.746612 4.27327 0
M  V30 7024 H 657.082 -2.16976 5.07568 0
M  V30 7025 H 659.558 -2.64854 3.20923 0
M  V30 7026 H 658.434 -3.82491 3.9369 0
M  V30 7027 H 658.695 -3.83481 2.19987 0
M  V30 7028 N 657.755 -1.42862 -0.66545 0
M  V30 7029 C 659.171 -1.25993 -0.979687 0
M  V30 7030 C 659.371 -0.170831 -2.00775 0
M  V30 7031 O 658.427 0.454827 -2.4837 0
M  V30 7032 C 659.74 -2.62005 -1.47559 0
M  V30 7033 C 661.288 -2.69437 -1.59288 0
M  V30 7034 C 661.763 -4.05838 -2.12272 0
M  V30 7035 N 663.254 -4.0784 -2.19592 0
M  V30 7036 C 663.989 -5.10205 -2.61684 0
M  V30 7037 N 663.485 -6.22949 -3.03161 0
M  V30 7038 N 665.278 -4.9756 -2.61516 0
M  V30 7039 H 657.429 -2.12395 0.0150493 0
M  V30 7040 H 659.692 -0.946355 -0.0558187 0
M  V30 7041 H 659.398 -3.42605 -0.794654 0
M  V30 7042 H 659.272 -2.86566 -2.45275 0
M  V30 7043 H 661.659 -1.89178 -2.26486 0
M  V30 7044 H 661.74 -2.48655 -0.600374 0
M  V30 7045 H 661.384 -4.86559 -1.4568 0
M  V30 7046 H 661.314 -4.23977 -3.12331 0
M  V30 7047 H 663.805 -3.26452 -1.90361 0
M  V30 7048 H 664.118 -6.96899 -3.33993 0
M  V30 7049 H 662.463 -6.2644 -3.00995 0
M  V30 7050 H 665.654 -4.08551 -2.28481 0
M  V30 7051 H 665.827 -5.77468 -2.93999 0
M  V30 7052 N 659.233 0.902656 -1.29189 0
M  V30 7053 C 660.165 2.01149 -1.09872 0
M  V30 7054 C 661.178 1.62732 -0.0471046 0
M  V30 7055 O 662.367 1.76107 -0.29132 0
M  V30 7056 C 659.467 3.32612 -0.649818 0
M  V30 7057 C 658.64 3.99574 -1.7793 0
M  V30 7058 C 657.699 5.09325 -1.32191 0
M  V30 7059 O 656.725 5.31919 -2.02611 0
M  V30 7060 N 657.927 5.80185 -0.191171 0
M  V30 7061 H 660.692 2.18276 -2.05368 0
M  V30 7062 H 658.253 1.07466 -1.2109 0
M  V30 7063 H 660.245 4.03375 -0.327199 0
M  V30 7064 H 658.815 3.11876 0.212597 0
M  V30 7065 H 658.035 3.22213 -2.27095 0
M  V30 7066 H 659.323 4.41056 -2.53668 0
M  V30 7067 H 658.721 5.64312 0.396016 0
M  V30 7068 H 657.278 6.5176 0.0721001 0
M  V30 7069 N 660.711 1.11618 1.11262 0
M  V30 7070 C 662.127 0.850468 1.35053 0
M  V30 7071 C 662.327 -0.523868 1.94571 0
M  V30 7072 O 661.383 -1.2743 2.17986 0
M  V30 7073 C 662.696 1.96005 2.28041 0
M  V30 7074 C 664.244 1.98993 2.416 0
M  V30 7075 C 664.719 3.0916 3.37911 0
M  V30 7076 N 666.21 3.08547 3.45475 0
M  V30 7077 C 666.945 3.9043 4.19943 0
M  V30 7078 N 666.441 4.8228 4.97371 0
M  V30 7079 N 668.234 3.786 4.15474 0
M  V30 7080 H 660.385 2.00184 0.709932 0
M  V30 7081 H 662.648 0.870635 0.375099 0
M  V30 7082 H 662.354 2.9499 1.91503 0
M  V30 7083 H 662.228 1.85782 3.28275 0
M  V30 7084 H 664.615 1.00633 2.77411 0
M  V30 7085 H 664.696 2.13292 1.4121 0
M  V30 7086 H 664.34 4.07748 3.02827 0
M  V30 7087 H 664.27 2.92102 4.3816 0
M  V30 7088 H 666.761 2.42 2.90249 0
M  V30 7089 H 667.074 5.41289 5.51567 0
M  V30 7090 H 665.419 4.863 4.96525 0
M  V30 7091 H 668.61 3.06185 3.54074 0
M  V30 7092 H 668.783 4.42647 4.73253 0
M  V30 7093 N 662.189 -1.289 0.906776 0
M  V30 7094 C 663.099 -2.31256 0.394707 0
M  V30 7095 C 664.115 -1.66231 -0.514121 0
M  V30 7096 O 665.291 -1.97347 -0.401994 0
M  V30 7097 C 662.356 -3.44792 -0.363191 0
M  V30 7098 C 661.417 -4.25391 0.578012 0
M  V30 7099 C 660.65 -5.33506 -0.143811 0
M  V30 7100 O 660.873 -5.53786 -1.36665 0
M  V30 7101 O 659.807 -5.99673 0.5173 0
M  V30 7102 H 663.633 -2.77051 1.24405 0
M  V30 7103 H 661.218 -1.33466 0.671346 0
M  V30 7104 H 663.1 -4.139 -0.791503 0
M  V30 7105 H 661.775 -3.01093 -1.18848 0
M  V30 7106 H 660.682 -3.58899 1.05558 0
M  V30 7107 H 662.015 -4.72752 1.36992 0
M  V30 7108 N 663.667 -0.670007 -1.42649 0
M  V30 7109 C 664.63 0.00204659 -2.292 0
M  V30 7110 C 665.63 0.733817 -1.4308 0
M  V30 7111 O 666.82 0.57254 -1.64522 0
M  V30 7112 C 663.952 1.01359 -3.25483 0
M  V30 7113 H 665.145 -0.759696 -2.90118 0
M  V30 7114 H 662.698 -0.432105 -1.50208 0
M  V30 7115 H 663.433 1.80399 -2.69493 0
M  V30 7116 H 663.218 0.492323 -3.88997 0
M  V30 7117 H 664.708 1.4824 -3.90403 0
M  V30 7118 N 665.145 1.52092 -0.413018 0
M  V30 7119 C 666.075 2.30021 0.401567 0
M  V30 7120 C 667.056 1.34395 1.04269 0
M  V30 7121 O 668.241 1.63304 1.05097 0
M  V30 7122 C 665.371 3.12447 1.51638 0
M  V30 7123 C 664.325 4.16153 1.00005 0
M  V30 7124 C 663.651 4.86948 2.20875 0
M  V30 7125 C 664.951 5.22275 0.0513757 0
M  V30 7126 H 666.645 2.98365 -0.248704 0
M  V30 7127 H 664.191 1.4349 -0.121052 0
M  V30 7128 H 666.144 3.65733 2.09326 0
M  V30 7129 H 664.868 2.41879 2.19458 0
M  V30 7130 H 663.527 3.63882 0.445549 0
M  V30 7131 H 663.175 4.12905 2.8726 0
M  V30 7132 H 662.875 5.57057 1.86978 0
M  V30 7133 H 664.399 5.43048 2.79162 0
M  V30 7134 H 665.813 5.70778 0.537176 0
M  V30 7135 H 664.21 5.9977 -0.198977 0
M  V30 7136 H 665.28 4.76611 -0.892736 0
M  V30 7137 N 666.623 0.143563 1.56945 0
M  V30 7138 C 667.57 -0.797433 2.16586 0
M  V30 7139 C 668.54 -1.24654 1.09775 0
M  V30 7140 O 669.725 -1.31968 1.37801 0
M  V30 7141 C 666.865 -2.03253 2.78895 0
M  V30 7142 C 665.978 -1.62954 4.00087 0
M  V30 7143 C 665.113 -2.81617 4.50406 0
M  V30 7144 C 664.152 -2.37675 5.64072 0
M  V30 7145 N 663.289 -3.49335 6.09023 0
M  V30 7146 H 668.129 -0.282023 2.96662 0
M  V30 7147 H 665.666 -0.127494 1.46546 0
M  V30 7148 H 667.624 -2.75653 3.13163 0
M  V30 7149 H 666.254 -2.52211 2.01469 0
M  V30 7150 H 665.306 -0.803322 3.71821 0
M  V30 7151 H 666.618 -1.26679 4.82446 0
M  V30 7152 H 665.772 -3.62212 4.86711 0
M  V30 7153 H 664.511 -3.21134 3.67048 0
M  V30 7154 H 663.516 -1.55519 5.27346 0
M  V30 7155 H 664.741 -1.99247 6.49213 0
M  V30 7156 H 662.687 -3.8848 5.28601 0
M  V30 7157 H 662.604 -3.17064 6.86299 0
M  V30 7158 H 663.872 -4.30297 6.49973 0
M  V30 7159 N 668.101 -1.57061 -0.130224 0
M  V30 7160 C 669.048 -1.99517 -1.16024 0
M  V30 7161 C 670.018 -0.865452 -1.41771 0
M  V30 7162 O 671.203 -1.12882 -1.53826 0
M  V30 7163 C 668.343 -2.3951 -2.48453 0
M  V30 7164 C 667.456 -3.65848 -2.29737 0
M  V30 7165 C 666.591 -3.9487 -3.55318 0
M  V30 7166 C 665.63 -5.14426 -3.31711 0
M  V30 7167 N 664.767 -5.39375 -4.49466 0
M  V30 7168 H 669.607 -2.87305 -0.791194 0
M  V30 7169 H 667.144 -1.42129 -0.379195 0
M  V30 7170 H 669.102 -2.60731 -3.25692 0
M  V30 7171 H 667.732 -1.54779 -2.83272 0
M  V30 7172 H 666.784 -3.52307 -1.4347 0
M  V30 7173 H 668.096 -4.53241 -2.08263 0
M  V30 7174 H 667.25 -4.16679 -4.4098 0
M  V30 7175 H 665.989 -3.05931 -3.79813 0
M  V30 7176 H 664.994 -4.92473 -2.44439 0
M  V30 7177 H 666.219 -6.04933 -3.08598 0
M  V30 7178 H 664.165 -4.53391 -4.74102 0
M  V30 7179 H 664.082 -6.21069 -4.31055 0
M  V30 7180 H 665.35 -5.65694 -5.36293 0
M  V30 7181 N 669.579 0.400081 -1.52437 0
M  V30 7182 C 670.509 1.4947 -1.7939 0
M  V30 7183 C 671.49 1.57383 -0.645329 0
M  V30 7184 O 672.675 1.72511 -0.891826 0
M  V30 7185 C 669.805 2.87201 -1.95276 0
M  V30 7186 C 668.759 2.94134 -3.10917 0
M  V30 7187 C 668.085 4.34207 -3.1204 0
M  V30 7188 C 669.385 2.64791 -4.50203 0
M  V30 7189 H 671.079 1.27165 -2.71052 0
M  V30 7190 H 668.625 0.610312 -1.30427 0
M  V30 7191 H 670.578 3.63772 -2.12715 0
M  V30 7192 H 669.302 3.10819 -1.00294 0
M  V30 7193 H 667.961 2.20009 -2.93243 0
M  V30 7194 H 667.609 4.54848 -2.14761 0
M  V30 7195 H 667.309 4.39768 -3.89715 0
M  V30 7196 H 668.833 5.127 -3.31619 0
M  V30 7197 H 670.247 3.31083 -4.68035 0
M  V30 7198 H 668.644 2.81717 -5.29864 0
M  V30 7199 H 669.714 1.60184 -4.57678 0
M  V30 7200 N 671.057 1.43213 0.657864 0
M  V30 7201 C 672.285 1.48015 1.44566 0
M  V30 7202 C 672.7 0.0965951 1.88553 0
M  V30 7203 O 672.057 -0.892221 1.59203 0
M  V30 7204 C 672.108 2.42199 2.68369 0
M  V30 7205 O 671.829 3.75173 2.26223 0
M  V30 7206 C 673.33 2.56195 3.61772 0
M  V30 7207 H 670.55 0.502861 0.444266 0
M  V30 7208 H 673.094 1.87907 0.806917 0
M  V30 7209 H 671.249 2.05514 3.28394 0
M  V30 7210 H 671.663 4.25776 3.06293 0
M  V30 7211 H 673.137 3.26182 4.4532 0
M  V30 7212 H 673.614 1.60534 4.0881 0
M  V30 7213 H 674.22 2.93671 3.07632 0
M  V30 7214 N 672.536 -0.895792 1.29666 0
M  V30 7215 C 673.483 -2.00035 1.15129 0
M  V30 7216 C 674.453 -1.66043 0.0435819 0
M  V30 7217 O 675.638 -1.89621 0.211811 0
M  V30 7218 C 672.778 -3.34774 0.83787 0
M  V30 7219 C 671.891 -3.81525 2.0264 0
M  V30 7220 C 671.026 -5.04858 1.65201 0
M  V30 7221 C 670.065 -5.43988 2.80612 0
M  V30 7222 N 669.202 -6.58507 2.43544 0
M  V30 7223 H 674.042 -2.11802 2.09628 0
M  V30 7224 H 671.579 -1.03719 1.04311 0
M  V30 7225 H 673.537 -4.12311 0.636824 0
M  V30 7226 H 672.167 -3.22724 -0.0702314 0
M  V30 7227 H 671.219 -2.9999 2.33903 0
M  V30 7228 H 672.531 -4.06472 2.89106 0
M  V30 7229 H 671.685 -5.8999 1.41408 0
M  V30 7230 H 670.424 -4.81759 0.758893 0
M  V30 7231 H 669.429 -4.57388 3.05083 0
M  V30 7232 H 670.654 -5.69066 3.70595 0
M  V30 7233 H 668.6 -6.37004 1.56724 0
M  V30 7234 H 668.517 -6.83269 3.23542 0
M  V30 7235 H 669.785 -7.46897 2.2308 0
M  V30 7236 N 674.014 -1.12206 -1.10668 0
M  V30 7237 C 674.962 -0.782918 -2.19028 0
M  V30 7238 C 675.956 0.229175 -1.67843 0
M  V30 7239 O 677.162 0.0876295 -1.79787 0
M  V30 7240 H 673.537 -0.235339 -0.714227 0
M  V30 7241 H 675.508 -1.70527 -2.44874 0
M  V30 7242 C 674.257 -0.25116 -3.46792 0
M  V30 7243 H 673.58 -1.02123 -3.86537 0
M  V30 7244 H 675.02 -0.0521409 -4.23968 0
M  V30 7245 C 673.479 1.02037 -3.21076 0
M  V30 7246 O 674.009 2.09862 -3.42522 0
M  V30 7247 N 672.215 0.946348 -2.74759 0
M  V30 7248 H 671.762 0.068777 -2.57508 0
M  V30 7249 H 671.72 1.79775 -2.57931 0
M  V30 7250 N 675.492 1.28418 -0.913599 0
M  V30 7251 C 676.741 1.94265 -0.542572 0
M  V30 7252 C 677.054 1.72709 0.918207 0
M  V30 7253 O 678.26 2.32778 1.39738 0
M  V30 7254 C 676.716 3.47956 -0.919507 0
M  V30 7255 C 676.324 3.78291 -2.4 0
M  V30 7256 C 678.068 4.19962 -0.619057 0
M  V30 7257 C 675.975 5.2529 -2.71707 0
M  V30 7258 H 674.905 0.727213 -0.199192 0
M  V30 7259 H 677.556 1.45931 -1.11249 0
M  V30 7260 H 675.938 3.9502 -0.278372 0
M  V30 7261 H 677.112 3.42035 -3.08786 0
M  V30 7262 H 675.427 3.19456 -2.67089 0
M  V30 7263 H 678.024 5.28178 -0.832623 0
M  V30 7264 H 678.367 4.13935 0.443126 0
M  V30 7265 H 678.9 3.78674 -1.21865 0
M  V30 7266 H 675.639 5.36394 -3.76778 0
M  V30 7267 H 675.159 5.62743 -2.07559 0
M  V30 7268 H 676.838 5.93027 -2.58703 0
M  V30 7269 N 676.97 0.677563 1.42291 0
M  V30 7270 C 677.933 0.0101085 2.29198 0
M  V30 7271 C 678.933 -0.726219 1.43467 0
M  V30 7272 O 680.123 -0.563807 1.64824 0
M  V30 7273 C 677.255 -0.996316 3.26016 0
M  V30 7274 H 678.448 0.775071 2.89711 0
M  V30 7275 H 676.001 0.440065 1.49977 0
M  V30 7276 H 676.736 -1.78967 2.70446 0
M  V30 7277 H 676.521 -0.471687 3.89253 0
M  V30 7278 H 678.011 -1.46167 3.91184 0
M  V30 7279 N 678.448 -1.51871 0.421078 0
M  V30 7280 C 679.676 -2.06356 -0.14994 0
M  V30 7281 C 680.091 -1.29006 -1.37851 0
M  V30 7282 O 679.448 -0.345139 -1.79207 0
M  V30 7283 C 679.499 -3.58185 -0.488454 0
M  V30 7284 O 679.22 -4.32611 0.691341 0
M  V30 7285 C 680.721 -4.29129 -1.11191 0
M  V30 7286 H 677.941 -0.67083 -0.0151186 0
M  V30 7287 H 680.485 -1.95638 0.595476 0
M  V30 7288 H 678.64 -3.68871 -1.18376 0
M  V30 7289 H 679.054 -5.22927 0.405906 0
M  V30 7290 H 680.528 -5.36501 -1.29889 0
M  V30 7291 H 681.005 -3.86371 -2.0884 0
M  V30 7292 H 681.611 -4.22843 -0.456458 0
M  V30 7293 N 679.926 -0.151884 -1.56866 0
M  V30 7294 C 681.203 0.543328 -1.87902 0
M  V30 7295 C 681.583 1.82636 -1.05864 0
M  V30 7296 O 680.931 2.28028 -0.146868 0
M  V30 7297 C 681.141 0.804056 -3.39611 0
M  V30 7298 C 682.489 1.14267 -4.08935 0
M  V30 7299 O 683.513 0.893248 -3.44818 0
M  V30 7300 O 682.372 1.61229 -5.22176 0
M  V30 7301 H 679.466 0.277724 -0.778973 0
M  V30 7302 H 682.012 -0.188862 -1.68646 0
M  V30 7303 H 680.784 -0.103772 -3.91162 0
M  V30 7304 H 680.407 1.59025 -3.64413 0
M  V30 7305 N 681.404 1.57128 0.121893 0
M  V30 7306 C 682.629 1.89254 0.848385 0
M  V30 7307 C 683.054 0.743527 1.72781 0
M  V30 7308 O 682.412 -0.306056 1.78698 0
M  V30 7309 C 682.46 3.20113 1.66012 0
M  V30 7310 O 681.564 3.05815 2.76679 0
M  V30 7311 H 680.905 0.621103 0.234793 0
M  V30 7312 H 683.435 2.0433 0.10516 0
M  V30 7313 H 683.445 3.52761 2.04996 0
M  V30 7314 H 682.12 4.03336 1.01452 0
M  V30 7315 H 680.697 2.84627 2.40918 0
M  V30 7316 N 682.882 -0.391992 1.52647 0
M  V30 7317 C 684.112 -1.15692 1.71169 0
M  V30 7318 C 684.52 -1.84285 0.428444 0
M  V30 7319 O 683.863 -1.73393 -0.606669 0
M  V30 7320 C 683.925 -2.25033 2.80357 0
M  V30 7321 C 683.589 -1.76433 4.21569 0
M  V30 7322 C 684.586 -1.2427 5.0483 0
M  V30 7323 C 682.271 -1.82746 4.67877 0
M  V30 7324 C 684.265 -0.790657 6.32477 0
M  V30 7325 C 681.952 -1.37153 5.9551 0
M  V30 7326 C 682.95 -0.853997 6.7764 0
M  V30 7327 O 682.638 -0.404708 8.02881 0
M  V30 7328 H 682.37 -0.35297 0.576531 0
M  V30 7329 H 684.924 -0.464994 2.00067 0
M  V30 7330 H 683.154 -2.97641 2.46874 0
M  V30 7331 H 684.843 -2.86718 2.87311 0
M  V30 7332 H 685.609 -1.18752 4.70237 0
M  V30 7333 H 681.488 -2.21971 4.04042 0
M  V30 7334 H 685.032 -0.386024 6.96531 0
M  V30 7335 H 680.929 -1.42356 6.29607 0
M  V30 7336 H 681.697 -0.526459 8.16805 0
M  V30 7337 N 684.36 -1.4356 -0.65026 0
M  V30 7338 C 685.609 -1.44619 -1.406 0
M  V30 7339 C 685.922 -0.0752645 -1.95455 0
M  V30 7340 O 687.128 0.0366832 -2.71475 0
M  V30 7341 C 685.584 -2.54511 -2.54465 0
M  V30 7342 C 685.192 -3.97723 -2.06204 0
M  V30 7343 C 686.936 -2.64768 -3.31811 0
M  V30 7344 C 684.843 -4.99075 -3.17298 0
M  V30 7345 H 683.773 -0.537983 -0.52829 0
M  V30 7346 H 686.424 -1.69559 -0.701561 0
M  V30 7347 H 684.806 -2.22777 -3.27393 0
M  V30 7348 H 685.98 -4.38932 -1.40267 0
M  V30 7349 H 684.295 -3.91538 -1.41729 0
M  V30 7350 H 686.892 -3.37664 -4.14593 0
M  V30 7351 H 687.235 -1.69936 -3.80036 0
M  V30 7352 H 687.768 -2.95817 -2.65964 0
M  V30 7353 H 684.507 -5.95469 -2.74038 0
M  V30 7354 H 684.027 -4.62476 -3.81937 0
M  V30 7355 H 685.706 -5.21913 -3.82382 0
M  V30 7356 N 685.838 0.888903 -1.30139 0
M  V30 7357 C 687.063 1.67884 -1.21777 0
M  V30 7358 C 687.488 1.86848 0.216689 0
M  V30 7359 O 686.846 1.39659 1.15608 0
M  V30 7360 C 686.894 3.03483 -1.94757 0
M  V30 7361 O 685.998 3.92294 -1.27198 0
M  V30 7362 H 685.339 0.513144 -0.421402 0
M  V30 7363 H 687.869 1.10968 -1.71893 0
M  V30 7364 H 687.879 3.53553 -2.03627 0
M  V30 7365 H 686.554 2.89 -2.99085 0
M  V30 7366 H 685.131 3.50732 -1.26655 0
M  V30 7367 N 687.317 1.12792 1.10072 0
M  V30 7368 C 688.563 0.886857 1.82381 0
M  V30 7369 C 688.896 -0.58576 1.85155 0
M  V30 7370 O 688.171 -1.43317 1.31493 0
M  V30 7371 C 688.454 1.46703 3.28862 0
M  V30 7372 C 688.307 3.00829 3.34398 0
M  V30 7373 C 689.626 1.12971 4.25353 0
M  V30 7374 H 686.745 0.32362 0.662148 0
M  V30 7375 H 689.387 1.39513 1.28982 0
M  V30 7376 H 687.537 1.03476 3.74466 0
M  V30 7377 H 689.209 3.52764 2.97247 0
M  V30 7378 H 687.452 3.36164 2.74183 0
M  V30 7379 H 688.123 3.36519 4.3756 0
M  V30 7380 H 690.599 1.50313 3.88001 0
M  V30 7381 H 689.475 1.56223 5.26199 0
M  V30 7382 H 689.736 0.0424452 4.4208 0
M  V30 7383 N 688.795 -1.27931 0.920396 0
M  V30 7384 C 689.743 -2.29061 0.404191 0
M  V30 7385 C 690.737 -1.61615 -0.507634 0
M  V30 7386 O 691.943 -1.75765 -0.388144 0
M  V30 7387 H 688.318 -0.743594 0.112123 0
M  V30 7388 H 690.289 -2.70021 1.27008 0
M  V30 7389 C 689.038 -3.46088 -0.334466 0
M  V30 7390 H 688.361 -3.98194 0.35797 0
M  V30 7391 H 689.801 -4.18829 -0.660196 0
M  V30 7392 C 688.26 -2.99396 -1.54479 0
M  V30 7393 O 688.79 -3.02439 -2.64374 0
M  V30 7394 N 686.996 -2.54978 -1.39408 0
M  V30 7395 H 686.543 -2.52701 -0.500009 0
M  V30 7396 H 686.501 -2.24098 -2.20516 0
M  V30 7397 N 690.273 -0.685099 -1.4193 0
M  V30 7398 C 691.203 -0.0273506 -2.33484 0
M  V30 7399 C 692.184 0.778366 -1.51246 0
M  V30 7400 O 693.369 0.733449 -1.79817 0
M  V30 7401 C 690.499 0.917272 -3.34968 0
M  V30 7402 C 689.453 0.21941 -4.27437 0
M  V30 7403 C 688.779 1.27768 -5.1921 0
M  V30 7404 C 690.079 -0.907894 -5.14349 0
M  V30 7405 H 691.773 -0.791994 -2.88735 0
M  V30 7406 H 689.319 -0.382308 -1.38832 0
M  V30 7407 H 691.272 1.38657 -3.97935 0
M  V30 7408 H 689.996 1.71346 -2.78043 0
M  V30 7409 H 688.655 -0.229757 -3.65879 0
M  V30 7410 H 688.303 2.06612 -4.58607 0
M  V30 7411 H 688.003 0.815803 -5.81909 0
M  V30 7412 H 689.527 1.7477 -5.85054 0
M  V30 7413 H 690.941 -0.519348 -5.70943 0
M  V30 7414 H 689.338 -1.2962 -5.85934 0
M  V30 7415 H 690.408 -1.75218 -4.52136 0
M  V30 7416 N 691.751 1.51645 -0.429126 0
M  V30 7417 C 693.167 1.59394 -0.080994 0
M  V30 7418 C 693.367 1.44064 1.40882 0
M  V30 7419 O 692.423 1.27771 2.17786 0
M  V30 7420 C 693.736 2.94779 -0.593773 0
M  V30 7421 C 695.284 3.08067 -0.553494 0
M  V30 7422 C 695.759 4.45963 -1.04311 0
M  V30 7423 N 697.25 4.5226 -1.00076 0
M  V30 7424 C 697.985 5.57268 -1.35056 0
M  V30 7425 N 697.481 6.69734 -1.77282 0
M  V30 7426 N 699.274 5.47582 -1.26925 0
M  V30 7427 H 691.425 1.59856 -1.39857 0
M  V30 7428 H 693.688 0.753095 -0.575805 0
M  V30 7429 H 693.394 3.11342 -1.63583 0
M  V30 7430 H 693.268 3.77197 -0.0142202 0
M  V30 7431 H 695.655 2.91177 0.479556 0
M  V30 7432 H 695.736 2.27508 -1.16935 0
M  V30 7433 H 695.38 4.63598 -2.07459 0
M  V30 7434 H 695.31 5.25049 -0.403873 0
M  V30 7435 H 697.801 3.71537 -0.690564 0
M  V30 7436 H 698.114 7.4587 -2.02232 0
M  V30 7437 H 696.459 6.70963 -1.81202 0
M  V30 7438 H 699.65 4.58604 -0.93809 0
M  V30 7439 H 699.823 6.29308 -1.54516 0
M  V30 7440 N 693.229 0.160201 1.56784 0
M  V30 7441 C 694.506 -0.533355 1.88188 0
M  V30 7442 C 694.886 -1.82072 1.06831 0
M  V30 7443 O 694.234 -2.27946 0.158959 0
M  V30 7444 C 694.444 -0.786034 3.40033 0
M  V30 7445 C 695.792 -1.12097 4.09536 0
M  V30 7446 O 696.816 -0.874949 3.45287 0
M  V30 7447 O 695.675 -1.58457 5.23023 0
M  V30 7448 H 692.769 -0.273589 0.780434 0
M  V30 7449 H 695.315 0.197803 1.68543 0
M  V30 7450 H 694.087 0.124515 3.91102 0
M  V30 7451 H 693.71 -1.57091 3.65251 0
M  V30 7452 N 694.707 -1.5719 -0.113559 0
M  V30 7453 C 695.953 -1.85412 -0.821597 0
M  V30 7454 C 696.286 -0.746722 -1.7927 0
M  V30 7455 O 695.561 0.246971 -1.92926 0
M  V30 7456 C 695.844 -3.24233 -1.56669 0
M  V30 7457 C 695.697 -4.45578 -0.614823 0
M  V30 7458 C 697.016 -3.60697 -2.52161 0
M  V30 7459 H 694.135 -0.674406 -0.29723 0
M  V30 7460 H 696.777 -1.89807 -0.085694 0
M  V30 7461 H 694.927 -3.20617 -2.19401 0
M  V30 7462 H 696.599 -4.613 0.00407137 0
M  V30 7463 H 694.842 -4.33738 0.0732332 0
M  V30 7464 H 695.513 -5.39395 -1.17292 0
M  V30 7465 H 697.989 -3.65139 -1.99532 0
M  V30 7466 H 696.865 -4.58798 -3.01323 0
M  V30 7467 H 697.126 -2.88403 -3.35076 0
M  V30 7468 N 696.185 0.383891 -1.52853 0
M  V30 7469 C 697.415 1.14783 -1.7178 0
M  V30 7470 C 697.823 1.84055 -0.438211 0
M  V30 7471 O 697.166 1.73713 0.597465 0
M  V30 7472 C 697.228 2.23543 -2.81547 0
M  V30 7473 C 696.892 1.74195 -4.22499 0
M  V30 7474 C 697.889 1.21591 -5.05481 0
M  V30 7475 C 695.574 1.80262 -4.6884 0
M  V30 7476 C 697.568 0.757104 -6.32888 0
M  V30 7477 C 695.255 1.33993 -5.96229 0
M  V30 7478 C 696.253 0.818049 -6.78083 0
M  V30 7479 O 695.941 0.362123 -8.03084 0
M  V30 7480 H 695.673 0.349908 -0.578395 0
M  V30 7481 H 698.227 0.454377 -2.00311 0
M  V30 7482 H 696.457 2.96328 -2.48449 0
M  V30 7483 H 698.146 2.8519 -2.88828 0
M  V30 7484 H 698.912 1.16257 -4.7086 0
M  V30 7485 H 694.791 2.19825 -4.05213 0
M  V30 7486 H 698.335 0.34908 -6.96726 0
M  V30 7487 H 694.232 1.39015 -6.30353 0
M  V30 7488 H 695 0.483134 -8.17073 0
M  V30 7489 N 697.663 1.43903 0.642637 0
M  V30 7490 C 698.626 1.49538 1.73698 0
M  V30 7491 C 699.626 0.378776 1.56275 0
M  V30 7492 O 700.816 0.64095 1.6198 0
M  V30 7493 C 697.948 1.35821 3.12675 0
M  V30 7494 H 699.141 2.47008 1.70079 0
M  V30 7495 H 696.694 1.30824 0.85526 0
M  V30 7496 H 697.429 0.393994 3.21898 0
M  V30 7497 H 697.214 2.16776 3.26727 0
M  V30 7498 H 698.704 1.4272 3.92455 0
M  V30 7499 N 699.141 -0.881989 1.30609 0
M  V30 7500 C 700.557 -1.16576 1.09005 0
M  V30 7501 C 700.757 -2.00961 -0.14727 0
M  V30 7502 O 699.813 -2.38117 -0.840036 0
M  V30 7503 C 701.126 -1.86954 2.35518 0
M  V30 7504 C 702.674 -1.99706 2.41011 0
M  V30 7505 C 703.149 -2.73497 3.67374 0
M  V30 7506 N 704.64 -2.8104 3.68199 0
M  V30 7507 C 705.375 -3.38718 4.62664 0
M  V30 7508 N 704.871 -3.97421 5.67475 0
M  V30 7509 N 706.664 -3.36561 4.50203 0
M  V30 7510 H 698.815 -0.319398 2.09985 0
M  V30 7511 H 701.078 -0.204058 0.925778 0
M  V30 7512 H 700.784 -1.32393 3.2583 0
M  V30 7513 H 700.658 -2.87317 2.44395 0
M  V30 7514 H 703.045 -2.53436 1.51176 0
M  V30 7515 H 703.126 -0.984218 2.36108 0
M  V30 7516 H 702.77 -2.20438 4.57569 0
M  V30 7517 H 702.7 -3.75163 3.6954 0
M  V30 7518 H 705.191 -2.39365 2.92426 0
M  V30 7519 H 705.504 -4.39507 6.35652 0
M  V30 7520 H 703.849 -3.95832 5.71264 0
M  V30 7521 H 707.04 -2.8993 3.67503 0
M  V30 7522 H 707.213 -3.81215 5.24003 0
M  V30 7523 N 700.619 -1.13374 -1.09472 0
M  V30 7524 C 701.844 -0.918711 -1.85942 0
M  V30 7525 C 702.269 0.527225 -1.8056 0
M  V30 7526 O 701.627 1.37408 -1.18274 0
M  V30 7527 C 701.675 -1.41056 -3.31867 0
M  V30 7528 O 700.779 -0.595496 -4.08078 0
M  V30 7529 H 700.12 -0.329297 -0.576593 0
M  V30 7530 H 702.65 -1.50829 -1.38245 0
M  V30 7531 H 702.66 -1.41398 -3.82715 0
M  V30 7532 H 701.335 -2.46335 -3.35099 0
M  V30 7533 H 699.912 -0.659911 -3.67014 0
M  V30 7534 N 702.098 1.27442 -0.927168 0
M  V30 7535 C 703.347 1.93679 -0.563146 0
M  V30 7536 C 703.66 1.73673 0.899837 0
M  V30 7537 O 704.866 2.34247 1.37262 0
M  V30 7538 C 703.322 3.46961 -0.95636 0
M  V30 7539 C 702.93 3.75724 -2.43999 0
M  V30 7540 C 704.674 4.19282 -0.663565 0
M  V30 7541 C 702.581 5.22378 -2.77263 0
M  V30 7542 H 701.511 0.725059 -0.206894 0
M  V30 7543 H 704.162 1.44743 -1.12791 0
M  V30 7544 H 702.544 3.94703 -0.320254 0
M  V30 7545 H 703.718 3.38741 -3.12396 0
M  V30 7546 H 702.033 3.16605 -2.70463 0
M  V30 7547 H 704.63 5.27265 -0.888596 0
M  V30 7548 H 704.973 4.14382 0.399198 0
M  V30 7549 H 705.506 3.7736 -1.25875 0
M  V30 7550 H 702.245 5.32367 -3.82446 0
M  V30 7551 H 701.765 5.6051 -2.13516 0
M  V30 7552 H 703.444 5.9025 -2.64979 0
M  V30 7553 N 703.576 0.692616 1.41565 0
M  V30 7554 C 704.509 -0.025063 2.28186 0
M  V30 7555 C 705.487 -0.790912 1.42068 0
M  V30 7556 O 706.671 -0.782344 1.71498 0
M  V30 7557 C 703.798 -1.04285 3.22246 0
M  V30 7558 C 702.844 -0.370515 4.24888 0
M  V30 7559 S 703.677 0.884942 5.28137 0
M  V30 7560 C 704.833 -0.131324 6.25762 0
M  V30 7561 H 705.066 0.709626 2.88707 0
M  V30 7562 H 702.599 0.482783 1.46658 0
M  V30 7563 H 704.557 -1.62493 3.7697 0
M  V30 7564 H 703.218 -1.7501 2.60827 0
M  V30 7565 H 702.411 -1.13911 4.90959 0
M  V30 7566 H 702.013 0.138411 3.73744 0
M  V30 7567 H 704.305 -0.985527 6.70294 0
M  V30 7568 H 705.248 0.495384 7.06365 0
M  V30 7569 H 705.656 -0.484777 5.62415 0
M  V30 7570 N 705.054 -1.51416 0.437162 0
M  V30 7571 C 705.964 -2.31493 -0.380537 0
M  V30 7572 C 706.98 -1.40399 -1.02782 0
M  V30 7573 O 708.156 -1.73471 -1.02323 0
M  V30 7574 C 705.221 -3.1413 -1.46709 0
M  V30 7575 C 704.282 -4.21003 -0.839953 0
M  V30 7576 C 703.515 -4.9969 -1.87473 0
M  V30 7577 O 703.738 -4.79008 -3.09689 0
M  V30 7578 O 702.672 -5.8379 -1.46536 0
M  V30 7579 H 706.498 -3.02469 0.273183 0
M  V30 7580 H 704.083 -1.48059 0.199706 0
M  V30 7581 H 705.965 -3.65505 -2.09724 0
M  V30 7582 H 704.64 -2.45919 -2.10489 0
M  V30 7583 H 703.547 -3.73706 -0.171752 0
M  V30 7584 H 704.88 -4.91587 -0.245638 0
M  V30 7585 N 706.532 -0.168513 -1.56696 0
M  V30 7586 C 707.465 0.801477 -2.13662 0
M  V30 7587 C 708.443 1.22786 -1.06594 0
M  V30 7588 O 709.627 1.32014 -1.34554 0
M  V30 7589 C 706.754 2.07896 -2.6739 0
M  V30 7590 C 705.8 1.79681 -3.86803 0
M  V30 7591 S 706.633 0.968556 -5.26668 0
M  V30 7592 C 707.789 2.25676 -5.83799 0
M  V30 7593 H 708.022 0.317121 -2.95604 0
M  V30 7594 H 705.555 0.0461132 -1.54331 0
M  V30 7595 H 707.513 2.81272 -2.98992 0
M  V30 7596 H 706.174 2.53445 -1.85539 0
M  V30 7597 H 705.367 2.74461 -4.22714 0
M  V30 7598 H 704.969 1.14402 -3.56073 0
M  V30 7599 H 707.261 3.2116 -5.96542 0
M  V30 7600 H 708.204 1.94238 -6.80939 0
M  V30 7601 H 708.612 2.37308 -5.12197 0
M  V30 7602 N 708.01 1.57248 0.105221 0
M  V30 7603 C 708.94 2.04374 1.12931 0
M  V30 7604 C 709.921 0.93074 1.42377 0
M  V30 7605 O 711.106 1.20136 1.52581 0
M  V30 7606 C 708.236 2.45967 2.45189 0
M  V30 7607 C 707.19 3.60838 2.30174 0
M  V30 7608 C 706.516 3.88374 3.67518 0
M  V30 7609 C 707.816 4.92084 1.75073 0
M  V30 7610 H 709.51 2.9018 0.737287 0
M  V30 7611 H 707.056 1.39601 0.353211 0
M  V30 7612 H 709.009 2.77542 3.17094 0
M  V30 7613 H 707.733 1.57148 2.86308 0
M  V30 7614 H 706.392 3.29493 1.60716 0
M  V30 7615 H 706.04 2.96739 4.06147 0
M  V30 7616 H 705.74 4.65703 3.58321 0
M  V30 7617 H 707.264 4.22415 4.40906 0
M  V30 7618 H 708.678 5.22106 2.36809 0
M  V30 7619 H 707.075 5.73507 1.76662 0
M  V30 7620 H 708.145 4.79684 0.709347 0
M  V30 7621 N 709.488 -0.375779 1.53054 0
M  V30 7622 C 710.904 -0.716764 1.426 0
M  V30 7623 C 711.104 -1.93651 0.556931 0
M  V30 7624 O 710.16 -2.52475 0.0354461 0
M  V30 7625 C 711.473 -0.939499 2.85646 0
M  V30 7626 C 713.021 -1.04015 2.95212 0
M  V30 7627 C 713.496 -1.29543 4.39298 0
M  V30 7628 N 714.987 -1.36335 4.42682 0
M  V30 7629 C 715.722 -1.57778 5.51266 0
M  V30 7630 N 715.218 -1.76604 6.69913 0
M  V30 7631 N 717.011 -1.60065 5.38828 0
M  V30 7632 H 709.162 0.42664 2.08071 0
M  V30 7633 H 711.425 0.128758 0.939215 0
M  V30 7634 H 711.131 -0.115189 3.51511 0
M  V30 7635 H 711.005 -1.85048 3.2869 0
M  V30 7636 H 713.392 -1.85501 2.29507 0
M  V30 7637 H 713.473 -0.106785 2.55577 0
M  V30 7638 H 713.117 -0.485611 5.05573 0
M  V30 7639 H 713.047 -2.24184 4.76497 0
M  V30 7640 H 715.538 -1.23441 3.5717 0
M  V30 7641 H 715.851 -1.9251 7.48438 0
M  V30 7642 H 714.196 -1.73802 6.72917 0
M  V30 7643 H 717.387 -1.44917 4.45103 0
M  V30 7644 H 717.56 -1.76435 6.23518 0
M  V30 7645 N 710.966 -1.44241 -0.634997 0
M  V30 7646 C 711.896 -1.53632 -1.7584 0
M  V30 7647 C 712.877 -0.389603 -1.65578 0
M  V30 7648 O 714.062 -0.609219 -1.84397 0
M  V30 7649 C 711.192 -1.47644 -3.14354 0
M  V30 7650 C 710.146 -2.60752 -3.394 0
M  V30 7651 C 709.472 -2.39817 -4.77904 0
M  V30 7652 C 710.772 -4.02921 -3.32343 0
M  V30 7653 H 712.466 -2.47662 -1.68238 0
M  V30 7654 H 710.012 -1.19197 -0.807969 0
M  V30 7655 H 711.965 -1.52815 -3.92716 0
M  V30 7656 H 710.689 -0.501284 -3.2273 0
M  V30 7657 H 709.348 -2.54965 -2.63417 0
M  V30 7658 H 708.996 -1.40502 -4.82978 0
M  V30 7659 H 708.696 -3.15649 -4.9562 0
M  V30 7660 H 710.22 -2.46799 -5.585 0
M  V30 7661 H 711.634 -4.10098 -4.00615 0
M  V30 7662 H 710.031 -4.78925 -3.61595 0
M  V30 7663 H 711.101 -4.26766 -2.30215 0
M  V30 7664 N 712.444 0.87505 -1.31075 0
M  V30 7665 C 713.391 1.98178 -1.18296 0
M  V30 7666 C 714.361 1.65952 -0.0699923 0
M  V30 7667 O 715.546 1.8926 -0.241951 0
M  V30 7668 C 712.686 3.33399 -0.891024 0
M  V30 7669 C 711.799 3.78253 -2.08684 0
M  V30 7670 C 710.934 5.02166 -1.73212 0
M  V30 7671 C 709.973 5.39455 -2.89231 0
M  V30 7672 N 709.11 6.54549 -2.53989 0
M  V30 7673 H 713.95 2.0844 -2.12971 0
M  V30 7674 H 711.487 1.02047 -1.05948 0
M  V30 7675 H 713.445 4.11246 -0.702338 0
M  V30 7676 H 712.075 3.22794 0.0188799 0
M  V30 7677 H 711.127 2.9623 -2.38646 0
M  V30 7678 H 712.439 4.01821 -2.95536 0
M  V30 7679 H 711.593 5.87666 -1.50777 0
M  V30 7680 H 710.332 4.80491 -0.83544 0
M  V30 7681 H 709.337 4.52477 -3.12321 0
M  V30 7682 H 710.562 5.63098 -3.79601 0
M  V30 7683 H 708.508 6.3443 -1.66838 0
M  V30 7684 H 708.425 6.78035 -3.34372 0
M  V30 7685 H 709.693 7.43254 -2.34934 0
M  V30 7686 N 713.922 1.13953 1.08869 0
M  V30 7687 C 715.17 0.903023 1.80803 0
M  V30 7688 C 715.491 -0.572151 1.86417 0
M  V30 7689 O 714.761 -1.41589 1.35386 0
M  V30 7690 H 713.341 0.331099 0.669614 0
M  V30 7691 H 716.003 1.43719 1.31647 0
M  V30 7692 H 715.099 1.29881 2.83791 0
M  V30 7693 N 715.4 -1.26948 0.933913 0
M  V30 7694 C 716.816 -1.46419 0.635103 0
M  V30 7695 C 717.016 -1.84336 -0.813785 0
M  V30 7696 O 716.072 -1.96061 -1.59111 0
M  V30 7697 C 717.385 -2.55206 1.5903 0
M  V30 7698 C 718.933 -2.69062 1.5992 0
M  V30 7699 C 719.408 -3.81013 2.54152 0
M  V30 7700 N 720.899 -3.88395 2.52395 0
M  V30 7701 C 721.634 -4.74454 3.21996 0
M  V30 7702 N 721.13 -5.64954 4.00997 0
M  V30 7703 N 722.923 -4.68237 3.10983 0
M  V30 7704 H 715.074 -1.00622 1.87053 0
M  V30 7705 H 717.337 -0.503189 0.803433 0
M  V30 7706 H 717.043 -2.34153 2.62422 0
M  V30 7707 H 716.917 -3.52719 1.33677 0
M  V30 7708 H 719.304 -2.89492 0.572569 0
M  V30 7709 H 719.385 -1.72016 1.89325 0
M  V30 7710 H 719.029 -3.61336 3.5693 0
M  V30 7711 H 718.959 -4.77499 2.22041 0
M  V30 7712 H 721.45 -3.23687 1.95025 0
M  V30 7713 H 721.763 -6.27496 4.51074 0
M  V30 7714 H 720.108 -5.6473 4.05099 0
M  V30 7715 H 723.299 -3.96535 2.48753 0
M  V30 7716 H 723.472 -5.35087 3.65494 0
M  V30 7717 N 716.879 -0.700114 -1.41195 0
M  V30 7718 C 717.789 -0.0382854 -2.34569 0
M  V30 7719 C 718.805 0.761036 -1.56474 0
M  V30 7720 O 719.981 0.697553 -1.88934 0
M  V30 7721 C 717.046 0.883522 -3.35253 0
M  V30 7722 C 716.107 0.0758957 -4.29233 0
M  V30 7723 C 715.34 0.9538 -5.25108 0
M  V30 7724 O 715.563 2.19326 -5.26547 0
M  V30 7725 O 714.497 0.401049 -6.00562 0
M  V30 7726 H 718.323 -0.808073 -2.92752 0
M  V30 7727 H 715.908 -0.460479 -1.42127 0
M  V30 7728 H 717.79 1.41199 -3.9704 0
M  V30 7729 H 716.465 1.63272 -2.79506 0
M  V30 7730 H 715.372 -0.497274 -3.7078 0
M  V30 7731 H 716.705 -0.634741 -4.8809 0
M  V30 7732 N 718.357 1.51182 -0.445186 0
M  V30 7733 C 719.773 1.59299 -0.0978954 0
M  V30 7734 C 719.973 1.4555 1.39346 0
M  V30 7735 O 719.029 1.30073 2.16419 0
M  V30 7736 C 720.342 2.94133 -0.625005 0
M  V30 7737 C 721.89 3.07463 -0.586137 0
M  V30 7738 C 722.365 4.44832 -1.09035 0
M  V30 7739 N 723.856 4.51173 -1.04867 0
M  V30 7740 C 724.591 5.55804 -1.40959 0
M  V30 7741 N 724.087 6.67816 -1.84375 0
M  V30 7742 N 725.88 5.46205 -1.32726 0
M  V30 7743 H 718.031 1.58363 -1.41544 0
M  V30 7744 H 720.294 0.746946 -0.58376 0
M  V30 7745 H 720 3.09589 -1.66876 0
M  V30 7746 H 719.874 3.77161 -0.0542262 0
M  V30 7747 H 722.261 2.9167 0.448646 0
M  V30 7748 H 722.342 2.26255 -1.19341 0
M  V30 7749 H 721.986 4.61372 -2.12364 0
M  V30 7750 H 721.916 5.24591 -0.459539 0
M  V30 7751 H 724.407 3.70783 -0.729932 0
M  V30 7752 H 724.72 7.43683 -2.10131 0
M  V30 7753 H 723.065 6.69003 -1.88308 0
M  V30 7754 H 726.256 4.57583 -0.986678 0
M  V30 7755 H 726.429 6.27634 -1.61182 0
M  V30 7756 N 719.835 0.176821 1.56605 0
M  V30 7757 C 720.798 -0.737429 2.17013 0
M  V30 7758 C 721.798 -1.15414 1.11965 0
M  V30 7759 O 722.988 -1.0702 1.37449 0
M  V30 7760 C 720.12 -2.00445 2.75744 0
M  V30 7761 H 721.313 -0.211455 2.99154 0
M  V30 7762 H 718.866 -0.0727582 1.56131 0
M  V30 7763 H 719.601 -2.57338 1.97352 0
M  V30 7764 H 719.386 -1.71456 3.52626 0
M  V30 7765 H 720.876 -2.65679 3.22187 0
M  V30 7766 N 721.313 -1.57302 -0.09688 0
M  V30 7767 C 722.538 -1.9058 -0.818169 0
M  V30 7768 C 722.963 -0.770921 -1.71576 0
M  V30 7769 O 722.321 0.277588 -1.79162 0
M  V30 7770 C 722.369 -3.22714 -1.60898 0
M  V30 7771 O 721.473 -3.10178 -2.71779 0
M  V30 7772 H 720.814 -0.624759 -0.224882 0
M  V30 7773 H 723.344 -2.04471 -0.07264 0
M  V30 7774 H 723.354 -3.55978 -1.99358 0
M  V30 7775 H 722.029 -4.04899 -0.950227 0
M  V30 7776 H 720.606 -2.88424 -2.3636 0
M  V30 7777 N 722.791 0.367657 -1.53252 0
M  V30 7778 C 724.019 1.13119 -1.73239 0
M  V30 7779 C 724.434 1.831 -0.460404 0
M  V30 7780 O 723.791 1.73483 0.566557 0
M  V30 7781 C 723.842 2.16308 -2.89643 0
M  V30 7782 O 723.563 1.49175 -4.1192 0
M  V30 7783 C 725.064 3.05224 -3.21486 0
M  V30 7784 H 722.284 0.338318 -0.579467 0
M  V30 7785 H 724.828 0.42721 -1.99988 0
M  V30 7786 H 722.983 2.82307 -2.65295 0
M  V30 7787 H 723.397 2.17912 -4.7709 0
M  V30 7788 H 724.871 3.73613 -4.06346 0
M  V30 7789 H 725.348 3.69919 -2.36763 0
M  V30 7790 H 725.954 2.44843 -3.47753 0
M  V30 7791 N 724.269 1.44576 0.627338 0
M  V30 7792 C 725.685 1.28546 0.945938 0
M  V30 7793 C 725.885 0.224003 2.00251 0
M  V30 7794 O 724.941 -0.388817 2.49488 0
M  V30 7795 C 726.254 2.65825 1.40561 0
M  V30 7796 C 727.802 2.73566 1.52088 0
M  V30 7797 C 728.277 4.11323 2.01438 0
M  V30 7798 N 729.768 4.13519 2.08702 0
M  V30 7799 C 730.503 5.16964 2.48065 0
M  V30 7800 N 729.999 6.30768 2.86538 0
M  V30 7801 N 731.792 5.04319 2.48232 0
M  V30 7802 H 723.943 2.1228 -0.0713567 0
M  V30 7803 H 726.206 0.947503 0.0307081 0
M  V30 7804 H 725.912 3.44591 0.703539 0
M  V30 7805 H 725.786 2.92969 2.37591 0
M  V30 7806 H 728.173 1.95116 2.21391 0
M  V30 7807 H 728.254 2.50159 0.534237 0
M  V30 7808 H 727.898 4.9025 1.32729 0
M  V30 7809 H 727.828 4.32109 3.0098 0
M  V30 7810 H 730.319 3.31385 1.81638 0
M  V30 7811 H 730.632 7.0551 3.15398 0
M  V30 7812 H 728.977 6.342 2.84281 0
M  V30 7813 H 732.168 4.14465 2.17569 0
M  V30 7814 H 732.341 5.85059 2.78585 0
M  V30 7815 N 725.747 -0.868086 1.31537 0
M  V30 7816 C 726.972 -1.65926 1.24432 0
M  V30 7817 C 727.397 -1.87169 -0.186936 0
M  V30 7818 O 726.755 -1.4148 -1.13371 0
M  V30 7819 C 726.803 -3.00347 1.9956 0
M  V30 7820 O 725.907 -3.90221 1.33422 0
M  V30 7821 H 725.248 -0.506375 0.429512 0
M  V30 7822 H 727.778 -1.0822 1.73637 0
M  V30 7823 H 727.788 -3.50269 2.09226 0
M  V30 7824 H 726.463 -2.84205 3.03645 0
M  V30 7825 H 725.04 -3.48672 1.32219 0
M  V30 7826 N 727.225 -1.14528 -1.08264 0
M  V30 7827 C 728.45 -0.938381 -1.84957 0
M  V30 7828 C 728.875 0.508044 -1.81109 0
M  V30 7829 O 728.233 1.36146 -1.19724 0
M  V30 7830 C 728.281 -1.44568 -3.30352 0
M  V30 7831 O 727.385 -0.638745 -4.07423 0
M  V30 7832 H 726.726 -0.335394 -0.573068 0
M  V30 7833 H 729.256 -1.52287 -1.36637 0
M  V30 7834 H 729.266 -1.45449 -3.81194 0
M  V30 7835 H 727.941 -2.49876 -3.32468 0
M  V30 7836 H 726.518 -0.698801 -3.66294 0
M  V30 7837 N 728.703 1.26451 -0.940633 0
M  V30 7838 C 729.951 1.93395 -0.586748 0
M  V30 7839 C 730.272 1.7417 0.876921 0
M  V30 7840 O 729.542 1.097 1.62304 0
M  V30 7841 H 728.122 0.715687 -0.214012 0
M  V30 7842 H 730.784 1.53902 -1.19584 0
M  V30 7843 H 729.88 3.01565 -0.804059 0
M  V30 7844 N 730.181 0.707592 1.40822 0
M  V30 7845 C 731.429 0.243189 2.00632 0
M  V30 7846 C 731.75 -1.16512 1.56365 0
M  V30 7847 O 731.02 -1.78841 0.799553 0
M  V30 7848 H 729.6 0.0869203 0.741926 0
M  V30 7849 H 732.262 0.911438 1.72275 0
M  V30 7850 H 731.358 0.270014 3.1093 0
M  V30 7851 N 731.66 -1.50943 0.453197 0
M  V30 7852 C 732.937 -1.94872 -0.168633 0
M  V30 7853 C 733.317 -1.39272 -1.5864 0
M  V30 7854 O 732.665 -0.586272 -2.20851 0
M  V30 7855 C 732.875 -3.48757 -0.130217 0
M  V30 7856 C 734.223 -4.23331 -0.327975 0
M  V30 7857 O 735.247 -3.55594 -0.207619 0
M  V30 7858 O 734.106 -5.43529 -0.569077 0
M  V30 7859 H 731.2 -0.818042 -0.121394 0
M  V30 7860 H 733.746 -1.61782 0.512316 0
M  V30 7861 H 732.518 -3.81725 0.860346 0
M  V30 7862 H 732.141 -3.88333 -0.853397 0
M  V30 7863 N 733.138 -0.185124 -1.56509 0
M  V30 7864 C 734.415 0.503348 -1.89013 0
M  V30 7865 C 734.795 1.80349 -1.09715 0
M  V30 7866 O 734.143 2.27665 -0.195203 0
M  V30 7867 C 734.353 0.731839 -3.41241 0
M  V30 7868 C 735.701 1.05568 -4.11267 0
M  V30 7869 O 736.725 0.819906 -3.46635 0
M  V30 7870 O 735.584 1.50116 -5.25478 0
M  V30 7871 H 732.678 0.261139 -0.784688 0
M  V30 7872 H 735.224 -0.224592 -1.68207 0
M  V30 7873 H 733.996 -0.18672 -3.90854 0
M  V30 7874 H 733.619 1.5126 -3.67704 0
M  V30 7875 N 734.616 1.57351 0.0885366 0
M  V30 7876 C 735.863 1.86419 0.790824 0
M  V30 7877 C 736.191 0.774561 1.78412 0
M  V30 7878 O 735.446 -0.23119 1.9433 0
M  V30 7879 C 735.745 3.22098 1.5488 0
M  V30 7880 C 735.411 4.4548 0.697025 0
M  V30 7881 C 734.073 4.78975 0.462237 0
M  V30 7882 C 736.425 5.21094 0.105315 0
M  V30 7883 C 733.753 5.85507 -0.374016 0
M  V30 7884 C 736.105 6.28509 -0.718298 0
M  V30 7885 C 734.769 6.60515 -0.963116 0
M  V30 7886 H 734.039 0.682157 0.289383 0
M  V30 7887 H 736.686 1.91429 0.0520961 0
M  V30 7888 H 734.991 3.12803 2.35927 0
M  V30 7889 H 736.688 3.41819 2.09669 0
M  V30 7890 H 733.278 4.19255 0.890137 0
M  V30 7891 H 737.462 4.95544 0.273856 0
M  V30 7892 H 732.718 6.08713 -0.572606 0
M  V30 7893 H 736.892 6.86268 -1.18362 0
M  V30 7894 H 734.519 7.42893 -1.6129 0
M  V30 7895 N 736.094 -0.359525 1.53444 0
M  V30 7896 C 737.34 -1.09958 1.71116 0
M  V30 7897 C 737.695 -1.8681 0.460414 0
M  V30 7898 O 736.988 -1.83635 -0.5467 0
M  V30 7899 C 737.182 -2.08287 2.90433 0
M  V30 7900 C 737.011 -1.41098 4.26991 0
M  V30 7901 C 735.781 -1.16255 4.91745 0
M  V30 7902 C 737.979 -0.845517 5.07302 0
M  V30 7903 N 735.961 -0.454798 6.12213 0
M  V30 7904 C 737.332 -0.267455 6.19423 0
M  V30 7905 C 739.387 -0.744797 4.92298 0
M  V30 7906 C 738.09 0.401511 7.18179 0
M  V30 7907 C 740.116 -0.0896013 5.91332 0
M  V30 7908 C 739.478 0.47756 7.02779 0
M  V30 7909 H 735.577 -0.387305 0.679352 0
M  V30 7910 H 738.161 -0.38519 1.90852 0
M  V30 7911 H 736.332 -2.77034 2.72226 0
M  V30 7912 H 738.064 -2.75015 2.96899 0
M  V30 7913 H 734.819 -1.44544 4.51003 0
M  V30 7914 H 735.243 -0.116108 6.769 0
M  V30 7915 H 739.885 -1.16905 4.06317 0
M  V30 7916 H 737.603 0.837694 8.03746 0
M  V30 7917 H 741.189 -0.0125162 5.81799 0
M  V30 7918 H 740.069 0.976522 7.78096 0
M  V30 7919 N 737.572 -1.44907 -0.619662 0
M  V30 7920 C 738.819 -1.48292 -1.37898 0
M  V30 7921 C 739.147 -0.119933 -1.9413 0
M  V30 7922 O 738.402 0.879834 -1.74807 0
M  V30 7923 C 738.701 -2.50002 -2.55409 0
M  V30 7924 C 738.367 -3.95031 -2.17397 0
M  V30 7925 C 737.029 -4.34524 -2.06743 0
M  V30 7926 C 739.381 -4.86287 -1.87548 0
M  V30 7927 C 736.709 -5.63183 -1.64445 0
M  V30 7928 C 739.061 -6.15346 -1.4674 0
M  V30 7929 C 737.725 -6.53781 -1.34636 0
M  V30 7930 H 736.995 -0.542638 -0.504603 0
M  V30 7931 H 739.642 -1.78186 -0.701581 0
M  V30 7932 H 737.947 -2.13634 -3.28433 0
M  V30 7933 H 739.644 -2.49864 -3.13639 0
M  V30 7934 H 736.234 -3.63793 -2.26611 0
M  V30 7935 H 740.418 -4.56522 -1.94682 0
M  V30 7936 H 735.674 -5.91769 -1.53687 0
M  V30 7937 H 739.848 -6.85508 -1.22685 0
M  V30 7938 H 737.475 -7.53375 -1.01634 0
M  V30 7939 O 739.089 0.763334 -1.42322 0
M  V30 7940 H 739.78 1.41133 -1.3267 0
M  V30 END ATOM
M  V30 BEGIN BOND
M  V30 END BOND
M  V30 END CTAB
M  END
$$$$
