drugbank_target|Q6PKH6 Dehydrogenase/reductase SDR family member 4-like 2 (DB04200)
 OpenBabel12092120483D

  0  0  0     0  0            999 V3000
M  V30 BEGIN CTAB
M  V30 COUNTS 3522 3545 0 0 0
M  V30 BEGIN ATOM
M  V30 1 H -0.908 1.98254 -0.117106 0
M  V30 2 N 0 1.576 0 0
M  V30 3 C 0.933 2.03868 1.02534 0
M  V30 4 C 1.911 0.928543 1.3348 0
M  V30 5 O 3.095 1.19667 1.45644 0
M  V30 6 C 0.222 2.43627 2.35294 0
M  V30 7 C -0.732 3.65373 2.2001 0
M  V30 8 S 0.101 5.13292 1.52614 0
M  V30 9 C 1.257 5.56322 2.86805 0
M  V30 10 H 1.49 2.90518 0.631377 0
M  V30 11 H -0.977 1.52953 0.210867 0
M  V30 12 H 0.981 2.67203 3.11629 0
M  V30 13 H -0.358 1.57376 2.7183 0
M  V30 14 H -1.165 3.90944 3.18086 0
M  V30 15 H -1.563 3.418 1.51819 0
M  V30 16 H 0.729 5.58782 3.83104 0
M  V30 17 H 1.672 6.56266 2.65933 0
M  V30 18 H 2.08 4.83886 2.90714 0
M  V30 19 N 1.4781 -0.272755 1.55222 0
M  V30 20 C 2.4411 -1.32041 1.87344 0
M  V30 21 C 3.4411 -1.42342 0.74803 0
M  V30 22 O 4.6311 -1.41488 1.0162 0
M  V30 23 C 1.7631 -2.70173 2.07893 0
M  V30 24 H 2.9561 -1.04789 2.80997 0
M  V30 25 H 0.5091 -0.51083 1.47717 0
M  V30 26 H 1.2441 -3.02605 1.16622 0
M  V30 27 H 1.0291 -2.64082 2.89833 0
M  V30 28 H 2.5191 -3.45869 2.34017 0
M  V30 29 N 2.9562 -1.48159 -0.537278 0
M  V30 30 C 4.3722 -1.34118 -0.865129 0
M  V30 31 C 4.5722 -0.346678 -1.98495 0
M  V30 32 O 3.6282 0.234715 -2.51407 0
M  V30 33 C 4.9412 -2.73963 -1.23954 0
M  V30 34 C 6.4892 -2.82397 -1.34984 0
M  V30 35 C 6.9642 -4.22928 -1.75772 0
M  V30 36 N 8.4552 -4.25566 -1.82887 0
M  V30 37 C 9.1902 -5.31235 -2.15817 0
M  V30 38 N 8.6862 -6.47189 -2.47222 0
M  V30 39 N 10.4792 -5.18624 -2.16761 0
M  V30 40 H 2.6302 -2.1144 0.201715 0
M  V30 41 H 4.8932 -0.947598 0.0275949 0
M  V30 42 H 4.5992 -3.48264 -0.490381 0
M  V30 43 H 4.4732 -3.0702 -2.19132 0
M  V30 44 H 6.8602 -2.08356 -2.08978 0
M  V30 45 H 6.9412 -2.5297 -0.379448 0
M  V30 46 H 6.5852 -4.97482 -1.02341 0
M  V30 47 H 6.5152 -4.49794 -2.73848 0
M  V30 48 H 9.0062 -3.41924 -1.60924 0
M  V30 49 H 9.3192 -7.23564 -2.71433 0
M  V30 50 H 7.6642 -6.50476 -2.44757 0
M  V30 51 H 10.8552 -4.27056 -1.91679 0
M  V30 52 H 11.0282 -6.01078 -2.42093 0
M  V30 53 N 4.4343 0.785586 -1.36625 0
M  V30 54 C 5.3643 1.91259 -1.33949 0
M  V30 55 C 6.3453 1.68795 -0.210325 0
M  V30 56 O 7.5303 1.89854 -0.408561 0
M  V30 57 C 4.6603 3.28339 -1.13186 0
M  V30 58 C 3.6143 3.65335 -2.22967 0
M  V30 59 C 2.9403 5.00806 -1.87342 0
M  V30 60 C 4.2403 3.7352 -3.65075 0
M  V30 61 H 5.9343 1.93755 -2.28253 0
M  V30 62 H 3.4803 0.930788 -1.09874 0
M  V30 63 H 5.4333 4.06804 -1.09948 0
M  V30 64 H 4.1573 3.2624 -0.153332 0
M  V30 65 H 2.8163 2.89169 -2.25337 0
M  V30 66 H 2.4643 4.95233 -0.880545 0
M  V30 67 H 2.1643 5.26529 -2.60846 0
M  V30 68 H 3.6883 5.81687 -1.85667 0
M  V30 69 H 5.1023 4.42168 -3.64911 0
M  V30 70 H 3.4993 4.10731 -4.37516 0
M  V30 71 H 4.5693 2.74527 -3.99703 0
M  V30 72 N 5.9124 1.20967 1.01018 0
M  V30 73 C 6.8424 0.988272 2.11555 0
M  V30 74 C 7.8234 -0.0849778 1.69888 0
M  V30 75 O 9.0084 0.0738202 1.9406 0
M  V30 76 C 6.1384 0.546528 3.42973 0
M  V30 77 C 5.0924 1.56375 3.9841 0
M  V30 78 C 4.4184 0.97842 5.25672 0
M  V30 79 C 5.7184 2.94922 4.31066 0
M  V30 80 H 7.4124 1.91276 2.30334 0
M  V30 81 H 4.9584 0.921073 1.1069 0
M  V30 82 H 6.9114 0.378839 4.19694 0
M  V30 83 H 5.6354 -0.413598 3.23971 0
M  V30 84 H 4.2944 1.71891 3.23804 0
M  V30 85 H 3.9424 0.0101688 5.02999 0
M  V30 86 H 3.6424 1.65784 5.63728 0
M  V30 87 H 5.1664 0.821939 6.05043 0
M  V30 88 H 6.5804 2.8288 4.9865 0
M  V30 89 H 4.9774 3.5983 4.80253 0
M  V30 90 H 6.0474 3.4616 3.39561 0
M  V30 91 N 7.3905 -1.2043 1.01659 0
M  V30 92 C 8.6385 -1.89423 0.704522 0
M  V30 93 C 8.9595 -1.79231 -0.768197 0
M  V30 94 O 8.2295 -1.1947 -1.55254 0
M  V30 95 H 6.8095 -0.701178 0.257602 0
M  V30 96 H 9.4715 -1.4626 1.28818 0
M  V30 97 H 8.5675 -2.96052 0.987916 0
M  V30 98 N 8.8686 -0.792821 -1.36206 0
M  V30 99 C 9.7986 -0.207853 -2.32573 0
M  V30 100 C 10.7796 0.659055 -1.56813 0
M  V30 101 O 11.9646 0.592176 -1.84951 0
M  V30 102 C 9.0946 0.655449 -3.41059 0
M  V30 103 C 8.0486 -0.111842 -4.27854 0
M  V30 104 C 7.3746 0.872274 -5.27537 0
M  V30 105 C 8.6746 -1.30299 -5.05786 0
M  V30 106 H 10.3686 -1.01294 -2.81744 0
M  V30 107 H 7.9146 -0.48854 -1.3546 0
M  V30 108 H 9.8676 1.07464 -4.07467 0
M  V30 109 H 8.5916 1.49328 -2.90463 0
M  V30 110 H 7.2506 -0.512053 -3.63006 0
M  V30 111 H 6.8986 1.70523 -4.73214 0
M  V30 112 H 6.5986 0.363291 -5.86476 0
M  V30 113 H 8.1226 1.28996 -5.96818 0
M  V30 114 H 9.5366 -0.959379 -5.65216 0
M  V30 115 H 7.9336 -1.7455 -5.74154 0
M  V30 116 H 9.0036 -2.09663 -4.37229 0
M  V30 117 N 10.3467 1.47872 -0.545128 0
M  V30 118 C 11.5867 2.04391 -0.0187854 0
M  V30 119 C 11.9507 1.41162 1.30144 0
M  V30 120 O 13.1517 1.88656 1.91474 0
M  V30 121 C 11.4227 3.57299 0.0850867 0
M  V30 122 S 12.9817 4.35221 0.559302 0
M  V30 123 H 9.7997 0.710737 -0.0193301 0
M  V30 124 H 12.4017 1.81395 -0.729125 0
M  V30 125 H 11.1057 4.00847 -0.880351 0
M  V30 126 H 10.6367 3.84773 0.819348 0
M  V30 127 H 12.6517 4.61571 1.82118 0
M  V30 128 N 11.8248 0.280983 1.55075 0
M  V30 129 C 12.7878 -0.590896 2.21452 0
M  V30 130 C 13.7878 -1.07682 1.19421 0
M  V30 131 O 14.9778 -0.97605 1.44288 0
M  V30 132 C 12.1098 -1.81587 2.88511 0
M  V30 133 H 13.3028 -0.0112554 2.99898 0
M  V30 134 H 10.8558 0.0316438 1.56268 0
M  V30 135 H 11.5908 -2.43587 2.14093 0
M  V30 136 H 11.3758 -1.4753 3.63287 0
M  V30 137 H 12.8658 -2.43575 3.39206 0
M  V30 138 N 13.3029 -1.57598 0.00835791 0
M  V30 139 C 14.5489 -1.92046 -0.670055 0
M  V30 140 C 14.9039 -0.88351 -1.70915 0
M  V30 141 O 14.1969 0.103223 -1.91322 0
M  V30 142 C 14.3909 -3.3101 -1.34787 0
M  V30 143 C 14.2199 -4.48126 -0.375945 0
M  V30 144 C 12.9899 -5.05297 0.0166914 0
M  V30 145 C 15.1879 -5.1303 0.361272 0
M  V30 146 N 13.1699 -6.05931 0.985952 0
M  V30 147 C 14.5409 -6.08571 1.18495 0
M  V30 148 C 16.5959 -4.9609 0.42421 0
M  V30 149 C 15.2989 -6.88996 2.06584 0
M  V30 150 C 17.3249 -5.77107 1.29236 0
M  V30 151 C 16.6869 -6.72248 2.10386 0
M  V30 152 H 12.7859 -0.75096 -0.218136 0
M  V30 153 H 15.3699 -1.94572 0.0706669 0
M  V30 154 H 13.5409 -3.29342 -2.05884 0
M  V30 155 H 15.2729 -3.52864 -1.98164 0
M  V30 156 H 12.0279 -4.72279 -0.353435 0
M  V30 157 H 12.4519 -6.60932 1.4662 0
M  V30 158 H 17.0939 -4.22378 -0.188915 0
M  V30 159 H 14.8119 -7.62028 2.6896 0
M  V30 160 H 18.3979 -5.66038 1.34508 0
M  V30 161 H 17.2779 -7.33846 2.76476 0
M  V30 162 N 14.781 0.264519 -1.55364 0
M  V30 163 C 15.744 1.31046 -1.88042 0
M  V30 164 C 16.744 1.41943 -0.755569 0
M  V30 165 O 17.934 1.40947 -1.02369 0
M  V30 166 C 15.066 2.69067 -2.09323 0
M  V30 167 H 16.259 1.03297 -2.81549 0
M  V30 168 H 13.812 0.502989 -1.47986 0
M  V30 169 H 14.547 3.01982 -1.18226 0
M  V30 170 H 14.332 2.62542 -2.91229 0
M  V30 171 H 15.822 3.44623 -2.35848 0
M  V30 172 N 16.2591 1.48442 0.529413 0
M  V30 173 C 17.6751 1.34575 0.858004 0
M  V30 174 C 17.8751 0.3572 1.98309 0
M  V30 175 O 16.9311 -0.221379 2.51528 0
M  V30 176 C 18.2441 2.74617 1.22499 0
M  V30 177 C 19.7921 2.83109 1.33484 0
M  V30 178 C 20.2671 4.23854 1.73526 0
M  V30 179 N 21.7581 4.2653 1.80628 0
M  V30 180 C 22.4931 5.32372 2.12997 0
M  V30 181 N 21.9891 6.48491 2.43786 0
M  V30 182 N 23.7821 5.19766 2.14008 0
M  V30 183 H 15.9331 2.1133 -0.212925 0
M  V30 184 H 18.1961 0.947439 -0.0326199 0
M  V30 185 H 17.9021 3.4852 0.471905 0
M  V30 186 H 17.7761 3.08177 2.17501 0
M  V30 187 H 20.1631 2.09462 2.0787 0
M  V30 188 H 20.2441 2.53168 0.366027 0
M  V30 189 H 19.8881 4.98018 0.997013 0
M  V30 190 H 19.8181 4.5124 2.71459 0
M  V30 191 H 22.3091 3.42772 1.59108 0
M  V30 192 H 22.6221 7.24993 2.67592 0
M  V30 193 H 20.9671 6.51765 2.41304 0
M  V30 194 H 24.1581 4.28066 1.89412 0
M  V30 195 H 24.3311 6.02354 2.38902 0
M  V30 196 N 17.7372 -0.778329 1.37039 0
M  V30 197 C 18.6842 -1.89139 1.32269 0
M  V30 198 C 19.6542 -1.65017 0.189387 0
M  V30 199 O 20.8392 -1.87024 0.377693 0
M  V30 200 C 17.9792 -3.26112 1.12894 0
M  V30 201 C 17.0922 -3.62233 2.35396 0
M  V30 202 C 16.2272 -4.8838 2.08946 0
M  V30 203 C 15.2662 -5.17212 3.2735 0
M  V30 204 N 14.4032 -6.34546 3.00492 0
M  V30 205 H 19.2432 -1.92552 2.27437 0
M  V30 206 H 16.7802 -0.941473 1.13025 0
M  V30 207 H 18.7382 -4.05116 0.996835 0
M  V30 208 H 17.3682 -3.22091 0.213758 0
M  V30 209 H 16.4202 -2.78265 2.5937 0
M  V30 210 H 17.7322 -3.79481 3.23721 0
M  V30 211 H 16.8862 -5.75274 1.92729 0
M  V30 212 H 15.6252 -4.73222 1.17949 0
M  V30 213 H 14.6302 -4.28796 3.44113 0
M  V30 214 H 15.8552 -5.34283 4.19188 0
M  V30 215 H 13.8012 -6.20759 2.12118 0
M  V30 216 H 13.7182 -6.52179 3.82358 0
M  V30 217 H 14.9862 -7.24394 2.87879 0
M  V30 218 N 19.2153 -1.21501 -1.00376 0
M  V30 219 C 20.4403 -1.05977 -1.78279 0
M  V30 220 C 20.8653 0.385994 -1.84097 0
M  V30 221 O 20.2233 1.27849 -1.28547 0
M  V30 222 C 20.2713 -1.66302 -3.19963 0
M  V30 223 O 19.3753 -0.909333 -4.0225 0
M  V30 224 H 18.7163 -0.372906 -0.549397 0
M  V30 225 H 21.2463 -1.6107 -1.26165 0
M  V30 226 H 21.2563 -1.70574 -3.70632 0
M  V30 227 H 19.9313 -2.71515 -3.15043 0
M  V30 228 H 18.5083 -0.941795 -3.60811 0
M  V30 229 N 20.6934 1.19889 -1.02296 0
M  V30 230 C 21.9394 1.89701 -0.717033 0
M  V30 231 C 22.2724 1.7905 0.751989 0
M  V30 232 O 21.5474 1.17891 1.547 0
M  V30 233 C 21.8304 3.40858 -1.16136 0
M  V30 234 C 21.6834 3.60411 -2.69117 0
M  V30 235 C 23.0024 4.33876 -0.737549 0
M  V30 236 H 20.1214 0.688874 -0.261957 0
M  V30 237 H 22.7634 1.41154 -1.27183 0
M  V30 238 H 20.9134 3.82335 -0.689342 0
M  V30 239 H 22.5854 3.28145 -3.2422 0
M  V30 240 H 20.8284 3.03665 -3.0979 0
M  V30 241 H 21.4994 4.66396 -2.95261 0
M  V30 242 H 23.9754 4.00081 -1.14344 0
M  V30 243 H 22.8514 5.38242 -1.0764 0
M  V30 244 H 23.1124 4.40628 0.360436 0
M  V30 245 N 22.1715 0.800033 1.35784 0
M  V30 246 C 23.5875 0.482977 1.52117 0
M  V30 247 C 23.7875 -0.996948 1.75109 0
M  V30 248 O 22.8435 -1.78216 1.78872 0
M  V30 249 C 24.1565 1.32264 2.70049 0
M  V30 250 C 25.7045 1.31742 2.83924 0
M  V30 251 C 26.1795 2.14106 4.04874 0
M  V30 252 N 27.6705 2.11607 4.12039 0
M  V30 253 C 28.4055 2.72099 5.04727 0
M  V30 254 N 27.9015 3.41492 6.02789 0
M  V30 255 N 29.6945 2.61776 4.97423 0
M  V30 256 H 21.8455 1.75856 1.19115 0
M  V30 257 H 24.1085 0.748122 0.582252 0
M  V30 258 H 23.8145 2.37261 2.59616 0
M  V30 259 H 23.6885 0.971303 3.6448 0
M  V30 260 H 26.0755 0.275333 2.93813 0
M  V30 261 H 26.1565 1.70859 1.9037 0
M  V30 262 H 25.8005 3.18351 3.95746 0
M  V30 263 H 25.7305 1.72353 4.97596 0
M  V30 264 H 28.2215 1.61112 3.41835 0
M  V30 265 H 28.5345 3.84953 6.70098 0
M  V30 266 H 26.8795 3.45596 6.02983 0
M  V30 267 H 30.0705 2.07157 4.19766 0
M  V30 268 H 30.2435 3.0921 5.69468 0
M  V30 269 N 23.6496 -1.47581 0.552962 0
M  V30 270 C 24.5796 -2.32762 -0.185451 0
M  V30 271 C 25.5606 -1.43527 -0.912905 0
M  V30 272 O 26.7456 -1.72388 -0.894201 0
M  V30 273 C 23.8756 -3.25219 -1.21859 0
M  V30 274 C 22.8296 -4.23661 -0.607864 0
M  V30 275 C 22.1556 -5.05413 -1.74533 0
M  V30 276 C 23.4556 -5.20481 0.435582 0
M  V30 277 H 25.1496 -2.94749 0.525684 0
M  V30 278 H 22.6956 -1.41738 0.254251 0
M  V30 279 H 24.6486 -3.8365 -1.7433 0
M  V30 280 H 23.3726 -2.61279 -1.95961 0
M  V30 281 H 22.0316 -3.66451 -0.104489 0
M  V30 282 H 21.6796 -4.3788 -2.47529 0
M  V30 283 H 21.3796 -5.72059 -1.34249 0
M  V30 284 H 22.9036 -5.66701 -2.27338 0
M  V30 285 H 24.3176 -5.733 -0.00290157 0
M  V30 286 H 22.7146 -5.95305 0.757067 0
M  V30 287 H 23.7846 -4.66217 1.33303 0
M  V30 288 N 25.1277 -0.289203 -1.54924 0
M  V30 289 C 26.0907 0.579144 -2.21762 0
M  V30 290 C 27.0907 1.07047 -1.1999 0
M  V30 291 O 28.2807 0.968384 -1.44803 0
M  V30 292 C 25.4127 1.80055 -2.8947 0
M  V30 293 H 26.6057 -0.00464908 -2.999 0
M  V30 294 H 24.1587 -0.0399306 -1.56249 0
M  V30 295 H 24.8937 2.42449 -2.15381 0
M  V30 296 H 24.6787 1.45602 -3.64064 0
M  V30 297 H 26.1687 2.41773 -3.40493 0
M  V30 298 N 26.6058 1.57591 -0.0167156 0
M  V30 299 C 27.8308 1.9598 0.67872 0
M  V30 300 C 28.2558 0.892546 1.65575 0
M  V30 301 O 27.6138 -0.147772 1.80697 0
M  V30 302 C 27.6618 3.33468 1.37227 0
M  V30 303 O 26.7658 3.28954 2.48722 0
M  V30 304 H 26.1068 0.639339 0.17928 0
M  V30 305 H 28.6368 2.04463 -0.0748802 0
M  V30 306 H 28.6468 3.69417 1.7319 0
M  V30 307 H 27.3218 4.10694 0.656007 0
M  V30 308 H 25.8988 3.04705 2.14963 0
M  V30 309 N 28.0839 -0.256276 1.55502 0
M  V30 310 C 29.3089 -1.00766 1.81276 0
M  V30 311 C 29.7339 -1.78524 0.59252 0
M  V30 312 O 29.0919 -1.75413 -0.45827 0
M  V30 313 C 29.1399 -1.92869 3.04687 0
M  V30 314 O 28.2439 -3.019 2.80945 0
M  V30 315 H 27.5849 -0.287224 0.598664 0
M  V30 316 H 30.1149 -0.280109 2.02674 0
M  V30 317 H 30.1249 -2.34511 3.33869 0
M  V30 318 H 28.7999 -1.35689 3.93143 0
M  V30 319 H 27.3769 -2.64454 2.62904 0
M  V30 320 N 29.562 -1.4872 -0.521534 0
M  V30 321 C 30.978 -1.35028 -0.850855 0
M  V30 322 C 31.178 -0.367712 -1.98116 0
M  V30 323 O 30.234 0.208037 -2.51642 0
M  V30 324 C 31.547 -2.75263 -1.21041 0
M  V30 325 C 33.095 -2.83813 -1.31981 0
M  V30 326 C 33.57 -4.24769 -1.71276 0
M  V30 327 N 35.061 -4.27482 -1.78363 0
M  V30 328 C 35.796 -5.33494 -2.1017 0
M  V30 329 N 35.292 -6.49775 -2.40343 0
M  V30 330 N 37.085 -5.20894 -2.11248 0
M  V30 331 H 29.236 -2.11214 0.22413 0
M  V30 332 H 31.499 -0.947252 0.0376439 0
M  V30 333 H 31.205 -3.48765 -0.453415 0
M  V30 334 H 31.079 -3.09327 -2.15863 0
M  V30 335 H 33.466 -2.10561 -2.06756 0
M  V30 336 H 33.547 -2.53358 -0.352596 0
M  V30 337 H 33.191 -4.9854 -0.970588 0
M  V30 338 H 33.121 -4.52673 -2.69062 0
M  V30 339 H 35.612 -3.43611 -1.57288 0
M  V30 340 H 35.925 -7.26402 -2.63743 0
M  V30 341 H 34.27 -6.53035 -2.37844 0
M  V30 342 H 37.461 -4.29065 -1.87139 0
M  V30 343 H 37.634 -6.03612 -2.35704 0
M  V30 344 N 31.0401 0.771051 -1.3745 0
M  V30 345 C 31.9731 1.89166 -1.27638 0
M  V30 346 C 32.9511 1.61842 -0.156782 0
M  V30 347 O 34.1351 1.85569 -0.331111 0
M  V30 348 C 31.2621 3.24405 -0.973621 0
M  V30 349 C 30.3081 3.70638 -2.1102 0
M  V30 350 S 31.1411 3.84228 -3.73 0
M  V30 351 C 32.2971 5.22313 -3.44876 0
M  V30 352 H 32.5301 1.972 -2.22485 0
M  V30 353 H 30.0631 0.932224 -1.23081 0
M  V30 354 H 32.0211 4.02514 -0.805766 0
M  V30 355 H 30.6821 3.14071 -0.0426279 0
M  V30 356 H 29.8751 4.68685 -1.85338 0
M  V30 357 H 29.4771 2.99632 -2.23822 0
M  V30 358 H 31.7691 6.07505 -2.99908 0
M  V30 359 H 32.7121 5.53008 -4.42253 0
M  V30 360 H 33.1201 4.90284 -2.79789 0
M  V30 361 N 32.5182 1.22032 0.997298 0
M  V30 362 C 33.7462 1.06841 1.7718 0
M  V30 363 C 34.1612 -0.381325 1.84909 0
M  V30 364 O 33.5182 -1.26437 1.31605 0
M  V30 365 C 33.5692 1.66814 3.20711 0
M  V30 366 O 33.2902 3.06116 3.13408 0
M  V30 367 C 34.7912 1.56838 4.14628 0
M  V30 368 H 32.0112 0.374782 0.556578 0
M  V30 369 H 34.5552 1.61532 1.2541 0
M  V30 370 H 32.7102 1.16196 3.69564 0
M  V30 371 H 33.1242 3.34926 4.0364 0
M  V30 372 H 34.5982 2.03532 5.13107 0
M  V30 373 H 35.0752 0.524155 4.36061 0
M  V30 374 H 35.6812 2.06741 3.7167 0
M  V30 375 N 33.9963 -1.19345 1.0293 0
M  V30 376 C 35.4123 -1.41069 0.746446 0
M  V30 377 C 35.6123 -1.90078 -0.668776 0
M  V30 378 O 34.6683 -2.0778 -1.4347 0
M  V30 379 C 35.9813 -2.42141 1.78292 0
M  V30 380 C 37.5293 -2.55887 1.80252 0
M  V30 381 C 38.0043 -3.60214 2.8286 0
M  V30 382 N 39.4953 -3.67711 2.81679 0
M  V30 383 C 40.2303 -4.48128 3.57727 0
M  V30 384 N 39.7263 -5.32248 4.43491 0
M  V30 385 N 41.5193 -4.42782 3.46267 0
M  V30 386 H 33.6703 -0.858536 1.94275 0
M  V30 387 H 35.9333 -0.439541 0.839945 0
M  V30 388 H 35.6393 -2.13155 2.79746 0
M  V30 389 H 35.5133 -3.41323 1.60557 0
M  V30 390 H 37.9003 -2.84196 0.794757 0
M  V30 391 H 37.9813 -1.56858 2.02062 0
M  V30 392 H 37.6253 -3.32647 3.83807 0
M  V30 393 H 37.5553 -4.58895 2.58307 0
M  V30 394 H 40.0463 -3.07634 2.19476 0
M  V30 395 H 40.3593 -5.90729 4.98256 0
M  V30 396 H 38.7043 -5.31707 4.47564 0
M  V30 397 H 41.8953 -3.76107 2.78677 0
M  V30 398 H 42.0683 -5.05215 4.05785 0
M  V30 399 N 35.4744 -0.807222 -1.35358 0
M  V30 400 C 36.8904 -0.491038 -1.51858 0
M  V30 401 C 37.0904 0.987648 -1.75635 0
M  V30 402 O 36.1464 1.77265 -1.79815 0
M  V30 403 C 37.4594 -1.33695 -2.69344 0
M  V30 404 C 39.0074 -1.33246 -2.83222 0
M  V30 405 C 39.4824 -2.1625 -4.03733 0
M  V30 406 N 40.9734 -2.1379 -4.10911 0
M  V30 407 C 41.7084 -2.74772 -5.03277 0
M  V30 408 N 41.2044 -3.44684 -6.0097 0
M  V30 409 N 42.9974 -2.6441 -4.96028 0
M  V30 410 H 35.1484 -1.76485 -1.18181 0
M  V30 411 H 37.4114 -0.751199 -0.578276 0
M  V30 412 H 37.1174 -2.38634 -2.58354 0
M  V30 413 H 36.9914 -0.990618 -3.6396 0
M  V30 414 H 39.3784 -0.290911 -2.93663 0
M  V30 415 H 39.4594 -1.71866 -1.89461 0
M  V30 416 H 39.1034 -3.20445 -3.94052 0
M  V30 417 H 39.0334 -1.74989 -4.96675 0
M  V30 418 H 41.5244 -1.62923 -3.40976 0
M  V30 419 H 41.8374 -3.88501 -6.68047 0
M  V30 420 H 40.1824 -3.48788 -6.01142 0
M  V30 421 H 43.3734 -2.0938 -4.18662 0
M  V30 422 H 43.5464 -3.12225 -5.6782 0
M  V30 423 N 36.9525 1.47285 -0.560781 0
M  V30 424 C 38.2295 1.9558 0.0277798 0
M  V30 425 C 38.6095 1.5034 1.48192 0
M  V30 426 O 37.9575 0.743882 2.16052 0
M  V30 427 C 38.1675 3.48789 -0.121418 0
M  V30 428 C 39.5155 4.24594 0.0220912 0
M  V30 429 O 40.5395 3.56166 -0.0491439 0
M  V30 430 O 39.3985 5.46217 0.175958 0
M  V30 431 H 36.4925 0.824663 0.0621342 0
M  V30 432 H 39.0385 1.5767 -0.627556 0
M  V30 433 H 37.8105 3.74533 -1.13316 0
M  V30 434 H 37.4335 3.93473 0.571366 0
M  V30 435 N 38.4306 0.297415 1.54768 0
M  V30 436 C 39.8416 -0.195947 1.85669 0
M  V30 437 C 40.1926 -1.53707 1.21937 0
M  V30 438 O 39.3176 -2.10164 0.515754 0
M  V30 439 C 39.9126 -0.362318 3.36857 0
M  V30 440 C 38.4716 -0.799901 3.67802 0
M  V30 441 C 37.6186 0.0938578 2.77141 0
M  V30 442 H 40.5696 0.518538 1.4999 0
M  V30 443 H 40.5906 -1.19745 3.61167 0
M  V30 444 H 40.1026 0.613921 3.83214 0
M  V30 445 H 38.2036 -1.78682 3.26961 0
M  V30 446 H 38.3166 -0.621773 4.75048 0
M  V30 447 H 36.6806 -0.426254 2.51108 0
M  V30 448 H 37.4636 1.06639 3.26318 0
M  V30 449 N 39.9087 -1.5758 0.0250728 0
M  V30 450 C 40.8387 -2.13007 -0.956575 0
M  V30 451 C 41.8197 -1.0452 -1.342 0
M  V30 452 O 43.0047 -1.32332 -1.42133 0
M  V30 453 C 40.1347 -2.65386 -2.24026 0
M  V30 454 C 39.0887 -3.78623 -1.99571 0
M  V30 455 C 38.4147 -4.17414 -3.3417 0
M  V30 456 C 39.7147 -5.04867 -1.33814 0
M  V30 457 H 41.4087 -2.9528 -0.494991 0
M  V30 458 H 38.9547 -1.42042 -0.236651 0
M  V30 459 H 40.9077 -3.02794 -2.93076 0
M  V30 460 H 39.6317 -1.80268 -2.72343 0
M  V30 461 H 38.2907 -3.41646 -1.32941 0
M  V30 462 H 37.9387 -3.29284 -3.80238 0
M  V30 463 H 37.6387 -4.93719 -3.18615 0
M  V30 464 H 39.1627 -4.57402 -4.04495 0
M  V30 465 H 40.5767 -5.39888 -1.92857 0
M  V30 466 H 38.9737 -5.86144 -1.28669 0
M  V30 467 H 40.0437 -4.83904 -0.310561 0
M  V30 468 N 41.3868 0.248026 -1.55636 0
M  V30 469 C 42.6148 0.993808 -1.81469 0
M  V30 470 C 43.0298 1.78991 -0.60064 0
M  V30 471 O 42.3868 1.77345 0.430682 0
M  V30 472 C 42.4378 1.93258 -3.05506 0
M  V30 473 O 42.1588 1.16869 -4.22224 0
M  V30 474 C 43.6598 2.79444 -3.4413 0
M  V30 475 H 40.8798 0.292486 -0.603898 0
M  V30 476 H 43.4238 0.271253 -2.02693 0
M  V30 477 H 41.5788 2.60943 -2.86335 0
M  V30 478 H 41.9928 1.80359 -4.92515 0
M  V30 479 H 43.4668 3.41066 -4.34026 0
M  V30 480 H 43.9438 3.50499 -2.64665 0
M  V30 481 H 44.5498 2.17214 -3.65648 0
M  V30 482 N 42.8649 1.48995 0.513639 0
M  V30 483 C 43.8129 1.65199 1.63744 0
M  V30 484 C 44.8069 0.51809 1.61283 0
M  V30 485 O 46.0129 0.697335 1.65943 0
M  V30 486 H 42.3879 0.52069 0.542574 0
M  V30 487 H 44.3589 2.59552 1.47226 0
M  V30 488 C 43.1079 1.72409 3.01945 0
M  V30 489 H 42.4309 2.59029 3.04539 0
M  V30 490 H 43.8709 1.87785 3.80148 0
M  V30 491 C 42.3299 0.46618 3.33659 0
M  V30 492 O 42.8599 -0.413744 3.99564 0
M  V30 493 N 41.0659 0.332931 2.88687 0
M  V30 494 H 40.6129 1.04996 2.35231 0
M  V30 495 H 40.5709 -0.507665 3.10274 0
M  V30 496 N 44.343 -0.763751 1.37857 0
M  V30 497 C 45.29 -1.87726 1.34267 0
M  V30 498 C 46.26 -1.64807 0.206879 0
M  V30 499 O 47.445 -1.86613 0.397508 0
M  V30 500 C 44.585 -3.24896 1.16346 0
M  V30 501 C 43.698 -3.59716 2.39225 0
M  V30 502 C 42.833 -4.86137 2.14114 0
M  V30 503 C 41.872 -5.13711 3.32817 0
M  V30 504 N 41.009 -6.31323 3.07206 0
M  V30 505 H 45.849 -1.90129 2.29466 0
M  V30 506 H 43.386 -0.929433 1.14017 0
M  V30 507 H 45.344 -4.04036 1.03975 0
M  V30 508 H 43.974 -3.21847 0.247909 0
M  V30 509 H 43.026 -2.75498 2.62307 0
M  V30 510 H 44.338 -3.76027 3.27728 0
M  V30 511 H 43.492 -5.73198 1.9882 0
M  V30 512 H 42.231 -4.71945 1.22961 0
M  V30 513 H 41.236 -4.25123 3.48641 0
M  V30 514 H 42.461 -5.29807 4.24832 0
M  V30 515 H 40.407 -6.18474 2.1869 0
M  V30 516 H 40.324 -6.48087 3.89254 0
M  V30 517 H 41.592 -7.213 2.95546 0
M  V30 518 N 45.8211 -1.22559 -0.990812 0
M  V30 519 C 47.0671 -1.05297 -1.73322 0
M  V30 520 C 47.4001 0.410655 -1.89808 0
M  V30 521 O 46.6751 1.30439 -1.44277 0
M  V30 522 C 46.9581 -1.76713 -3.13759 0
M  V30 523 C 46.8111 -3.30684 -3.04907 0
M  V30 524 C 48.1301 -1.52121 -4.12974 0
M  V30 525 H 45.2491 -0.38392 -0.629106 0
M  V30 526 H 47.8911 -1.50926 -1.15418 0
M  V30 527 H 46.0411 -1.37924 -3.63193 0
M  V30 528 H 47.7131 -3.7893 -2.63077 0
M  V30 529 H 45.9561 -3.60253 -2.41661 0
M  V30 530 H 46.6271 -3.75833 -4.04294 0
M  V30 531 H 49.1031 -1.85819 -3.72304 0
M  V30 532 H 47.9791 -2.04582 -5.0935 0
M  V30 533 H 48.2401 -0.454257 -4.3976 0
M  V30 534 N 47.2992 1.18797 -1.03562 0
M  V30 535 C 48.2622 2.20464 -0.626769 0
M  V30 536 C 49.2622 1.57721 0.313173 0
M  V30 537 O 50.4522 1.73917 0.0992615 0
M  V30 538 C 47.5842 3.40802 0.0818498 0
M  V30 539 H 48.7772 2.58149 -1.5264 0
M  V30 540 H 46.3302 1.32593 -0.827578 0
M  V30 541 H 47.0652 3.08642 0.995518 0
M  V30 542 H 46.8502 3.8758 -0.593652 0
M  V30 543 H 48.3402 4.16092 0.354584 0
M  V30 544 N 48.7773 0.814389 1.34928 0
M  V30 545 C 49.7073 0.244827 2.32213 0
M  V30 546 C 50.6883 -0.634024 1.57842 0
M  V30 547 O 51.8733 -0.562676 1.8587 0
M  V30 548 C 49.0033 -0.601106 3.42058 0
M  V30 549 C 47.9573 0.179896 4.27622 0
M  V30 550 C 47.2833 -0.788237 5.28858 0
M  V30 551 C 48.5833 1.38329 5.03649 0
M  V30 552 H 50.2773 1.05763 2.80097 0
M  V30 553 H 47.8233 0.510029 1.34665 0
M  V30 554 H 49.7763 -1.00968 4.09125 0
M  V30 555 H 48.5003 -1.44688 2.92802 0
M  V30 556 H 47.1593 0.569739 3.62146 0
M  V30 557 H 46.8073 -1.62973 4.75866 0
M  V30 558 H 46.5073 -0.269942 5.8698 0
M  V30 559 H 48.0313 -1.19485 5.98795 0
M  V30 560 H 49.4453 1.04918 5.63618 0
M  V30 561 H 47.8423 1.83662 5.71304 0
M  V30 562 H 48.9123 2.16592 4.33839 0
M  V30 563 N 50.2554 -1.46986 0.568584 0
M  V30 564 C 51.5014 -2.02741 0.0488709 0
M  V30 565 C 51.8344 -1.44077 -1.30214 0
M  V30 566 O 51.1094 -0.600552 -1.84996 0
M  V30 567 C 51.3924 -3.60086 -0.032047 0
M  V30 568 C 51.2454 -4.29162 1.34686 0
M  V30 569 C 52.5644 -4.33838 -0.739798 0
M  V30 570 H 49.6834 -0.736749 0.0192338 0
M  V30 571 H 52.3254 -1.75289 0.733065 0
M  V30 572 H 50.4754 -3.83606 -0.61473 0
M  V30 573 H 52.1474 -4.16948 1.97362 0
M  V30 574 H 50.3904 -3.89073 1.91846 0
M  V30 575 H 51.0614 -5.37826 1.24285 0
M  V30 576 H 53.5374 -4.15378 -0.244939 0
M  V30 577 H 52.4134 -5.43537 -0.765406 0
M  V30 578 H 52.6744 -4.03875 -1.79827 0
M  V30 579 N 51.7335 -0.305618 -1.54608 0
M  V30 580 C 52.9615 0.304775 -2.04643 0
M  V30 581 C 53.3765 1.47167 -1.18268 0
M  V30 582 O 52.7335 1.81296 -0.209328 0
M  V30 583 C 52.7845 0.756564 -3.53495 0
M  V30 584 O 52.5055 -0.36389 -4.36586 0
M  V30 585 C 54.0065 1.43163 -4.19546 0
M  V30 586 H 51.2265 0.0655481 -0.667791 0
M  V30 587 H 53.7705 -0.446592 -1.99564 0
M  V30 588 H 51.9255 1.45794 -3.58919 0
M  V30 589 H 52.3395 -0.0113121 -5.24499 0
M  V30 590 H 53.8135 1.69886 -5.25207 0
M  V30 591 H 54.2905 2.37318 -3.69563 0
M  V30 592 H 54.8965 0.773307 -4.18211 0
M  V30 593 N 53.2116 1.57565 -0.0334293 0
M  V30 594 C 54.1746 2.09393 0.932048 0
M  V30 595 C 55.1746 1.00986 1.25134 0
M  V30 596 O 56.3646 1.27129 1.19096 0
M  V30 597 C 53.4966 2.56338 2.2473 0
M  V30 598 H 54.6896 2.95984 0.483085 0
M  V30 599 H 52.2426 1.54819 0.21468 0
M  V30 600 H 52.9776 1.7309 2.74245 0
M  V30 601 H 52.7626 3.35542 2.02865 0
M  V30 602 H 54.2526 2.96646 2.93923 0
M  V30 603 N 54.6897 -0.239769 1.55765 0
M  V30 604 C 55.9147 -0.988373 1.82335 0
M  V30 605 C 56.3397 -1.77886 0.611421 0
M  V30 606 O 55.6977 -1.75889 -0.439639 0
M  V30 607 C 55.7457 -1.89627 3.06715 0
M  V30 608 O 54.8497 -2.98904 2.84131 0
M  V30 609 H 54.1907 -0.280858 0.601677 0
M  V30 610 H 56.7207 -0.258597 2.02959 0
M  V30 611 H 56.7307 -2.30957 3.36338 0
M  V30 612 H 55.4057 -1.31511 3.9456 0
M  V30 613 H 53.9827 -2.61651 2.65694 0
M  V30 614 N 56.1678 -1.49265 -0.50573 0
M  V30 615 C 57.3958 -1.62215 -1.28429 0
M  V30 616 C 57.8108 -0.291697 -1.86533 0
M  V30 617 O 57.1678 0.722233 -1.67601 0
M  V30 618 C 57.2188 -2.68735 -2.41793 0
M  V30 619 O 56.9398 -3.96619 -1.86078 0
M  V30 620 C 58.4408 -2.92346 -3.3324 0
M  V30 621 H 55.6608 -0.546239 -0.389697 0
M  V30 622 H 58.2048 -1.95265 -0.607609 0
M  V30 623 H 56.3598 -2.38476 -3.053 0
M  V30 624 H 56.7738 -4.55256 -2.60465 0
M  V30 625 H 58.2478 -3.70623 -4.09075 0
M  V30 626 H 58.7248 -2.02081 -3.89948 0
M  V30 627 H 59.3308 -3.24003 -2.75503 0
M  V30 628 N 57.6459 0.756429 -1.3826 0
M  V30 629 C 58.9229 1.50584 -1.24835 0
M  V30 630 C 59.3029 2.10556 0.151485 0
M  V30 631 O 58.6509 1.96825 1.1607 0
M  V30 632 C 58.8609 2.57448 -2.3563 0
M  V30 633 C 60.2089 3.24429 -2.73917 0
M  V30 634 O 61.2329 2.67751 -2.34921 0
M  V30 635 O 60.0919 4.26937 -3.41156 0
M  V30 636 H 57.1859 0.667664 -0.48801 0
M  V30 637 H 59.7319 0.792083 -1.5008 0
M  V30 638 H 58.5039 2.11362 -3.29305 0
M  V30 639 H 58.1269 3.36408 -2.11933 0
M  V30 640 N 59.124 1.23083 0.984299 0
M  V30 641 C 60.372 1.05848 1.72165 0
M  V30 642 C 60.693 -0.406049 1.90726 0
M  V30 643 O 59.963 -1.29139 1.47309 0
M  V30 644 H 58.543 0.388685 0.637913 0
M  V30 645 H 61.205 1.54736 1.18503 0
M  V30 646 H 60.301 1.54327 2.71274 0
M  V30 647 N 60.6021 -1.18246 1.0419 0
M  V30 648 C 61.8511 -1.87588 0.741194 0
M  V30 649 C 62.1641 -1.81303 -0.734066 0
M  V30 650 O 63.3701 -2.46019 -1.14834 0
M  V30 651 C 61.8261 -3.36538 1.27555 0
M  V30 652 C 61.4341 -3.51349 2.77953 0
M  V30 653 C 63.1781 -4.11273 1.05143 0
M  V30 654 C 61.0851 -4.94265 3.2474 0
M  V30 655 H 60.0151 -0.702622 0.273565 0
M  V30 656 H 62.6661 -1.33601 1.25789 0
M  V30 657 H 61.0481 -3.9 0.686703 0
M  V30 658 H 62.2221 -3.08153 3.42605 0
M  V30 659 H 60.5371 -2.90022 2.98791 0
M  V30 660 H 63.1341 -5.16689 1.37611 0
M  V30 661 H 63.4771 -4.16298 -0.0112774 0
M  V30 662 H 64.0101 -3.63987 1.60495 0
M  V30 663 H 60.7491 -4.94408 4.30396 0
M  V30 664 H 60.2691 -5.38172 2.64823 0
M  V30 665 H 61.9481 -5.62987 3.18834 0
M  V30 666 N 62.0802 -0.821533 -1.34494 0
M  V30 667 C 63.3282 -0.408139 -1.97936 0
M  V30 668 C 63.6492 1.03193 -1.65457 0
M  V30 669 O 62.9192 1.71622 -0.944595 0
M  V30 670 H 61.4992 -0.147928 -0.732206 0
M  V30 671 H 64.1612 -1.05067 -1.64155 0
M  V30 672 H 63.2572 -0.52601 -3.07635 0
M  V30 673 N 63.5583 1.46682 -0.576371 0
M  V30 674 C 64.8053 2.02412 -0.0595339 0
M  V30 675 C 65.1333 1.44859 1.29793 0
M  V30 676 O 64.3883 0.601099 1.8624 0
M  V30 677 C 64.6873 3.57345 0.062886 0
M  V30 678 C 64.3533 4.33908 -1.22616 0
M  V30 679 C 63.0153 4.54544 -1.57933 0
M  V30 680 C 65.3673 4.77919 -2.07948 0
M  V30 681 C 62.6953 5.16444 -2.78393 0
M  V30 682 C 65.0473 5.41149 -3.27629 0
M  V30 683 C 63.7113 5.60014 -3.63236 0
M  V30 684 H 62.9813 0.74068 -0.021785 0
M  V30 685 H 65.6283 1.76128 -0.751735 0
M  V30 686 H 63.9333 3.82729 0.838178 0
M  V30 687 H 65.6303 3.98136 0.478439 0
M  V30 688 H 62.2203 4.18138 -0.941202 0
M  V30 689 H 66.4043 4.61738 -1.81967 0
M  V30 690 H 61.6603 5.29242 -3.06126 0
M  V30 691 H 65.8343 5.74211 -3.94023 0
M  V30 692 H 63.4613 6.07748 -4.56669 0
M  V30 693 N 65.0364 0.313813 1.54444 0
M  V30 694 C 65.9994 -0.54379 2.22656 0
M  V30 695 C 66.9994 -1.05124 1.21678 0
M  V30 696 O 68.1894 -0.945225 1.46325 0
M  V30 697 C 65.3214 -1.75427 2.92298 0
M  V30 698 H 66.5144 0.0523599 2.99854 0
M  V30 699 H 64.0674 0.0647834 1.56166 0
M  V30 700 H 64.8024 -2.38991 2.19211 0
M  V30 701 H 64.5874 -1.39791 3.66334 0
M  V30 702 H 66.0774 -2.36325 3.44297 0
M  V30 703 N 66.5145 -1.57545 0.0417849 0
M  V30 704 C 67.7635 -1.91494 -0.633492 0
M  V30 705 C 68.0765 -0.921084 -1.72556 0
M  V30 706 O 69.2825 -1.15228 -2.45835 0
M  V30 707 C 67.7385 -3.40072 -1.17808 0
M  V30 708 C 67.3465 -4.47843 -0.118633 0
M  V30 709 C 69.0905 -3.8307 -1.82915 0
M  V30 710 C 66.9975 -5.87529 -0.675578 0
M  V30 711 H 65.9275 -0.714653 -0.24039 0
M  V30 712 H 68.5785 -1.83175 0.109148 0
M  V30 713 H 66.9605 -3.43364 -1.97274 0
M  V30 714 H 68.1345 -4.56128 0.654494 0
M  V30 715 H 66.4495 -4.14128 0.434414 0
M  V30 716 H 69.0465 -4.84794 -2.25563 0
M  V30 717 H 69.3895 -3.1881 -2.67705 0
M  V30 718 H 69.9225 -3.82255 -1.10119 0
M  V30 719 H 66.6615 -6.55362 0.134475 0
M  V30 720 H 66.1815 -5.82824 -1.4169 0
M  V30 721 H 67.8605 -6.36491 -1.1614 0
M  V30 722 N 67.9926 0.231505 -1.5589 0
M  V30 723 C 68.9556 1.27028 -1.90779 0
M  V30 724 C 69.9556 1.40308 -0.785507 0
M  V30 725 O 71.1456 1.38744 -1.05336 0
M  V30 726 C 68.2776 2.64566 -2.14983 0
M  V30 727 H 69.4706 0.973017 -2.83677 0
M  V30 728 H 67.0236 0.471486 -1.49019 0
M  V30 729 H 67.7586 2.99406 -1.24604 0
M  V30 730 H 67.5436 2.56305 -2.96732 0
M  V30 731 H 69.0336 3.39543 -2.43105 0
M  V30 732 N 69.4707 1.49531 0.497807 0
M  V30 733 C 70.8867 1.36365 0.829266 0
M  V30 734 C 71.0867 0.399184 1.97506 0
M  V30 735 O 70.1427 -0.167977 2.51941 0
M  V30 736 C 71.4557 2.77153 1.16647 0
M  V30 737 C 73.0037 2.85877 1.27449 0
M  V30 738 C 73.4787 4.2744 1.64497 0
M  V30 739 N 74.9697 4.30265 1.7154 0
M  V30 740 C 75.7047 5.3677 2.01656 0
M  V30 741 N 75.2007 6.53516 2.29976 0
M  V30 742 N 76.9937 5.24189 2.02934 0
M  V30 743 H 69.1447 2.10831 -0.257703 0
M  V30 744 H 71.4077 0.946534 -0.0527091 0
M  V30 745 H 71.1137 3.49442 0.397872 0
M  V30 746 H 70.9877 3.12722 2.10915 0
M  V30 747 H 73.3747 2.13824 2.0338 0
M  V30 748 H 73.4557 2.53887 0.312244 0
M  V30 749 H 73.0997 5.00021 0.891151 0
M  V30 750 H 73.0297 4.56896 2.61827 0
M  V30 751 H 75.5207 3.4607 1.51802 0
M  V30 752 H 75.8337 7.30506 2.52153 0
M  V30 753 H 74.1787 6.56737 2.27425 0
M  V30 754 H 77.3697 4.31988 1.80289 0
M  V30 755 H 77.5427 6.07286 2.26071 0
M  V30 756 N 70.9488 -0.749086 1.3866 0
M  V30 757 C 72.3648 -1.05276 1.19955 0
M  V30 758 C 72.5648 -2.01435 0.05134 0
M  V30 759 O 71.6208 -2.45232 -0.60147 0
M  V30 760 C 72.9338 -1.62853 2.52783 0
M  V30 761 C 74.4818 -1.75002 2.59506 0
M  V30 762 C 74.9568 -2.35991 3.92521 0
M  V30 763 N 76.4478 -2.43416 3.94085 0
M  V30 764 C 77.1828 -2.91511 4.9377 0
M  V30 765 N 76.6788 -3.39608 6.03853 0
M  V30 766 N 78.4718 -2.90592 4.81157 0
M  V30 767 H 70.6228 -0.111066 2.12109 0
M  V30 768 H 72.8858 -0.111901 0.941373 0
M  V30 769 H 72.5918 -0.99664 3.37283 0
M  V30 770 H 72.4658 -2.61854 2.715 0
M  V30 771 H 74.8528 -2.37317 1.75398 0
M  V30 772 H 74.9338 -0.74693 2.44652 0
M  V30 773 H 74.5778 -1.74308 4.77053 0
M  V30 774 H 74.5078 -3.3695 4.04688 0
M  V30 775 H 76.9988 -2.09405 3.14576 0
M  V30 776 H 77.3118 -3.74775 6.75843 0
M  V30 777 H 75.6568 -3.37653 6.07466 0
M  V30 778 H 78.8478 -2.52332 3.94267 0
M  V30 779 H 79.0208 -3.27762 5.58996 0
M  V30 780 N 72.4269 -1.23603 -0.977757 0
M  V30 781 C 73.3569 -1.04401 -2.0886 0
M  V30 782 C 74.3379 0.0399052 -1.70053 0
M  V30 783 O 75.5229 -0.125246 -1.93796 0
M  V30 784 C 72.6529 -0.637269 -3.41403 0
M  V30 785 C 71.6069 -1.66883 -3.94124 0
M  V30 786 C 70.9329 -1.11745 -5.22893 0
M  V30 787 C 72.2329 -3.06247 -4.23096 0
M  V30 788 H 73.9269 -1.97316 -2.25182 0
M  V30 789 H 71.4729 -0.950096 -1.08209 0
M  V30 790 H 73.4259 -0.48998 -4.18542 0
M  V30 791 H 72.1499 0.327557 -3.24953 0
M  V30 792 H 70.8089 -1.80416 -3.19133 0
M  V30 793 H 70.4569 -0.143527 -5.02795 0
M  V30 794 H 70.1569 -1.80672 -5.59134 0
M  V30 795 H 71.6809 -0.982067 -6.02651 0
M  V30 796 H 73.0949 -2.96001 -4.90975 0
M  V30 797 H 71.4919 -3.72436 -4.70544 0
M  V30 798 H 72.5619 -3.55041 -3.30263 0
M  V30 799 N 73.905 1.17692 -1.04816 0
M  V30 800 C 74.868 2.19787 -0.650117 0
M  V30 801 C 75.868 1.58044 0.296427 0
M  V30 802 O 77.058 1.74012 0.0808097 0
M  V30 803 C 74.19 3.40869 0.0456987 0
M  V30 804 H 75.383 2.56516 -1.5537 0
M  V30 805 H 72.936 1.31708 -0.841594 0
M  V30 806 H 73.671 3.09681 0.962726 0
M  V30 807 H 73.456 3.86928 -0.634727 0
M  V30 808 H 74.946 4.16445 0.310432 0
M  V30 809 N 75.3831 0.828654 1.34056 0
M  V30 810 C 76.3151 0.212052 2.28217 0
M  V30 811 C 77.3281 -0.601362 1.51286 0
M  V30 812 O 78.5171 -0.430104 1.73241 0
M  V30 813 C 75.6171 -0.72088 3.31144 0
M  V30 814 C 74.7901 0.0509587 4.3737 0
M  V30 815 C 73.8491 -0.803766 5.20025 0
M  V30 816 O 72.8751 -0.246667 5.68665 0
M  V30 817 N 74.0771 -2.1227 5.40298 0
M  V30 818 H 76.8421 1.02105 2.81771 0
M  V30 819 H 74.4031 0.686153 1.46641 0
M  V30 820 H 76.3951 -1.29742 3.8334 0
M  V30 821 H 74.9651 -1.43061 2.77943 0
M  V30 822 H 74.1851 0.808831 3.85813 0
M  V30 823 H 75.4731 0.582065 5.0546 0
M  V30 824 H 74.8711 -2.59898 5.02464 0
M  V30 825 H 73.4281 -2.64796 5.95589 0
M  V30 826 N 76.8612 -1.46375 0.584142 0
M  V30 827 C 78.1382 -1.956 0.0033388 0
M  V30 828 C 78.5182 -1.52679 -1.45782 0
M  V30 829 O 77.8662 -0.77816 -2.14842 0
M  V30 830 C 78.0762 -3.48551 0.176891 0
M  V30 831 C 79.4242 -4.24576 0.0454609 0
M  V30 832 O 80.4482 -3.56043 0.105801 0
M  V30 833 O 79.3072 -5.46427 -0.0890376 0
M  V30 834 H 76.4012 -0.825547 -0.0490066 0
M  V30 835 H 78.9472 -1.56652 0.65256 0
M  V30 836 H 77.7192 -3.72683 1.1926 0
M  V30 837 H 77.3422 -3.94332 -0.508695 0
M  V30 838 N 78.3393 -0.321999 -1.54275 0
M  V30 839 C 79.7553 0.0306999 -1.5957 0
M  V30 840 C 79.9553 1.50614 -1.33857 0
M  V30 841 O 79.0113 2.2619 -1.12223 0
M  V30 842 C 80.3243 -0.386122 -2.98211 0
M  V30 843 C 81.8723 -0.336647 -3.11184 0
M  V30 844 C 82.3473 -0.728607 -4.52167 0
M  V30 845 N 83.8383 -0.681952 -4.58152 0
M  V30 846 C 84.5733 -0.957449 -5.6535 0
M  V30 847 N 84.0693 -1.3 -6.80494 0
M  V30 848 N 85.8623 -0.883113 -5.55119 0
M  V30 849 H 78.0133 -1.28332 -1.69247 0
M  V30 850 H 80.2763 -0.521716 -0.791528 0
M  V30 851 H 79.9823 -1.41404 -3.22022 0
M  V30 852 H 79.8563 0.249662 -3.76373 0
M  V30 853 H 82.2433 0.682058 -2.8711 0
M  V30 854 H 82.3243 -1.00734 -2.3513 0
M  V30 855 H 81.9683 -1.74522 -4.76974 0
M  V30 856 H 81.8983 -0.0356152 -5.26588 0
M  V30 857 H 84.3893 -0.428985 -3.75457 0
M  V30 858 H 84.7023 -1.49563 -7.58189 0
M  V30 859 H 83.0473 -1.33824 -6.81994 0
M  V30 860 H 86.2383 -0.615001 -4.64042 0
M  V30 861 H 86.4113 -1.10118 -6.38575 0
M  V30 862 N 79.8174 1.5752 -0.0501392 0
M  V30 863 C 80.7804 2.1037 0.909786 0
M  V30 864 C 81.7804 1.02308 1.24056 0
M  V30 865 O 82.9704 1.28385 1.17741 0
M  V30 866 C 80.1024 2.58708 2.21998 0
M  V30 867 H 81.2954 2.96479 0.451665 0
M  V30 868 H 78.8484 1.55038 0.198248 0
M  V30 869 H 79.5834 1.75989 2.72394 0
M  V30 870 H 79.3684 3.37675 1.99295 0
M  V30 871 H 80.8584 2.99747 2.9076 0
M  V30 872 N 81.2955 -0.223234 1.56011 0
M  V30 873 C 82.2455 -1.28008 1.88674 0
M  V30 874 C 83.2295 -1.42369 0.749663 0
M  V30 875 O 84.4215 -1.45212 1.01205 0
M  V30 876 C 81.5505 -2.63084 2.20548 0
M  V30 877 C 80.6365 -2.52632 3.40643 0
M  V30 878 N 81.0275 -2.11829 4.59306 0
M  V30 879 C 79.3255 -2.83594 3.44224 0
M  V30 880 C 80.0265 -2.12587 5.41463 0
M  V30 881 N 79.0025 -2.5301 4.81131 0
M  V30 882 H 82.8045 -0.955487 2.77935 0
M  V30 883 H 80.3185 -0.431801 1.56554 0
M  V30 884 H 82.3155 -3.39385 2.42122 0
M  V30 885 H 80.9755 -2.96391 1.32599 0
M  V30 886 H 81.9865 -1.82988 4.84496 0
M  V30 887 H 78.6635 -3.21284 2.66614 0
M  V30 888 H 80.0535 -1.83179 6.46448 0
M  V30 889 N 82.7736 -1.49793 -0.48987 0
M  V30 890 C 84.0196 -1.60078 -1.24511 0
M  V30 891 C 84.3526 -0.291608 -1.91998 0
M  V30 892 O 83.6276 0.705647 -1.81248 0
M  V30 893 C 83.9106 -2.76791 -2.30345 0
M  V30 894 C 83.7636 -4.17535 -1.67286 0
M  V30 895 C 85.0826 -2.89111 -3.31817 0
M  V30 896 H 82.2016 -0.582645 -0.451324 0
M  V30 897 H 84.8436 -1.82117 -0.541612 0
M  V30 898 H 82.9936 -2.5813 -2.90346 0
M  V30 899 H 84.6656 -4.4774 -1.11026 0
M  V30 900 H 82.9086 -4.22665 -0.976577 0
M  V30 901 H 83.5796 -4.95094 -2.44103 0
M  V30 902 H 86.0556 -3.06133 -2.81819 0
M  V30 903 H 84.9316 -3.72433 -4.03219 0
M  V30 904 H 85.1926 -1.9893 -3.94815 0
M  V30 905 N 84.2517 0.741722 -1.39055 0
M  V30 906 C 85.4977 1.50336 -1.36113 0
M  V30 907 C 85.8307 1.94148 0.0450796 0
M  V30 908 O 85.1057 1.66301 1.00868 0
M  V30 909 C 85.3887 2.74773 -2.32749 0
M  V30 910 C 85.2417 2.37023 -3.82283 0
M  V30 911 C 86.5607 3.76846 -2.27322 0
M  V30 912 H 83.6797 0.545351 -0.495743 0
M  V30 913 H 86.3217 0.848624 -1.69995 0
M  V30 914 H 84.4717 3.30639 -2.03986 0
M  V30 915 H 86.1437 1.8684 -4.21768 0
M  V30 916 H 84.3867 1.69334 -3.99385 0
M  V30 917 H 85.0577 3.26104 -4.45376 0
M  V30 918 H 87.5337 3.30548 -2.5274 0
M  V30 919 H 86.4097 4.6159 -2.97028 0
M  V30 920 H 86.6707 4.23286 -1.27599 0
M  V30 921 N 85.7298 1.2412 0.971189 0
M  V30 922 C 86.9758 1.08041 1.71625 0
M  V30 923 C 87.3088 -0.380407 1.90438 0
M  V30 924 O 86.5838 -1.28127 1.46334 0
M  V30 925 C 86.8668 1.81682 3.10908 0
M  V30 926 C 86.7198 3.35493 2.99608 0
M  V30 927 C 88.0388 1.58671 4.10501 0
M  V30 928 H 85.1578 0.39388 0.622919 0
M  V30 929 H 87.7998 1.52743 1.13003 0
M  V30 930 H 85.9498 1.43684 3.60953 0
M  V30 931 H 87.6218 3.83068 2.57015 0
M  V30 932 H 85.8648 3.64052 2.35899 0
M  V30 933 H 86.5358 3.82217 3.98264 0
M  V30 934 H 89.0118 1.91719 3.69301 0
M  V30 935 H 87.8878 2.1266 5.06031 0
M  V30 936 H 88.1488 0.524161 4.38982 0
M  V30 937 N 87.2079 -1.17134 1.05439 0
M  V30 938 C 88.4329 -1.91913 0.786396 0
M  V30 939 C 88.8579 -1.7643 -0.652234 0
M  V30 940 O 88.2159 -1.08372 -1.45345 0
M  V30 941 C 88.2639 -3.40921 1.17497 0
M  V30 942 O 87.3679 -4.11244 0.308589 0
M  V30 943 H 86.7089 -0.598215 0.288158 0
M  V30 944 H 89.2389 -1.48457 1.4079 0
M  V30 945 H 89.2489 -3.91668 1.14281 0
M  V30 946 H 87.9239 -3.5151 2.22292 0
M  V30 947 H 86.5009 -3.70731 0.40157 0
M  V30 948 N 88.686 -0.835752 -1.33615 0
M  V30 949 C 89.911 -0.442389 -2.02627 0
M  V30 950 C 90.336 0.947735 -1.62479 0
M  V30 951 O 89.694 1.61907 -0.815826 0
M  V30 952 C 89.742 -0.567216 -3.56111 0
M  V30 953 O 88.846 0.407799 -4.10379 0
M  V30 954 H 88.187 -0.180278 -0.639059 0
M  V30 955 H 90.717 -1.12972 -1.70583 0
M  V30 956 H 90.727 -0.447708 -4.05536 0
M  V30 957 H 89.402 -1.58103 -3.84677 0
M  V30 958 H 87.979 0.246107 -3.72087 0
M  V30 959 N 90.1641 1.46063 -0.591896 0
M  V30 960 C 91.5801 1.57561 -0.254288 0
M  V30 961 C 91.7801 1.58565 1.24336 0
M  V30 962 O 90.8361 1.50753 2.02558 0
M  V30 963 C 92.1491 2.86549 -0.911611 0
M  V30 964 C 93.6971 3.00197 -0.886059 0
M  V30 965 C 94.1721 4.31933 -1.5231 0
M  V30 966 N 95.6631 4.38654 -1.48786 0
M  V30 967 C 96.3981 5.39222 -1.95006 0
M  V30 968 N 95.8941 6.46414 -2.49241 0
M  V30 969 N 97.6871 5.3048 -1.85868 0
M  V30 970 H 89.8381 1.43655 -1.56451 0
M  V30 971 H 92.1011 0.68583 -0.654478 0
M  V30 972 H 91.8071 2.91651 -1.96551 0
M  V30 973 H 91.6811 3.74794 -0.425368 0
M  V30 974 H 94.0681 2.9467 0.159246 0
M  V30 975 H 94.1491 2.13403 -1.41041 0
M  V30 976 H 93.7931 4.38217 -2.56765 0
M  V30 977 H 93.7231 5.17516 -0.973891 0
M  V30 978 H 96.2141 3.61793 -1.09151 0
M  V30 979 H 96.5271 7.19376 -2.82344 0
M  V30 980 H 94.8721 6.47208 -2.53272 0
M  V30 981 H 98.0631 4.45643 -1.43248 0
M  V30 982 H 98.2361 6.08711 -2.22204 0
M  V30 983 N 91.6422 0.330177 1.54103 0
M  V30 984 C 92.5892 -0.532762 2.24567 0
M  V30 985 C 93.5592 -1.10635 1.23892 0
M  V30 986 O 94.7442 -1.14546 1.5259 0
M  V30 987 C 91.8842 -1.6845 3.01195 0
M  V30 988 C 90.9972 -1.13951 4.167 0
M  V30 989 C 90.1322 -2.25746 4.80845 0
M  V30 990 C 89.1712 -1.6853 5.88442 0
M  V30 991 N 88.3082 -2.74014 6.46421 0
M  V30 992 H 93.1482 0.0746905 2.97906 0
M  V30 993 H 90.6852 0.048632 1.4702 0
M  V30 994 H 92.6432 -2.36234 3.43874 0
M  V30 995 H 91.2732 -2.26314 2.30178 0
M  V30 996 H 90.3252 -0.35301 3.78758 0
M  V30 997 H 91.6372 -0.680892 4.94131 0
M  V30 998 H 90.7912 -3.01422 5.26526 0
M  V30 999 H 89.5302 -2.74947 4.0281 0
M  V30 1000 H 88.5352 -0.913543 5.42157 0
M  V30 1001 H 89.7602 -1.20198 6.68378 0
M  V30 1002 H 87.7062 -3.22494 5.71256 0
M  V30 1003 H 87.6232 -2.32735 7.19285 0
M  V30 1004 H 88.8912 -3.49499 6.96757 0
M  V30 1005 N 93.1203 -1.57491 0.0584922 0
M  V30 1006 C 94.0523 -2.08916 -0.942694 0
M  V30 1007 C 95.0653 -1.0185 -1.27006 0
M  V30 1008 O 96.2543 -1.29398 -1.22957 0
M  V30 1009 C 93.3543 -2.52341 -2.26224 0
M  V30 1010 C 92.5273 -3.82827 -2.1157 0
M  V30 1011 C 91.5863 -4.12487 -3.26712 0
M  V30 1012 O 90.6123 -4.82295 -3.02292 0
M  V30 1013 N 91.8143 -3.64978 -4.5141 0
M  V30 1014 H 94.5793 -2.95437 -0.503722 0
M  V30 1015 H 92.1403 -1.61397 -0.12757 0
M  V30 1016 H 94.1323 -2.69254 -3.02133 0
M  V30 1017 H 92.7023 -1.7103 -2.61663 0
M  V30 1018 H 91.9223 -3.75425 -1.20208 0
M  V30 1019 H 93.2103 -4.68263 -1.99015 0
M  V30 1020 H 92.6083 -3.08558 -4.7414 0
M  V30 1021 H 91.1653 -3.87115 -5.2439 0
M  V30 1022 N 94.5984 0.214957 -1.56127 0
M  V30 1023 C 95.5304 1.29004 -1.89448 0
M  V30 1024 C 96.5434 1.42716 -0.783326 0
M  V30 1025 O 97.7324 1.43496 -1.06166 0
M  V30 1026 C 94.8324 2.66482 -2.09381 0
M  V30 1027 C 94.0054 2.74633 -3.40434 0
M  V30 1028 C 93.0644 3.9317 -3.49719 0
M  V30 1029 O 92.0904 3.812 -4.227 0
M  V30 1030 N 93.2924 5.07765 -2.81346 0
M  V30 1031 H 96.0574 1.00743 -2.82261 0
M  V30 1032 H 93.6184 0.40497 -1.56753 0
M  V30 1033 H 95.6104 3.44173 -2.12901 0
M  V30 1034 H 94.1804 2.87314 -1.23163 0
M  V30 1035 H 93.4004 1.83368 -3.48955 0
M  V30 1036 H 94.6884 2.77054 -4.26754 0
M  V30 1037 H 94.0864 5.20386 -2.21843 0
M  V30 1038 H 92.6434 5.83474 -2.90519 0
M  V30 1039 N 96.0765 1.50051 0.48192 0
M  V30 1040 C 97.0245 1.68635 1.60203 0
M  V30 1041 C 98.0185 0.552184 1.60148 0
M  V30 1042 O 99.2245 0.732377 1.64427 0
M  V30 1043 H 95.5995 0.532081 0.531407 0
M  V30 1044 H 97.5705 2.62616 1.41688 0
M  V30 1045 C 96.3195 1.78775 2.9822 0
M  V30 1046 H 95.6425 2.6543 2.98976 0
M  V30 1047 H 97.0825 1.95806 3.7608 0
M  V30 1048 C 95.5415 0.536849 3.32595 0
M  V30 1049 O 96.0715 -0.328897 4.00351 0
M  V30 1050 N 94.2775 0.394091 2.87915 0
M  V30 1051 H 93.8245 1.09962 2.32951 0
M  V30 1052 H 93.7825 -0.441737 3.11281 0
M  V30 1053 N 97.5546 -0.734337 1.39446 0
M  V30 1054 C 98.8006 -1.49613 1.36908 0
M  V30 1055 C 99.1336 -1.94169 -0.0347829 0
M  V30 1056 O 98.4086 -1.66833 -0.999847 0
M  V30 1057 C 98.6916 -2.73534 2.34203 0
M  V30 1058 C 98.5446 -2.34993 3.83534 0
M  V30 1059 C 99.8636 -3.75635 2.29317 0
M  V30 1060 H 96.9826 -0.542714 0.498629 0
M  V30 1061 H 99.6246 -0.839597 1.70443 0
M  V30 1062 H 97.7746 -3.29553 2.05736 0
M  V30 1063 H 99.4466 -1.84601 4.22753 0
M  V30 1064 H 97.6896 -1.67213 4.00278 0
M  V30 1065 H 98.3606 -3.23738 4.47099 0
M  V30 1066 H 100.837 -3.29203 2.54489 0
M  V30 1067 H 99.7126 -4.60008 2.99472 0
M  V30 1068 H 99.9736 -4.22603 1.29842 0
M  V30 1069 N 99.0327 -1.24633 -0.964593 0
M  V30 1070 C 100.31 -0.995809 -1.68354 0
M  V30 1071 C 100.69 0.480964 -2.05548 0
M  V30 1072 O 100.038 1.45599 -1.76105 0
M  V30 1073 C 100.248 -1.92177 -2.91323 0
M  V30 1074 C 101.596 -2.19446 -3.63495 0
M  V30 1075 O 102.62 -1.89855 -3.01386 0
M  V30 1076 O 101.479 -2.69714 -4.75307 0
M  V30 1077 H 98.5727 -0.376854 -0.736146 0
M  V30 1078 H 101.119 -1.35745 -1.0184 0
M  V30 1079 H 99.8907 -2.91938 -2.60553 0
M  V30 1080 H 99.5137 -1.56349 -3.65569 0
M  V30 1081 N 100.511 1.16574 -1.06058 0
M  V30 1082 C 101.443 2.2045 -0.627239 0
M  V30 1083 C 102.456 1.59752 0.313534 0
M  V30 1084 O 103.645 1.78192 0.104896 0
M  V30 1085 C 100.745 3.3875 0.100974 0
M  V30 1086 C 99.9178 4.29008 -0.852687 0
M  V30 1087 C 98.9768 5.25944 -0.164152 0
M  V30 1088 O 98.0028 5.63535 -0.801047 0
M  V30 1089 N 99.2048 5.70075 1.09518 0
M  V30 1090 H 101.97 2.58249 -1.52077 0
M  V30 1091 H 99.5308 1.3156 -0.943594 0
M  V30 1092 H 101.523 4.00638 0.57194 0
M  V30 1093 H 100.093 2.99476 0.89628 0
M  V30 1094 H 99.3128 3.64419 -1.50308 0
M  V30 1095 H 100.601 4.86195 -1.49972 0
M  V30 1096 H 99.9988 5.41624 1.6328 0
M  V30 1097 H 98.5558 6.34067 1.51006 0
M  V30 1098 N 101.989 0.842826 1.3317 0
M  V30 1099 C 102.952 0.284065 2.27433 0
M  V30 1100 C 103.952 -0.54948 1.5112 0
M  V30 1101 O 105.142 -0.362699 1.70382 0
M  V30 1102 C 102.274 -0.599384 3.35589 0
M  V30 1103 H 103.467 1.11589 2.78366 0
M  V30 1104 H 101.02 0.616221 1.4364 0
M  V30 1105 H 101.755 -1.45349 2.89904 0
M  V30 1106 H 101.54 -0.00291266 3.921 0
M  V30 1107 H 103.03 -0.983488 4.05854 0
M  V30 1108 N 103.467 -1.45747 0.599634 0
M  V30 1109 C 104.713 -2.02592 0.0918643 0
M  V30 1110 C 105.046 -1.46806 -1.27128 0
M  V30 1111 O 104.321 -0.639658 -1.83681 0
M  V30 1112 C 104.604 -3.60073 0.0443398 0
M  V30 1113 C 104.457 -4.26208 1.43759 0
M  V30 1114 C 105.776 -4.35309 -0.647608 0
M  V30 1115 H 102.895 -0.736175 0.034857 0
M  V30 1116 H 105.537 -1.73694 0.770081 0
M  V30 1117 H 103.687 -3.84823 -0.533224 0
M  V30 1118 H 105.359 -4.12668 2.06162 0
M  V30 1119 H 103.602 -3.84916 2.00056 0
M  V30 1120 H 104.273 -5.35069 1.35665 0
M  V30 1121 H 106.749 -4.15805 -0.156776 0
M  V30 1122 H 105.625 -5.45038 -0.649942 0
M  V30 1123 H 105.886 -4.07598 -1.71219 0
M  V30 1124 N 104.945 -0.338344 -1.53925 0
M  V30 1125 C 105.908 0.508299 -2.23493 0
M  V30 1126 C 106.908 1.03175 -1.23335 0
M  V30 1127 O 108.098 0.921826 -1.47811 0
M  V30 1128 C 105.23 1.70754 -2.95052 0
M  V30 1129 H 106.423 -0.100058 -2.99733 0
M  V30 1130 H 103.976 -0.0896198 -1.56043 0
M  V30 1131 H 104.711 2.35474 -2.22986 0
M  V30 1132 H 104.496 1.33946 -3.68512 0
M  V30 1133 H 105.986 2.30818 -3.48013 0
M  V30 1134 N 106.423 1.57458 -0.0668435 0
M  V30 1135 C 107.651 1.97624 0.612565 0
M  V30 1136 C 108.066 0.94502 1.63447 0
M  V30 1137 O 107.423 -0.0689276 1.8237 0
M  V30 1138 C 107.474 3.37869 1.28555 0
M  V30 1139 O 107.195 4.3704 0.304557 0
M  V30 1140 C 108.696 3.92882 2.05325 0
M  V30 1141 H 105.916 0.650045 0.166381 0
M  V30 1142 H 108.46 2.04035 -0.137782 0
M  V30 1143 H 106.615 3.3256 1.98702 0
M  V30 1144 H 107.029 5.18565 0.786779 0
M  V30 1145 H 108.503 4.93247 2.47812 0
M  V30 1146 H 108.98 3.29156 2.9078 0
M  V30 1147 H 109.586 4.01577 1.40056 0
M  V30 1148 N 107.901 -0.206675 1.56239 0
M  V30 1149 C 108.831 -1.25909 1.96645 0
M  V30 1150 C 109.812 -1.48097 0.836734 0
M  V30 1151 O 110.997 -1.6003 1.10019 0
M  V30 1152 C 108.127 -2.6058 2.29599 0
M  V30 1153 C 107.081 -2.53024 3.452 0
M  V30 1154 C 106.407 -3.91861 3.63798 0
M  V30 1155 C 107.707 -2.06524 4.79734 0
M  V30 1156 H 109.401 -0.923369 2.84806 0
M  V30 1157 H 106.947 -0.442735 1.37025 0
M  V30 1158 H 108.9 -3.34375 2.56459 0
M  V30 1159 H 107.624 -2.95869 1.38307 0
M  V30 1160 H 106.283 -1.81684 3.18412 0
M  V30 1161 H 105.931 -4.24483 2.69857 0
M  V30 1162 H 105.631 -3.87683 4.4156 0
M  V30 1163 H 107.155 -4.67296 3.93022 0
M  V30 1164 H 108.569 -2.70072 5.05702 0
M  V30 1165 H 106.966 -2.13374 5.60885 0
M  V30 1166 H 108.036 -1.01802 4.74093 0
M  V30 1167 N 109.379 -1.50304 -0.473955 0
M  V30 1168 C 110.311 -1.65109 -1.58971 0
M  V30 1169 C 111.324 -0.532676 -1.53839 0
M  V30 1170 O 112.513 -0.805751 -1.59279 0
M  V30 1171 C 109.613 -1.61684 -2.97845 0
M  V30 1172 C 108.786 -2.8951 -3.27876 0
M  V30 1173 C 107.845 -2.78768 -4.4629 0
M  V30 1174 O 106.871 -3.52722 -4.46739 0
M  V30 1175 N 108.073 -1.9213 -5.47783 0
M  V30 1176 H 110.838 -2.61347 -1.46689 0
M  V30 1177 H 108.399 -1.47732 -0.662324 0
M  V30 1178 H 110.391 -1.52114 -3.75024 0
M  V30 1179 H 108.961 -0.731925 -3.03911 0
M  V30 1180 H 108.181 -3.13228 -2.39336 0
M  V30 1181 H 109.469 -3.74199 -3.4475 0
M  V30 1182 H 108.867 -1.31353 -5.50239 0
M  V30 1183 H 107.424 -1.88466 -6.23958 0
M  V30 1184 N 110.857 0.726932 -1.39834 0
M  V30 1185 C 112.105 1.4837 -1.37225 0
M  V30 1186 C 112.426 1.94979 0.0284857 0
M  V30 1187 O 111.696 1.69555 0.981213 0
M  V30 1188 H 110.276 0.55043 -0.505011 0
M  V30 1189 H 112.938 0.862468 -1.74778 0
M  V30 1190 H 112.034 2.36198 -2.04003 0
M  V30 1191 N 112.336 1.25143 0.95797 0
M  V30 1192 C 113.246 1.06968 2.08794 0
M  V30 1193 C 114.262 0.00773911 1.73998 0
M  V30 1194 O 115.438 0.207972 2.00323 0
M  V30 1195 C 112.503 0.68691 3.39827 0
M  V30 1196 C 111.564 1.82641 3.88511 0
M  V30 1197 C 110.797 1.46181 5.1329 0
M  V30 1198 O 111.02 0.355971 5.69288 0
M  V30 1199 O 109.954 2.29085 5.566 0
M  V30 1200 H 113.78 2.01723 2.27027 0
M  V30 1201 H 111.365 1.04051 1.07209 0
M  V30 1202 H 113.247 0.485417 4.18595 0
M  V30 1203 H 111.922 -0.231417 3.22872 0
M  V30 1204 H 110.829 2.08274 3.10762 0
M  V30 1205 H 112.162 2.72386 4.09959 0
M  V30 1206 N 113.814 -1.1601 1.06675 0
M  V30 1207 C 115.062 -1.86264 0.784229 0
M  V30 1208 C 115.383 -1.82328 -0.691488 0
M  V30 1209 O 114.653 -1.25947 -1.50047 0
M  V30 1210 H 113.233 -0.689621 0.28711 0
M  V30 1211 H 115.895 -1.40664 1.34906 0
M  V30 1212 H 114.991 -2.91595 1.11259 0
M  V30 1213 N 115.292 -0.849877 -1.32721 0
M  V30 1214 C 116.222 -0.306308 -2.31482 0
M  V30 1215 C 117.203 0.591952 -1.59468 0
M  V30 1216 O 118.388 0.513199 -1.87296 0
M  V30 1217 C 115.518 0.510204 -3.43532 0
M  V30 1218 C 114.472 -0.293209 -4.26994 0
M  V30 1219 C 113.798 0.647743 -5.30762 0
M  V30 1220 C 115.098 -1.51634 -4.99804 0
M  V30 1221 H 116.792 -1.13153 -2.77195 0
M  V30 1222 H 114.338 -0.545553 -1.33266 0
M  V30 1223 H 116.291 0.900856 -4.11658 0
M  V30 1224 H 115.015 1.36874 -2.96535 0
M  V30 1225 H 113.674 -0.665555 -3.60508 0
M  V30 1226 H 113.322 1.50299 -4.8002 0
M  V30 1227 H 113.022 0.11422 -5.87489 0
M  V30 1228 H 114.546 1.03567 -6.01753 0
M  V30 1229 H 115.96 -1.19824 -5.60638 0
M  V30 1230 H 114.357 -1.98745 -5.66234 0
M  V30 1231 H 115.427 -2.28018 -4.27943 0
M  V30 1232 N 116.77 1.45427 -0.607355 0
M  V30 1233 C 117.995 2.07124 -0.107006 0
M  V30 1234 C 118.42 1.44906 1.19933 0
M  V30 1235 O 117.778 0.541687 1.73019 0
M  V30 1236 C 117.826 3.60595 0.0194119 0
M  V30 1237 O 116.93 3.98285 1.0697 0
M  V30 1238 H 116.271 0.659868 -0.0739597 0
M  V30 1239 H 118.801 1.86683 -0.837297 0
M  V30 1240 H 118.811 4.07419 0.2177 0
M  V30 1241 H 117.486 4.05266 -0.934453 0
M  V30 1242 H 116.063 3.63133 0.847889 0
M  V30 1243 N 118.248 0.346503 1.53744 0
M  V30 1244 C 119.494 -0.249473 2.0126 0
M  V30 1245 C 119.827 -1.49965 1.23386 0
M  V30 1246 O 119.102 -1.91811 0.32229 0
M  V30 1247 C 119.385 -0.560643 3.55709 0
M  V30 1248 C 119.238 0.701836 4.44291 0
M  V30 1249 C 120.557 -1.36905 4.18264 0
M  V30 1250 H 117.676 -0.0891987 0.731582 0
M  V30 1251 H 120.318 0.467624 1.84156 0
M  V30 1252 H 118.468 -1.17156 3.70414 0
M  V30 1253 H 120.14 1.33974 4.41417 0
M  V30 1254 H 118.383 1.32612 4.13033 0
M  V30 1255 H 119.054 0.43933 5.50249 0
M  V30 1256 H 121.53 -0.852448 4.07275 0
M  V30 1257 H 120.406 -1.55553 5.26398 0
M  V30 1258 H 120.667 -2.37203 3.73078 0
M  V30 1259 N 119.726 -1.57421 0.075193 0
M  V30 1260 C 120.954 -1.97946 -0.602076 0
M  V30 1261 C 121.369 -0.953674 -1.62943 0
M  V30 1262 O 120.726 0.0592551 -1.82404 0
M  V30 1263 C 120.777 -3.38546 -1.26762 0
M  V30 1264 O 120.498 -4.37195 -0.281376 0
M  V30 1265 C 121.999 -3.93966 -2.03239 0
M  V30 1266 H 119.219 -0.650918 -0.162931 0
M  V30 1267 H 121.763 -2.03959 0.148601 0
M  V30 1268 H 119.918 -3.33609 -1.96936 0
M  V30 1269 H 120.332 -5.18975 -0.759267 0
M  V30 1270 H 121.806 -4.94555 -2.45193 0
M  V30 1271 H 122.283 -3.30693 -2.8903 0
M  V30 1272 H 122.889 -4.02315 -1.37924 0
M  V30 1273 N 121.204 0.198386 -1.56346 0
M  V30 1274 C 122.452 0.91747 -1.80075 0
M  V30 1275 C 122.773 1.83929 -0.647692 0
M  V30 1276 O 122.043 1.93029 0.334166 0
M  V30 1277 H 120.623 0.341774 -0.664228 0
M  V30 1278 H 123.285 0.204684 -1.93822 0
M  V30 1279 H 122.381 1.51055 -2.7311 0
M  V30 1280 N 122.682 1.50554 0.465978 0
M  V30 1281 C 123.91 1.65563 1.24083 0
M  V30 1282 C 124.325 0.341051 1.85694 0
M  V30 1283 O 123.682 -0.677543 1.69457 0
M  V30 1284 C 123.733 2.75051 2.34583 0
M  V30 1285 O 123.454 4.01413 1.75497 0
M  V30 1286 C 124.955 3.01078 3.25372 0
M  V30 1287 H 122.175 0.55638 0.375077 0
M  V30 1288 H 124.719 1.96807 0.555624 0
M  V30 1289 H 122.874 2.46486 2.9887 0
M  V30 1290 H 123.288 4.62002 2.48303 0
M  V30 1291 H 124.762 3.81339 3.99105 0
M  V30 1292 H 125.239 2.12349 3.84453 0
M  V30 1293 H 125.845 3.31194 2.66816 0
M  V30 1294 N 124.16 -0.719506 1.40217 0
M  V30 1295 C 125.406 -1.48152 1.38488 0
M  V30 1296 C 125.739 -1.94195 -0.0141867 0
M  V30 1297 O 125.014 -1.67884 -0.982096 0
M  V30 1298 C 125.297 -2.71035 2.37091 0
M  V30 1299 C 125.15 -2.30912 3.86005 0
M  V30 1300 C 126.469 -3.73182 2.33288 0
M  V30 1301 H 123.588 -0.537395 0.504357 0
M  V30 1302 H 126.23 -0.821472 1.71324 0
M  V30 1303 H 124.38 -3.27352 2.0922 0
M  V30 1304 H 126.052 -1.80107 4.24687 0
M  V30 1305 H 124.295 -1.62958 4.02029 0
M  V30 1306 H 124.966 -3.18978 4.50508 0
M  V30 1307 H 127.442 -3.26485 2.57966 0
M  V30 1308 H 126.318 -4.56806 3.04334 0
M  V30 1309 H 126.579 -4.21202 1.34317 0
M  V30 1310 N 125.638 -1.25649 -0.95132 0
M  V30 1311 C 126.878 -1.11802 -1.71113 0
M  V30 1312 C 127.242 0.334758 -1.89059 0
M  V30 1313 O 128.443 0.595121 -2.62129 0
M  V30 1314 C 126.714 -1.85512 -3.05483 0
M  V30 1315 S 128.273 -1.87597 -3.96677 0
M  V30 1316 H 125.091 -0.399552 -0.588115 0
M  V30 1317 H 127.693 -1.59222 -1.1344 0
M  V30 1318 H 126.397 -2.90299 -2.90094 0
M  V30 1319 H 125.928 -1.38493 -3.68216 0
M  V30 1320 H 127.943 -0.955389 -4.86916 0
M  V30 1321 N 127.117 1.15442 -1.07289 0
M  V30 1322 C 128.067 2.18164 -0.662467 0
M  V30 1323 C 129.051 1.57845 0.312074 0
M  V30 1324 O 130.243 1.76552 0.125905 0
M  V30 1325 C 127.372 3.43246 -0.0611295 0
M  V30 1326 C 126.458 4.1062 -1.06077 0
M  V30 1327 N 126.849 4.53491 -2.24008 0
M  V30 1328 C 125.147 4.36949 -0.893964 0
M  V30 1329 C 125.848 5.05731 -2.87422 0
M  V30 1330 N 124.824 4.99236 -2.15091 0
M  V30 1331 H 128.626 2.49038 -1.56068 0
M  V30 1332 H 126.14 1.32003 -0.945988 0
M  V30 1333 H 128.137 4.16145 0.250792 0
M  V30 1334 H 126.797 3.13854 0.832207 0
M  V30 1335 H 127.808 4.46898 -2.6173 0
M  V30 1336 H 124.485 4.17466 -0.0534693 0
M  V30 1337 H 125.875 5.48865 -3.87553 0
M  V30 1338 N 128.595 0.856903 1.32268 0
M  V30 1339 C 129.841 0.462069 1.97466 0
M  V30 1340 C 130.174 -0.980298 1.67642 0
M  V30 1341 O 129.449 -1.68824 0.965858 0
M  V30 1342 C 129.732 0.704336 3.53145 0
M  V30 1343 C 129.585 2.19529 3.9259 0
M  V30 1344 C 130.904 0.1622 4.39801 0
M  V30 1345 H 128.023 0.169357 0.717278 0
M  V30 1346 H 130.665 1.07574 1.56614 0
M  V30 1347 H 128.815 0.181999 3.88073 0
M  V30 1348 H 130.487 2.78387 3.67829 0
M  V30 1349 H 128.73 2.67292 3.41668 0
M  V30 1350 H 129.401 2.31549 5.01088 0
M  V30 1351 H 131.877 0.608905 4.11621 0
M  V30 1352 H 130.753 0.361265 5.4771 0
M  V30 1353 H 131.014 -0.935158 4.32096 0
M  V30 1354 N 130.073 -1.45103 0.615059 0
M  V30 1355 C 131.321 -2.01784 0.112955 0
M  V30 1356 C 131.642 -1.48504 -1.26378 0
M  V30 1357 O 130.912 -0.682245 -1.83636 0
M  V30 1358 H 129.492 -0.745993 0.0387668 0
M  V30 1359 H 132.154 -1.77808 0.798141 0
M  V30 1360 H 131.25 -3.12025 0.0684069 0
M  V30 1361 N 131.551 -0.354651 -1.53558 0
M  V30 1362 C 132.498 0.496968 -2.25386 0
M  V30 1363 C 133.468 1.0865 -1.25636 0
M  V30 1364 O 134.653 1.12104 -1.54394 0
M  V30 1365 C 131.793 1.63637 -3.03837 0
M  V30 1366 C 130.906 1.07307 -4.18461 0
M  V30 1367 C 130.041 2.18068 -4.84376 0
M  V30 1368 C 129.08 1.59147 -5.91049 0
M  V30 1369 N 128.217 2.63695 -6.50699 0
M  V30 1370 H 133.057 -0.122075 -2.9775 0
M  V30 1371 H 130.594 -0.0720154 -1.46924 0
M  V30 1372 H 132.552 2.30734 -3.47589 0
M  V30 1373 H 131.182 2.22623 -2.33749 0
M  V30 1374 H 130.234 0.292708 -3.79272 0
M  V30 1375 H 131.546 0.602193 -4.95152 0
M  V30 1376 H 130.7 2.93007 -5.31255 0
M  V30 1377 H 129.439 2.68504 -4.07133 0
M  V30 1378 H 128.444 0.827175 -5.43542 0
M  V30 1379 H 129.669 1.09549 -6.70206 0
M  V30 1380 H 127.615 3.13365 -5.76315 0
M  V30 1381 H 127.532 2.21263 -7.22896 0
M  V30 1382 H 128.8 3.3837 -7.02229 0
M  V30 1383 N 133.029 1.57378 -0.0835403 0
M  V30 1384 C 133.992 2.12252 0.864959 0
M  V30 1385 C 134.992 1.04916 1.21858 0
M  V30 1386 O 136.182 1.30853 1.14991 0
M  V30 1387 C 133.314 2.63358 2.16461 0
M  V30 1388 H 134.507 2.97371 0.388676 0
M  V30 1389 H 132.06 1.55423 0.165317 0
M  V30 1390 H 132.795 1.81727 2.686 0
M  V30 1391 H 132.58 3.41826 1.92087 0
M  V30 1392 H 134.07 3.05847 2.84337 0
M  V30 1393 N 134.507 -0.190092 1.56449 0
M  V30 1394 C 135.417 -1.25591 1.98152 0
M  V30 1395 C 136.433 -1.49519 0.889944 0
M  V30 1396 O 137.609 -1.62036 1.19609 0
M  V30 1397 C 134.674 -2.57916 2.3169 0
M  V30 1398 C 133.735 -2.42015 3.5458 0
M  V30 1399 C 132.968 -3.6803 3.8651 0
M  V30 1400 O 133.191 -4.72413 3.1966 0
M  V30 1401 O 132.125 -3.6326 4.79923 0
M  V30 1402 H 135.951 -0.931988 2.89046 0
M  V30 1403 H 133.536 -0.395488 1.4407 0
M  V30 1404 H 135.418 -3.36008 2.54316 0
M  V30 1405 H 134.093 -2.89925 1.43963 0
M  V30 1406 H 133 -1.62017 3.37196 0
M  V30 1407 H 134.333 -2.14937 4.4279 0
M  V30 1408 N 135.985 -1.50799 -0.457987 0
M  V30 1409 C 137.262 -1.52968 -1.21902 0
M  V30 1410 C 137.642 -0.281906 -2.09209 0
M  V30 1411 O 136.99 0.734076 -2.16388 0
M  V30 1412 C 137.2 -2.8326 -2.03875 0
M  V30 1413 C 138.548 -3.34425 -2.6162 0
M  V30 1414 O 139.572 -2.8467 -2.14106 0
M  V30 1415 O 138.431 -4.21188 -3.48228 0
M  V30 1416 H 135.525 -0.614129 -0.553873 0
M  V30 1417 H 138.071 -1.63098 -0.468739 0
M  V30 1418 H 136.843 -3.65543 -1.39621 0
M  V30 1419 H 136.466 -2.76195 -2.8601 0
M  V30 1420 N 137.463 0.71206 -1.40597 0
M  V30 1421 C 138.879 1.02058 -1.22704 0
M  V30 1422 C 139.079 2.01228 -0.104729 0
M  V30 1423 O 138.135 2.4674 0.53624 0
M  V30 1424 C 139.448 1.56094 -2.57012 0
M  V30 1425 C 140.996 1.6806 -2.64054 0
M  V30 1426 C 141.471 2.25501 -3.9864 0
M  V30 1427 N 142.962 2.32882 -4.004 0
M  V30 1428 C 143.697 2.78317 -5.01325 0
M  V30 1429 N 143.193 3.23478 -6.12645 0
M  V30 1430 N 144.986 2.77733 -4.88693 0
M  V30 1431 H 137.137 0.0547896 -2.12329 0
M  V30 1432 H 139.4 0.0869027 -0.944008 0
M  V30 1433 H 139.106 0.906865 -3.39807 0
M  V30 1434 H 138.98 2.54564 -2.78347 0
M  V30 1435 H 141.367 2.32583 -1.81629 0
M  V30 1436 H 141.448 0.681802 -2.46546 0
M  V30 1437 H 141.092 1.61598 -4.81506 0
M  V30 1438 H 141.022 3.26102 -4.13479 0
M  V30 1439 H 143.513 2.00991 -3.20017 0
M  V30 1440 H 143.826 3.56725 -6.85542 0
M  V30 1441 H 142.171 3.21429 -6.16205 0
M  V30 1442 H 145.362 2.4179 -4.00818 0
M  V30 1443 H 145.535 3.12826 -5.67489 0
M  V30 1444 N 138.941 1.26152 0.944643 0
M  V30 1445 C 139.851 1.09176 2.07648 0
M  V30 1446 C 140.867 0.0261935 1.7398 0
M  V30 1447 O 142.043 0.229208 2.00091 0
M  V30 1448 C 139.108 0.722915 3.39079 0
M  V30 1449 C 138.169 1.86752 3.86552 0
M  V30 1450 C 137.402 1.51617 5.11711 0
M  V30 1451 O 137.625 0.416331 5.68879 0
M  V30 1452 O 136.559 2.34975 5.54139 0
M  V30 1453 H 140.385 2.0412 2.24875 0
M  V30 1454 H 137.97 1.05182 1.061 0
M  V30 1455 H 139.852 0.529787 4.18056 0
M  V30 1456 H 138.527 -0.197159 3.23099 0
M  V30 1457 H 137.434 2.11558 3.08535 0
M  V30 1458 H 138.767 2.76719 4.07047 0
M  V30 1459 N 140.419 -1.14872 1.07899 0
M  V30 1460 C 141.835 -1.37776 0.805606 0
M  V30 1461 C 142.035 -1.92743 -0.587555 0
M  V30 1462 O 141.091 -2.13678 -1.34528 0
M  V30 1463 C 142.404 -2.34361 1.88402 0
M  V30 1464 C 143.952 -2.48012 1.90942 0
M  V30 1465 C 144.427 -3.47893 2.97883 0
M  V30 1466 N 145.918 -3.55433 2.97021 0
M  V30 1467 C 146.653 -4.32553 3.76412 0
M  V30 1468 N 146.149 -5.12959 4.65666 0
M  V30 1469 N 147.942 -4.27697 3.64735 0
M  V30 1470 H 140.093 -0.775365 1.97742 0
M  V30 1471 H 142.356 -0.403521 0.857831 0
M  V30 1472 H 142.062 -2.01098 2.88535 0
M  V30 1473 H 141.936 -3.34206 1.74889 0
M  V30 1474 H 144.323 -2.8057 0.914579 0
M  V30 1475 H 144.404 -1.48147 2.08534 0
M  V30 1476 H 144.048 -3.16069 3.97571 0
M  V30 1477 H 143.978 -4.47527 2.77538 0
M  V30 1478 H 146.469 -2.98048 2.32326 0
M  V30 1479 H 146.782 -5.69065 5.22862 0
M  V30 1480 H 145.127 -5.12245 4.69712 0
M  V30 1481 H 148.318 -3.63949 2.94378 0
M  V30 1482 H 148.491 -4.8755 4.26848 0
M  V30 1483 N 141.898 -0.863906 -1.31812 0
M  V30 1484 C 142.828 -0.330843 -2.31144 0
M  V30 1485 C 143.809 0.575005 -1.60087 0
M  V30 1486 O 144.994 0.493304 -1.8783 0
M  V30 1487 C 142.124 0.47374 -3.44054 0
M  V30 1488 C 141.078 -0.338481 -4.26659 0
M  V30 1489 C 140.404 0.591412 -5.31419 0
M  V30 1490 C 141.704 -1.56926 -4.98168 0
M  V30 1491 H 143.398 -1.16086 -2.75979 0
M  V30 1492 H 140.944 -0.559657 -1.32679 0
M  V30 1493 H 142.897 0.857143 -4.12591 0
M  V30 1494 H 141.621 1.33721 -2.9797 0
M  V30 1495 H 140.28 -0.703754 -3.59782 0
M  V30 1496 H 139.928 1.45199 -4.81587 0
M  V30 1497 H 139.628 0.0519022 -5.87577 0
M  V30 1498 H 141.152 0.97179 -6.02817 0
M  V30 1499 H 142.566 -1.25764 -5.59336 0
M  V30 1500 H 140.963 -2.04739 -5.64094 0
M  V30 1501 H 142.033 -2.32544 -4.25501 0
M  V30 1502 N 143.376 1.44774 -0.622745 0
M  V30 1503 C 144.622 2.0242 -0.124083 0
M  V30 1504 C 144.955 1.4881 1.24777 0
M  V30 1505 O 144.23 0.668799 1.8264 0
M  V30 1506 C 144.513 3.59957 -0.101619 0
M  V30 1507 C 144.366 4.23867 -1.50521 0
M  V30 1508 C 145.685 4.36284 0.578272 0
M  V30 1509 H 142.804 0.735528 -0.0465645 0
M  V30 1510 H 145.446 1.72447 -0.797617 0
M  V30 1511 H 143.596 3.85623 0.471934 0
M  V30 1512 H 145.268 4.09336 -2.12701 0
M  V30 1513 H 143.511 3.81684 -2.06154 0
M  V30 1514 H 144.182 5.32843 -1.4416 0
M  V30 1515 H 146.658 4.16001 0.0906057 0
M  V30 1516 H 145.534 5.46004 0.563149 0
M  V30 1517 H 145.795 4.10271 1.64713 0
M  V30 1518 N 144.854 0.36279 1.53368 0
M  V30 1519 C 145.817 -0.472679 2.24273 0
M  V30 1520 C 146.817 -1.012 1.24961 0
M  V30 1521 O 148.007 -0.898194 1.49259 0
M  V30 1522 C 145.139 -1.66039 2.97731 0
M  V30 1523 H 146.332 0.14773 2.99536 0
M  V30 1524 H 143.885 0.114434 1.55881 0
M  V30 1525 H 144.62 -2.31896 2.26704 0
M  V30 1526 H 144.405 -1.28066 3.70596 0
M  V30 1527 H 145.895 -2.25252 3.51641 0
M  V30 1528 N 146.332 -1.57332 0.0918853 0
M  V30 1529 C 147.265 -2.09499 -0.904735 0
M  V30 1530 C 148.243 -1.00479 -1.27839 0
M  V30 1531 O 149.427 -1.27954 -1.38419 0
M  V30 1532 C 146.554 -2.56931 -2.2069 0
M  V30 1533 C 145.6 -3.77579 -1.98334 0
M  V30 1534 S 146.433 -5.21317 -1.22428 0
M  V30 1535 C 147.589 -5.72097 -2.53882 0
M  V30 1536 H 147.822 -2.93705 -0.460922 0
M  V30 1537 H 145.355 -1.53923 -0.121332 0
M  V30 1538 H 147.313 -2.84917 -2.95521 0
M  V30 1539 H 145.974 -1.72956 -2.62192 0
M  V30 1540 H 145.167 -4.08824 -2.94752 0
M  V30 1541 H 144.769 -3.5007 -1.31633 0
M  V30 1542 H 147.061 -5.80168 -3.49874 0
M  V30 1543 H 148.004 -6.70654 -2.27219 0
M  V30 1544 H 148.412 -5.00012 -2.62007 0
M  V30 1545 N 147.81 0.181792 -1.56548 0
M  V30 1546 C 148.773 1.20894 -1.94724 0
M  V30 1547 C 149.773 1.37738 -0.829747 0
M  V30 1548 O 150.963 1.35323 -1.09697 0
M  V30 1549 C 148.095 2.57593 -2.23291 0
M  V30 1550 H 149.288 0.882275 -2.86629 0
M  V30 1551 H 146.841 0.423838 -1.50444 0
M  V30 1552 H 147.576 2.95291 -1.34067 0
M  V30 1553 H 147.361 2.46735 -3.04736 0
M  V30 1554 H 148.851 3.31637 -2.53785 0
M  V30 1555 N 149.288 1.51039 0.449983 0
M  V30 1556 C 150.534 1.63322 1.20223 0
M  V30 1557 C 150.867 0.34241 1.91158 0
M  V30 1558 O 150.142 -0.657344 1.83055 0
M  V30 1559 C 150.425 2.82801 2.22925 0
M  V30 1560 C 150.278 4.21823 1.56157 0
M  V30 1561 C 151.597 2.97807 3.24035 0
M  V30 1562 H 148.716 0.594407 0.435718 0
M  V30 1563 H 151.358 1.83489 0.493136 0
M  V30 1564 H 149.508 2.65738 2.834 0
M  V30 1565 H 151.18 4.50526 0.991162 0
M  V30 1566 H 149.423 4.25105 0.864172 0
M  V30 1567 H 150.094 5.01391 2.30891 0
M  V30 1568 H 152.57 3.13497 2.73603 0
M  V30 1569 H 151.446 3.82992 3.93202 0
M  V30 1570 H 151.707 2.09328 3.89402 0
M  V30 1571 N 150.766 -0.704594 1.40972 0
M  V30 1572 C 151.713 -1.81862 1.42109 0
M  V30 1573 C 152.683 -1.63781 0.276593 0
M  V30 1574 O 153.868 -1.84759 0.4763 0
M  V30 1575 C 151.008 -3.19669 1.30022 0
M  V30 1576 C 150.121 -3.49246 2.54267 0
M  V30 1577 C 149.256 -4.76618 2.3454 0
M  V30 1578 C 148.295 -4.99133 3.54306 0
M  V30 1579 N 147.432 -6.17726 3.33706 0
M  V30 1580 H 152.272 -1.80226 2.37324 0
M  V30 1581 H 149.809 -0.880238 1.17857 0
M  V30 1582 H 151.767 -3.99263 1.21018 0
M  V30 1583 H 150.397 -3.20506 0.384192 0
M  V30 1584 H 149.449 -2.64125 2.73756 0
M  V30 1585 H 150.761 -3.61788 3.43381 0
M  V30 1586 H 149.915 -5.64249 2.22952 0
M  V30 1587 H 148.654 -4.66305 1.42867 0
M  V30 1588 H 147.659 -4.09953 3.66359 0
M  V30 1589 H 148.884 -5.11311 4.4692 0
M  V30 1590 H 146.83 -6.08642 2.44725 0
M  V30 1591 H 146.747 -6.30995 4.16391 0
M  V30 1592 H 148.015 -7.08115 3.25873 0
M  V30 1593 N 152.244 -1.26651 -0.937939 0
M  V30 1594 C 153.174 -1.10993 -2.05433 0
M  V30 1595 C 154.155 -0.0142161 -1.70094 0
M  V30 1596 O 155.34 -0.186837 -1.93299 0
M  V30 1597 C 152.47 -0.745561 -3.39203 0
M  V30 1598 C 151.424 -1.79337 -3.88616 0
M  V30 1599 C 150.75 -1.28324 -5.19073 0
M  V30 1600 C 152.05 -3.19553 -4.13138 0
M  V30 1601 H 153.744 -2.0438 -2.1879 0
M  V30 1602 H 151.29 -0.984041 -1.05131 0
M  V30 1603 H 153.243 -0.622888 -4.16771 0
M  V30 1604 H 151.967 0.22401 -3.25831 0
M  V30 1605 H 150.626 -1.90477 -3.13231 0
M  V30 1606 H 150.274 -0.303414 -5.02084 0
M  V30 1607 H 149.974 -1.98369 -5.53103 0
M  V30 1608 H 151.498 -1.1733 -5.99221 0
M  V30 1609 H 152.912 -3.11471 -4.81309 0
M  V30 1610 H 151.309 -3.87218 -4.58457 0
M  V30 1611 H 152.379 -3.65368 -3.18801 0
M  V30 1612 N 153.722 1.14298 -1.08507 0
M  V30 1613 C 154.672 2.17449 -0.685569 0
M  V30 1614 C 155.656 1.58167 0.295315 0
M  V30 1615 O 156.848 1.76675 0.107172 0
M  V30 1616 C 153.977 3.43161 -0.0975318 0
M  V30 1617 C 153.063 4.09471 -1.10426 0
M  V30 1618 N 153.454 4.51089 -2.28806 0
M  V30 1619 C 151.752 4.35976 -0.940258 0
M  V30 1620 C 152.453 5.02654 -2.9277 0
M  V30 1621 N 151.429 4.96927 -2.20374 0
M  V30 1622 H 155.231 2.47369 -1.587 0
M  V30 1623 H 152.745 1.30992 -0.959936 0
M  V30 1624 H 154.742 4.16388 0.20664 0
M  V30 1625 H 153.402 3.14719 0.798872 0
M  V30 1626 H 154.413 4.44097 -2.66455 0
M  V30 1627 H 151.09 4.17386 -0.0977441 0
M  V30 1628 H 152.48 5.44723 -3.93352 0
M  V30 1629 N 155.201 0.870884 1.31352 0
M  V30 1630 C 156.449 0.48132 1.96285 0
M  V30 1631 C 156.77 -0.969813 1.69173 0
M  V30 1632 O 156.04 -1.67998 1.00764 0
M  V30 1633 H 154.62 0.175002 0.726212 0
M  V30 1634 H 157.282 1.11087 1.60143 0
M  V30 1635 H 156.378 0.639825 3.05471 0
M  V30 1636 N 156.679 -1.44442 0.630414 0
M  V30 1637 C 157.927 -2.01653 0.134351 0
M  V30 1638 C 158.248 -1.49836 -1.24796 0
M  V30 1639 O 157.518 -0.701684 -1.82902 0
M  V30 1640 H 156.098 -0.74554 0.0466769 0
M  V30 1641 H 158.76 -1.76952 0.816955 0
M  V30 1642 H 157.856 -3.11935 0.101498 0
M  V30 1643 N 158.157 -0.370918 -1.53173 0
M  V30 1644 C 159.406 0.218249 -2.00516 0
M  V30 1645 C 159.719 1.49429 -1.26215 0
M  V30 1646 O 160.925 2.16239 -1.64174 0
M  V30 1647 C 159.381 0.43948 -3.57207 0
M  V30 1648 C 158.989 -0.822244 -4.4039 0
M  V30 1649 C 160.733 0.986012 -4.1289 0
M  V30 1650 C 158.64 -0.570304 -5.88644 0
M  V30 1651 H 157.57 0.0853333 -0.749156 0
M  V30 1652 H 160.221 -0.490483 -1.76823 0
M  V30 1653 H 158.603 1.20961 -3.77074 0
M  V30 1654 H 159.777 -1.59557 -4.32294 0
M  V30 1655 H 158.092 -1.29238 -3.95836 0
M  V30 1656 H 160.689 1.18991 -5.21292 0
M  V30 1657 H 161.032 1.94972 -3.6782 0
M  V30 1658 H 161.565 0.27592 -3.96842 0
M  V30 1659 H 158.304 -1.50449 -6.38001 0
M  V30 1660 H 157.824 0.164427 -5.99575 0
M  V30 1661 H 159.503 -0.19784 -6.46697 0
M  V30 1662 N 159.635 1.57281 -0.100228 0
M  V30 1663 C 160.912 1.86014 0.604812 0
M  V30 1664 C 161.292 0.998025 1.86018 0
M  V30 1665 O 160.64 0.0718184 2.28387 0
M  V30 1666 C 160.85 3.36784 0.915278 0
M  V30 1667 C 162.198 4.04957 1.27651 0
M  V30 1668 O 163.222 3.41695 1.00613 0
M  V30 1669 O 162.081 5.16593 1.7831 0
M  V30 1670 H 159.175 0.76942 0.303185 0
M  V30 1671 H 161.721 1.69176 -0.133313 0
M  V30 1672 H 160.493 3.91292 0.0248896 0
M  V30 1673 H 160.116 3.58987 1.70921 0
M  V30 1674 N 161.113 -0.173488 1.56642 0
M  V30 1675 C 162.362 -0.888758 1.81063 0
M  V30 1676 C 162.675 -1.83506 0.67712 0
M  V30 1677 O 163.881 -2.59254 0.806206 0
M  V30 1678 C 162.337 -1.63091 3.20826 0
M  V30 1679 C 161.945 -0.728357 4.4204 0
M  V30 1680 C 163.689 -2.33454 3.54541 0
M  V30 1681 C 161.596 -1.47062 5.72823 0
M  V30 1682 H 160.526 -0.335618 0.675186 0
M  V30 1683 H 163.177 -0.141712 1.82952 0
M  V30 1684 H 161.559 -2.42263 3.13248 0
M  V30 1685 H 162.733 0.0262449 4.60793 0
M  V30 1686 H 161.048 -0.134492 4.16183 0
M  V30 1687 H 163.645 -2.89578 4.49498 0
M  V30 1688 H 163.988 -3.08687 2.79317 0
M  V30 1689 H 164.521 -1.61227 3.63663 0
M  V30 1690 H 161.26 -0.760658 6.51072 0
M  V30 1691 H 160.78 -2.1986 5.58052 0
M  V30 1692 H 162.459 -2.01868 6.14702 0
M  V30 1693 N 162.591 -1.51276 -0.441967 0
M  V30 1694 C 163.521 -1.752 -1.54361 0
M  V30 1695 C 164.502 -0.601682 -1.59103 0
M  V30 1696 O 165.687 -0.843913 -1.74905 0
M  V30 1697 C 162.817 -1.87282 -2.92477 0
M  V30 1698 C 161.771 -3.02687 -3.02596 0
M  V30 1699 C 161.097 -2.99947 -4.42647 0
M  V30 1700 C 162.397 -4.4273 -2.77106 0
M  V30 1701 H 164.091 -2.67442 -1.34592 0
M  V30 1702 H 161.637 -1.28694 -0.646048 0
M  V30 1703 H 163.59 -2.02602 -3.695 0
M  V30 1704 H 162.314 -0.916844 -3.13467 0
M  V30 1705 H 160.973 -2.87065 -2.28012 0
M  V30 1706 H 160.621 -2.02136 -4.60597 0
M  V30 1707 H 160.321 -3.77439 -4.50348 0
M  V30 1708 H 161.845 -3.17354 -5.2165 0
M  V30 1709 H 163.259 -4.58727 -3.43864 0
M  V30 1710 H 161.656 -5.21893 -2.96222 0
M  V30 1711 H 162.726 -4.53087 -1.72744 0
M  V30 1712 N 164.069 0.697108 -1.41344 0
M  V30 1713 C 165.315 1.4593 -1.40827 0
M  V30 1714 C 165.648 1.94193 -0.0167098 0
M  V30 1715 O 164.923 1.69425 0.955263 0
M  V30 1716 C 165.206 2.67229 -2.41373 0
M  V30 1717 C 165.059 2.24741 -3.8963 0
M  V30 1718 C 166.378 3.69423 -2.39196 0
M  V30 1719 H 163.497 0.529303 -0.512842 0
M  V30 1720 H 166.139 0.794112 -1.72609 0
M  V30 1721 H 164.289 3.23982 -2.14401 0
M  V30 1722 H 165.961 1.73327 -4.27499 0
M  V30 1723 H 164.204 1.56542 -4.0457 0
M  V30 1724 H 164.875 3.1177 -4.55525 0
M  V30 1725 H 167.351 3.2234 -2.63128 0
M  V30 1726 H 166.227 4.51907 -3.11563 0
M  V30 1727 H 166.488 4.19012 -1.41001 0
M  V30 1728 N 165.547 1.27147 0.931209 0
M  V30 1729 C 166.772 1.16191 1.71797 0
M  V30 1730 C 167.197 -0.278004 1.86034 0
M  V30 1731 O 166.555 -1.20137 1.35782 0
M  V30 1732 C 166.603 1.84673 3.09723 0
M  V30 1733 O 165.707 1.14231 3.96264 0
M  V30 1734 H 165.048 0.404303 0.526721 0
M  V30 1735 H 167.578 1.68152 1.1656 0
M  V30 1736 H 167.588 1.91893 3.60057 0
M  V30 1737 H 166.263 2.89421 2.98677 0
M  V30 1738 H 164.84 1.15056 3.54706 0
M  V30 1739 N 167.025 -1.13721 1.09112 0
M  V30 1740 C 167.973 -2.21103 0.722219 0
M  V30 1741 C 168.967 -1.67147 -0.275374 0
M  V30 1742 O 170.173 -1.79477 -0.137176 0
M  V30 1743 H 166.548 -0.720445 0.215553 0
M  V30 1744 H 168.519 -2.49483 1.63709 0
M  V30 1745 C 167.268 -3.47352 0.15543 0
M  V30 1746 H 166.591 -3.89206 0.914246 0
M  V30 1747 H 168.031 -4.2395 -0.0647967 0
M  V30 1748 C 166.49 -3.1814 -1.10852 0
M  V30 1749 O 167.02 -3.36604 -2.19227 0
M  V30 1750 N 165.226 -2.72045 -1.02176 0
M  V30 1751 H 164.773 -2.57221 -0.139764 0
M  V30 1752 H 164.731 -2.52875 -1.8682 0
M  V30 1753 N 168.503 -0.877838 -1.30888 0
M  V30 1754 C 169.466 -0.344265 -2.266 0
M  V30 1755 C 170.466 0.50922 -1.52524 0
M  V30 1756 O 171.656 0.317398 -1.71284 0
M  V30 1757 C 168.788 0.510198 -3.37061 0
M  V30 1758 H 169.981 -1.1893 -2.7531 0
M  V30 1759 H 167.534 -0.654088 -1.41956 0
M  V30 1760 H 168.269 1.37612 -2.93655 0
M  V30 1761 H 168.054 -0.101047 -3.9197 0
M  V30 1762 H 169.544 0.875537 -4.08319 0
M  V30 1763 N 169.982 1.44106 -0.638065 0
M  V30 1764 C 170.945 2.29138 0.0531013 0
M  V30 1765 C 171.945 1.41409 0.765506 0
M  V30 1766 O 173.135 1.63206 0.609046 0
M  V30 1767 C 170.267 3.23144 1.08584 0
M  V30 1768 H 171.46 2.91739 -0.694883 0
M  V30 1769 H 169.013 1.51134 -0.398538 0
M  V30 1770 H 169.748 2.65408 1.86357 0
M  V30 1771 H 169.533 3.87804 0.578852 0
M  V30 1772 H 171.023 3.87004 1.56899 0
M  V30 1773 N 171.46 0.379036 1.52974 0
M  V30 1774 C 172.706 -0.206727 2.01744 0
M  V30 1775 C 173.039 -1.47314 1.26539 0
M  V30 1776 O 172.314 -1.91084 0.362903 0
M  V30 1777 C 172.597 -0.485066 3.56818 0
M  V30 1778 C 172.45 0.795919 4.42702 0
M  V30 1779 C 173.769 -1.28003 4.21074 0
M  V30 1780 H 170.888 -0.0736607 0.73331 0
M  V30 1781 H 173.53 0.506581 1.83122 0
M  V30 1782 H 171.68 -1.09272 3.72816 0
M  V30 1783 H 173.352 1.43307 4.38476 0
M  V30 1784 H 171.595 1.41344 4.10127 0
M  V30 1785 H 172.266 0.555947 5.49193 0
M  V30 1786 H 174.742 -0.765867 4.08991 0
M  V30 1787 H 173.618 -1.44352 5.29579 0
M  V30 1788 H 173.879 -2.29236 3.78026 0
M  V30 1789 N 172.938 -1.57226 0.108567 0
M  V30 1790 C 173.886 -2.16002 -0.862885 0
M  V30 1791 C 174.88 -1.10644 -1.28274 0
M  V30 1792 O 176.086 -1.28966 -1.2557 0
M  V30 1793 H 172.461 -0.691148 -0.296342 0
M  V30 1794 H 174.432 -2.96427 -0.342575 0
M  V30 1795 C 173.181 -2.76576 -2.10716 0
M  V30 1796 H 172.504 -3.5734 -1.793 0
M  V30 1797 H 173.944 -3.21253 -2.76717 0
M  V30 1798 C 172.403 -1.73137 -2.89007 0
M  V30 1799 O 172.933 -1.17842 -3.84026 0
M  V30 1800 N 171.139 -1.43317 -2.52801 0
M  V30 1801 H 170.686 -1.88473 -1.75601 0
M  V30 1802 H 170.644 -0.743485 -3.05483 0
M  V30 1803 N 174.416 0.165178 -1.56732 0
M  V30 1804 C 175.827 0.727046 -1.71962 0
M  V30 1805 C 176.178 1.82508 -0.720078 0
M  V30 1806 O 175.303 2.16082 0.117242 0
M  V30 1807 C 175.898 1.32559 -3.11791 0
M  V30 1808 C 174.457 1.83422 -3.28684 0
M  V30 1809 C 173.604 0.715567 -2.67908 0
M  V30 1810 H 176.555 -0.0602896 -1.58585 0
M  V30 1811 H 176.576 2.19533 -3.10782 0
M  V30 1812 H 176.088 0.526195 -3.84516 0
M  V30 1813 H 174.189 2.65986 -2.60926 0
M  V30 1814 H 174.302 1.97543 -4.36478 0
M  V30 1815 H 172.666 1.13758 -2.27884 0
M  V30 1816 H 173.449 -0.0720836 -3.43224 0
M  V30 1817 N 175.894 1.51508 0.433938 0
M  V30 1818 C 177.141 1.64345 1.18309 0
M  V30 1819 C 177.469 0.361315 1.91115 0
M  V30 1820 O 176.724 -0.654753 1.84422 0
M  V30 1821 C 177.023 2.79928 2.22205 0
M  V30 1822 C 176.689 4.19078 1.66387 0
M  V30 1823 C 175.351 4.56932 1.50887 0
M  V30 1824 C 177.703 5.05894 1.25381 0
M  V30 1825 C 175.031 5.79305 0.928608 0
M  V30 1826 C 177.383 6.2885 0.687823 0
M  V30 1827 C 176.047 6.65473 0.519755 0
M  V30 1828 H 175.317 0.601381 0.432923 0
M  V30 1829 H 177.964 1.85549 0.473676 0
M  V30 1830 H 176.269 2.52959 2.99197 0
M  V30 1831 H 177.966 2.87059 2.79997 0
M  V30 1832 H 174.556 3.89234 1.79428 0
M  V30 1833 H 178.74 4.77253 1.36175 0
M  V30 1834 H 173.996 6.06324 0.786186 0
M  V30 1835 H 178.17 6.95461 0.361581 0
M  V30 1836 H 175.797 7.6017 0.0679979 0
M  V30 1837 N 177.372 -0.689602 1.41712 0
M  V30 1838 C 178.619 -1.44966 1.4139 0
M  V30 1839 C 178.947 -1.94484 0.025105 0
M  V30 1840 O 178.202 -1.70307 -0.964048 0
M  V30 1841 C 178.501 -2.67298 2.37247 0
M  V30 1842 C 178.167 -2.36405 3.83958 0
M  V30 1843 C 176.829 -2.27691 4.23923 0
M  V30 1844 C 179.181 -2.11043 4.76561 0
M  V30 1845 C 176.509 -1.91719 5.54492 0
M  V30 1846 C 178.861 -1.76578 6.07456 0
M  V30 1847 C 177.525 -1.66363 6.46436 0
M  V30 1848 H 176.795 -0.53047 0.517381 0
M  V30 1849 H 179.442 -0.787655 1.74552 0
M  V30 1850 H 177.747 -3.38461 1.9736 0
M  V30 1851 H 179.444 -3.25452 2.34269 0
M  V30 1852 H 176.034 -2.44085 3.52308 0
M  V30 1853 H 180.218 -2.16717 4.46483 0
M  V30 1854 H 175.474 -1.82367 5.83568 0
M  V30 1855 H 179.648 -1.55974 6.78708 0
M  V30 1856 H 177.275 -1.38258 7.47522 0
M  V30 1857 N 178.85 -1.27639 -0.924453 0
M  V30 1858 C 180.098 -1.13941 -1.66918 0
M  V30 1859 C 180.419 0.314589 -1.92446 0
M  V30 1860 O 179.689 1.21964 -1.53303 0
M  V30 1861 H 178.269 -0.418678 -0.618642 0
M  V30 1862 H 180.931 -1.60213 -1.10985 0
M  V30 1863 H 180.027 -1.67094 -2.63602 0
M  V30 1864 N 180.328 1.1314 -1.09713 0
M  V30 1865 C 181.553 1.88862 -0.857081 0
M  V30 1866 C 181.978 1.78729 0.586304 0
M  V30 1867 O 181.336 1.13692 1.41222 0
M  V30 1868 C 181.384 3.36325 -1.30069 0
M  V30 1869 O 180.488 4.09815 -0.461007 0
M  V30 1870 H 179.829 0.587108 -0.310162 0
M  V30 1871 H 182.359 1.43129 -1.46203 0
M  V30 1872 H 182.369 3.87157 -1.28738 0
M  V30 1873 H 181.044 3.43017 -2.35185 0
M  V30 1874 H 179.621 3.68986 -0.538888 0
M  V30 1875 N 181.806 0.884767 1.30421 0
M  V30 1876 C 182.736 0.367574 2.30589 0
M  V30 1877 C 183.717 -0.549464 1.60981 0
M  V30 1878 O 184.902 -0.46336 1.88591 0
M  V30 1879 C 182.032 -0.418944 3.44764 0
M  V30 1880 C 180.986 0.406316 4.26067 0
M  V30 1881 C 180.312 -0.506793 5.32293 0
M  V30 1882 C 181.612 1.64832 4.95608 0
M  V30 1883 H 183.306 1.20462 2.74097 0
M  V30 1884 H 180.852 0.580695 1.31772 0
M  V30 1885 H 182.805 -0.791395 4.13902 0
M  V30 1886 H 181.529 -1.28964 3.0006 0
M  V30 1887 H 180.188 0.760903 3.58617 0
M  V30 1888 H 179.836 -1.37519 4.83836 0
M  V30 1889 H 179.536 0.0415828 5.87585 0
M  V30 1890 H 181.06 -0.875764 6.04287 0
M  V30 1891 H 182.474 1.34646 5.57264 0
M  V30 1892 H 180.871 2.13688 5.60765 0
M  V30 1893 H 181.941 2.39284 4.21748 0
M  V30 1894 N 183.284 -1.43765 0.645699 0
M  V30 1895 C 184.217 -2.2798 -0.100072 0
M  V30 1896 C 185.195 -1.39391 -0.837194 0
M  V30 1897 O 186.379 -1.68833 -0.838306 0
M  V30 1898 C 183.506 -3.18643 -1.14823 0
M  V30 1899 C 182.552 -4.2344 -0.510009 0
M  V30 1900 S 183.385 -5.30761 0.710824 0
M  V30 1901 C 184.541 -6.24992 -0.33699 0
M  V30 1902 H 184.774 -2.90884 0.614322 0
M  V30 1903 H 182.307 -1.48166 0.434304 0
M  V30 1904 H 184.265 -3.71424 -1.74799 0
M  V30 1905 H 182.926 -2.54932 -1.8349 0
M  V30 1906 H 182.119 -4.86948 -1.29991 0
M  V30 1907 H 181.721 -3.73997 0.0154577 0
M  V30 1908 H 184.013 -6.66691 -1.20537 0
M  V30 1909 H 184.956 -7.07612 0.262879 0
M  V30 1910 H 185.364 -5.60517 -0.669425 0
M  V30 1911 N 184.763 -0.387143 -1.52771 0
M  V30 1912 C 186.04 0.253197 -1.93954 0
M  V30 1913 C 186.42 1.64545 -1.32243 0
M  V30 1914 O 185.768 2.23191 -0.489699 0
M  V30 1915 C 185.978 0.281722 -3.47861 0
M  V30 1916 C 187.326 0.511715 -4.21505 0
M  V30 1917 O 188.35 0.362023 -3.54356 0
M  V30 1918 O 187.209 0.804847 -5.40541 0
M  V30 1919 H 184.303 0.156845 -0.811991 0
M  V30 1920 H 186.849 -0.441494 -1.63856 0
M  V30 1921 H 185.621 -0.693571 -3.85104 0
M  V30 1922 H 185.244 1.02142 -3.84256 0
M  V30 1923 N 186.241 1.57166 -0.116904 0
M  V30 1924 C 187.487 1.95412 0.542405 0
M  V30 1925 C 187.82 1.00019 1.66463 0
M  V30 1926 O 187.095 0.0370346 1.94465 0
M  V30 1927 C 187.378 3.43615 1.07708 0
M  V30 1928 C 187.231 4.49781 -0.0415868 0
M  V30 1929 C 188.55 3.93616 1.96861 0
M  V30 1930 H 185.669 0.710543 0.195696 0
M  V30 1931 H 188.311 1.89027 -0.192038 0
M  V30 1932 H 186.461 3.49187 1.70296 0
M  V30 1933 H 188.133 4.56308 -0.676793 0
M  V30 1934 H 186.376 4.28033 -0.705019 0
M  V30 1935 H 187.047 5.50733 0.373717 0
M  V30 1936 H 189.523 3.90335 1.44146 0
M  V30 1937 H 188.399 4.97838 2.3119 0
M  V30 1938 H 188.66 3.34188 2.89432 0
M  V30 1939 N 187.719 -0.156864 1.56817 0
M  V30 1940 C 188.947 -0.886316 1.86955 0
M  V30 1941 C 189.362 -1.75185 0.703975 0
M  V30 1942 O 188.719 -1.79555 -0.326552 0
M  V30 1943 C 188.77 -1.75117 3.16253 0
M  V30 1944 O 188.491 -0.920537 4.2832 0
M  V30 1945 C 189.992 -2.58905 3.59837 0
M  V30 1946 H 187.212 -0.25678 0.619923 0
M  V30 1947 H 189.756 -0.152615 2.0393 0
M  V30 1948 H 187.911 -2.43805 3.01062 0
M  V30 1949 H 188.325 -1.51337 5.02192 0
M  V30 1950 H 189.799 -3.1518 4.53172 0
M  V30 1951 H 190.276 -3.34472 2.84649 0
M  V30 1952 H 190.882 -1.95526 3.7769 0
M  V30 1953 N 189.197 -1.51736 -0.425897 0
M  V30 1954 C 190.107 -1.76738 -1.54275 0
M  V30 1955 C 191.123 -0.65211 -1.61318 0
M  V30 1956 O 192.299 -0.935654 -1.78346 0
M  V30 1957 C 189.364 -1.89755 -2.90162 0
M  V30 1958 C 188.425 -3.13633 -2.93143 0
M  V30 1959 C 187.658 -3.2602 -4.22548 0
M  V30 1960 O 187.881 -2.44067 -5.15546 0
M  V30 1961 O 186.815 -4.19071 -4.32046 0
M  V30 1962 H 190.641 -2.71502 -1.36089 0
M  V30 1963 H 188.226 -1.36376 -0.610069 0
M  V30 1964 H 190.108 -2.00236 -3.70788 0
M  V30 1965 H 188.783 -0.981785 -3.08452 0
M  V30 1966 H 187.69 -3.08622 -2.11431 0
M  V30 1967 H 189.023 -4.04936 -2.798 0
M  V30 1968 N 190.675 0.682077 -1.42076 0
M  V30 1969 C 191.585 1.82535 -1.47371 0
M  V30 1970 C 192.601 1.7017 -0.363079 0
M  V30 1971 O 193.777 1.91848 -0.612875 0
M  V30 1972 C 190.842 3.18624 -1.36674 0
M  V30 1973 C 189.903 3.42999 -2.58167 0
M  V30 1974 C 189.136 4.72595 -2.4797 0
M  V30 1975 O 189.359 5.50006 -1.5116 0
M  V30 1976 O 188.293 4.98054 -3.37974 0
M  V30 1977 H 192.119 1.81023 -2.43853 0
M  V30 1978 H 189.704 0.836887 -1.2376 0
M  V30 1979 H 191.586 3.99847 -1.33043 0
M  V30 1980 H 190.261 3.20789 -0.433138 0
M  V30 1981 H 189.168 2.61653 -2.67373 0
M  V30 1982 H 190.501 3.45659 -3.50401 0
M  V30 1983 N 192.153 1.28127 0.917671 0
M  V30 1984 C 193.399 1.15223 1.66888 0
M  V30 1985 C 193.732 -0.299293 1.9188 0
M  V30 1986 O 193.007 -1.21805 1.51637 0
M  V30 1987 C 193.29 1.94706 3.02922 0
M  V30 1988 C 193.143 3.47898 2.85109 0
M  V30 1989 C 194.462 1.75939 4.03402 0
M  V30 1990 H 191.581 0.419946 0.605652 0
M  V30 1991 H 194.223 1.57398 1.06423 0
M  V30 1992 H 192.373 1.58864 3.54534 0
M  V30 1993 H 194.045 3.93624 2.40537 0
M  V30 1994 H 192.288 3.7373 2.20246 0
M  V30 1995 H 192.959 3.98765 3.81694 0
M  V30 1996 H 195.435 2.07209 3.60837 0
M  V30 1997 H 194.311 2.33931 4.96556 0
M  V30 1998 H 194.572 0.709877 4.36364 0
M  V30 1999 N 193.631 -1.12557 1.10312 0
M  V30 2000 C 194.877 -1.84515 0.855901 0
M  V30 2001 C 195.232 -1.82409 -0.611936 0
M  V30 2002 O 194.525 -1.25778 -1.44535 0
M  V30 2003 C 194.719 -3.31462 1.33669 0
M  V30 2004 C 194.548 -3.47879 2.84974 0
M  V30 2005 C 193.318 -3.61589 3.52961 0
M  V30 2006 C 195.516 -3.43152 3.83081 0
M  V30 2007 N 193.498 -3.66359 4.926 0
M  V30 2008 C 194.869 -3.54401 5.08724 0
M  V30 2009 C 196.924 -3.2661 3.75807 0
M  V30 2010 C 195.627 -3.50815 6.2795 0
M  V30 2011 C 197.653 -3.24335 4.94531 0
M  V30 2012 C 197.015 -3.36144 6.19021 0
M  V30 2013 H 193.114 -0.690967 0.366182 0
M  V30 2014 H 195.698 -1.34763 1.40524 0
M  V30 2015 H 193.869 -3.7976 0.814686 0
M  V30 2016 H 195.601 -3.91272 1.03385 0
M  V30 2017 H 192.356 -3.63652 3.03404 0
M  V30 2018 H 192.78 -3.72411 5.65366 0
M  V30 2019 H 197.422 -3.16375 2.80476 0
M  V30 2020 H 195.14 -3.5982 7.23571 0
M  V30 2021 H 198.726 -3.12719 4.9061 0
M  V30 2022 H 197.606 -3.34357 7.09348 0
M  V30 2023 N 195.109 -0.891671 -1.2995 0
M  V30 2024 C 196.386 -0.433307 -1.9074 0
M  V30 2025 C 196.766 1.08646 -1.80995 0
M  V30 2026 O 196.114 1.92476 -1.23147 0
M  V30 2027 C 196.324 -0.938895 -3.36134 0
M  V30 2028 C 197.672 -0.977829 -4.13187 0
M  V30 2029 O 198.696 -0.886015 -3.45005 0
M  V30 2030 O 197.555 -1.11453 -5.35015 0
M  V30 2031 H 194.649 -0.133699 -0.816121 0
M  V30 2032 H 197.195 -0.981011 -1.38471 0
M  V30 2033 H 195.967 -1.98281 -3.37343 0
M  V30 2034 H 195.59 -0.37074 -3.95868 0
M  V30 2035 N 196.587 1.43421 -0.653314 0
M  V30 2036 C 197.534 2.30768 0.0382271 0
M  V30 2037 C 198.504 1.44755 0.814576 0
M  V30 2038 O 199.689 1.73624 0.791162 0
M  V30 2039 C 196.829 3.30336 0.998599 0
M  V30 2040 C 195.942 4.31448 0.218342 0
M  V30 2041 C 195.077 5.18098 1.17252 0
M  V30 2042 C 194.116 6.10902 0.382702 0
M  V30 2043 N 193.253 6.90176 1.28848 0
M  V30 2044 H 198.093 2.89357 -0.712511 0
M  V30 2045 H 195.63 1.42548 -0.363128 0
M  V30 2046 H 197.588 3.86572 1.56901 0
M  V30 2047 H 196.218 2.73397 1.71621 0
M  V30 2048 H 195.27 3.77506 -0.46836 0
M  V30 2049 H 196.582 4.97227 -0.395812 0
M  V30 2050 H 195.736 5.7896 1.81356 0
M  V30 2051 H 194.475 4.52444 1.82058 0
M  V30 2052 H 193.48 5.49128 -0.27169 0
M  V30 2053 H 194.705 6.78598 -0.260957 0
M  V30 2054 H 192.651 6.27171 1.92334 0
M  V30 2055 H 192.568 7.52478 0.728887 0
M  V30 2056 H 193.836 7.55543 1.91766 0
M  V30 2057 N 198.065 0.39524 1.52563 0
M  V30 2058 C 199.293 -0.184943 2.06072 0
M  V30 2059 C 199.708 -1.40021 1.26647 0
M  V30 2060 O 199.065 -1.79767 0.314672 0
M  V30 2061 C 199.116 -0.549179 3.57304 0
M  V30 2062 O 198.837 0.617813 4.33722 0
M  V30 2063 C 200.338 -1.18459 4.2718 0
M  V30 2064 H 197.558 -0.0265025 0.670476 0
M  V30 2065 H 200.102 0.562184 1.96621 0
M  V30 2066 H 198.257 -1.2462 3.66809 0
M  V30 2067 H 198.671 0.317091 5.23541 0
M  V30 2068 H 200.145 -1.38976 5.34219 0
M  V30 2069 H 200.622 -2.15368 3.82771 0
M  V30 2070 H 201.228 -0.528163 4.22008 0
M  V30 2071 N 199.544 -1.57102 0.125237 0
M  V30 2072 C 200.474 -2.18659 -0.819174 0
M  V30 2073 C 201.455 -1.12843 -1.27281 0
M  V30 2074 O 202.64 -1.41104 -1.33429 0
M  V30 2075 C 199.77 -2.79096 -2.06695 0
M  V30 2076 C 198.724 -3.90548 -1.75088 0
M  V30 2077 C 198.05 -4.37821 -3.06948 0
M  V30 2078 C 199.35 -5.12356 -1.01435 0
M  V30 2079 H 201.044 -2.9783 -0.306202 0
M  V30 2080 H 198.59 -1.4326 -0.145839 0
M  V30 2081 H 200.543 -3.2082 -2.73226 0
M  V30 2082 H 199.267 -1.97223 -2.60328 0
M  V30 2083 H 197.926 -3.49409 -1.10944 0
M  V30 2084 H 197.574 -3.52799 -3.58527 0
M  V30 2085 H 197.274 -5.12982 -2.86571 0
M  V30 2086 H 198.798 -4.822 -3.74587 0
M  V30 2087 H 200.212 -5.5106 -1.58132 0
M  V30 2088 H 198.609 -5.9314 -0.911319 0
M  V30 2089 H 199.679 -4.849 -0.00218681 0
M  V30 2090 N 201.022 0.148545 -1.56898 0
M  V30 2091 C 202.299 0.890019 -1.74178 0
M  V30 2092 C 202.679 1.99407 -0.692839 0
M  V30 2093 O 202.027 2.26671 0.288505 0
M  V30 2094 C 202.237 1.43389 -3.18183 0
M  V30 2095 C 203.585 1.89791 -3.79822 0
M  V30 2096 O 204.609 1.53134 -3.21603 0
M  V30 2097 O 203.468 2.57387 -4.82093 0
M  V30 2098 H 200.562 0.420496 -0.712118 0
M  V30 2099 H 203.108 0.134591 -1.69165 0
M  V30 2100 H 201.88 0.640383 -3.86024 0
M  V30 2101 H 201.503 2.25287 -3.27615 0
M  V30 2102 N 202.5 1.5196 0.417844 0
M  V30 2103 C 203.749 1.6482 1.16264 0
M  V30 2104 C 204.062 0.379886 1.91876 0
M  V30 2105 O 205.268 0.388154 2.68711 0
M  V30 2106 C 203.724 2.91161 2.1155 0
M  V30 2107 C 203.332 4.25068 1.41495 0
M  V30 2108 C 205.076 3.13383 2.86341 0
M  V30 2109 C 202.983 5.42541 2.35379 0
M  V30 2110 H 201.913 0.613954 0.437694 0
M  V30 2111 H 204.564 1.78442 0.427871 0
M  V30 2112 H 202.946 2.71218 2.88543 0
M  V30 2113 H 204.12 4.55463 0.699263 0
M  V30 2114 H 202.435 4.0888 0.787792 0
M  V30 2115 H 205.032 3.98324 3.5671 0
M  V30 2116 H 205.375 2.27256 3.48798 0
M  V30 2117 H 205.908 3.33757 2.1645 0
M  V30 2118 H 202.647 6.30987 1.77582 0
M  V30 2119 H 202.167 5.16497 3.04945 0
M  V30 2120 H 203.846 5.75272 2.96093 0
M  V30 2121 N 203.978 -0.674533 1.42435 0
M  V30 2122 C 204.926 -1.80934 1.46169 0
M  V30 2123 C 205.92 -1.66006 0.3374 0
M  V30 2124 O 207.126 -1.72611 0.510425 0
M  V30 2125 H 203.501 -0.596594 0.457798 0
M  V30 2126 H 205.472 -1.74903 2.41767 0
M  V30 2127 C 204.221 -3.19088 1.38123 0
M  V30 2128 H 203.544 -3.31203 2.23931 0
M  V30 2129 H 204.984 -3.9851 1.44797 0
M  V30 2130 C 203.443 -3.36763 0.0960517 0
M  V30 2131 O 203.973 -3.92581 -0.851073 0
M  V30 2132 N 202.179 -2.90597 0.0131186 0
M  V30 2133 H 201.726 -2.45359 0.784639 0
M  V30 2134 H 201.684 -3.028 -0.846133 0
M  V30 2135 N 205.456 -1.28612 -0.910864 0
M  V30 2136 C 206.702 -1.16106 -1.66274 0
M  V30 2137 C 207.035 0.289113 -1.92036 0
M  V30 2138 O 206.31 1.21 -1.52281 0
M  V30 2139 C 206.593 -1.96309 -3.01885 0
M  V30 2140 C 206.446 -3.49405 -2.8326 0
M  V30 2141 C 207.765 -1.78076 -4.02463 0
M  V30 2142 H 204.884 -0.423152 -0.603417 0
M  V30 2143 H 207.526 -1.57961 -1.05586 0
M  V30 2144 H 205.676 -1.60742 -3.53687 0
M  V30 2145 H 207.348 -3.94894 -2.38446 0
M  V30 2146 H 205.591 -3.74893 -2.18261 0
M  V30 2147 H 206.262 -4.00784 -3.79574 0
M  V30 2148 H 208.738 -2.0912 -3.59733 0
M  V30 2149 H 207.614 -2.36561 -4.95308 0
M  V30 2150 H 207.875 -0.733008 -4.35981 0
M  V30 2151 N 206.934 1.1197 -1.10907 0
M  V30 2152 C 207.881 2.17846 -0.762345 0
M  V30 2153 C 208.851 1.63995 0.263599 0
M  V30 2154 O 210.036 1.90273 0.141773 0
M  V30 2155 C 207.176 3.44487 -0.205651 0
M  V30 2156 C 206.289 4.12369 -1.28748 0
M  V30 2157 C 205.424 5.26674 -0.691919 0
M  V30 2158 C 204.463 5.86431 -1.75399 0
M  V30 2159 N 203.6 6.92142 -1.17833 0
M  V30 2160 H 208.44 2.46851 -1.6694 0
M  V30 2161 H 205.977 1.21188 -0.833776 0
M  V30 2162 H 207.935 4.16981 0.135037 0
M  V30 2163 H 206.565 3.15884 0.664613 0
M  V30 2164 H 205.617 3.38003 -1.74522 0
M  V30 2165 H 206.929 4.52844 -2.09125 0
M  V30 2166 H 206.083 6.05953 -0.300963 0
M  V30 2167 H 204.822 4.8749 0.143232 0
M  V30 2168 H 203.827 5.05835 -2.15432 0
M  V30 2169 H 205.052 6.27685 -2.59208 0
M  V30 2170 H 202.998 6.54985 -0.364725 0
M  V30 2171 H 202.915 7.31242 -1.91887 0
M  V30 2172 H 204.183 7.75237 -0.81408 0
M  V30 2173 N 208.412 0.89855 1.29475 0
M  V30 2174 C 209.375 0.380272 2.26023 0
M  V30 2175 C 210.375 -0.484891 1.53315 0
M  V30 2176 O 211.565 -0.290108 1.71767 0
M  V30 2177 C 208.697 -0.45651 3.3783 0
M  V30 2178 H 209.89 1.23295 2.73383 0
M  V30 2179 H 207.443 0.676589 1.40897 0
M  V30 2180 H 208.178 -1.32922 2.95808 0
M  V30 2181 H 207.963 0.163393 3.91759 0
M  V30 2182 H 209.453 -0.810466 4.0966 0
M  V30 2183 N 209.89 -1.43072 0.660911 0
M  V30 2184 C 211.301 -1.84932 0.256348 0
M  V30 2185 C 211.652 -1.55325 -1.19868 0
M  V30 2186 O 210.777 -1.00607 -1.91591 0
M  V30 2187 C 211.372 -3.35684 0.458475 0
M  V30 2188 C 209.931 -3.76245 0.108161 0
M  V30 2189 C 209.078 -2.66749 0.757641 0
M  V30 2190 H 212.029 -1.33116 0.864051 0
M  V30 2191 H 212.05 -3.79365 -0.293683 0
M  V30 2192 H 211.562 -3.572 1.51755 0
M  V30 2193 H 209.663 -3.60338 -0.948014 0
M  V30 2194 H 209.776 -4.76058 0.538992 0
M  V30 2195 H 208.14 -2.53989 0.190185 0
M  V30 2196 H 208.923 -2.91092 1.81989 0
M  V30 2197 N 211.368 -0.403325 -1.52352 0
M  V30 2198 C 212.331 0.413051 -2.25447 0
M  V30 2199 C 213.331 0.978513 -1.276 0
M  V30 2200 O 214.521 0.858305 -1.51587 0
M  V30 2201 C 211.653 1.58087 -3.02029 0
M  V30 2202 H 212.846 -0.227094 -2.99039 0
M  V30 2203 H 210.399 -0.155722 -1.55522 0
M  V30 2204 H 211.134 2.25804 -2.32772 0
M  V30 2205 H 210.919 1.18195 -3.73861 0
M  V30 2206 H 212.409 2.1585 -3.57489 0
M  V30 2207 N 212.846 1.57033 -0.133567 0
M  V30 2208 C 213.776 2.1909 0.807567 0
M  V30 2209 C 214.757 1.13517 1.26681 0
M  V30 2210 O 215.942 1.41809 1.32679 0
M  V30 2211 C 213.072 2.80188 2.05212 0
M  V30 2212 C 212.026 3.91471 1.73015 0
M  V30 2213 C 211.352 4.39443 3.04622 0
M  V30 2214 C 212.652 5.12886 0.987168 0
M  V30 2215 H 214.346 2.97988 0.290403 0
M  V30 2216 H 211.892 1.43335 0.138239 0
M  V30 2217 H 213.845 3.22264 2.71521 0
M  V30 2218 H 212.569 1.98601 2.59278 0
M  V30 2219 H 211.228 3.49993 1.0909 0
M  V30 2220 H 210.876 3.54695 3.56651 0
M  V30 2221 H 210.576 5.14495 2.83847 0
M  V30 2222 H 212.1 4.8418 3.72024 0
M  V30 2223 H 213.514 5.51891 1.55208 0
M  V30 2224 H 211.911 5.93615 0.87985 0
M  V30 2225 H 212.981 4.84894 -0.0235286 0
M  V30 2226 N 214.325 -0.140222 1.56975 0
M  V30 2227 C 215.258 -1.20266 1.93936 0
M  V30 2228 C 216.236 -1.41212 0.806099 0
M  V30 2229 O 217.42 -1.55713 1.06234 0
M  V30 2230 C 214.547 -2.56037 2.21726 0
M  V30 2231 C 213.593 -2.51646 3.44349 0
M  V30 2232 S 214.426 -1.97678 4.97678 0
M  V30 2233 C 215.582 -3.35165 5.28597 0
M  V30 2234 H 215.815 -0.887358 2.83749 0
M  V30 2235 H 213.348 -0.346119 1.50471 0
M  V30 2236 H 215.306 -3.34167 2.38416 0
M  V30 2237 H 213.967 -2.84755 1.32566 0
M  V30 2238 H 213.16 -3.51608 3.61092 0
M  V30 2239 H 212.762 -1.81628 3.26936 0
M  V30 2240 H 215.054 -4.31302 5.2248 0
M  V30 2241 H 215.997 -3.23269 6.30002 0
M  V30 2242 H 216.405 -3.32614 4.56101 0
M  V30 2243 N 215.803 -1.52179 -0.40978 0
M  V30 2244 C 217.031 -1.70054 -1.17853 0
M  V30 2245 C 217.446 -0.409735 -1.843 0
M  V30 2246 O 216.803 0.614183 -1.71855 0
M  V30 2247 C 216.854 -2.83568 -2.24213 0
M  V30 2248 O 216.575 -4.0765 -1.60478 0
M  V30 2249 C 218.076 -3.12947 -3.13973 0
M  V30 2250 H 215.296 -0.569917 -0.354169 0
M  V30 2251 H 217.84 -1.98734 -0.482198 0
M  V30 2252 H 215.995 -2.57409 -2.89516 0
M  V30 2253 H 216.409 -4.70899 -2.30986 0
M  V30 2254 H 217.883 -3.95889 -3.84677 0
M  V30 2255 H 218.36 -2.26472 -3.76307 0
M  V30 2256 H 218.966 -3.40868 -2.5434 0
M  V30 2257 N 217.281 0.66697 -1.42791 0
M  V30 2258 C 218.228 1.7803 -1.4688 0
M  V30 2259 C 219.198 1.6299 -0.319919 0
M  V30 2260 O 220.383 1.83432 -0.525118 0
M  V30 2261 C 217.523 3.1611 -1.38451 0
M  V30 2262 C 216.636 3.42381 -2.63437 0
M  V30 2263 C 215.771 4.70232 -2.47094 0
M  V30 2264 C 214.81 4.89564 -3.67415 0
M  V30 2265 N 213.947 6.08661 -3.49966 0
M  V30 2266 H 218.787 1.7387 -2.42019 0
M  V30 2267 H 216.324 0.84868 -1.20149 0
M  V30 2268 H 218.282 3.95914 -1.31561 0
M  V30 2269 H 216.912 3.19374 -0.469033 0
M  V30 2270 H 215.964 2.56774 -2.80662 0
M  V30 2271 H 217.276 3.52557 -3.52853 0
M  V30 2272 H 216.43 5.5814 -2.37834 0
M  V30 2273 H 215.169 4.62353 -1.5518 0
M  V30 2274 H 214.174 4.00096 -3.77099 0
M  V30 2275 H 215.399 4.99282 -4.6032 0
M  V30 2276 H 213.345 6.0194 -2.60776 0
M  V30 2277 H 213.262 6.19733 -4.32975 0
M  V30 2278 H 214.53 6.99226 -3.44532 0
M  V30 2279 N 218.759 1.29093 0.90403 0
M  V30 2280 C 219.722 1.1386 1.98919 0
M  V30 2281 C 220.722 0.0753457 1.60623 0
M  V30 2282 O 221.912 0.321931 1.71199 0
M  V30 2283 C 219.044 0.740198 3.32767 0
M  V30 2284 H 220.237 2.10246 2.13861 0
M  V30 2285 H 217.79 1.12218 1.08797 0
M  V30 2286 H 218.525 -0.223997 3.23525 0
M  V30 2287 H 218.31 1.50838 3.61926 0
M  V30 2288 H 219.8 0.656546 4.12407 0
M  V30 2289 N 220.237 -1.11381 1.11499 0
M  V30 2290 C 221.483 -1.83403 0.865512 0
M  V30 2291 C 221.816 -1.84459 -0.607329 0
M  V30 2292 O 221.091 -1.29811 -1.44842 0
M  V30 2293 C 221.374 -3.30552 1.42855 0
M  V30 2294 C 221.227 -3.37886 2.96906 0
M  V30 2295 C 222.546 -4.26643 1.08 0
M  V30 2296 H 219.665 -0.665879 0.31587 0
M  V30 2297 H 222.307 -1.30601 1.37998 0
M  V30 2298 H 220.457 -3.75648 0.990985 0
M  V30 2299 H 222.129 -3.01343 3.49271 0
M  V30 2300 H 220.372 -2.78088 3.32941 0
M  V30 2301 H 221.043 -4.41458 3.31389 0
M  V30 2302 H 223.519 -3.89729 1.45775 0
M  V30 2303 H 222.395 -5.27986 1.50072 0
M  V30 2304 H 222.656 -4.42099 -0.00915037 0
M  V30 2305 N 221.715 -0.905404 -1.28997 0
M  V30 2306 C 222.961 -0.535039 -1.95615 0
M  V30 2307 C 223.294 0.917404 -1.71165 0
M  V30 2308 O 222.569 1.65123 -1.02785 0
M  V30 2309 C 222.852 -0.834918 -3.50287 0
M  V30 2310 C 222.705 -2.33948 -3.84172 0
M  V30 2311 C 224.024 -0.325318 -4.38896 0
M  V30 2312 H 221.143 -0.195861 -0.710498 0
M  V30 2313 H 223.785 -1.13313 -1.52513 0
M  V30 2314 H 221.935 -0.325904 -3.87131 0
M  V30 2315 H 223.607 -2.91847 -3.57243 0
M  V30 2316 H 221.85 -2.79789 -3.31513 0
M  V30 2317 H 222.521 -2.49987 -4.92149 0
M  V30 2318 H 224.997 -0.761256 -4.09077 0
M  V30 2319 H 223.873 -0.564295 -5.45992 0
M  V30 2320 H 224.134 0.774144 -4.35269 0
M  V30 2321 N 223.193 1.4272 -0.668489 0
M  V30 2322 C 224.604 1.84793 -0.266151 0
M  V30 2323 C 224.955 1.55959 1.19043 0
M  V30 2324 O 224.08 1.01622 1.91055 0
M  V30 2325 C 224.675 3.35436 -0.476271 0
M  V30 2326 C 223.234 3.76182 -0.128113 0
M  V30 2327 C 222.381 2.66344 -0.771777 0
M  V30 2328 H 225.332 1.32656 -0.871098 0
M  V30 2329 H 225.353 3.79515 0.273561 0
M  V30 2330 H 224.865 3.5639 -1.53647 0
M  V30 2331 H 222.966 3.60836 0.928891 0
M  V30 2332 H 223.079 4.75766 -0.564231 0
M  V30 2333 H 221.443 2.53885 -0.203652 0
M  V30 2334 H 222.226 2.90123 -1.83531 0
M  V30 2335 N 224.671 0.411399 1.52136 0
M  V30 2336 C 225.581 -0.419774 2.30814 0
M  V30 2337 C 226.597 -1.0515 1.38634 0
M  V30 2338 O 227.773 -1.05252 1.71709 0
M  V30 2339 C 224.838 -1.52019 3.11594 0
M  V30 2340 C 223.899 -0.91129 4.19516 0
M  V30 2341 C 223.132 -1.95927 4.96436 0
M  V30 2342 O 223.355 -3.17775 4.73683 0
M  V30 2343 O 222.289 -1.56423 5.81219 0
M  V30 2344 H 226.115 0.221805 3.02889 0
M  V30 2345 H 223.7 0.174547 1.48377 0
M  V30 2346 H 225.582 -2.15898 3.61892 0
M  V30 2347 H 224.257 -2.14633 2.42311 0
M  V30 2348 H 223.164 -0.235157 3.7336 0
M  V30 2349 H 224.497 -0.32904 4.91099 0
M  V30 2350 N 226.149 -1.5696 0.141893 0
M  V30 2351 C 227.082 -2.12271 -0.837627 0
M  V30 2352 C 228.06 -1.04495 -1.24578 0
M  V30 2353 O 229.244 -1.32293 -1.34278 0
M  V30 2354 C 226.371 -2.63822 -2.12404 0
M  V30 2355 C 225.417 -3.83698 -1.86221 0
M  V30 2356 S 226.25 -5.24948 -1.05781 0
M  V30 2357 C 227.406 -5.79884 -2.35552 0
M  V30 2358 H 227.639 -2.95023 -0.367249 0
M  V30 2359 H 225.172 -1.54231 -0.0723014 0
M  V30 2360 H 227.13 -2.94175 -2.86307 0
M  V30 2361 H 225.791 -1.8121 -2.56557 0
M  V30 2362 H 224.984 -4.17995 -2.81596 0
M  V30 2363 H 224.586 -3.5408 -1.20429 0
M  V30 2364 H 226.878 -5.91005 -3.31239 0
M  V30 2365 H 227.821 -6.77544 -2.05767 0
M  V30 2366 H 228.229 -5.08095 -2.45967 0
M  V30 2367 N 227.627 0.131896 -1.57047 0
M  V30 2368 C 228.537 1.1815 -2.02676 0
M  V30 2369 C 229.553 1.46113 -0.944824 0
M  V30 2370 O 230.729 1.57485 -1.25541 0
M  V30 2371 C 227.794 2.49139 -2.41103 0
M  V30 2372 C 226.855 2.28688 -3.63318 0
M  V30 2373 C 226.088 3.53431 -3.99903 0
M  V30 2374 O 226.311 4.60223 -3.36973 0
M  V30 2375 O 225.245 3.45198 -4.93074 0
M  V30 2376 H 229.071 0.824069 -2.92306 0
M  V30 2377 H 226.656 0.341745 -1.45439 0
M  V30 2378 H 228.538 3.26338 -2.66611 0
M  V30 2379 H 227.213 2.84382 -1.54624 0
M  V30 2380 H 226.12 1.4939 -3.42977 0
M  V30 2381 H 227.453 1.98355 -4.50462 0
M  V30 2382 N 229.106 1.52395 0.401703 0
M  V30 2383 C 230.053 1.76268 1.48991 0
M  V30 2384 C 231.023 0.605386 1.54675 0
M  V30 2385 O 232.208 0.843742 1.7113 0
M  V30 2386 C 229.348 1.92592 2.86361 0
M  V30 2387 C 228.461 3.20259 2.89928 0
M  V30 2388 C 227.596 3.26972 4.18644 0
M  V30 2389 C 226.635 4.48812 4.16214 0
M  V30 2390 N 225.772 4.52877 5.36514 0
M  V30 2391 H 230.612 2.6914 1.27935 0
M  V30 2392 H 228.149 1.33355 0.620871 0
M  V30 2393 H 230.107 2.0004 3.66115 0
M  V30 2394 H 228.737 1.03093 3.05895 0
M  V30 2395 H 227.789 3.21945 2.02621 0
M  V30 2396 H 229.101 4.10056 2.83999 0
M  V30 2397 H 228.255 3.33533 5.06794 0
M  V30 2398 H 226.994 2.35126 4.27278 0
M  V30 2399 H 225.999 4.4239 3.26453 0
M  V30 2400 H 227.224 5.41961 4.09213 0
M  V30 2401 H 225.17 3.63917 5.45802 0
M  V30 2402 H 225.087 5.36529 5.32609 0
M  V30 2403 H 226.355 4.63676 6.26597 0
M  V30 2404 N 230.584 -0.659388 1.43143 0
M  V30 2405 C 232 -0.974337 1.26407 0
M  V30 2406 C 232.2 -2.007 0.179341 0
M  V30 2407 O 231.256 -2.4856 -0.444295 0
M  V30 2408 C 232.569 -1.46447 2.62628 0
M  V30 2409 C 234.117 -1.58144 2.7011 0
M  V30 2410 C 234.592 -2.1055 4.06734 0
M  V30 2411 N 236.083 -2.17861 4.08767 0
M  V30 2412 C 236.818 -2.59519 5.1131 0
M  V30 2413 N 236.314 -3.00518 6.24228 0
M  V30 2414 N 238.107 -2.59404 4.98664 0
M  V30 2415 H 230.258 0.0240528 2.12386 0
M  V30 2416 H 232.521 -0.0518065 0.946583 0
M  V30 2417 H 232.227 -0.780123 3.42939 0
M  V30 2418 H 232.101 -2.44058 2.87603 0
M  V30 2419 H 234.488 -2.25682 1.90136 0
M  V30 2420 H 234.569 -0.589828 2.48907 0
M  V30 2421 H 234.213 -1.43616 4.87172 0
M  V30 2422 H 234.143 -3.10531 4.25298 0
M  V30 2423 H 236.634 -1.88975 3.27257 0
M  V30 2424 H 236.947 -3.31036 6.98309 0
M  V30 2425 H 235.292 -2.98337 6.2771 0
M  V30 2426 H 238.483 -2.26747 4.09516 0
M  V30 2427 H 238.656 -2.91548 5.78709 0
M  V30 2428 N 232.062 -1.29571 -0.897171 0
M  V30 2429 C 233.31 -1.17456 -1.64464 0
M  V30 2430 C 233.631 0.273698 -1.9307 0
M  V30 2431 O 232.901 1.18684 -1.55855 0
M  V30 2432 H 231.481 -0.431706 -0.609622 0
M  V30 2433 H 234.143 -1.62531 -1.07562 0
M  V30 2434 H 233.239 -1.72648 -2.59998 0
M  V30 2435 N 233.54 1.10788 -1.12088 0
M  V30 2436 C 234.788 1.8231 -0.872205 0
M  V30 2437 C 235.109 1.85419 0.603709 0
M  V30 2438 O 234.379 1.32963 1.43867 0
M  V30 2439 H 232.959 0.675137 -0.319686 0
M  V30 2440 H 235.621 1.34068 -1.41463 0
M  V30 2441 H 234.717 2.85955 -1.25045 0
M  V30 2442 N 235.018 0.912232 1.28515 0
M  V30 2443 C 236.266 0.543523 1.94654 0
M  V30 2444 C 236.587 -0.9155 1.72173 0
M  V30 2445 O 235.857 -1.64708 1.06058 0
M  V30 2446 H 234.437 0.198017 0.720277 0
M  V30 2447 H 237.099 1.16126 1.56527 0
M  V30 2448 H 236.195 0.736684 3.03281 0
M  V30 2449 N 236.496 -1.42363 0.676048 0
M  V30 2450 C 237.721 -2.06377 0.205705 0
M  V30 2451 C 238.146 -1.50463 -1.12883 0
M  V30 2452 O 237.504 -0.623619 -1.70237 0
M  V30 2453 C 237.552 -3.60277 0.152655 0
M  V30 2454 O 236.656 -4.02935 -0.87845 0
M  V30 2455 H 235.997 -0.655588 0.105359 0
M  V30 2456 H 238.527 -1.82475 0.925412 0
M  V30 2457 H 238.537 -4.07993 -0.0230675 0
M  V30 2458 H 237.212 -4.00346 1.12675 0
M  V30 2459 H 235.789 -3.66764 -0.673668 0
M  V30 2460 N 237.974 -0.419461 -1.51915 0
M  V30 2461 C 239.22 0.153166 -2.02221 0
M  V30 2462 C 239.553 1.43907 -1.30401 0
M  V30 2463 O 238.828 1.90055 -0.413438 0
M  V30 2464 C 239.111 0.390291 -3.57979 0
M  V30 2465 C 238.964 -0.913014 -4.40436 0
M  V30 2466 C 240.283 1.16794 -4.2432 0
M  V30 2467 H 237.402 0.0541924 -0.735005 0
M  V30 2468 H 240.044 -0.554955 -1.81715 0
M  V30 2469 H 238.194 0.993491 -3.75582 0
M  V30 2470 H 239.866 -1.54882 -4.34522 0
M  V30 2471 H 238.109 -1.52168 -4.06236 0
M  V30 2472 H 238.78 -0.701361 -5.47526 0
M  V30 2473 H 241.256 0.657161 -4.10878 0
M  V30 2474 H 240.132 1.3026 -5.3322 0
M  V30 2475 H 240.393 2.19132 -3.83971 0
M  V30 2476 N 239.452 1.56882 -0.150215 0
M  V30 2477 C 240.698 1.96518 0.500834 0
M  V30 2478 C 241.031 1.03527 1.64304 0
M  V30 2479 O 240.306 0.0782751 1.94342 0
M  V30 2480 C 240.589 3.45822 1.00395 0
M  V30 2481 C 240.442 4.49591 -0.136983 0
M  V30 2482 C 241.761 3.97704 1.88467 0
M  V30 2483 H 238.88 0.714535 0.18058 0
M  V30 2484 H 241.522 1.88577 -0.232091 0
M  V30 2485 H 239.672 3.5272 1.62851 0
M  V30 2486 H 241.344 4.5477 -0.77343 0
M  V30 2487 H 239.587 4.26441 -0.795652 0
M  V30 2488 H 240.258 5.51402 0.256815 0
M  V30 2489 H 242.734 3.93304 1.35834 0
M  V30 2490 H 241.61 5.0263 2.20578 0
M  V30 2491 H 241.871 3.40252 2.82279 0
M  V30 2492 N 240.93 -0.123565 1.57115 0
M  V30 2493 C 242.179 -0.830704 1.83799 0
M  V30 2494 C 242.492 -1.81259 0.735158 0
M  V30 2495 O 243.698 -2.56558 0.888278 0
M  V30 2496 C 242.154 -1.52802 3.25852 0
M  V30 2497 C 241.762 -0.587356 4.44133 0
M  V30 2498 C 243.506 -2.22056 3.61789 0
M  V30 2499 C 241.413 -1.28764 5.77212 0
M  V30 2500 H 240.343 -0.313967 0.685522 0
M  V30 2501 H 242.994 -0.0834359 1.8331 0
M  V30 2502 H 241.376 -2.32175 3.20797 0
M  V30 2503 H 242.55 0.172829 4.60476 0
M  V30 2504 H 240.865 -0.00201892 4.164 0
M  V30 2505 H 243.462 -2.75131 4.58483 0
M  V30 2506 H 243.805 -2.99644 2.88997 0
M  V30 2507 H 244.338 -1.49576 3.68608 0
M  V30 2508 H 241.077 -0.55314 6.53162 0
M  V30 2509 H 240.597 -2.01995 5.64764 0
M  V30 2510 H 242.276 -1.8221 6.20813 0
M  V30 2511 N 242.408 -1.52605 -0.393616 0
M  V30 2512 C 243.654 -1.67672 -1.14079 0
M  V30 2513 C 243.987 -0.413121 -1.89755 0
M  V30 2514 O 243.262 0.588952 -1.85369 0
M  V30 2515 C 243.545 -2.9088 -2.12276 0
M  V30 2516 C 243.398 -4.27329 -1.40394 0
M  V30 2517 C 244.717 -3.09628 -3.12759 0
M  V30 2518 H 241.836 -0.610168 -0.413356 0
M  V30 2519 H 244.478 -1.85193 -0.424696 0
M  V30 2520 H 242.628 -2.76073 -2.73342 0
M  V30 2521 H 244.3 -4.53894 -0.82327 0
M  V30 2522 H 242.543 -4.2802 -0.705801 0
M  V30 2523 H 243.214 -5.09615 -2.12123 0
M  V30 2524 H 245.69 -3.23436 -2.61779 0
M  V30 2525 H 244.566 -3.97322 -3.78717 0
M  V30 2526 H 244.827 -2.23637 -3.81365 0
M  V30 2527 N 243.887 0.651787 -1.4349 0
M  V30 2528 C 245.112 1.44434 -1.48841 0
M  V30 2529 C 245.537 1.8779 -0.107955 0
M  V30 2530 O 244.895 1.57464 0.898602 0
M  V30 2531 C 244.943 2.65458 -2.44059 0
M  V30 2532 O 244.047 3.64566 -1.92784 0
M  V30 2533 H 243.388 0.433005 -0.503391 0
M  V30 2534 H 245.918 0.797451 -1.88419 0
M  V30 2535 H 245.928 3.13255 -2.6141 0
M  V30 2536 H 244.603 2.33244 -3.4434 0
M  V30 2537 H 243.18 3.23716 -1.851 0
M  V30 2538 N 245.365 1.30045 0.890287 0
M  V30 2539 C 246.59 1.21598 1.68014 0
M  V30 2540 C 247.015 -0.218678 1.86825 0
M  V30 2541 O 246.373 -1.15756 1.39536 0
M  V30 2542 C 246.421 1.94434 3.03691 0
M  V30 2543 O 245.525 1.2678 3.92429 0
M  V30 2544 H 244.866 0.420856 0.513592 0
M  V30 2545 H 247.396 1.71775 1.11151 0
M  V30 2546 H 247.406 2.03251 3.5377 0
M  V30 2547 H 246.081 2.98777 2.89318 0
M  V30 2548 H 244.658 1.26282 3.50866 0
M  V30 2549 N 246.843 -1.10192 1.12674 0
M  V30 2550 C 248.092 -1.81573 0.8783 0
M  V30 2551 C 248.405 -1.86249 -0.597557 0
M  V30 2552 O 249.611 -2.5386 -0.962681 0
M  V30 2553 C 248.067 -3.26149 1.52167 0
M  V30 2554 C 247.675 -3.29763 3.03249 0
M  V30 2555 C 249.419 -4.0234 1.3536 0
M  V30 2556 C 247.326 -4.68815 3.60508 0
M  V30 2557 H 246.256 -0.680394 0.324931 0
M  V30 2558 H 248.907 -1.23902 1.35353 0
M  V30 2559 H 247.289 -3.83832 0.974104 0
M  V30 2560 H 248.463 -2.8189 3.6452 0
M  V30 2561 H 246.778 -2.67059 3.19481 0
M  V30 2562 H 249.375 -5.05058 1.75559 0
M  V30 2563 H 249.718 -4.15235 0.297554 0
M  V30 2564 H 250.251 -3.51079 1.87052 0
M  V30 2565 H 246.99 -4.61121 4.65884 0
M  V30 2566 H 246.51 -5.17045 3.04014 0
M  V30 2567 H 248.189 -5.37785 3.59717 0
M  V30 2568 N 248.321 -0.919034 -1.28029 0
M  V30 2569 C 249.284 -0.416182 -2.2539 0
M  V30 2570 C 250.284 0.460438 -1.54067 0
M  V30 2571 O 251.474 0.262744 -1.72207 0
M  V30 2572 C 248.606 0.402707 -3.38513 0
M  V30 2573 H 249.799 -1.27629 -2.71387 0
M  V30 2574 H 247.352 -0.698919 -1.39803 0
M  V30 2575 H 248.087 1.282 -2.97885 0
M  V30 2576 H 247.872 -0.225698 -3.9145 0
M  V30 2577 H 249.362 0.745191 -4.10897 0
M  V30 2578 N 249.799 1.42003 -0.683588 0
M  V30 2579 C 250.762 2.29191 -0.0198243 0
M  V30 2580 C 251.762 1.43773 0.72013 0
M  V30 2581 O 252.952 1.65061 0.556815 0
M  V30 2582 C 250.084 3.26435 0.982487 0
M  V30 2583 H 251.277 2.8938 -0.787345 0
M  V30 2584 H 248.83 1.49789 -0.446418 0
M  V30 2585 H 249.565 2.71203 1.77819 0
M  V30 2586 H 249.35 3.89449 0.455182 0
M  V30 2587 H 250.84 3.918 1.44508 0
M  V30 2588 N 251.277 0.427512 1.51691 0
M  V30 2589 C 252.524 -0.142229 2.02 0
M  V30 2590 C 252.852 -1.43566 1.31221 0
M  V30 2591 O 252.107 -1.91298 0.412744 0
M  V30 2592 C 252.406 -0.418249 3.54944 0
M  V30 2593 C 252.072 0.788187 4.43958 0
M  V30 2594 C 250.734 1.11906 4.68007 0
M  V30 2595 C 253.086 1.59347 4.96244 0
M  V30 2596 C 250.414 2.25608 5.41588 0
M  V30 2597 C 252.766 2.7214 5.71072 0
M  V30 2598 C 251.43 3.05692 5.93387 0
M  V30 2599 H 250.7 -0.0520451 0.73917 0
M  V30 2600 H 253.347 0.572697 1.82736 0
M  V30 2601 H 251.652 -1.21496 3.72486 0
M  V30 2602 H 253.349 -0.872339 3.91397 0
M  V30 2603 H 249.939 0.520344 4.2543 0
M  V30 2604 H 254.123 1.35106 4.77556 0
M  V30 2605 H 249.379 2.51929 5.57083 0
M  V30 2606 H 253.553 3.34914 6.10578 0
M  V30 2607 H 251.18 3.9391 6.50184 0
M  V30 2608 N 252.755 -1.56801 0.158532 0
M  V30 2609 C 253.98 -2.01295 -0.499516 0
M  V30 2610 C 254.405 -1.03799 -1.56867 0
M  V30 2611 O 253.763 -0.0155162 -1.81293 0
M  V30 2612 C 253.811 -3.44469 -1.06647 0
M  V30 2613 O 252.915 -3.50012 -2.18095 0
M  V30 2614 H 252.256 -0.652884 -0.12099 0
M  V30 2615 H 254.786 -2.02958 0.258661 0
M  V30 2616 H 254.796 -3.8351 -1.39227 0
M  V30 2617 H 253.471 -4.14932 -0.283581 0
M  V30 2618 H 252.048 -3.22822 -1.86656 0
M  V30 2619 N 254.233 0.115231 -1.57178 0
M  V30 2620 C 255.644 0.67197 -1.74188 0
M  V30 2621 C 255.995 1.80125 -0.777777 0
M  V30 2622 O 255.12 2.16346 0.0484376 0
M  V30 2623 C 255.715 1.22573 -3.1585 0
M  V30 2624 C 254.274 1.72872 -3.34353 0
M  V30 2625 C 253.421 0.629972 -2.70049 0
M  V30 2626 H 256.372 -0.110712 -1.58313 0
M  V30 2627 H 256.393 2.09535 -3.17609 0
M  V30 2628 H 255.905 0.403598 -3.85996 0
M  V30 2629 H 254.006 2.5755 -2.69256 0
M  V30 2630 H 254.119 1.83557 -4.42542 0
M  V30 2631 H 252.483 1.0645 -2.31388 0
M  V30 2632 H 253.266 -0.181241 -3.42821 0
M  V30 2633 N 255.711 1.52812 0.385517 0
M  V30 2634 C 256.936 1.72207 1.15583 0
M  V30 2635 C 257.361 0.441034 1.82857 0
M  V30 2636 O 256.719 -0.603465 1.70962 0
M  V30 2637 C 256.767 2.87476 2.17692 0
M  V30 2638 O 255.871 2.54693 3.24354 0
M  V30 2639 H 255.212 0.572526 0.336319 0
M  V30 2640 H 257.742 1.99618 0.448744 0
M  V30 2641 H 257.752 3.13072 2.6163 0
M  V30 2642 H 256.427 3.80408 1.68115 0
M  V30 2643 H 255.004 2.3985 2.85529 0
M  V30 2644 N 257.189 -0.644168 1.43834 0
M  V30 2645 C 258.6 -1.22554 1.40845 0
M  V30 2646 C 258.951 -1.9585 0.117115 0
M  V30 2647 O 258.076 -2.01734 -0.783086 0
M  V30 2648 C 258.671 -2.22907 2.55143 0
M  V30 2649 C 257.23 -2.76501 2.5539 0
M  V30 2650 C 256.377 -1.51287 2.32396 0
M  V30 2651 H 259.328 -0.43563 1.52604 0
M  V30 2652 H 259.349 -3.05259 2.2715 0
M  V30 2653 H 258.861 -1.69533 3.49114 0
M  V30 2654 H 256.962 -3.33914 1.65324 0
M  V30 2655 H 257.075 -3.23429 3.53455 0
M  V30 2656 H 255.439 -1.78957 1.81236 0
M  V30 2657 H 256.222 -0.998336 3.28463 0
M  V30 2658 N 258.668 -1.30515 -0.883378 0
M  V30 2659 C 259.916 -1.19194 -1.63209 0
M  V30 2660 C 260.237 0.253205 -1.93349 0
M  V30 2661 O 259.507 1.17025 -1.57105 0
M  V30 2662 H 258.087 -0.438148 -0.605009 0
M  V30 2663 H 260.749 -1.63663 -1.05832 0
M  V30 2664 H 259.845 -1.75396 -2.58153 0
M  V30 2665 N 260.146 1.09593 -1.13257 0
M  V30 2666 C 261.393 1.81734 -0.893257 0
M  V30 2667 C 261.721 1.8563 0.580656 0
M  V30 2668 O 260.976 1.31906 1.44566 0
M  V30 2669 C 261.275 3.27802 -1.42411 0
M  V30 2670 C 260.941 3.44041 -2.91456 0
M  V30 2671 C 259.603 3.48181 -3.3215 0
M  V30 2672 C 261.955 3.48719 -3.87356 0
M  V30 2673 C 259.283 3.54575 -4.67433 0
M  V30 2674 C 261.635 3.56648 -5.2248 0
M  V30 2675 C 260.299 3.59055 -5.62704 0
M  V30 2676 H 259.569 0.665011 -0.326866 0
M  V30 2677 H 262.216 1.2912 -1.41422 0
M  V30 2678 H 260.521 3.83042 -0.823795 0
M  V30 2679 H 262.218 3.82149 -1.21503 0
M  V30 2680 H 258.808 3.41502 -2.58987 0
M  V30 2681 H 262.992 3.44763 -3.57004 0
M  V30 2682 H 258.248 3.54725 -4.97976 0
M  V30 2683 H 262.422 3.59212 -5.96607 0
M  V30 2684 H 260.049 3.63763 -6.67518 0
M  V30 2685 N 261.624 0.925811 1.2754 0
M  V30 2686 C 262.849 0.580924 1.99098 0
M  V30 2687 C 263.274 -0.833555 1.68622 0
M  V30 2688 O 262.632 -1.55903 0.925422 0
M  V30 2689 C 262.68 0.811186 3.51358 0
M  V30 2690 O 261.784 -0.124129 4.12213 0
M  V30 2691 H 261.125 0.223873 0.625122 0
M  V30 2692 H 263.655 1.24455 1.62395 0
M  V30 2693 H 263.665 0.72601 4.01489 0
M  V30 2694 H 262.34 1.84227 3.72872 0
M  V30 2695 H 260.917 0.0108006 3.72898 0
M  V30 2696 N 263.102 -1.41638 0.69111 0
M  V30 2697 C 264.513 -1.84346 0.295517 0
M  V30 2698 C 264.864 -1.57833 -1.16547 0
M  V30 2699 O 263.989 -1.04648 -1.89414 0
M  V30 2700 C 264.584 -3.34636 0.529575 0
M  V30 2701 C 263.143 -3.7593 0.187944 0
M  V30 2702 C 262.29 -2.65082 0.814052 0
M  V30 2703 H 265.241 -1.31253 0.892092 0
M  V30 2704 H 265.262 -3.79903 -0.213148 0
M  V30 2705 H 264.774 -3.53901 1.59297 0
M  V30 2706 H 262.875 -3.62268 -0.871367 0
M  V30 2707 H 262.988 -4.74808 0.63985 0
M  V30 2708 H 261.352 -2.53528 0.244017 0
M  V30 2709 H 262.135 -2.87167 1.88123 0
M  V30 2710 N 264.58 -0.43555 -1.51462 0
M  V30 2711 C 265.81 0.130053 -2.0619 0
M  V30 2712 C 266.218 1.37164 -1.30317 0
M  V30 2713 O 265.561 1.80225 -0.355598 0
M  V30 2714 C 265.623 0.519418 -3.55728 0
M  V30 2715 C 265.287 -0.615119 -4.52841 0
M  V30 2716 C 266.284 -1.48671 -4.9819 0
M  V30 2717 C 263.969 -0.795341 -4.95963 0
M  V30 2718 C 265.963 -2.52324 -5.8533 0
M  V30 2719 C 263.65 -1.83514 -5.82894 0
M  V30 2720 C 264.648 -2.69748 -6.27475 0
M  V30 2721 O 264.336 -3.71944 -7.1268 0
M  V30 2722 H 264.068 0.0121612 -0.675891 0
M  V30 2723 H 266.622 -0.6129 -1.96043 0
M  V30 2724 H 264.852 1.31505 -3.63653 0
M  V30 2725 H 266.541 1.01597 -3.92979 0
M  V30 2726 H 267.307 -1.359 -4.65571 0
M  V30 2727 H 263.186 -0.133713 -4.60806 0
M  V30 2728 H 266.73 -3.19665 -6.20048 0
M  V30 2729 H 262.627 -1.96306 -6.14926 0
M  V30 2730 H 263.395 -3.68503 -7.30854 0
M  V30 2731 N 266.058 1.56714 -0.166846 0
M  V30 2732 C 267.006 2.19056 0.782123 0
M  V30 2733 C 268 1.15328 1.24079 0
M  V30 2734 O 269.206 1.33537 1.20697 0
M  V30 2735 H 265.581 0.70167 0.270486 0
M  V30 2736 H 267.552 2.97494 0.232322 0
M  V30 2737 C 266.301 2.84206 2.00306 0
M  V30 2738 H 265.624 3.63748 1.65914 0
M  V30 2739 H 267.064 3.31302 2.64604 0
M  V30 2740 C 265.523 1.83744 2.82382 0
M  V30 2741 O 266.053 1.32014 3.79388 0
M  V30 2742 N 264.259 1.52601 2.47308 0
M  V30 2743 H 263.806 1.9486 1.68485 0
M  V30 2744 H 263.764 0.856351 3.02513 0
M  V30 2745 N 267.536 -0.106894 1.57237 0
M  V30 2746 C 268.782 -0.81373 1.85759 0
M  V30 2747 C 269.115 -1.78952 0.754315 0
M  V30 2748 O 268.39 -1.93029 -0.23879 0
M  V30 2749 C 268.673 -1.55293 3.24894 0
M  V30 2750 C 268.526 -0.595929 4.45835 0
M  V30 2751 C 269.845 -2.5063 3.61763 0
M  V30 2752 H 266.964 -0.294369 0.67566 0
M  V30 2753 H 269.606 -0.0776472 1.89841 0
M  V30 2754 H 267.756 -2.1804 3.21544 0
M  V30 2755 H 269.428 0.0236262 4.61294 0
M  V30 2756 H 267.671 0.0916191 4.33703 0
M  V30 2757 H 268.342 -1.15004 5.39887 0
M  V30 2758 H 270.818 -1.97982 3.65981 0
M  V30 2759 H 269.694 -2.99376 4.60071 0
M  V30 2760 H 269.955 -3.3385 2.89821 0
M  V30 2761 N 269.014 -1.53014 -0.377408 0
M  V30 2762 C 270.239 -1.72818 -1.14668 0
M  V30 2763 C 270.664 -0.450725 -1.8262 0
M  V30 2764 O 270.022 0.59439 -1.7128 0
M  V30 2765 C 270.07 -2.88627 -2.16164 0
M  V30 2766 O 269.174 -2.56409 -3.22998 0
M  V30 2767 H 268.515 -0.574301 -0.333278 0
M  V30 2768 H 271.045 -1.99853 -0.438152 0
M  V30 2769 H 271.055 -3.14455 -2.59966 0
M  V30 2770 H 269.73 -3.81294 -1.66095 0
M  V30 2771 H 268.307 -2.4136 -2.84253 0
M  V30 2772 N 270.492 0.636531 -1.44174 0
M  V30 2773 C 271.439 1.74875 -1.50624 0
M  V30 2774 C 272.409 1.62275 -0.35442 0
M  V30 2775 O 273.594 1.82276 -0.563908 0
M  V30 2776 C 270.734 3.13102 -1.45125 0
M  V30 2777 C 269.847 3.36717 -2.7064 0
M  V30 2778 C 268.982 4.64885 -2.57013 0
M  V30 2779 C 268.021 4.8166 -3.77717 0
M  V30 2780 N 267.158 6.01101 -3.62798 0
M  V30 2781 H 271.998 1.68697 -2.45653 0
M  V30 2782 H 269.535 0.823004 -1.21922 0
M  V30 2783 H 271.493 3.93034 -1.39929 0
M  V30 2784 H 270.123 3.18308 -0.536671 0
M  V30 2785 H 269.175 2.50763 -2.86046 0
M  V30 2786 H 270.487 3.44993 -3.60252 0
M  V30 2787 H 269.641 5.52969 -2.49619 0
M  V30 2788 H 268.38 4.58957 -1.64953 0
M  V30 2789 H 267.385 3.92007 -3.85501 0
M  V30 2790 H 268.61 4.89406 -4.70807 0
M  V30 2791 H 266.556 5.96273 -2.73486 0
M  V30 2792 H 266.473 6.10409 -4.46023 0
M  V30 2793 H 267.741 6.91761 -3.59286 0
M  V30 2794 N 271.97 1.30982 0.876444 0
M  V30 2795 C 273.198 1.23242 1.6619 0
M  V30 2796 C 273.613 -0.203345 1.87702 0
M  V30 2797 O 272.97 -1.13317 1.43057 0
M  V30 2798 C 273.021 1.96623 3.03351 0
M  V30 2799 O 272.742 3.34594 2.82804 0
M  V30 2800 C 274.243 1.95644 3.97792 0
M  V30 2801 H 271.463 0.426126 0.518322 0
M  V30 2802 H 274.007 1.7275 1.09442 0
M  V30 2803 H 272.162 1.50892 3.56806 0
M  V30 2804 H 272.576 3.71873 3.69879 0
M  V30 2805 H 274.05 2.51511 4.91372 0
M  V30 2806 H 274.527 0.937395 4.2908 0
M  V30 2807 H 275.133 2.41225 3.50272 0
M  V30 2808 N 273.449 -1.08991 1.13837 0
M  V30 2809 C 274.412 -2.13925 0.822715 0
M  V30 2810 C 275.412 -1.599 -0.1699 0
M  V30 2811 O 276.602 -1.74104 0.0577251 0
M  V30 2812 C 273.734 -3.40155 0.225318 0
M  V30 2813 H 274.927 -2.43358 1.75262 0
M  V30 2814 H 272.48 -1.24603 0.943594 0
M  V30 2815 H 273.215 -3.16352 -0.713594 0
M  V30 2816 H 273 -3.80661 0.940193 0
M  V30 2817 H 274.49 -4.17594 0.0214784 0
M  V30 2818 N 274.927 -0.932562 -1.27047 0
M  V30 2819 C 275.857 -0.452902 -2.29066 0
M  V30 2820 C 276.838 0.489338 -1.62909 0
M  V30 2821 O 278.023 0.393046 -1.90181 0
M  V30 2822 C 275.153 0.290698 -3.46081 0
M  V30 2823 C 274.107 -0.564168 -4.24265 0
M  V30 2824 C 273.433 0.308886 -5.33807 0
M  V30 2825 C 274.733 -1.83112 -4.89149 0
M  V30 2826 H 276.427 -1.30552 -2.69437 0
M  V30 2827 H 273.973 -0.629201 -1.29526 0
M  V30 2828 H 275.926 0.637233 -4.16554 0
M  V30 2829 H 274.65 1.17738 -3.0464 0
M  V30 2830 H 273.309 -0.893477 -3.55545 0
M  V30 2831 H 272.957 1.19467 -4.88607 0
M  V30 2832 H 272.657 -0.259633 -5.87026 0
M  V30 2833 H 274.181 0.650884 -6.07121 0
M  V30 2834 H 275.595 -1.55236 -5.51883 0
M  V30 2835 H 273.992 -2.34353 -5.52448 0
M  V30 2836 H 275.062 -2.54772 -4.12576 0
M  V30 2837 N 276.405 1.4127 -0.698611 0
M  V30 2838 C 277.335 2.33447 -0.049629 0
M  V30 2839 C 278.316 1.51982 0.763898 0
M  V30 2840 O 279.501 1.80509 0.716257 0
M  V30 2841 C 276.631 3.35828 0.885267 0
M  V30 2842 C 275.585 4.27627 0.178613 0
M  V30 2843 C 274.911 5.20406 1.22807 0
M  V30 2844 C 276.211 5.13459 -0.956933 0
M  V30 2845 H 277.905 2.87966 -0.81951 0
M  V30 2846 H 275.451 1.38461 -0.395538 0
M  V30 2847 H 277.404 3.9924 1.34854 0
M  V30 2848 H 276.128 2.79666 1.68685 0
M  V30 2849 H 274.787 3.65643 -0.26466 0
M  V30 2850 H 274.435 4.60558 2.02226 0
M  V30 2851 H 274.135 5.82661 0.760239 0
M  V30 2852 H 275.659 5.86695 1.69179 0
M  V30 2853 H 277.073 5.70421 -0.573805 0
M  V30 2854 H 275.47 5.8467 -1.35205 0
M  V30 2855 H 276.54 4.50443 -1.79524 0
M  V30 2856 N 277.883 0.443576 1.51229 0
M  V30 2857 C 279.131 -0.120557 2.0174 0
M  V30 2858 C 279.452 -1.42665 1.32935 0
M  V30 2859 O 278.722 -1.9028 0.465866 0
M  V30 2860 H 277.302 -0.0475426 0.745486 0
M  V30 2861 H 279.964 0.587711 1.85828 0
M  V30 2862 H 279.06 -0.291972 3.10731 0
M  V30 2863 N 279.361 -1.56624 0.175154 0
M  V30 2864 C 280.291 -2.21155 -0.749195 0
M  V30 2865 C 281.272 -1.16836 -1.23626 0
M  V30 2866 O 282.457 -1.45277 -1.28873 0
M  V30 2867 C 279.587 -2.8553 -1.97711 0
M  V30 2868 C 278.541 -3.95921 -1.62575 0
M  V30 2869 C 277.867 -4.47365 -2.92864 0
M  V30 2870 C 279.167 -5.15323 -0.850838 0
M  V30 2871 H 280.861 -2.98653 -0.211295 0
M  V30 2872 H 278.407 -1.43651 -0.100188 0
M  V30 2873 H 280.36 -3.2935 -2.62881 0
M  V30 2874 H 279.084 -2.05406 -2.53921 0
M  V30 2875 H 277.743 -3.52762 -0.997719 0
M  V30 2876 H 277.391 -3.64027 -3.47122 0
M  V30 2877 H 277.091 -5.21839 -2.70106 0
M  V30 2878 H 278.615 -4.93873 -3.59056 0
M  V30 2879 H 280.029 -5.55812 -1.40521 0
M  V30 2880 H 278.426 -5.95739 -0.722154 0
M  V30 2881 H 279.496 -4.84661 0.152082 0
M  V30 2882 N 280.839 0.0985539 -1.57292 0
M  V30 2883 C 281.787 1.1387 -2.02821 0
M  V30 2884 C 282.781 1.41676 -0.928666 0
M  V30 2885 O 283.987 1.41398 -1.11385 0
M  V30 2886 H 280.362 0.384419 -0.646317 0
M  V30 2887 H 282.333 0.728347 -2.89375 0
M  V30 2888 C 281.082 2.45166 -2.46554 0
M  V30 2889 H 280.405 2.24613 -3.3074 0
M  V30 2890 H 281.845 3.16456 -2.8219 0
M  V30 2891 C 280.304 3.09216 -1.33742 0
M  V30 2892 O 280.834 3.96163 -0.66464 0
M  V30 2893 N 279.04 2.69413 -1.08928 0
M  V30 2894 H 278.587 1.98801 -1.63817 0
M  V30 2895 H 278.545 3.12594 -0.336458 0
M  V30 2896 N 282.317 1.53212 0.369288 0
M  V30 2897 C 283.265 1.80054 1.47253 0
M  V30 2898 C 284.259 0.669456 1.55611 0
M  V30 2899 O 285.465 0.852328 1.58541 0
M  V30 2900 H 281.84 0.570034 0.490475 0
M  V30 2901 H 283.811 2.72403 1.21817 0
M  V30 2902 C 282.56 2.00403 2.84137 0
M  V30 2903 H 281.883 2.86876 2.78464 0
M  V30 2904 H 283.323 2.23164 3.60519 0
M  V30 2905 C 281.782 0.782081 3.27697 0
M  V30 2906 O 282.312 -0.0310205 4.01688 0
M  V30 2907 N 280.518 0.606573 2.84199 0
M  V30 2908 H 280.065 1.26939 2.24152 0
M  V30 2909 H 280.023 -0.20962 3.137 0
M  V30 2910 N 283.795 -0.628877 1.44509 0
M  V30 2911 C 285.023 -1.41554 1.50897 0
M  V30 2912 C 285.438 -1.8832 0.134564 0
M  V30 2913 O 284.795 -1.60969 -0.859965 0
M  V30 2914 C 284.846 -2.63435 2.47556 0
M  V30 2915 O 284.567 -2.18619 3.79654 0
M  V30 2916 C 286.068 -3.56537 2.63431 0
M  V30 2917 H 283.288 -0.434044 0.511709 0
M  V30 2918 H 285.832 -0.768895 1.89495 0
M  V30 2919 H 283.987 -3.24187 2.12089 0
M  V30 2920 H 284.401 -2.97652 4.31861 0
M  V30 2921 H 285.875 -4.38657 3.35088 0
M  V30 2922 H 286.352 -4.05493 1.68738 0
M  V30 2923 H 286.958 -3.01653 2.9981 0
M  V30 2924 N 285.273 -1.31445 -0.869486 0
M  V30 2925 C 286.203 -1.21727 -1.99261 0
M  V30 2926 C 287.184 -0.104359 -1.6978 0
M  V30 2927 O 288.369 -0.289038 -1.92037 0
M  V30 2928 C 285.499 -0.924317 -3.34774 0
M  V30 2929 C 284.453 -1.99685 -3.78563 0
M  V30 2930 C 283.779 -1.55658 -5.11541 0
M  V30 2931 C 285.079 -3.41003 -3.95619 0
M  V30 2932 H 286.773 -2.1569 -2.07649 0
M  V30 2933 H 284.319 -1.03839 -0.997675 0
M  V30 2934 H 286.272 -0.842934 -4.12883 0
M  V30 2935 H 284.996 0.0509793 -3.2656 0
M  V30 2936 H 283.655 -2.06813 -3.02694 0
M  V30 2937 H 283.303 -0.569132 -4.9977 0
M  V30 2938 H 283.003 -2.27409 -5.41811 0
M  V30 2939 H 284.527 -1.48928 -5.92159 0
M  V30 2940 H 285.941 -3.36547 -4.64122 0
M  V30 2941 H 284.338 -4.10975 -4.37286 0
M  V30 2942 H 285.408 -3.81754 -2.98985 0
M  V30 2943 N 286.751 1.08385 -1.14413 0
M  V30 2944 C 287.714 2.13486 -0.834048 0
M  V30 2945 C 288.714 1.59988 0.161418 0
M  V30 2946 O 289.904 1.74071 -0.0669575 0
M  V30 2947 C 287.036 3.4003 -0.243354 0
M  V30 2948 H 288.229 2.42425 -1.7655 0
M  V30 2949 H 285.782 1.24101 -0.950189 0
M  V30 2950 H 286.517 3.16726 0.696807 0
M  V30 2951 H 286.302 3.80157 -0.960367 0
M  V30 2952 H 287.792 4.17577 -0.0436242 0
M  V30 2953 N 288.23 0.939286 1.26551 0
M  V30 2954 C 289.479 0.581601 1.93133 0
M  V30 2955 C 289.792 -0.883224 1.74524 0
M  V30 2956 O 290.998 -1.3502 2.35546 0
M  V30 2957 C 289.454 0.989425 3.46032 0
M  V30 2958 C 289.062 2.47573 3.73379 0
M  V30 2959 C 290.806 0.703544 4.18629 0
M  V30 2960 C 288.713 2.82235 5.19709 0
M  V30 2961 H 287.643 0.213803 0.723052 0
M  V30 2962 H 290.294 1.14167 1.4366 0
M  V30 2963 H 288.676 0.357902 3.94379 0
M  V30 2964 H 289.85 3.15614 3.35744 0
M  V30 2965 H 288.165 2.73471 3.1401 0
M  V30 2966 H 290.762 0.938869 5.26393 0
M  V30 2967 H 291.105 -0.359639 4.14744 0
M  V30 2968 H 291.638 1.2947 3.76141 0
M  V30 2969 H 288.377 3.87509 5.28694 0
M  V30 2970 H 287.897 2.18854 5.58447 0
M  V30 2971 H 289.576 2.70599 5.87695 0
M  V30 2972 N 289.708 -1.40897 0.706093 0
M  V30 2973 C 290.618 -2.3455 0.0482286 0
M  V30 2974 C 291.634 -1.56796 -0.754396 0
M  V30 2975 O 292.81 -1.89228 -0.689538 0
M  V30 2976 C 289.875 -3.35625 -0.869303 0
M  V30 2977 C 288.936 -4.29261 -0.0576994 0
M  V30 2978 C 288.169 -5.25508 -0.931531 0
M  V30 2979 O 288.392 -5.27472 -2.17092 0
M  V30 2980 O 287.326 -6.00727 -0.375587 0
M  V30 2981 H 291.152 -2.92407 0.820476 0
M  V30 2982 H 288.737 -1.4193 0.4665 0
M  V30 2983 H 290.619 -3.97635 -1.39514 0
M  V30 2984 H 289.294 -2.80196 -1.62086 0
M  V30 2985 H 288.201 -3.70566 0.512988 0
M  V30 2986 H 289.534 -4.87817 0.655426 0
M  V30 2987 N 291.186 -0.45159 -1.50991 0
M  V30 2988 C 292.116 0.342898 -2.30969 0
M  V30 2989 C 293.097 1.00815 -1.37005 0
M  V30 2990 O 294.282 1.00907 -1.65926 0
M  V30 2991 C 291.412 1.43637 -3.16205 0
M  V30 2992 C 290.366 0.893818 -4.18563 0
M  V30 2993 C 289.692 2.08411 -4.92411 0
M  V30 2994 C 290.992 -0.0815568 -5.22236 0
M  V30 2995 H 292.686 -0.324556 -2.97636 0
M  V30 2996 H 290.232 -0.157531 -1.43136 0
M  V30 2997 H 292.185 1.9995 -3.70942 0
M  V30 2998 H 290.909 2.13232 -2.47386 0
M  V30 2999 H 289.568 0.352798 -3.64898 0
M  V30 3000 H 289.216 2.76658 -4.20082 0
M  V30 3001 H 288.916 1.72741 -5.61636 0
M  V30 3002 H 290.44 2.65251 -5.49976 0
M  V30 3003 H 291.854 0.391742 -5.7196 0
M  V30 3004 H 290.251 -0.351551 -5.99069 0
M  V30 3005 H 291.321 -1.01374 -4.74185 0
M  V30 3006 N 292.664 1.56529 -0.183458 0
M  V30 3007 C 293.627 2.17324 0.728223 0
M  V30 3008 C 294.627 1.12453 1.14939 0
M  V30 3009 O 295.817 1.37902 1.06437 0
M  V30 3010 C 292.949 2.76591 1.99274 0
M  V30 3011 H 294.142 2.99241 0.198772 0
M  V30 3012 H 291.695 1.5616 0.0661391 0
M  V30 3013 H 292.43 1.98441 2.56499 0
M  V30 3014 H 292.215 3.5335 1.69959 0
M  V30 3015 H 293.705 3.23311 2.6431 0
M  V30 3016 N 294.142 -0.090211 1.57342 0
M  V30 3017 C 295.553 -0.644173 1.75235 0
M  V30 3018 C 295.904 -1.78865 0.806335 0
M  V30 3019 O 295.029 -2.16395 -0.0140128 0
M  V30 3020 C 295.624 -1.17532 3.1776 0
M  V30 3021 C 294.183 -1.67531 3.37061 0
M  V30 3022 C 293.33 -0.58693 2.71017 0
M  V30 3023 H 296.281 0.135884 1.58117 0
M  V30 3024 H 296.302 -2.04455 3.20902 0
M  V30 3025 H 295.814 -0.342138 3.86589 0
M  V30 3026 H 293.915 -2.53234 2.73319 0
M  V30 3027 H 294.028 -1.76493 4.45406 0
M  V30 3028 H 292.392 -1.02756 2.33052 0
M  V30 3029 H 293.175 0.235758 3.4249 0
M  V30 3030 N 295.62 -1.53406 -0.361157 0
M  V30 3031 C 297.036 -1.43277 -0.703124 0
M  V30 3032 C 297.236 -0.575384 -1.9311 0
M  V30 3033 O 296.292 -0.0595362 -2.5243 0
M  V30 3034 C 297.605 -2.8653 -0.9122 0
M  V30 3035 C 299.153 -2.96191 -1.01193 0
M  V30 3036 C 299.628 -4.40514 -1.25345 0
M  V30 3037 N 301.119 -4.43962 -1.32105 0
M  V30 3038 C 301.854 -5.52746 -1.5251 0
M  V30 3039 N 301.35 -6.71567 -1.70203 0
M  V30 3040 N 303.143 -5.40331 -1.54916 0
M  V30 3041 H 295.294 -2.07654 0.446475 0
M  V30 3042 H 297.557 -0.937944 0.137715 0
M  V30 3043 H 297.263 -3.51605 -0.0816414 0
M  V30 3044 H 297.137 -3.30441 -1.81903 0
M  V30 3045 H 299.524 -2.31266 -1.83303 0
M  V30 3046 H 299.605 -2.55667 -0.0823929 0
M  V30 3047 H 299.249 -5.06014 -0.437346 0
M  V30 3048 H 299.179 -4.78614 -2.19627 0
M  V30 3049 H 301.67 -3.58332 -1.20028 0
M  V30 3050 H 301.983 -7.50241 -1.85359 0
M  V30 3051 H 300.328 -6.74545 -1.67373 0
M  V30 3052 H 303.519 -4.46465 -1.40663 0
M  V30 3053 H 303.692 -6.25173 -1.70477 0
M  V30 3054 N 297.098 0.621204 -1.44841 0
M  V30 3055 C 298.046 1.75385 -1.52784 0
M  V30 3056 C 299.04 1.64639 -0.398779 0
M  V30 3057 O 300.246 1.70598 -0.574137 0
M  V30 3058 H 296.621 0.579193 -0.479625 0
M  V30 3059 H 298.592 1.6581 -2.48092 0
M  V30 3060 C 297.341 3.13742 -1.4987 0
M  V30 3061 H 296.664 3.22663 -2.36069 0
M  V30 3062 H 298.104 3.92861 -1.59487 0
M  V30 3063 C 296.563 3.36175 -0.220973 0
M  V30 3064 O 297.093 3.95469 0.704782 0
M  V30 3065 N 295.299 2.90348 -0.120963 0
M  V30 3066 H 294.846 2.42278 -0.875162 0
M  V30 3067 H 294.804 3.05732 0.733168 0
M  V30 3068 N 298.576 1.31904 0.862503 0
M  V30 3069 C 299.825 1.21373 1.61094 0
M  V30 3070 C 300.138 -0.22504 1.94301 0
M  V30 3071 O 301.344 -0.452121 2.67709 0
M  V30 3072 C 299.8 2.12525 2.9045 0
M  V30 3073 C 299.408 3.61441 2.64697 0
M  V30 3074 C 301.152 2.10813 3.68454 0
M  V30 3075 C 299.059 4.44578 3.90006 0
M  V30 3076 H 297.989 0.450705 0.604468 0
M  V30 3077 H 300.64 1.56811 0.953027 0
M  V30 3078 H 299.022 1.69994 3.57656 0
M  V30 3079 H 300.196 4.12264 2.05851 0
M  V30 3080 H 298.511 3.65205 2.00036 0
M  V30 3081 H 301.108 2.70167 4.61426 0
M  V30 3082 H 301.451 1.09713 4.01583 0
M  V30 3083 H 301.984 2.51583 3.08141 0
M  V30 3084 H 298.723 5.46461 3.62023 0
M  V30 3085 H 298.243 3.98508 4.48276 0
M  V30 3086 H 299.922 4.57176 4.5782 0
M  V30 3087 N 300.054 -1.07777 1.14986 0
M  V30 3088 C 301.47 -1.32373 0.891596 0
M  V30 3089 C 301.67 -1.9609 -0.463788 0
M  V30 3090 O 300.726 -2.21801 -1.20667 0
M  V30 3091 C 302.039 -2.21905 2.02925 0
M  V30 3092 C 303.587 -2.35367 2.06329 0
M  V30 3093 C 304.062 -3.28245 3.19405 0
M  V30 3094 N 305.553 -3.35824 3.19024 0
M  V30 3095 C 306.288 -4.07739 4.03158 0
M  V30 3096 N 305.784 -4.82306 4.97346 0
M  V30 3097 N 307.577 -4.03635 3.91197 0
M  V30 3098 H 299.728 -0.648039 2.02273 0
M  V30 3099 H 301.991 -0.348149 0.881757 0
M  V30 3100 H 301.697 -1.82342 3.0074 0
M  V30 3101 H 301.571 -3.22407 1.95789 0
M  V30 3102 H 303.958 -2.74186 1.09116 0
M  V30 3103 H 304.039 -1.34585 2.17533 0
M  V30 3104 H 303.683 -2.90146 4.16867 0
M  V30 3105 H 303.613 -4.28971 3.05437 0
M  V30 3106 H 306.104 -2.8267 2.50811 0
M  V30 3107 H 306.417 -5.34661 5.57994 0
M  V30 3108 H 304.762 -4.81337 5.01338 0
M  V30 3109 H 307.953 -3.44491 3.16928 0
M  V30 3110 H 308.126 -4.59417 4.5699 0
M  V30 3111 N 301.532 -0.945985 -1.26051 0
M  V30 3112 C 302.778 -0.597002 -1.93814 0
M  V30 3113 C 303.111 0.862484 -1.73997 0
M  V30 3114 O 302.386 1.61769 -1.07986 0
M  V30 3115 C 302.669 -0.945937 -3.47454 0
M  V30 3116 C 302.522 -2.46052 -3.76535 0
M  V30 3117 C 303.841 -0.464785 -4.37639 0
M  V30 3118 H 300.96 -0.218366 -0.703907 0
M  V30 3119 H 303.602 -1.18107 -1.48831 0
M  V30 3120 H 301.752 -0.448902 -3.85898 0
M  V30 3121 H 303.424 -3.03065 -3.47778 0
M  V30 3122 H 301.667 -2.90194 -3.22444 0
M  V30 3123 H 302.338 -2.65517 -4.83947 0
M  V30 3124 H 304.814 -0.891016 -4.06448 0
M  V30 3125 H 303.69 -0.737712 -5.4392 0
M  V30 3126 H 303.951 0.635274 -4.37512 0
M  V30 3127 N 303.011 1.40521 -0.713556 0
M  V30 3128 C 303.959 2.32549 -0.0485227 0
M  V30 3129 C 304.953 1.51931 0.74922 0
M  V30 3130 O 306.159 1.67745 0.652816 0
M  V30 3131 H 302.534 0.751994 0.00311138 0
M  V30 3132 H 304.505 2.86291 -0.841443 0
M  V30 3133 C 303.254 3.36879 0.860687 0
M  V30 3134 H 302.577 3.98978 0.256246 0
M  V30 3135 H 304.017 4.03772 1.294 0
M  V30 3136 C 302.476 2.72197 1.9852 0
M  V30 3137 O 303.006 2.5837 3.07584 0
M  V30 3138 N 301.212 2.30612 1.76823 0
M  V30 3139 H 300.759 2.42059 0.881217 0
M  V30 3140 H 300.717 1.87672 2.52243 0
M  V30 3141 N 304.489 0.459591 1.5075 0
M  V30 3142 C 305.729 -0.09824 2.04164 0
M  V30 3143 C 306.093 -1.3801 1.33481 0
M  V30 3144 O 307.294 -2.01959 1.77387 0
M  V30 3145 C 305.565 -0.289467 3.56226 0
M  V30 3146 S 307.124 -0.807507 4.31306 0
M  V30 3147 H 303.942 -0.0213845 0.710678 0
M  V30 3148 H 306.544 0.624098 1.85271 0
M  V30 3149 H 305.248 0.649461 4.05229 0
M  V30 3150 H 304.779 -1.03825 3.79452 0
M  V30 3151 H 306.794 -2.0824 4.50389 0
M  V30 3152 N 305.967 -1.56429 0.191757 0
M  V30 3153 C 306.897 -2.21937 -0.725696 0
M  V30 3154 C 307.878 -1.1814 -1.2238 0
M  V30 3155 O 309.063 -1.46636 -1.27325 0
M  V30 3156 C 306.193 -2.87611 -1.94672 0
M  V30 3157 C 305.147 -3.97623 -1.58366 0
M  V30 3158 C 304.473 -4.50446 -2.88102 0
M  V30 3159 C 305.773 -5.16197 -0.796133 0
M  V30 3160 H 307.467 -2.98861 -0.179606 0
M  V30 3161 H 305.013 -1.43749 -0.0849464 0
M  V30 3162 H 306.966 -3.3212 -2.59373 0
M  V30 3163 H 305.69 -2.08087 -2.51728 0
M  V30 3164 H 304.349 -3.53801 -0.960247 0
M  V30 3165 H 303.997 -3.67688 -3.43241 0
M  V30 3166 H 303.697 -5.24675 -2.64556 0
M  V30 3167 H 305.221 -4.97654 -3.53798 0
M  V30 3168 H 306.635 -5.57271 -1.34618 0
M  V30 3169 H 305.032 -5.96471 -0.658928 0
M  V30 3170 H 306.102 -4.84473 0.203478 0
M  V30 3171 N 307.445 0.0818655 -1.57387 0
M  V30 3172 C 308.395 1.10501 -1.99433 0
M  V30 3173 C 309.379 1.35041 -0.874798 0
M  V30 3174 O 310.571 1.35511 -1.13868 0
M  V30 3175 C 307.7 2.42159 -2.43339 0
M  V30 3176 C 306.786 2.20937 -3.62005 0
M  V30 3177 N 307.177 1.69616 -4.76512 0
M  V30 3178 C 305.475 2.51451 -3.68359 0
M  V30 3179 C 306.176 1.62973 -5.58404 0
M  V30 3180 N 305.152 2.08664 -5.01956 0
M  V30 3181 H 308.954 0.701373 -2.85408 0
M  V30 3182 H 306.468 0.289096 -1.59806 0
M  V30 3183 H 308.465 3.16208 -2.71695 0
M  V30 3184 H 307.125 2.83249 -1.58746 0
M  V30 3185 H 308.136 1.38624 -4.99003 0
M  V30 3186 H 304.813 2.95975 -2.94457 0
M  V30 3187 H 306.203 1.24233 -6.60315 0
M  V30 3188 N 308.923 1.53595 0.353017 0
M  V30 3189 C 309.853 1.83902 1.43883 0
M  V30 3190 C 310.834 0.693421 1.55324 0
M  V30 3191 O 312.019 0.944452 1.69687 0
M  V30 3192 C 309.149 2.04016 2.8106 0
M  V30 3193 C 308.103 3.19814 2.84434 0
M  V30 3194 C 307.429 3.25244 4.24406 0
M  V30 3195 C 308.729 4.58133 2.50822 0
M  V30 3196 H 310.423 2.74835 1.1877 0
M  V30 3197 H 307.969 1.32242 0.569917 0
M  V30 3198 H 309.922 2.238 3.57059 0
M  V30 3199 H 308.646 1.09804 3.07588 0
M  V30 3200 H 307.305 2.9987 2.10887 0
M  V30 3201 H 306.953 2.28646 4.48029 0
M  V30 3202 H 306.653 4.03054 4.27576 0
M  V30 3203 H 308.177 3.47228 5.0226 0
M  V30 3204 H 309.591 4.77995 3.16534 0
M  V30 3205 H 307.988 5.38276 2.6529 0
M  V30 3206 H 309.058 4.62387 1.46034 0
M  V30 3207 N 310.401 -0.613514 1.45168 0
M  V30 3208 C 311.678 -1.37263 1.39349 0
M  V30 3209 C 312.058 -2.11012 0.0610848 0
M  V30 3210 O 311.406 -2.07502 -0.956825 0
M  V30 3211 C 311.616 -2.3244 2.60332 0
M  V30 3212 C 312.964 -2.9523 3.05163 0
M  V30 3213 O 313.988 -2.42762 2.60663 0
M  V30 3214 O 312.847 -3.90454 3.82372 0
M  V30 3215 H 309.941 -0.615188 0.552696 0
M  V30 3216 H 312.487 -0.637097 1.57287 0
M  V30 3217 H 311.259 -1.77164 3.48896 0
M  V30 3218 H 310.882 -3.13383 2.44698 0
M  V30 3219 N 311.879 -1.3236 -0.855495 0
M  V30 3220 C 312.809 -1.23833 -1.97958 0
M  V30 3221 C 313.79 -0.122361 -1.69659 0
M  V30 3222 O 314.975 -0.30939 -1.9172 0
M  V30 3223 C 312.105 -0.959772 -3.33775 0
M  V30 3224 C 311.059 -2.03689 -3.76424 0
M  V30 3225 C 310.385 -1.61075 -5.09862 0
M  V30 3226 C 311.685 -3.4518 -3.9198 0
M  V30 3227 H 313.379 -2.1788 -2.0535 0
M  V30 3228 H 310.925 -1.04891 -0.986605 0
M  V30 3229 H 312.878 -0.886678 -4.11966 0
M  V30 3230 H 311.602 0.0163404 -3.26596 0
M  V30 3231 H 310.261 -2.10012 -3.00484 0
M  V30 3232 H 309.909 -0.622107 -4.99138 0
M  V30 3233 H 309.609 -2.33143 -5.39368 0
M  V30 3234 H 311.133 -1.55201 -5.90546 0
M  V30 3235 H 312.547 -3.4145 -4.60526 0
M  V30 3236 H 310.944 -4.1559 -4.32903 0
M  V30 3237 H 312.014 -3.84903 -2.94919 0
M  V30 3238 N 313.357 1.07166 -1.15556 0
M  V30 3239 C 314.582 1.84053 -0.955988 0
M  V30 3240 C 315.007 1.81586 0.490739 0
M  V30 3241 O 314.365 1.21018 1.34997 0
M  V30 3242 C 314.413 3.28957 -1.47714 0
M  V30 3243 O 313.517 4.06795 -0.677593 0
M  V30 3244 H 312.858 0.569842 -0.340847 0
M  V30 3245 H 315.388 1.35178 -1.53584 0
M  V30 3246 H 315.398 3.79788 -1.4908 0
M  V30 3247 H 314.073 3.30068 -2.53037 0
M  V30 3248 H 312.65 3.6561 -0.733721 0
M  V30 3249 N 314.835 0.952656 1.25548 0
M  V30 3250 C 316.251 0.656769 1.4546 0
M  V30 3251 C 316.451 -0.78633 1.85524 0
M  V30 3252 O 315.507 -1.56183 1.98402 0
M  V30 3253 C 316.82 1.62801 2.52817 0
M  V30 3254 C 318.368 1.63897 2.66659 0
M  V30 3255 C 318.843 2.5978 3.77198 0
M  V30 3256 N 320.334 2.58133 3.84606 0
M  V30 3257 C 321.069 3.29003 4.69621 0
M  V30 3258 N 320.565 4.09339 5.58939 0
M  V30 3259 N 322.358 3.179 4.63569 0
M  V30 3260 H 314.509 1.88526 0.978344 0
M  V30 3261 H 316.772 0.810815 0.491206 0
M  V30 3262 H 316.478 2.65869 2.30232 0
M  V30 3263 H 316.352 1.38898 3.50695 0
M  V30 3264 H 318.739 0.615481 2.8861 0
M  V30 3265 H 318.82 1.91858 1.69187 0
M  V30 3266 H 318.464 3.62254 3.55997 0
M  V30 3267 H 318.394 2.29105 4.7415 0
M  V30 3268 H 320.885 1.99809 3.20757 0
M  V30 3269 H 321.198 4.6034 6.20731 0
M  V30 3270 H 319.543 4.13438 5.58654 0
M  V30 3271 H 322.734 2.54612 3.92798 0
M  V30 3272 H 322.907 3.73398 5.29602 0
M  V30 3273 N 316.313 -1.40141 0.720998 0
M  V30 3274 C 317.243 -2.33339 0.0867621 0
M  V30 3275 C 318.224 -1.53178 -0.739622 0
M  V30 3276 O 319.409 -1.81625 -0.687449 0
M  V30 3277 C 316.539 -3.37194 -0.831728 0
M  V30 3278 C 315.493 -4.27857 -0.110558 0
M  V30 3279 C 314.819 -5.22294 -1.14513 0
M  V30 3280 C 316.119 -5.11872 1.0385 0
M  V30 3281 H 317.813 -2.86626 0.865219 0
M  V30 3282 H 315.359 -1.37814 0.417516 0
M  V30 3283 H 317.312 -4.01335 -1.28485 0
M  V30 3284 H 316.036 -2.82314 -1.64214 0
M  V30 3285 H 314.695 -3.65176 0.322797 0
M  V30 3286 H 314.343 -4.63717 -1.94874 0
M  V30 3287 H 314.043 -5.83797 -0.667446 0
M  V30 3288 H 315.567 -5.89312 -1.59824 0
M  V30 3289 H 316.981 -5.69436 0.664482 0
M  V30 3290 H 315.378 -5.82445 1.4449 0
M  V30 3291 H 316.448 -4.4753 1.86668 0
M  V30 3292 N 317.792 -0.46758 -1.50504 0
M  V30 3293 C 318.755 0.317059 -2.26996 0
M  V30 3294 C 319.755 0.923513 -1.31635 0
M  V30 3295 O 320.945 0.793239 -1.55091 0
M  V30 3296 C 318.077 1.45134 -3.08462 0
M  V30 3297 H 319.27 -0.353723 -2.97807 0
M  V30 3298 H 316.823 -0.221545 -1.54722 0
M  V30 3299 H 317.558 2.15728 -2.4214 0
M  V30 3300 H 317.343 1.02232 -3.78538 0
M  V30 3301 H 318.833 2.00493 -3.66323 0
M  V30 3302 N 319.27 1.56325 -0.20005 0
M  V30 3303 C 320.495 2.02548 0.44597 0
M  V30 3304 C 320.92 1.07922 1.5406 0
M  V30 3305 O 320.278 0.0635775 1.81188 0
M  V30 3306 C 320.326 3.47175 0.974761 0
M  V30 3307 O 319.43 3.55671 2.08739 0
M  V30 3308 H 318.771 0.655862 0.103638 0
M  V30 3309 H 321.301 2.02201 -0.312381 0
M  V30 3310 H 321.311 3.87067 1.2901 0
M  V30 3311 H 319.986 4.15538 0.17347 0
M  V30 3312 H 318.563 3.27657 1.78032 0
M  V30 3313 N 320.748 -0.0735177 1.57428 0
M  V30 3314 C 321.711 -1.07192 2.02589 0
M  V30 3315 C 322.711 -1.31695 0.922661 0
M  V30 3316 O 323.901 -1.27445 1.18758 0
M  V30 3317 C 321.033 -2.41599 2.40506 0
M  V30 3318 H 322.226 -0.682727 2.92025 0
M  V30 3319 H 319.779 -0.319193 1.53006 0
M  V30 3320 H 320.514 -2.85354 1.5409 0
M  V30 3321 H 320.299 -2.25156 3.21009 0
M  V30 3322 H 321.789 -3.13367 2.76027 0
M  V30 3323 N 322.226 -1.5378 -0.344866 0
M  V30 3324 C 323.474 -1.70625 -1.08311 0
M  V30 3325 C 323.795 -0.471447 -1.89215 0
M  V30 3326 O 323.065 0.514616 -1.8902 0
M  V30 3327 H 321.645 -0.629058 -0.402859 0
M  V30 3328 H 324.307 -1.9103 -0.386459 0
M  V30 3329 H 323.403 -2.57656 -1.76124 0
M  V30 3330 N 323.704 0.605807 -1.45491 0
M  V30 3331 C 324.944 1.37606 -1.51142 0
M  V30 3332 C 325.308 1.91413 -0.150075 0
M  V30 3333 O 326.509 2.68677 -0.0812828 0
M  V30 3334 C 324.78 2.49197 -2.56195 0
M  V30 3335 S 326.339 3.36953 -2.81083 0
M  V30 3336 H 323.157 0.469118 -0.534275 0
M  V30 3337 H 325.759 0.698845 -1.82583 0
M  V30 3338 H 324.463 2.0802 -3.53773 0
M  V30 3339 H 323.994 3.21717 -2.26411 0
M  V30 3340 H 326.009 4.47395 -2.14598 0
M  V30 3341 N 325.182 1.32811 0.848464 0
M  V30 3342 C 326.407 1.26882 1.6406 0
M  V30 3343 C 326.832 -0.15913 1.87426 0
M  V30 3344 O 326.19 -1.11258 1.43148 0
M  V30 3345 C 326.238 2.03997 2.97351 0
M  V30 3346 O 325.342 1.39201 3.88197 0
M  V30 3347 H 324.683 0.436982 0.499943 0
M  V30 3348 H 327.213 1.75224 1.0563 0
M  V30 3349 H 327.223 2.14403 3.47124 0
M  V30 3350 H 325.898 3.0783 2.79666 0
M  V30 3351 H 324.475 1.37381 3.46671 0
M  V30 3352 N 326.66 -1.06551 1.16123 0
M  V30 3353 C 327.908 -1.78947 0.939267 0
M  V30 3354 C 328.229 -1.87532 -0.534476 0
M  V30 3355 O 327.499 -1.38211 -1.38833 0
M  V30 3356 H 326.079 -0.662807 0.344523 0
M  V30 3357 H 328.741 -1.28725 1.46342 0
M  V30 3358 H 327.837 -2.81117 1.35572 0
M  V30 3359 N 328.138 -0.959301 -1.25041 0
M  V30 3360 C 329.384 -0.627096 -1.93492 0
M  V30 3361 C 329.739 0.827484 -1.73696 0
M  V30 3362 O 329.032 1.58651 -1.07427 0
M  V30 3363 C 329.226 -0.927136 -3.45165 0
M  V30 3364 C 329.055 -2.40933 -3.79712 0
M  V30 3365 C 327.825 -3.0677 -4.01522 0
M  V30 3366 C 330.023 -3.38894 -3.86853 0
M  V30 3367 N 328.005 -4.44815 -4.231 0
M  V30 3368 C 329.376 -4.62263 -4.13174 0
M  V30 3369 C 331.431 -3.33668 -3.69554 0
M  V30 3370 C 330.134 -5.81052 -4.23995 0
M  V30 3371 C 332.16 -4.518 -3.81616 0
M  V30 3372 C 331.522 -5.73957 -4.08354 0
M  V30 3373 H 327.621 -0.280166 -0.73009 0
M  V30 3374 H 330.205 -1.23244 -1.50729 0
M  V30 3375 H 328.376 -0.350685 -3.86814 0
M  V30 3376 H 330.108 -0.554361 -4.00885 0
M  V30 3377 H 326.863 -2.57327 -3.97593 0
M  V30 3378 H 327.287 -5.16319 -4.37885 0
M  V30 3379 H 331.929 -2.40268 -3.47895 0
M  V30 3380 H 329.647 -6.74888 -4.44468 0
M  V30 3381 H 333.233 -4.49309 -3.69612 0
M  V30 3382 H 332.113 -6.6384 -4.17475 0
M  V30 3383 N 329.616 1.39756 -0.72842 0
M  V30 3384 C 330.844 2.04948 -0.283528 0
M  V30 3385 C 331.259 1.54908 1.0793 0
M  V30 3386 O 330.616 0.711135 1.68075 0
M  V30 3387 C 330.667 3.60498 -0.268957 0
M  V30 3388 O 330.388 4.08695 -1.57798 0
M  V30 3389 C 331.889 4.4288 0.192912 0
M  V30 3390 H 329.109 0.659243 -0.125056 0
M  V30 3391 H 331.653 1.78927 -0.990226 0
M  V30 3392 H 329.808 3.85444 0.388801 0
M  V30 3393 H 330.222 5.02977 -1.48709 0
M  V30 3394 H 331.696 5.51791 0.151952 0
M  V30 3395 H 332.173 4.21418 1.23708 0
M  V30 3396 H 332.779 4.23069 -0.435039 0
M  V30 3397 N 331.094 0.475555 1.50254 0
M  V30 3398 C 332.51 0.12997 1.5907 0
M  V30 3399 C 332.71 -1.36385 1.48328 0
M  V30 3400 O 331.766 -2.13754 1.34407 0
M  V30 3401 C 333.079 0.684139 2.92814 0
M  V30 3402 C 334.627 0.647965 3.0622 0
M  V30 3403 C 335.102 1.17975 4.42545 0
M  V30 3404 N 336.593 1.13936 4.48969 0
M  V30 3405 C 337.328 1.52129 5.52851 0
M  V30 3406 N 336.824 1.97793 6.63965 0
M  V30 3407 N 338.617 1.43704 5.4342 0
M  V30 3408 H 330.768 1.44706 1.55479 0
M  V30 3409 H 333.031 0.598691 0.735033 0
M  V30 3410 H 332.737 1.73079 3.06164 0
M  V30 3411 H 332.611 0.130204 3.76975 0
M  V30 3412 H 334.998 -0.38979 2.92514 0
M  V30 3413 H 335.079 1.23876 2.23805 0
M  V30 3414 H 334.723 2.21616 4.57 0
M  V30 3415 H 334.653 0.565138 5.23559 0
M  V30 3416 H 337.144 0.804488 3.69238 0
M  V30 3417 H 337.457 2.25072 7.39299 0
M  V30 3418 H 335.802 2.01749 6.65073 0
M  V30 3419 H 338.993 1.07867 4.55502 0
M  V30 3420 H 339.166 1.73794 6.24259 0
M  V30 3421 N 332.573 -1.56217 0.208337 0
M  V30 3422 C 333.52 -2.19699 -0.707192 0
M  V30 3423 C 334.49 -1.14836 -1.20008 0
M  V30 3424 O 335.675 -1.4314 -1.26157 0
M  V30 3425 C 332.815 -2.87061 -1.91546 0
M  V30 3426 C 331.928 -4.06483 -1.46271 0
M  V30 3427 C 331.063 -4.61665 -2.62752 0
M  V30 3428 C 330.102 -5.73417 -2.14147 0
M  V30 3429 N 329.239 -6.22948 -3.23853 0
M  V30 3430 H 334.079 -2.97575 -0.159111 0
M  V30 3431 H 331.616 -1.46948 -0.0667874 0
M  V30 3432 H 333.574 -3.24294 -2.62468 0
M  V30 3433 H 332.204 -2.11725 -2.43664 0
M  V30 3434 H 331.256 -3.74825 -0.648886 0
M  V30 3435 H 332.568 -4.87271 -1.06622 0
M  V30 3436 H 331.722 -5.01272 -3.41776 0
M  V30 3437 H 330.461 -3.80013 -3.05682 0
M  V30 3438 H 329.466 -5.33326 -1.33581 0
M  V30 3439 H 330.691 -6.56897 -1.72232 0
M  V30 3440 H 328.637 -5.44213 -3.6629 0
M  V30 3441 H 328.554 -6.98823 -2.88414 0
M  V30 3442 H 329.822 -6.6721 -4.03052 0
M  V30 3443 N 334.051 0.0651679 -1.57465 0
M  V30 3444 C 334.998 1.07675 -2.04144 0
M  V30 3445 C 335.968 1.38071 -0.923335 0
M  V30 3446 O 337.153 1.49026 -1.19146 0
M  V30 3447 C 334.293 2.38337 -2.49579 0
M  V30 3448 C 333.406 2.14413 -3.75035 0
M  V30 3449 C 332.541 3.38686 -4.09225 0
M  V30 3450 C 331.58 3.10156 -5.27702 0
M  V30 3451 N 330.717 4.26778 -5.57499 0
M  V30 3452 H 335.557 0.671716 -2.90331 0
M  V30 3453 H 333.094 0.3201 -1.43575 0
M  V30 3454 H 335.052 3.14632 -2.73975 0
M  V30 3455 H 333.682 2.7663 -1.6636 0
M  V30 3456 H 332.734 1.2878 -3.57939 0
M  V30 3457 H 334.046 1.89344 -4.61466 0
M  V30 3458 H 333.2 4.23373 -4.34558 0
M  V30 3459 H 331.939 3.66837 -3.21374 0
M  V30 3460 H 330.944 2.23866 -5.02159 0
M  V30 3461 H 332.169 2.8332 -6.17176 0
M  V30 3462 H 330.115 4.54948 -4.72608 0
M  V30 3463 H 330.032 4.05005 -6.38362 0
M  V30 3464 H 331.3 5.12443 -5.87386 0
M  V30 3465 N 335.529 1.53961 0.336706 0
M  V30 3466 C 336.945 1.44378 0.680241 0
M  V30 3467 C 337.145 0.606034 1.9217 0
M  V30 3468 O 336.201 0.099688 2.52303 0
M  V30 3469 C 337.514 2.87945 0.8665 0
M  V30 3470 C 339.062 2.97763 0.964682 0
M  V30 3471 C 339.537 4.42453 1.18321 0
M  V30 3472 N 341.028 4.46008 1.25025 0
M  V30 3473 C 341.763 5.55102 1.43697 0
M  V30 3474 N 341.259 6.7419 1.59498 0
M  V30 3475 N 343.052 5.42727 1.463 0
M  V30 3476 H 335.203 2.06918 -0.479455 0
M  V30 3477 H 337.466 0.935634 -0.152619 0
M  V30 3478 H 337.172 3.51691 0.0256937 0
M  V30 3479 H 337.046 3.33293 1.76623 0
M  V30 3480 H 339.433 2.34153 1.796 0
M  V30 3481 H 339.514 2.55766 0.041708 0
M  V30 3482 H 339.158 5.06645 0.356788 0
M  V30 3483 H 339.088 4.82048 2.11985 0
M  V30 3484 H 341.579 3.60196 1.14312 0
M  V30 3485 H 341.892 7.53095 1.734 0
M  V30 3486 H 340.237 6.77123 1.56621 0
M  V30 3487 H 343.428 4.48647 1.33543 0
M  V30 3488 H 343.601 6.27806 1.6051 0
M  V30 3489 N 337.007 -0.598083 1.45811 0
M  V30 3490 C 337.954 -1.7082 1.55207 0
M  V30 3491 C 338.924 -1.61278 0.39732 0
M  V30 3492 O 340.109 -1.80717 0.612038 0
M  V30 3493 C 337.249 -3.09144 1.53376 0
M  V30 3494 C 336.362 -3.29423 2.79472 0
M  V30 3495 C 335.497 -4.57907 2.69248 0
M  V30 3496 C 334.536 -4.71476 3.90354 0
M  V30 3497 N 333.673 -5.9127 3.78608 0
M  V30 3498 H 338.513 -1.62125 2.50039 0
M  V30 3499 H 336.05 -0.790389 1.24062 0
M  V30 3500 H 338.008 -3.89186 1.50301 0
M  V30 3501 H 336.638 -3.16773 0.620876 0
M  V30 3502 H 335.69 -2.43091 2.92594 0
M  V30 3503 H 337.002 -3.3532 3.69272 0
M  V30 3504 H 336.156 -5.46157 2.64192 0
M  V30 3505 H 334.895 -4.54423 1.77063 0
M  V30 3506 H 333.9 -3.81648 3.95759 0
M  V30 3507 H 335.125 -4.76751 4.83617 0
M  V30 3508 H 333.071 -5.88813 2.89199 0
M  V30 3509 H 332.988 -5.98369 4.6205 0
M  V30 3510 H 334.256 -6.81992 3.77501 0
M  V30 3511 N 338.485 -1.33259 -0.841409 0
M  V30 3512 C 339.448 -1.23221 -1.9326 0
M  V30 3513 C 340.448 -0.151895 -1.60081 0
M  V30 3514 O 341.638 -0.403246 -1.69468 0
M  V30 3515 C 338.77 -0.898123 -3.28856 0
M  V30 3516 H 339.963 -2.2021 -2.03587 0
M  V30 3517 H 337.516 -1.17281 -1.03319 0
M  V30 3518 H 338.251 0.0693841 -3.24226 0
M  V30 3519 H 338.036 -1.67934 -3.54317 0
M  V30 3520 H 339.526 -0.852563 -4.08805 0
M  V30 3521 O 340.002 0.979171 -1.28431 0
M  V30 3522 H 340.693 1.60369 -1.08635 0
M  V30 END ATOM
M  V30 BEGIN BOND
M  V30 END BOND
M  V30 END CTAB
M  END
$$$$
