drugbank_target|Q6PYX1 Hepatitis B virus receptor binding protein (DB08545)
 OpenBabel12092120513D

  0  0  0     0  0            999 V3000
M  V30 BEGIN CTAB
M  V30 COUNTS 5330 5406 0 0 0
M  V30 BEGIN ATOM
M  V30 1 H -0.908 1.98254 -0.117106 0
M  V30 2 N 0 1.576 0 0
M  V30 3 C 1.23 1.94566 0.694824 0
M  V30 4 C 1.638 0.873344 1.67837 0
M  V30 5 O 0.981 -0.15633 1.83034 0
M  V30 6 C 1.043 3.27518 1.48229 0
M  V30 7 C 0.707 4.52204 0.66033 0
M  V30 8 C 1.704 5.19874 -0.0519891 0
M  V30 9 C -0.611 4.98627 0.606301 0
M  V30 10 C 1.383 6.32267 -0.807324 0
M  V30 11 C -0.93 6.10909 -0.152759 0
M  V30 12 C 0.068 6.77586 -0.858305 0
M  V30 13 O -0.244 7.87715 -1.60498 0
M  V30 14 H -0.512 0.646206 0.19848 0
M  V30 15 H 2.042 2.05346 -0.0472378 0
M  V30 16 H 0.272 3.13146 2.26884 0
M  V30 17 H 1.961 3.49596 2.06246 0
M  V30 18 H 2.727 4.84996 -0.0193999 0
M  V30 19 H -1.394 4.46554 1.145 0
M  V30 20 H 2.15 6.84243 -1.35856 0
M  V30 21 H -1.953 6.45229 -0.187169 0
M  V30 22 H -1.185 8.04231 -1.52169 0
M  V30 23 N 1.4781 -0.272755 1.55222 0
M  V30 24 C 2.7081 -1.02107 1.79604 0
M  V30 25 C 3.1161 -1.80419 0.569693 0
M  V30 26 O 2.4591 -1.77566 -0.470743 0
M  V30 27 C 2.5211 -2.02675 2.96922 0
M  V30 28 C 2.1851 -1.43299 4.33952 0
M  V30 29 C 3.1821 -0.84853 5.12929 0
M  V30 30 C 0.8671 -1.46012 4.8061 0
M  V30 31 C 2.8611 -0.299109 6.36698 0
M  V30 32 C 0.5481 -0.906833 6.04334 0
M  V30 33 C 1.5461 -0.32733 6.82215 0
M  V30 34 O 1.2341 0.217479 8.03606 0
M  V30 35 H 0.9661 -0.307322 0.602104 0
M  V30 36 H 3.5201 -0.308862 2.03065 0
M  V30 37 H 1.7501 -2.77656 2.69155 0
M  V30 38 H 3.4391 -2.63637 3.08626 0
M  V30 39 H 4.2051 -0.820265 4.78013 0
M  V30 40 H 0.0841 -1.90056 4.2 0
M  V30 41 H 3.6281 0.153852 6.9743 0
M  V30 42 H -0.4749 -0.932339 6.38731 0
M  V30 43 H 0.2931 0.106863 8.1843 0
M  V30 44 N 2.9562 -1.48159 -0.537278 0
M  V30 45 C 4.1862 -1.59223 -1.3165 0
M  V30 46 C 4.5942 -0.248849 -1.87556 0
M  V30 47 O 3.9372 0.770949 -1.6674 0
M  V30 48 C 3.9992 -2.57365 -2.51005 0
M  V30 49 C 3.6632 -4.02603 -2.16239 0
M  V30 50 C 4.6602 -4.90503 -1.72344 0
M  V30 51 C 2.3452 -4.48088 -2.26986 0
M  V30 52 C 4.3392 -6.21913 -1.39651 0
M  V30 53 C 2.0262 -5.7952 -1.93906 0
M  V30 54 C 3.0242 -6.66255 -1.50309 0
M  V30 55 O 2.7122 -7.95243 -1.17659 0
M  V30 56 H 2.4442 -0.539831 -0.406889 0
M  V30 57 H 4.9982 -1.94655 -0.655641 0
M  V30 58 H 3.2282 -2.1704 -3.20048 0
M  V30 59 H 4.9172 -2.58342 -3.13072 0
M  V30 60 H 5.6832 -4.56604 -1.63517 0
M  V30 61 H 1.5622 -3.80769 -2.59877 0
M  V30 62 H 5.1062 -6.89569 -1.0555 0
M  V30 63 H 1.0032 -6.12957 -2.02371 0
M  V30 64 H 1.7712 -8.0793 -1.31119 0
M  V30 65 N 4.4343 0.785586 -1.36625 0
M  V30 66 C 5.6823 1.54057 -1.30808 0
M  V30 67 C 6.0033 1.94683 0.111157 0
M  V30 68 O 5.2733 1.65241 1.05224 0
M  V30 69 H 3.8533 0.571354 -0.481211 0
M  V30 70 H 6.5153 0.935821 -1.70963 0
M  V30 71 H 5.6113 2.44637 -1.93801 0
M  V30 72 N 5.9124 1.20967 1.01018 0
M  V30 73 C 6.8454 0.907578 2.09376 0
M  V30 74 C 7.8234 -0.142868 1.61971 0
M  V30 75 O 9.0074 -0.0150391 1.88494 0
M  V30 76 C 6.1344 0.361791 3.36762 0
M  V30 77 C 5.1804 1.39423 4.03068 0
M  V30 78 S 6.0134 2.96159 4.4615 0
M  V30 79 C 7.1694 2.43173 5.7673 0
M  V30 80 H 7.4024 1.82519 2.34678 0
M  V30 81 H 4.9354 1.03884 1.14225 0
M  V30 82 H 6.8934 0.0534523 4.10465 0
M  V30 83 H 5.5544 -0.53443 3.0952 0
M  V30 84 H 4.7474 0.961853 4.94737 0
M  V30 85 H 4.3494 1.65038 3.35617 0
M  V30 86 H 6.6414 1.83335 6.52223 0
M  V30 87 H 7.5844 3.33264 6.24773 0
M  V30 88 H 7.9924 1.85069 5.33301 0
M  V30 89 N 7.3905 -1.2043 1.01659 0
M  V30 90 C 8.6675 -1.8548 0.621004 0
M  V30 91 C 9.0475 -1.9091 -0.900919 0
M  V30 92 O 8.3955 -1.41694 -1.79263 0
M  V30 93 C 8.6055 -3.25119 1.2688 0
M  V30 94 C 9.9535 -4.01403 1.38423 0
M  V30 95 O 10.9775 -3.34473 1.22501 0
M  V30 96 O 9.8365 -5.21265 1.64151 0
M  V30 97 H 6.9305 -0.798761 0.214266 0
M  V30 98 H 9.4765 -1.28019 1.11396 0
M  V30 99 H 8.2485 -3.15932 2.30873 0
M  V30 100 H 7.8715 -3.90212 0.762917 0
M  V30 101 N 8.8686 -0.792821 -1.36206 0
M  V30 102 C 10.1146 -0.36733 -1.99446 0
M  V30 103 C 10.4476 1.05917 -1.62774 0
M  V30 104 O 9.7226 1.7324 -0.88421 0
M  V30 105 C 10.0056 -0.535044 -3.56103 0
M  V30 106 C 9.8586 -2.00548 -4.02617 0
M  V30 107 C 11.1776 0.0478191 -4.40074 0
M  V30 108 H 8.2966 -0.134941 -0.724541 0
M  V30 109 H 10.9386 -0.999794 -1.61568 0
M  V30 110 H 9.0886 0.00336329 -3.885 0
M  V30 111 H 10.7606 -2.60521 -3.80692 0
M  V30 112 H 9.0036 -2.50686 -3.54032 0
M  V30 113 H 9.6746 -2.07377 -5.11565 0
M  V30 114 H 12.1506 -0.411822 -4.14057 0
M  V30 115 H 11.0266 -0.0995336 -5.4881 0
M  V30 116 H 11.2876 1.14025 -4.27142 0
M  V30 117 N 10.3467 1.47872 -0.545128 0
M  V30 118 C 11.5927 2.03385 -0.0247951 0
M  V30 119 C 11.9477 1.41325 1.30556 0
M  V30 120 O 11.2407 0.5552 1.8338 0
M  V30 121 C 11.4347 3.57131 0.13867 0
M  V30 122 C 11.2637 4.34097 -1.17429 0
M  V30 123 C 10.0337 4.74458 -1.73831 0
M  V30 124 C 12.2317 4.6998 -2.08861 0
M  V30 125 N 10.2137 5.3602 -2.99258 0
M  V30 126 C 11.5847 5.31719 -3.18866 0
M  V30 127 C 13.6397 4.5191 -2.09003 0
M  V30 128 C 12.3427 5.77295 -4.29096 0
M  V30 129 C 14.3687 4.98477 -3.18237 0
M  V30 130 C 13.7307 5.60253 -4.26961 0
M  V30 131 H 9.8297 0.780339 -0.050943 0
M  V30 132 H 12.4137 1.80507 -0.729753 0
M  V30 133 H 10.5847 3.79802 0.812733 0
M  V30 134 H 12.3167 3.99282 0.659976 0
M  V30 135 H 9.0717 4.56037 -1.2778 0
M  V30 136 H 9.4957 5.71355 -3.63157 0
M  V30 137 H 14.1377 4.03516 -1.26234 0
M  V30 138 H 11.8557 6.24687 -5.12633 0
M  V30 139 H 15.4417 4.86274 -3.1942 0
M  V30 140 H 14.3217 5.95631 -5.10091 0
M  V30 141 N 11.8248 0.280983 1.55075 0
M  V30 142 C 13.0728 -0.333455 1.9933 0
M  V30 143 C 13.3938 -1.55937 1.17085 0
M  V30 144 O 12.6638 -1.94143 0.261805 0
M  V30 145 H 11.2438 -0.126197 0.736263 0
M  V30 146 H 13.9058 0.387678 1.91005 0
M  V30 147 H 13.0018 -0.619292 3.05894 0
M  V30 148 N 13.3029 -1.57598 0.00835791 0
M  V30 149 C 14.2349 -2.05811 -1.00868 0
M  V30 150 C 15.2479 -0.977579 -1.30182 0
M  V30 151 O 16.4369 -1.25421 -1.27011 0
M  V30 152 C 13.5369 -2.45016 -2.34137 0
M  V30 153 C 12.7099 -3.75903 -2.23643 0
M  V30 154 C 11.7689 -4.01884 -3.3967 0
M  V30 155 O 10.7949 -4.72433 -3.17483 0
M  V30 156 N 11.9969 -3.50432 -4.62793 0
M  V30 157 H 14.7619 -2.93684 -0.597458 0
M  V30 158 H 12.3229 -1.60909 -0.178852 0
M  V30 159 H 14.3149 -2.59506 -3.10546 0
M  V30 160 H 12.8849 -1.62618 -2.66972 0
M  V30 161 H 12.1049 -3.7141 -1.32091 0
M  V30 162 H 13.3929 -4.61695 -2.13812 0
M  V30 163 H 12.7909 -2.93317 -4.83716 0
M  V30 164 H 11.3479 -3.70236 -5.3644 0
M  V30 165 N 14.781 0.264519 -1.55364 0
M  V30 166 C 16.029 0.993021 -1.76021 0
M  V30 167 C 16.35 1.86511 -0.569099 0
M  V30 168 O 15.62 1.91438 0.415735 0
M  V30 169 H 14.2 0.369639 -0.649135 0
M  V30 170 H 16.862 0.286707 -1.9278 0
M  V30 171 H 15.958 1.62502 -2.66457 0
M  V30 172 N 16.2591 1.48442 0.529413 0
M  V30 173 C 17.4871 1.60151 1.30994 0
M  V30 174 C 17.9021 0.261985 1.86973 0
M  V30 175 O 17.2591 -0.748805 1.66431 0
M  V30 176 C 17.3101 2.64854 2.46038 0
M  V30 177 O 17.0311 3.93608 1.92365 0
M  V30 178 C 18.5321 2.87007 3.37849 0
M  V30 179 H 15.7521 0.539971 0.398338 0
M  V30 180 H 18.2961 1.94273 0.638597 0
M  V30 181 H 16.4511 2.33589 3.09055 0
M  V30 182 H 16.8651 4.51055 2.67675 0
M  V30 183 H 18.3391 3.64068 4.14919 0
M  V30 184 H 18.8161 1.95852 3.93114 0
M  V30 185 H 19.4221 3.19579 2.80623 0
M  V30 186 N 17.7372 -0.778329 1.37039 0
M  V30 187 C 18.9652 -1.56734 1.35063 0
M  V30 188 C 19.3802 -1.88686 -0.0655597 0
M  V30 189 O 18.7372 -1.5096 -1.02554 0
M  V30 190 C 18.7882 -2.88163 2.18276 0
M  V30 191 O 18.5092 -2.57583 3.54376 0
M  V30 192 C 20.0102 -3.82422 2.24206 0
M  V30 193 H 17.2302 -0.485778 0.462883 0
M  V30 194 H 19.7742 -0.965185 1.8029 0
M  V30 195 H 17.9292 -3.44818 1.76576 0
M  V30 196 H 18.3432 -3.41699 3.97922 0
M  V30 197 H 19.8172 -4.71667 2.86765 0
M  V30 198 H 20.2942 -4.21078 1.24861 0
M  V30 199 H 20.9002 -3.31697 2.6619 0
M  V30 200 N 19.2153 -1.21501 -1.00376 0
M  V30 201 C 20.4613 -1.03452 -1.74429 0
M  V30 202 C 20.7943 0.430764 -1.89362 0
M  V30 203 O 20.0693 1.31962 -1.42886 0
M  V30 204 C 20.3523 -1.73375 -3.15615 0
M  V30 205 C 20.2053 -3.27431 -3.08397 0
M  V30 206 C 21.5243 -1.47732 -4.14564 0
M  V30 207 H 18.6433 -0.377226 -0.633143 0
M  V30 208 H 21.2853 -1.49693 -1.17013 0
M  V30 209 H 19.4353 -1.34064 -3.64636 0
M  V30 210 H 21.1073 -3.76119 -2.67081 0
M  V30 211 H 19.3503 -3.5767 -2.45468 0
M  V30 212 H 20.0213 -3.71524 -4.08258 0
M  V30 213 H 22.4973 -1.8186 -3.74254 0
M  V30 214 H 21.3733 -1.99169 -5.11491 0
M  V30 215 H 21.6343 -0.407589 -4.40217 0
M  V30 216 N 20.6934 1.19889 -1.02296 0
M  V30 217 C 21.9214 1.9339 -0.735399 0
M  V30 218 C 22.3364 1.75148 0.704887 0
M  V30 219 O 21.6934 1.06954 1.47875 0
M  V30 220 C 21.7444 3.45313 -1.06962 0
M  V30 221 O 21.4654 3.62964 -2.45334 0
M  V30 222 C 22.9664 4.35948 -0.804021 0
M  V30 223 H 20.1864 0.61448 -0.269546 0
M  V30 224 H 22.7304 1.522 -1.36585 0
M  V30 225 H 20.8854 3.84359 -0.484455 0
M  V30 226 H 21.2994 4.56886 -2.57595 0
M  V30 227 H 22.7734 5.41174 -1.0879 0
M  V30 228 H 23.2504 4.3842 0.261691 0
M  V30 229 H 23.8564 4.02574 -1.37164 0
M  V30 230 N 22.1715 0.800033 1.35784 0
M  V30 231 C 23.4175 0.377901 1.99248 0
M  V30 232 C 23.7505 -1.05052 1.63333 0
M  V30 233 O 23.0255 -1.72768 0.893385 0
M  V30 234 C 23.3085 0.553922 3.55814 0
M  V30 235 C 23.1615 2.0268 4.01548 0
M  V30 236 C 24.4805 -0.0244802 4.40093 0
M  V30 237 H 21.5995 0.138782 0.723815 0
M  V30 238 H 24.2415 1.00835 1.61035 0
M  V30 239 H 22.3915 0.0172398 3.88496 0
M  V30 240 H 24.0635 2.62536 3.79305 0
M  V30 241 H 22.3065 2.5256 3.52698 0
M  V30 242 H 22.9775 2.10087 5.10458 0
M  V30 243 H 25.4535 0.433775 4.13833 0
M  V30 244 H 24.3295 0.128637 5.48749 0
M  V30 245 H 24.5905 -1.11758 4.27741 0
M  V30 246 N 23.6496 -1.47581 0.552962 0
M  V30 247 C 24.8746 -2.07378 0.0300593 0
M  V30 248 C 25.2996 -1.40355 -1.25229 0
M  V30 249 O 24.6576 -0.477099 -1.7491 0
M  V30 250 C 24.7056 -3.60274 -0.153231 0
M  V30 251 O 23.8096 -3.94041 -1.21678 0
M  V30 252 H 23.1506 -0.662158 0.0494182 0
M  V30 253 H 25.6806 -1.89662 0.767434 0
M  V30 254 H 25.6906 -4.0633 -0.368761 0
M  V30 255 H 24.3656 -4.08455 0.783397 0
M  V30 256 H 22.9426 -3.59735 -0.982079 0
M  V30 257 N 25.1277 -0.289203 -1.54924 0
M  V30 258 C 26.3527 0.329299 -2.04769 0
M  V30 259 C 26.7777 1.4763 -1.16564 0
M  V30 260 O 26.1357 1.80527 -0.167186 0
M  V30 261 C 26.1837 0.774438 -3.52186 0
M  V30 262 O 25.2877 1.88038 -3.67036 0
M  V30 263 H 24.6287 0.0659259 -0.660719 0
M  V30 264 H 27.1587 -0.42761 -2.00082 0
M  V30 265 H 27.1687 1.06642 -3.93816 0
M  V30 266 H 25.8437 -0.0646707 -4.1585 0
M  V30 267 H 24.4207 1.58985 -3.3731 0
M  V30 268 N 26.6058 1.57591 -0.0167156 0
M  V30 269 C 27.5688 2.08393 0.954204 0
M  V30 270 C 28.5688 0.996531 1.26198 0
M  V30 271 O 29.7588 1.25858 1.20438 0
M  V30 272 C 26.8908 2.5394 2.27436 0
M  V30 273 H 28.0838 2.95455 0.514451 0
M  V30 274 H 25.6368 1.54582 0.231089 0
M  V30 275 H 26.3718 1.70171 2.76066 0
M  V30 276 H 26.1568 3.33371 2.06412 0
M  V30 277 H 27.6468 2.93512 2.97053 0
M  V30 278 N 28.0839 -0.256276 1.55502 0
M  V30 279 C 29.3089 -1.00766 1.81276 0
M  V30 280 C 29.7339 -1.78524 0.59252 0
M  V30 281 O 29.0919 -1.75413 -0.45827 0
M  V30 282 C 29.1399 -1.92869 3.04687 0
M  V30 283 O 28.2439 -3.019 2.80945 0
M  V30 284 H 27.5849 -0.287224 0.598664 0
M  V30 285 H 30.1149 -0.280109 2.02674 0
M  V30 286 H 30.1249 -2.34511 3.33869 0
M  V30 287 H 28.7999 -1.35689 3.93143 0
M  V30 288 H 27.3769 -2.64454 2.62904 0
M  V30 289 N 29.562 -1.4872 -0.521534 0
M  V30 290 C 30.79 -1.60843 -1.30142 0
M  V30 291 C 31.205 -0.271897 -1.86832 0
M  V30 292 O 30.562 0.739969 -1.66825 0
M  V30 293 C 30.613 -2.66155 -2.4463 0
M  V30 294 O 30.334 -3.94623 -1.90275 0
M  V30 295 C 31.835 -2.88795 -3.36322 0
M  V30 296 H 29.055 -0.542075 -0.395468 0
M  V30 297 H 31.599 -1.94609 -0.628285 0
M  V30 298 H 29.754 -2.35224 -3.07812 0
M  V30 299 H 30.168 -4.52468 -2.65279 0
M  V30 300 H 31.642 -3.66264 -4.12983 0
M  V30 301 H 32.119 -1.97934 -3.9207 0
M  V30 302 H 32.725 -3.21063 -2.78924 0
M  V30 303 N 31.0401 0.771051 -1.3745 0
M  V30 304 C 31.9871 1.88435 -1.3327 0
M  V30 305 C 32.9571 1.64914 -0.198136 0
M  V30 306 O 34.1421 1.86821 -0.387606 0
M  V30 307 C 31.2821 3.25509 -1.14622 0
M  V30 308 C 30.3951 3.60979 -2.37314 0
M  V30 309 C 29.5301 4.87265 -2.11533 0
M  V30 310 C 28.5691 5.15469 -3.30088 0
M  V30 311 N 27.7061 6.32944 -3.03853 0
M  V30 312 H 32.5461 1.91344 -2.28455 0
M  V30 313 H 30.0831 0.935466 -1.13523 0
M  V30 314 H 32.0411 4.04582 -1.01831 0
M  V30 315 H 30.6711 3.21974 -0.230837 0
M  V30 316 H 29.7231 2.76885 -2.60842 0
M  V30 317 H 31.0351 3.77759 -3.25729 0
M  V30 318 H 30.1891 5.74244 -1.95777 0
M  V30 319 H 28.9281 4.7259 -1.20457 0
M  V30 320 H 27.9331 4.26966 -3.46382 0
M  V30 321 H 29.1581 5.32052 -4.22016 0
M  V30 322 H 27.1041 6.19625 -2.15407 0
M  V30 323 H 27.0211 6.50143 -3.85812 0
M  V30 324 H 28.2891 7.22857 -2.91716 0
M  V30 325 N 32.5182 1.22032 0.997298 0
M  V30 326 C 33.7662 1.04016 1.73278 0
M  V30 327 C 34.0872 -0.426255 1.90284 0
M  V30 328 O 33.3572 -1.30694 1.45931 0
M  V30 329 H 31.9372 0.381897 0.642 0
M  V30 330 H 34.5992 1.5347 1.20137 0
M  V30 331 H 33.6952 1.51441 2.72896 0
M  V30 332 N 33.9963 -1.19345 1.0293 0
M  V30 333 C 35.4073 -1.70725 0.755633 0
M  V30 334 C 35.7583 -1.82326 -0.724676 0
M  V30 335 O 34.8833 -1.49471 -1.56484 0
M  V30 336 C 35.4783 -3.10084 1.36503 0
M  V30 337 C 34.0373 -3.58723 1.13994 0
M  V30 338 C 33.1843 -2.35577 1.46283 0
M  V30 339 H 36.1353 -1.0418 1.19718 0
M  V30 340 H 36.1563 -3.72787 0.762217 0
M  V30 341 H 35.6683 -3.01609 2.44241 0
M  V30 342 H 33.7693 -3.72512 0.0807901 0
M  V30 343 H 33.8823 -4.42816 1.82894 0
M  V30 344 H 32.2463 -2.38935 0.88217 0
M  V30 345 H 33.0293 -2.29731 2.55105 0
M  V30 346 N 35.4744 -0.807222 -1.35358 0
M  V30 347 C 36.6994 -0.399309 -2.0352 0
M  V30 348 C 37.1244 0.981986 -1.60433 0
M  V30 349 O 36.4824 1.63601 -0.781299 0
M  V30 350 C 36.5304 -0.491552 -3.57234 0
M  V30 351 O 35.6344 0.494754 -4.09421 0
M  V30 352 H 34.9754 -0.166682 -0.642739 0
M  V30 353 H 37.5054 -1.09328 -1.72941 0
M  V30 354 H 37.5154 -0.361588 -4.06395 0
M  V30 355 H 36.1904 -1.49907 -3.87944 0
M  V30 356 H 34.7674 0.324977 -3.71481 0
M  V30 357 N 36.9525 1.47285 -0.560781 0
M  V30 358 C 38.1985 2.02764 -0.0381184 0
M  V30 359 C 38.5315 1.43384 1.30976 0
M  V30 360 O 37.8065 0.590733 1.85312 0
M  V30 361 C 38.0895 3.60064 0.0511427 0
M  V30 362 C 37.9425 4.2987 -1.32408 0
M  V30 363 C 39.2615 4.33439 0.762795 0
M  V30 364 H 36.3805 0.736841 -0.0153264 0
M  V30 365 H 39.0225 1.75675 -0.723759 0
M  V30 366 H 37.1725 3.83274 0.635065 0
M  V30 367 H 38.8445 4.17989 -1.95148 0
M  V30 368 H 37.0875 3.90085 -1.8978 0
M  V30 369 H 37.7585 5.38478 -1.21431 0
M  V30 370 H 40.2345 4.15243 0.266965 0
M  V30 371 H 39.1105 5.43124 0.794221 0
M  V30 372 H 39.3715 4.02915 1.81966 0
M  V30 373 N 38.4306 0.297415 1.54768 0
M  V30 374 C 39.6776 -0.312913 2.00068 0
M  V30 375 C 40.0056 -1.54171 1.18582 0
M  V30 376 O 39.2606 -1.94108 0.249133 0
M  V30 377 C 39.5596 -0.717561 3.50123 0
M  V30 378 C 39.2256 0.409095 4.4904 0
M  V30 379 C 37.8876 0.718399 4.75807 0
M  V30 380 C 40.2396 1.16717 5.07963 0
M  V30 381 C 37.5676 1.78896 5.5876 0
M  V30 382 C 39.9196 2.22762 5.92081 0
M  V30 383 C 38.5836 2.54303 6.1716 0
M  V30 384 H 37.8536 -0.114503 0.7321 0
M  V30 385 H 40.5006 0.415767 1.86932 0
M  V30 386 H 38.8056 -1.52627 3.60849 0
M  V30 387 H 40.5026 -1.20091 3.82595 0
M  V30 388 H 37.0926 0.157918 4.28309 0
M  V30 389 H 41.2766 0.941466 4.87289 0
M  V30 390 H 36.5326 2.0381 5.7643 0
M  V30 391 H 40.7066 2.81962 6.36765 0
M  V30 392 H 38.3336 3.3739 6.81229 0
M  V30 393 N 39.9087 -1.5758 0.0250728 0
M  V30 394 C 41.3197 -1.79476 -0.514323 0
M  V30 395 C 41.6707 -0.934956 -1.72491 0
M  V30 396 O 40.7957 -0.144245 -2.15919 0
M  V30 397 C 41.3907 -3.25503 -0.939842 0
M  V30 398 C 39.9497 -3.48408 -1.42438 0
M  V30 399 C 39.0967 -2.74583 -0.387201 0
M  V30 400 H 42.0477 -1.567 0.25113 0
M  V30 401 H 42.0687 -3.34992 -1.80445 0
M  V30 402 H 41.5807 -3.88056 -0.0585628 0
M  V30 403 H 39.6817 -2.91103 -2.32572 0
M  V30 404 H 39.7947 -4.57119 -1.43455 0
M  V30 405 H 38.1587 -2.39942 -0.854409 0
M  V30 406 H 38.9417 -3.39849 0.485543 0
M  V30 407 N 41.3868 0.248026 -1.55636 0
M  V30 408 C 42.3168 1.31079 -1.93237 0
M  V30 409 C 43.2978 1.50264 -0.797174 0
M  V30 410 O 44.4828 1.62891 -1.05737 0
M  V30 411 C 41.6128 2.66575 -2.22609 0
M  V30 412 C 40.5668 2.62087 -3.3837 0
M  V30 413 C 39.8928 4.01369 -3.53281 0
M  V30 414 C 41.1928 2.19171 -4.7409 0
M  V30 415 H 42.8868 0.998556 -2.82257 0
M  V30 416 H 40.4328 0.47891 -1.35803 0
M  V30 417 H 42.3858 3.41057 -2.47503 0
M  V30 418 H 41.1098 2.99432 -1.30414 0
M  V30 419 H 39.7688 1.90063 -3.13483 0
M  V30 420 H 39.4168 4.31489 -2.58508 0
M  V30 421 H 39.1168 3.99254 -4.31127 0
M  V30 422 H 40.6408 4.77552 -3.80495 0
M  V30 423 H 42.0548 2.83384 -4.98363 0
M  V30 424 H 40.4518 2.2817 -5.5503 0
M  V30 425 H 41.5218 1.14336 -4.71227 0
M  V30 426 N 42.8649 1.48995 0.513639 0
M  V30 427 C 43.8279 1.64229 1.59879 0
M  V30 428 C 44.8279 0.514696 1.5234 0
M  V30 429 O 46.0179 0.78087 1.55718 0
M  V30 430 C 43.1499 1.62783 2.99524 0
M  V30 431 H 44.3429 2.61004 1.47705 0
M  V30 432 H 41.8959 1.37837 0.736936 0
M  V30 433 H 42.6309 0.675461 3.17188 0
M  V30 434 H 42.4159 2.4466 3.06404 0
M  V30 435 H 43.9059 1.76669 3.78388 0
M  V30 436 N 44.343 -0.763751 1.37857 0
M  V30 437 C 45.754 -1.3405 1.29952 0
M  V30 438 C 46.105 -1.96138 -0.0492898 0
M  V30 439 O 45.23 -1.94372 -0.951239 0
M  V30 440 C 45.825 -2.43729 2.35333 0
M  V30 441 C 44.384 -2.97151 2.31037 0
M  V30 442 C 43.531 -1.70438 2.18738 0
M  V30 443 H 46.482 -0.563396 1.48363 0
M  V30 444 H 46.503 -3.23412 2.00462 0
M  V30 445 H 46.015 -1.9851 3.33489 0
M  V30 446 H 44.116 -3.46724 1.3643 0
M  V30 447 H 44.229 -3.52221 3.24772 0
M  V30 448 H 42.593 -1.93673 1.65418 0
M  V30 449 H 43.376 -1.27312 3.18821 0
M  V30 450 N 45.8211 -1.22559 -0.990812 0
M  V30 451 C 47.0461 -1.07862 -1.77145 0
M  V30 452 C 47.4711 0.366447 -1.84496 0
M  V30 453 O 46.8291 1.26478 -1.29896 0
M  V30 454 C 46.8771 -1.69686 -3.18181 0
M  V30 455 O 45.9811 -0.951946 -4.01263 0
M  V30 456 H 45.3221 -0.378712 -0.545411 0
M  V30 457 H 47.8521 -1.62399 -1.2445 0
M  V30 458 H 47.8621 -1.74496 -3.68802 0
M  V30 459 H 46.5371 -2.74841 -3.12146 0
M  V30 460 H 45.1141 -0.980011 -3.59792 0
M  V30 461 N 47.2992 1.18797 -1.03562 0
M  V30 462 C 48.5242 1.9314 -0.755764 0
M  V30 463 C 48.9492 1.7537 0.68022 0
M  V30 464 O 48.3072 1.06046 1.47051 0
M  V30 465 C 48.3552 3.42747 -1.12058 0
M  V30 466 O 47.4592 4.11683 -0.243124 0
M  V30 467 H 46.8002 0.602724 -0.278604 0
M  V30 468 H 49.3302 1.50678 -1.3841 0
M  V30 469 H 49.3402 3.93437 -1.08035 0
M  V30 470 H 48.0152 3.55002 -2.16672 0
M  V30 471 H 46.5922 3.71323 -0.342539 0
M  V30 472 N 48.7773 0.814389 1.34928 0
M  V30 473 C 49.7243 0.22822 2.29669 0
M  V30 474 C 50.6943 -0.642164 1.53184 0
M  V30 475 O 51.8793 -0.585605 1.81591 0
M  V30 476 C 49.0193 -0.61089 3.3965 0
M  V30 477 C 48.1323 0.280792 4.31086 0
M  V30 478 C 47.2673 -0.567067 5.28165 0
M  V30 479 C 46.3063 0.324531 6.11239 0
M  V30 480 N 45.4433 -0.483756 7.00431 0
M  V30 481 H 50.2833 1.04153 2.79206 0
M  V30 482 H 47.8203 0.525133 1.37407 0
M  V30 483 H 49.7783 -1.11263 4.0209 0
M  V30 484 H 48.4083 -1.38939 2.91369 0
M  V30 485 H 47.4603 0.900688 3.69583 0
M  V30 486 H 48.7723 0.966723 4.89342 0
M  V30 487 H 47.9263 -1.13363 5.96015 0
M  V30 488 H 46.6653 -1.28654 4.70425 0
M  V30 489 H 45.6703 0.903298 5.42329 0
M  V30 490 H 46.8953 1.04198 6.71059 0
M  V30 491 H 44.8413 -1.18706 6.45171 0
M  V30 492 H 44.7583 0.143965 7.55863 0
M  V30 493 H 46.0263 -1.03334 7.7262 0
M  V30 494 N 50.2554 -1.46986 0.568584 0
M  V30 495 C 51.4804 -2.07335 0.0520528 0
M  V30 496 C 51.9054 -1.41675 -1.23733 0
M  V30 497 O 51.2634 -0.495623 -1.74394 0
M  V30 498 C 51.3114 -3.60417 -0.11501 0
M  V30 499 O 50.4154 -3.95309 -1.17492 0
M  V30 500 H 49.7564 -0.661597 0.0564385 0
M  V30 501 H 52.2864 -1.88837 0.787507 0
M  V30 502 H 52.2964 -4.06698 -0.325644 0
M  V30 503 H 50.9714 -4.07601 0.826675 0
M  V30 504 H 49.5484 -3.60757 -0.943869 0
M  V30 505 N 51.7335 -0.305618 -1.54608 0
M  V30 506 C 52.9615 0.304775 -2.04643 0
M  V30 507 C 53.3765 1.47167 -1.18268 0
M  V30 508 O 52.7335 1.81296 -0.209328 0
M  V30 509 C 52.7845 0.756564 -3.53495 0
M  V30 510 O 52.5055 -0.36389 -4.36586 0
M  V30 511 C 54.0065 1.43163 -4.19546 0
M  V30 512 H 51.2265 0.0655481 -0.667791 0
M  V30 513 H 53.7705 -0.446592 -1.99564 0
M  V30 514 H 51.9255 1.45794 -3.58919 0
M  V30 515 H 52.3395 -0.0113121 -5.24499 0
M  V30 516 H 53.8135 1.69886 -5.25207 0
M  V30 517 H 54.2905 2.37318 -3.69563 0
M  V30 518 H 54.8965 0.773307 -4.18211 0
M  V30 519 N 53.2116 1.57565 -0.0334293 0
M  V30 520 C 54.4366 1.96689 0.657895 0
M  V30 521 C 54.8616 0.910057 1.64619 0
M  V30 522 O 54.2196 -0.128598 1.80843 0
M  V30 523 C 54.2676 3.34905 1.33683 0
M  V30 524 O 53.3716 3.31574 2.45219 0
M  V30 525 H 52.7126 0.641205 0.172489 0
M  V30 526 H 55.2426 2.04372 -0.0965621 0
M  V30 527 H 55.2526 3.71234 1.69262 0
M  V30 528 H 53.9276 4.11366 0.612411 0
M  V30 529 H 52.5046 3.06968 2.11719 0
M  V30 530 N 54.6897 -0.239769 1.55765 0
M  V30 531 C 55.9377 -0.964892 1.77579 0
M  V30 532 C 56.2587 -1.85582 0.598699 0
M  V30 533 O 55.5287 -1.92075 -0.385226 0
M  V30 534 H 54.1087 -0.359265 0.654933 0
M  V30 535 H 56.7707 -0.256001 1.93211 0
M  V30 536 H 55.8667 -1.58243 2.69009 0
M  V30 537 N 56.1678 -1.49265 -0.50573 0
M  V30 538 C 57.4158 -1.582 -1.25766 0
M  V30 539 C 57.7368 -0.268482 -1.93143 0
M  V30 540 O 57.0068 0.711833 -1.8251 0
M  V30 541 H 55.5868 -0.582873 -0.467191 0
M  V30 542 H 58.2488 -1.85865 -0.586525 0
M  V30 543 H 57.3448 -2.37563 -2.02412 0
M  V30 544 N 57.6459 0.756429 -1.3826 0
M  V30 545 C 58.8739 1.54565 -1.3754 0
M  V30 546 C 59.2889 1.88767 0.0355331 0
M  V30 547 O 58.6459 1.52572 1.0014 0
M  V30 548 C 58.6969 2.84654 -2.22833 0
M  V30 549 O 58.4179 2.51912 -3.5843 0
M  V30 550 C 59.9189 3.78807 -2.30261 0
M  V30 551 H 57.1389 0.478353 -0.470553 0
M  V30 552 H 59.6829 0.936381 -1.81803 0
M  V30 553 H 57.8379 3.41965 -1.8204 0
M  V30 554 H 58.2519 3.35325 -4.03308 0
M  V30 555 H 59.7259 4.67045 -2.94233 0
M  V30 556 H 60.2029 4.19038 -1.31545 0
M  V30 557 H 60.8089 3.2742 -2.71433 0
M  V30 558 N 59.124 1.23083 0.984299 0
M  V30 559 C 60.087 1.00979 2.05757 0
M  V30 560 C 61.087 -0.0269573 1.60777 0
M  V30 561 O 62.277 0.212403 1.729 0
M  V30 562 C 59.409 0.527072 3.36801 0
M  V30 563 H 60.602 1.9622 2.26799 0
M  V30 564 H 58.155 1.05072 1.15714 0
M  V30 565 H 58.89 -0.429294 3.21446 0
M  V30 566 H 58.675 1.27515 3.70786 0
M  V30 567 H 60.165 0.392942 4.15747 0
M  V30 568 N 60.6021 -1.18246 1.0419 0
M  V30 569 C 61.5651 -2.20128 0.638452 0
M  V30 570 C 62.5651 -1.57885 -0.304805 0
M  V30 571 O 63.7551 -1.73967 -0.0900369 0
M  V30 572 C 60.8871 -3.4084 -0.0637751 0
M  V30 573 H 62.0801 -2.57336 1.54007 0
M  V30 574 H 59.6331 -1.32152 0.834598 0
M  V30 575 H 60.3681 -3.09166 -0.979136 0
M  V30 576 H 60.1531 -3.8726 0.614198 0
M  V30 577 H 61.6431 -4.16274 -0.332512 0
M  V30 578 N 62.0802 -0.821533 -1.34494 0
M  V30 579 C 63.0102 -0.257138 -2.3208 0
M  V30 580 C 63.9912 0.625645 -1.58176 0
M  V30 581 O 65.1762 0.552811 -1.86166 0
M  V30 582 C 62.3062 0.582958 -3.42372 0
M  V30 583 C 61.2602 -0.202571 -4.2752 0
M  V30 584 C 60.5862 0.760179 -5.29269 0
M  V30 585 C 61.8862 -1.40998 -5.02908 0
M  V30 586 H 63.5802 -1.07247 -2.79532 0
M  V30 587 H 61.1262 -0.517163 -1.34393 0
M  V30 588 H 63.0792 0.987972 -4.09655 0
M  V30 589 H 61.8032 1.43133 -2.93565 0
M  V30 590 H 60.4622 -0.588936 -3.61838 0
M  V30 591 H 60.1102 1.60447 -4.76724 0
M  V30 592 H 59.8102 0.238809 -5.87115 0
M  V30 593 H 61.3342 1.16308 -5.9942 0
M  V30 594 H 62.7482 -1.07905 -5.63054 0
M  V30 595 H 61.1452 -1.86689 -5.70322 0
M  V30 596 H 62.2152 -2.1889 -4.32684 0
M  V30 597 N 63.5583 1.46682 -0.576371 0
M  V30 598 C 64.8063 2.02013 -0.0594163 0
M  V30 599 C 65.1273 1.45101 1.30271 0
M  V30 600 O 64.3973 0.633317 1.8538 0
M  V30 601 H 62.9773 0.746759 -0.0189745 0
M  V30 602 H 65.6393 1.79862 -0.750717 0
M  V30 603 H 64.7353 3.12097 0.014345 0
M  V30 604 N 65.0364 0.313813 1.54444 0
M  V30 605 C 66.2764 -0.292389 2.02298 0
M  V30 606 C 66.6404 -1.50105 1.19719 0
M  V30 607 O 67.8414 -2.17947 1.5733 0
M  V30 608 C 66.1124 -0.627682 3.51845 0
M  V30 609 S 67.6714 -1.21493 4.21646 0
M  V30 610 H 64.4894 -0.0890247 0.705405 0
M  V30 611 H 67.0914 0.444668 1.90376 0
M  V30 612 H 65.7954 0.260265 4.09574 0
M  V30 613 H 65.3264 -1.39519 3.67829 0
M  V30 614 H 67.3414 -2.5022 4.28491 0
M  V30 615 N 66.5145 -1.57545 0.0417849 0
M  V30 616 C 67.4445 -2.14009 -0.933929 0
M  V30 617 C 68.4255 -1.05938 -1.33083 0
M  V30 618 O 69.6105 -1.33833 -1.40721 0
M  V30 619 C 66.7405 -2.67747 -2.21199 0
M  V30 620 C 65.6945 -3.80718 -1.95544 0
M  V30 621 C 65.0205 -4.20935 -3.29724 0
M  V30 622 C 66.3205 -5.06258 -1.28452 0
M  V30 623 H 68.0145 -2.95788 -0.463645 0
M  V30 624 H 65.5605 -1.42285 -0.221573 0
M  V30 625 H 67.5135 -3.05886 -2.89848 0
M  V30 626 H 66.2375 -1.83147 -2.70416 0
M  V30 627 H 64.8965 -3.43037 -1.2931 0
M  V30 628 H 64.5445 -3.33298 -3.76724 0
M  V30 629 H 64.2445 -4.9707 -3.13361 0
M  V30 630 H 65.7685 -4.61666 -3.9962 0
M  V30 631 H 67.1825 -5.41903 -1.8712 0
M  V30 632 H 65.5795 -5.87475 -1.22445 0
M  V30 633 H 66.6495 -4.84207 -0.259219 0
M  V30 634 N 67.9926 0.231505 -1.5589 0
M  V30 635 C 69.2386 0.95877 -1.78705 0
M  V30 636 C 69.5716 1.8438 -0.609725 0
M  V30 637 O 68.8466 1.90521 0.391426 0
M  V30 638 C 69.1296 1.8062 -3.11526 0
M  V30 639 C 68.9826 0.948328 -4.39689 0
M  V30 640 C 70.3016 2.78585 -3.40703 0
M  V30 641 H 67.4206 0.347129 -0.650131 0
M  V30 642 H 70.0626 0.228259 -1.88624 0
M  V30 643 H 68.2126 2.42902 -3.03201 0
M  V30 644 H 69.8846 0.343016 -4.60023 0
M  V30 645 H 68.1276 0.253314 -4.3306 0
M  V30 646 H 68.7986 1.57543 -5.29041 0
M  V30 647 H 71.2746 2.26439 -3.49091 0
M  V30 648 H 70.1506 3.34988 -4.34826 0
M  V30 649 H 70.4116 3.55825 -2.62375 0
M  V30 650 N 69.4707 1.49531 0.497807 0
M  V30 651 C 70.4177 1.66436 1.59899 0
M  V30 652 C 71.3877 0.505793 1.58212 0
M  V30 653 O 72.5727 0.733202 1.7615 0
M  V30 654 C 69.7127 1.7399 2.98029 0
M  V30 655 C 68.8257 3.01172 3.09708 0
M  V30 656 C 67.9607 2.99686 4.38591 0
M  V30 657 C 66.9997 4.21434 4.43914 0
M  V30 658 N 66.1367 4.1784 5.64229 0
M  V30 659 H 70.9767 2.60459 1.44793 0
M  V30 660 H 68.5137 1.29137 0.704423 0
M  V30 661 H 70.4717 1.76352 3.78095 0
M  V30 662 H 69.1017 0.834301 3.11832 0
M  V30 663 H 68.1537 3.08408 2.22685 0
M  V30 664 H 69.4657 3.91165 3.09502 0
M  V30 665 H 68.6197 3.00628 5.2698 0
M  V30 666 H 67.3587 2.07477 4.41367 0
M  V30 667 H 66.3637 4.20733 3.53926 0
M  V30 668 H 67.5887 5.14839 4.42851 0
M  V30 669 H 65.5347 3.28469 5.67841 0
M  V30 670 H 65.4517 5.01571 5.65652 0
M  V30 671 H 66.7197 4.22889 6.54817 0
M  V30 672 N 70.9488 -0.749086 1.3866 0
M  V30 673 C 72.2258 -1.4992 1.25632 0
M  V30 674 C 72.6058 -2.10633 -0.140317 0
M  V30 675 O 71.9538 -1.97437 -1.15025 0
M  V30 676 C 72.1638 -2.56195 2.36992 0
M  V30 677 C 73.5118 -3.22972 2.75634 0
M  V30 678 O 74.5358 -2.66502 2.36337 0
M  V30 679 O 73.3948 -4.25122 3.43415 0
M  V30 680 H 70.4888 -0.665067 0.491544 0
M  V30 681 H 73.0348 -0.784113 1.50498 0
M  V30 682 H 71.8068 -2.09612 3.30422 0
M  V30 683 H 71.4298 -3.35279 2.13714 0
M  V30 684 N 72.4269 -1.23603 -0.977757 0
M  V30 685 C 73.6569 -1.09487 -1.75203 0
M  V30 686 C 74.0649 0.356321 -1.85814 0
M  V30 687 O 73.4079 1.25816 -1.33851 0
M  V30 688 C 73.4699 -1.64905 -3.19447 0
M  V30 689 C 73.1339 -3.13688 -3.32338 0
M  V30 690 C 74.1309 -4.10953 -3.18455 0
M  V30 691 C 71.8159 -3.53449 -3.56902 0
M  V30 692 C 73.8099 -5.45962 -3.28944 0
M  V30 693 C 71.4969 -4.88602 -3.6703 0
M  V30 694 C 72.4949 -5.84668 -3.53062 0
M  V30 695 O 72.1829 -7.17365 -3.62826 0
M  V30 696 H 71.9149 -0.38367 -0.556573 0
M  V30 697 H 74.4689 -1.6398 -1.23693 0
M  V30 698 H 72.6989 -1.04835 -3.72218 0
M  V30 699 H 74.3879 -1.46226 -3.78646 0
M  V30 700 H 75.1539 -3.81577 -2.99372 0
M  V30 701 H 71.0329 -2.79188 -3.66844 0
M  V30 702 H 74.5769 -6.20925 -3.17958 0
M  V30 703 H 70.4739 -5.17653 -3.85623 0
M  V30 704 H 71.2419 -7.2515 -3.79605 0
M  V30 705 N 73.905 1.17692 -1.04816 0
M  V30 706 C 75.152 1.87859 -0.75599 0
M  V30 707 C 75.48 1.80812 0.716752 0
M  V30 708 O 74.735 1.20819 1.53952 0
M  V30 709 C 75.034 3.37462 -1.17703 0
M  V30 710 C 74.7 3.64713 -2.65133 0
M  V30 711 C 73.362 3.71859 -3.05408 0
M  V30 712 C 75.714 3.76492 -3.60421 0
M  V30 713 C 73.042 3.88271 -4.39843 0
M  V30 714 C 75.394 3.94421 -4.94585 0
M  V30 715 C 74.058 3.99806 -5.3452 0
M  V30 716 H 73.328 0.687425 -0.276636 0
M  V30 717 H 75.975 1.39255 -1.31455 0
M  V30 718 H 74.28 3.88097 -0.537395 0
M  V30 719 H 75.977 3.90109 -0.928218 0
M  V30 720 H 72.567 3.59772 -2.32942 0
M  V30 721 H 76.751 3.70295 -3.30447 0
M  V30 722 H 72.007 3.90687 -4.70291 0
M  V30 723 H 76.181 4.02477 -5.68318 0
M  V30 724 H 73.808 4.12276 -6.38696 0
M  V30 725 N 75.3831 0.828654 1.34056 0
M  V30 726 C 76.7941 0.477534 1.8049 0
M  V30 727 C 77.1451 -1.00258 1.6865 0
M  V30 728 O 76.2701 -1.78057 1.22982 0
M  V30 729 C 76.8651 0.860018 3.27703 0
M  V30 730 C 75.4241 0.561185 3.72193 0
M  V30 731 C 74.5711 1.07385 2.55663 0
M  V30 732 H 77.5221 1.0183 1.21722 0
M  V30 733 H 77.5431 0.166038 3.80138 0
M  V30 734 H 77.0551 1.93731 3.36288 0
M  V30 735 H 75.1561 -0.506465 3.69142 0
M  V30 736 H 75.2691 1.10926 4.66082 0
M  V30 737 H 73.6331 0.495149 2.49841 0
M  V30 738 H 74.4161 2.15771 2.67016 0
M  V30 739 N 76.8612 -1.46375 0.584142 0
M  V30 740 C 77.7712 -2.34115 -0.150728 0
M  V30 741 C 78.7872 -1.49838 -0.884567 0
M  V30 742 O 79.9632 -1.82704 -0.847429 0
M  V30 743 C 77.0282 -3.2705 -1.15062 0
M  V30 744 C 76.0892 -4.27228 -0.421293 0
M  V30 745 C 75.3222 -5.15722 -1.37355 0
M  V30 746 O 75.5452 -5.07176 -2.61014 0
M  V30 747 O 74.4792 -5.95383 -0.883355 0
M  V30 748 H 78.3052 -2.98309 0.569708 0
M  V30 749 H 75.8902 -1.45373 0.344535 0
M  V30 750 H 77.7722 -3.84381 -1.72712 0
M  V30 751 H 76.4472 -2.65451 -1.8525 0
M  V30 752 H 75.3542 -3.7358 0.197085 0
M  V30 753 H 76.6872 -4.91616 0.239641 0
M  V30 754 N 78.3393 -0.321999 -1.54275 0
M  V30 755 C 79.7503 0.166384 -1.85957 0
M  V30 756 C 80.1013 1.51747 -1.24367 0
M  V30 757 O 79.2263 2.09317 -0.549124 0
M  V30 758 C 79.8213 0.308681 -3.37391 0
M  V30 759 C 78.3803 0.741286 -3.69028 0
M  V30 760 C 77.5273 -0.137937 -2.76957 0
M  V30 761 H 80.4783 -0.542335 -1.49146 0
M  V30 762 H 80.4993 1.13984 -3.63026 0
M  V30 763 H 80.0113 -0.674809 -3.82188 0
M  V30 764 H 78.1123 1.73458 -3.29762 0
M  V30 765 H 78.2253 0.546118 -4.75977 0
M  V30 766 H 76.5893 0.386251 -2.51754 0
M  V30 767 H 77.3723 -1.11816 -3.2458 0
M  V30 768 N 79.8174 1.5752 -0.0501392 0
M  V30 769 C 81.0634 1.92936 0.624798 0
M  V30 770 C 81.3964 0.928685 1.70555 0
M  V30 771 O 80.6714 -0.0454779 1.94447 0
M  V30 772 C 80.9544 3.38737 1.22185 0
M  V30 773 C 80.8074 4.49552 0.149218 0
M  V30 774 C 82.1264 3.84913 2.13378 0
M  V30 775 H 79.2454 0.701604 0.225657 0
M  V30 776 H 81.8874 1.89671 -0.111693 0
M  V30 777 H 80.0374 3.4165 1.84953 0
M  V30 778 H 81.7094 4.58768 -0.482648 0
M  V30 779 H 79.9524 4.30638 -0.522841 0
M  V30 780 H 80.6234 5.48653 0.606966 0
M  V30 781 H 83.0994 3.8387 1.60572 0
M  V30 782 H 81.9754 4.87584 2.52097 0
M  V30 783 H 82.2364 3.21611 3.03346 0
M  V30 784 N 81.2955 -0.223234 1.56011 0
M  V30 785 C 82.5235 -0.964812 1.83027 0
M  V30 786 C 82.9385 -1.78013 0.62904 0
M  V30 787 O 82.2955 -1.78008 -0.402414 0
M  V30 788 C 82.3465 -1.88373 3.08542 0
M  V30 789 O 82.0675 -1.10137 4.2403 0
M  V30 790 C 83.5685 -2.73934 3.48533 0
M  V30 791 H 80.7885 -0.282842 0.608475 0
M  V30 792 H 83.3325 -0.238971 2.03099 0
M  V30 793 H 81.4875 -2.56354 2.9045 0
M  V30 794 H 81.9015 -1.72501 4.95322 0
M  V30 795 H 83.3755 -3.34117 4.39397 0
M  V30 796 H 83.8525 -3.46244 2.70207 0
M  V30 797 H 84.4585 -2.11369 3.69057 0
M  V30 798 N 82.7736 -1.49793 -0.48987 0
M  V30 799 C 84.0196 -1.60078 -1.24511 0
M  V30 800 C 84.3526 -0.291608 -1.91998 0
M  V30 801 O 83.6276 0.705647 -1.81248 0
M  V30 802 C 83.9106 -2.76791 -2.30345 0
M  V30 803 C 83.7636 -4.17535 -1.67286 0
M  V30 804 C 85.0826 -2.89111 -3.31817 0
M  V30 805 H 82.2016 -0.582645 -0.451324 0
M  V30 806 H 84.8436 -1.82117 -0.541612 0
M  V30 807 H 82.9936 -2.5813 -2.90346 0
M  V30 808 H 84.6656 -4.4774 -1.11026 0
M  V30 809 H 82.9086 -4.22665 -0.976577 0
M  V30 810 H 83.5796 -4.95094 -2.44103 0
M  V30 811 H 86.0556 -3.06133 -2.81819 0
M  V30 812 H 84.9316 -3.72433 -4.03219 0
M  V30 813 H 85.1926 -1.9893 -3.94815 0
M  V30 814 N 84.2517 0.741722 -1.39055 0
M  V30 815 C 85.4767 1.53607 -1.39354 0
M  V30 816 C 85.9017 1.88096 0.0116905 0
M  V30 817 O 85.2597 1.5143 0.996924 0
M  V30 818 C 85.3077 2.80441 -2.26682 0
M  V30 819 O 84.4117 3.76088 -1.69208 0
M  V30 820 H 83.7527 0.464142 -0.474835 0
M  V30 821 H 86.2827 0.915665 -1.82967 0
M  V30 822 H 86.2927 3.29246 -2.40959 0
M  V30 823 H 84.9677 2.5467 -3.2881 0
M  V30 824 H 83.5447 3.34833 -1.64138 0
M  V30 825 N 85.7298 1.2412 0.971189 0
M  V30 826 C 86.9758 1.09048 1.71698 0
M  V30 827 C 87.3308 -0.367442 1.88859 0
M  V30 828 O 86.6238 -1.26792 1.43646 0
M  V30 829 C 86.8178 1.75983 3.11071 0
M  V30 830 C 86.6468 3.28133 3.07504 0
M  V30 831 C 85.4168 3.97331 3.1218 0
M  V30 832 C 87.6148 4.24773 2.89952 0
M  V30 833 N 85.5968 5.3639 2.98596 0
M  V30 834 C 86.9678 5.50806 2.84627 0
M  V30 835 C 89.0228 4.15392 2.74506 0
M  V30 836 C 87.7258 6.68533 2.65437 0
M  V30 837 C 89.7518 5.32793 2.56682 0
M  V30 838 C 89.1138 6.57756 2.52063 0
M  V30 839 H 85.2128 0.453632 0.636979 0
M  V30 840 H 87.7968 1.56983 1.15171 0
M  V30 841 H 85.9678 1.30566 3.65796 0
M  V30 842 H 87.6998 1.53803 3.74335 0
M  V30 843 H 84.4548 3.48473 3.20724 0
M  V30 844 H 84.8788 6.09321 2.95054 0
M  V30 845 H 89.5208 3.19543 2.76861 0
M  V30 846 H 87.2388 7.64509 2.61825 0
M  V30 847 H 90.8248 5.27383 2.4568 0
M  V30 848 H 89.7048 7.4707 2.38446 0
M  V30 849 N 87.2079 -1.17134 1.05439 0
M  V30 850 C 88.1559 -2.23289 0.651511 0
M  V30 851 C 89.1499 -1.66186 -0.328411 0
M  V30 852 O 90.3559 -1.78949 -0.194206 0
M  V30 853 H 86.7309 -0.726938 0.192523 0
M  V30 854 H 88.7019 -2.54565 1.55689 0
M  V30 855 C 87.4509 -3.47671 0.0448436 0
M  V30 856 H 86.7739 -3.91918 0.78996 0
M  V30 857 H 88.2139 -4.2353 -0.19964 0
M  V30 858 C 86.6729 -3.14453 -1.20918 0
M  V30 859 O 87.2029 -3.29459 -2.29825 0
M  V30 860 N 85.4089 -2.68657 -1.10779 0
M  V30 861 H 84.9559 -2.56646 -0.221526 0
M  V30 862 H 84.9139 -2.46804 -1.9477 0
M  V30 863 N 88.686 -0.835752 -1.33615 0
M  V30 864 C 89.911 -0.442389 -2.02627 0
M  V30 865 C 90.336 0.947735 -1.62479 0
M  V30 866 O 89.694 1.61907 -0.815826 0
M  V30 867 C 89.742 -0.567216 -3.56111 0
M  V30 868 O 88.846 0.407799 -4.10379 0
M  V30 869 H 88.187 -0.180278 -0.639059 0
M  V30 870 H 90.717 -1.12972 -1.70583 0
M  V30 871 H 90.727 -0.447708 -4.05536 0
M  V30 872 H 89.402 -1.58103 -3.84677 0
M  V30 873 H 87.979 0.246107 -3.72087 0
M  V30 874 N 90.1641 1.46063 -0.591896 0
M  V30 875 C 91.4121 2.01938 -0.0808391 0
M  V30 876 C 91.7331 1.46475 1.28725 0
M  V30 877 O 91.0031 0.652944 1.84698 0
M  V30 878 H 89.5831 0.746516 -0.0268938 0
M  V30 879 H 92.2451 1.79055 -0.769752 0
M  V30 880 H 91.3411 3.12094 -0.0187578 0
M  V30 881 N 91.6422 0.330177 1.54103 0
M  V30 882 C 92.6052 -0.520144 2.2322 0
M  V30 883 C 93.6052 -1.03828 1.22786 0
M  V30 884 O 94.7952 -0.929652 1.4732 0
M  V30 885 C 91.9272 -1.72317 2.94142 0
M  V30 886 H 93.1202 0.0841605 2.99782 0
M  V30 887 H 90.6732 0.0813433 1.56088 0
M  V30 888 H 91.4082 -2.36653 2.21734 0
M  V30 889 H 91.1932 -1.35898 3.67796 0
M  V30 890 H 92.6832 -2.3266 3.46784 0
M  V30 891 N 93.1203 -1.57491 0.0584922 0
M  V30 892 C 94.0503 -2.14988 -0.911178 0
M  V30 893 C 95.0313 -1.07343 -1.31952 0
M  V30 894 O 96.2163 -1.35318 -1.39294 0
M  V30 895 C 93.3463 -2.70078 -2.18347 0
M  V30 896 C 92.3003 -3.82771 -1.91495 0
M  V30 897 C 91.6263 -4.24408 -3.25241 0
M  V30 898 C 92.9263 -5.07592 -1.23075 0
M  V30 899 H 94.6203 -2.96263 -0.432246 0
M  V30 900 H 92.1663 -1.42512 -0.206469 0
M  V30 901 H 94.1193 -3.08943 -2.86587 0
M  V30 902 H 92.8433 -1.86005 -2.68458 0
M  V30 903 H 91.5023 -3.44389 -1.25664 0
M  V30 904 H 91.1503 -3.37275 -3.73168 0
M  V30 905 H 90.8503 -5.00366 -3.08071 0
M  V30 906 H 92.3743 -4.65879 -3.94701 0
M  V30 907 H 93.7883 -5.43857 -1.81362 0
M  V30 908 H 92.1853 -5.88741 -1.16207 0
M  V30 909 H 93.2553 -4.84454 -0.207847 0
M  V30 910 N 94.5984 0.214957 -1.56127 0
M  V30 911 C 95.8264 0.955092 -1.83536 0
M  V30 912 C 96.2414 1.77677 -0.638472 0
M  V30 913 O 95.5984 1.78219 0.392968 0
M  V30 914 C 95.6494 1.86734 -3.09536 0
M  V30 915 O 95.3704 1.07887 -4.24608 0
M  V30 916 C 96.8714 2.72082 -3.4998 0
M  V30 917 H 94.0914 0.279611 -0.609966 0
M  V30 918 H 96.6354 0.228197 -2.03223 0
M  V30 919 H 94.7904 2.5481 -2.91806 0
M  V30 920 H 95.2044 1.69872 -4.9623 0
M  V30 921 H 96.6784 3.31782 -4.41163 0
M  V30 922 H 97.1554 3.44806 -2.7204 0
M  V30 923 H 97.7614 2.09409 -3.70173 0
M  V30 924 N 96.0765 1.50051 0.48192 0
M  V30 925 C 97.3015 1.64508 1.26301 0
M  V30 926 C 97.7265 0.323851 1.85291 0
M  V30 927 O 97.0845 -0.710969 1.66778 0
M  V30 928 C 97.1325 2.7305 2.35533 0
M  V30 929 O 96.2365 2.3355 3.39895 0
M  V30 930 H 95.5775 0.549978 0.372048 0
M  V30 931 H 98.1075 1.9636 0.574786 0
M  V30 932 H 98.1175 2.95799 2.8101 0
M  V30 933 H 96.7925 3.68946 1.91967 0
M  V30 934 H 95.3695 2.21205 3.00204 0
M  V30 935 N 97.5546 -0.734337 1.39446 0
M  V30 936 C 98.8026 -1.49096 1.36436 0
M  V30 937 C 99.1236 -1.94961 -0.0388255 0
M  V30 938 O 98.3936 -1.69033 -0.990191 0
M  V30 939 H 96.9736 -0.5531 0.502085 0
M  V30 940 H 99.6356 -0.871725 1.74319 0
M  V30 941 H 98.7316 -2.37276 2.02747 0
M  V30 942 N 99.0327 -1.24633 -0.964593 0
M  V30 943 C 100.279 -1.08949 -1.71049 0
M  V30 944 C 100.612 0.370302 -1.90637 0
M  V30 945 O 99.8867 1.27349 -1.47011 0
M  V30 946 C 100.17 -1.83329 -3.0994 0
M  V30 947 C 100.023 -3.37077 -2.97824 0
M  V30 948 C 101.342 -1.60846 -4.09654 0
M  V30 949 H 98.4607 -0.397178 -0.620821 0
M  V30 950 H 101.103 -1.5334 -1.12191 0
M  V30 951 H 99.2527 -1.45597 -3.60186 0
M  V30 952 H 100.925 -3.84425 -2.5498 0
M  V30 953 H 99.1677 -3.65298 -2.33965 0
M  V30 954 H 99.8387 -3.84324 -3.96231 0
M  V30 955 H 102.315 -1.93674 -3.68279 0
M  V30 956 H 101.191 -2.1534 -5.04896 0
M  V30 957 H 101.452 -0.547434 -4.38698 0
M  V30 958 N 100.511 1.16574 -1.06058 0
M  V30 959 C 101.461 2.18854 -0.63929 0
M  V30 960 C 102.445 1.57505 0.328798 0
M  V30 961 O 103.637 1.76408 0.144623 0
M  V30 962 C 100.766 3.43291 -0.0247203 0
M  V30 963 C 99.8518 4.11722 -1.01716 0
M  V30 964 N 100.243 4.55841 -2.19186 0
M  V30 965 C 98.5408 4.37872 -0.847569 0
M  V30 966 C 99.2418 5.08751 -2.82042 0
M  V30 967 N 98.2178 5.01489 -2.09784 0
M  V30 968 H 102.02 2.5068 -1.53417 0
M  V30 969 H 99.5338 1.32999 -0.931935 0
M  V30 970 H 101.531 4.15856 0.294915 0
M  V30 971 H 100.191 3.12954 0.865448 0
M  V30 972 H 101.202 4.49649 -2.56975 0
M  V30 973 H 97.8788 4.17499 -0.00918848 0
M  V30 974 H 99.2688 5.52944 -3.81709 0
M  V30 975 N 101.989 0.842826 1.3317 0
M  V30 976 C 103.217 0.454055 2.01856 0
M  V30 977 C 103.632 -0.94587 1.63397 0
M  V30 978 O 102.989 -1.61534 0.849302 0
M  V30 979 C 103.04 0.569715 3.56982 0
M  V30 980 O 102.761 1.91448 3.94055 0
M  V30 981 C 104.262 0.178412 4.42941 0
M  V30 982 H 101.482 0.17979 0.646465 0
M  V30 983 H 104.026 1.1365 1.70012 0
M  V30 984 H 102.181 -0.0648587 3.87346 0
M  V30 985 H 102.595 1.90282 4.88767 0
M  V30 986 H 104.069 0.310376 5.51127 0
M  V30 987 H 104.546 -0.880056 4.30293 0
M  V30 988 H 105.152 0.787579 4.17944 0
M  V30 989 N 103.467 -1.45747 0.599634 0
M  V30 990 C 104.714 -2.02292 0.0917284 0
M  V30 991 C 105.042 -1.46906 -1.27472 0
M  V30 992 O 104.297 -0.630652 -1.8526 0
M  V30 993 C 104.596 -3.57399 -0.00602758 0
M  V30 994 C 104.262 -4.31902 1.29503 0
M  V30 995 C 102.924 -4.51974 1.65144 0
M  V30 996 C 105.276 -4.74551 2.15525 0
M  V30 997 C 102.604 -5.11949 2.86574 0
M  V30 998 C 104.956 -5.35868 3.36196 0
M  V30 999 C 103.62 -5.54165 3.72099 0
M  V30 1000 H 102.89 -0.740239 0.0335658 0
M  V30 1001 H 105.537 -1.7491 0.779661 0
M  V30 1002 H 103.842 -3.84014 -0.777183 0
M  V30 1003 H 105.539 -3.98846 -0.415038 0
M  V30 1004 H 102.129 -4.16588 1.00761 0
M  V30 1005 H 106.313 -4.58784 1.8929 0
M  V30 1006 H 101.569 -5.24305 3.14507 0
M  V30 1007 H 105.743 -5.6787 4.03109 0
M  V30 1008 H 103.37 -6.00406 4.6628 0
M  V30 1009 N 104.945 -0.338344 -1.53925 0
M  V30 1010 C 106.356 0.146651 -1.86123 0
M  V30 1011 C 106.707 1.5042 -1.2597 0
M  V30 1012 O 105.832 2.08723 -0.571294 0
M  V30 1013 C 106.427 0.272879 -3.37699 0
M  V30 1014 C 104.986 0.702103 -3.69794 0
M  V30 1015 C 104.133 -0.167304 -2.76795 0
M  V30 1016 H 107.084 -0.558123 -1.48562 0
M  V30 1017 H 107.105 1.10128 -3.64214 0
M  V30 1018 H 106.617 -0.715307 -3.81451 0
M  V30 1019 H 104.718 1.6995 -3.31584 0
M  V30 1020 H 104.831 0.495604 -4.7653 0
M  V30 1021 H 103.195 0.359527 -2.5215 0
M  V30 1022 H 103.978 -1.15253 -3.23375 0
M  V30 1023 N 106.423 1.57458 -0.0668435 0
M  V30 1024 C 107.386 2.11323 0.887422 0
M  V30 1025 C 108.386 1.03618 1.22964 0
M  V30 1026 O 109.576 1.29626 1.16373 0
M  V30 1027 C 106.708 2.61048 2.19242 0
M  V30 1028 H 107.901 2.96942 0.420194 0
M  V30 1029 H 105.454 1.55239 0.181793 0
M  V30 1030 H 106.189 1.78868 2.70512 0
M  V30 1031 H 105.974 3.39769 1.95702 0
M  V30 1032 H 107.464 3.02814 2.87565 0
M  V30 1033 N 107.901 -0.206675 1.56239 0
M  V30 1034 C 109.147 -0.930218 1.80208 0
M  V30 1035 C 109.48 -1.83387 0.638981 0
M  V30 1036 O 108.755 -1.91119 -0.361066 0
M  V30 1037 C 109.038 -1.75641 3.1436 0
M  V30 1038 C 108.891 -0.878257 4.41142 0
M  V30 1039 C 110.21 -2.73129 3.45092 0
M  V30 1040 H 107.329 -0.336742 0.655571 0
M  V30 1041 H 109.971 -0.198222 1.88963 0
M  V30 1042 H 108.121 -2.38048 3.07027 0
M  V30 1043 H 109.793 -0.269787 4.6051 0
M  V30 1044 H 108.036 -0.184385 4.33408 0
M  V30 1045 H 108.707 -1.49106 5.3148 0
M  V30 1046 H 111.183 -2.20856 3.52649 0
M  V30 1047 H 110.059 -3.28028 4.40101 0
M  V30 1048 H 110.32 -3.51606 2.68003 0
M  V30 1049 N 109.379 -1.50304 -0.473955 0
M  V30 1050 C 110.309 -1.71886 -1.58042 0
M  V30 1051 C 111.29 -0.567799 -1.60344 0
M  V30 1052 O 112.475 -0.806623 -1.76656 0
M  V30 1053 C 109.605 -1.81036 -2.96384 0
M  V30 1054 C 108.559 -2.962 -3.08949 0
M  V30 1055 C 107.885 -2.9049 -4.48909 0
M  V30 1056 C 109.185 -4.36752 -2.86434 0
M  V30 1057 H 110.879 -2.64527 -1.40234 0
M  V30 1058 H 108.425 -1.27295 -0.673201 0
M  V30 1059 H 110.378 -1.94719 -3.73714 0
M  V30 1060 H 109.102 -0.850147 -3.15341 0
M  V30 1061 H 107.761 -2.82164 -2.3405 0
M  V30 1062 H 107.409 -1.92321 -4.64781 0
M  V30 1063 H 107.109 -3.67802 -4.58253 0
M  V30 1064 H 108.633 -3.06218 -5.28264 0
M  V30 1065 H 110.047 -4.5133 -3.53517 0
M  V30 1066 H 108.444 -5.15493 -3.07225 0
M  V30 1067 H 109.514 -4.49321 -1.82316 0
M  V30 1068 N 110.857 0.726932 -1.39834 0
M  V30 1069 C 111.789 1.85147 -1.35104 0
M  V30 1070 C 112.802 1.60736 -0.258392 0
M  V30 1071 O 113.991 1.70821 -0.517931 0
M  V30 1072 C 111.091 3.21332 -1.07697 0
M  V30 1073 C 110.264 3.73033 -2.28396 0
M  V30 1074 C 109.323 4.87802 -1.97322 0
M  V30 1075 O 108.349 5.01043 -2.70083 0
M  V30 1076 N 109.551 5.72768 -0.944273 0
M  V30 1077 H 112.316 1.89706 -2.32017 0
M  V30 1078 H 109.877 0.908006 -1.3404 0
M  V30 1079 H 111.869 3.95691 -0.849144 0
M  V30 1080 H 110.439 3.11992 -0.194909 0
M  V30 1081 H 109.659 2.89934 -2.6708 0
M  V30 1082 H 110.947 4.0431 -3.08887 0
M  V30 1083 H 110.345 5.64669 -0.341427 0
M  V30 1084 H 108.902 6.4716 -0.776346 0
M  V30 1085 N 112.336 1.25143 0.95797 0
M  V30 1086 C 113.561 1.12521 1.74223 0
M  V30 1087 C 113.986 -0.317402 1.85403 0
M  V30 1088 O 113.344 -1.2299 1.33204 0
M  V30 1089 C 113.392 1.78062 3.1357 0
M  V30 1090 O 112.496 1.058 3.98598 0
M  V30 1091 H 111.837 0.39304 0.535178 0
M  V30 1092 H 114.367 1.65641 1.201 0
M  V30 1093 H 114.377 1.84213 3.64046 0
M  V30 1094 H 113.052 2.83021 3.04749 0
M  V30 1095 H 111.629 1.07506 3.57067 0
M  V30 1096 N 113.814 -1.1601 1.06675 0
M  V30 1097 C 115.039 -1.91068 0.806706 0
M  V30 1098 C 115.464 -1.77112 -0.633485 0
M  V30 1099 O 114.822 -1.09908 -1.44187 0
M  V30 1100 C 114.87 -3.39655 1.21106 0
M  V30 1101 O 113.974 -4.10893 0.352189 0
M  V30 1102 H 113.315 -0.595125 0.294486 0
M  V30 1103 H 115.845 -1.46955 1.42356 0
M  V30 1104 H 115.855 -3.90434 1.18428 0
M  V30 1105 H 114.53 -3.49132 2.26008 0
M  V30 1106 H 113.107 -3.70285 0.440868 0
M  V30 1107 N 115.292 -0.849877 -1.32721 0
M  V30 1108 C 116.54 -0.450032 -1.97026 0
M  V30 1109 C 116.861 0.996604 -1.67609 0
M  V30 1110 O 116.131 1.6958 -0.980786 0
M  V30 1111 H 114.711 -0.163426 -0.728904 0
M  V30 1112 H 117.373 -1.08526 -1.6189 0
M  V30 1113 H 116.469 -0.591146 -3.0645 0
M  V30 1114 N 116.77 1.45427 -0.607355 0
M  V30 1115 C 117.7 2.3329 0.0989352 0
M  V30 1116 C 118.681 1.46816 0.859007 0
M  V30 1117 O 119.866 1.75588 0.829604 0
M  V30 1118 C 116.996 3.29518 1.09705 0
M  V30 1119 C 115.95 4.25626 0.450206 0
M  V30 1120 C 115.276 5.11542 1.55655 0
M  V30 1121 C 116.576 5.18505 -0.628455 0
M  V30 1122 H 118.27 2.92595 -0.634716 0
M  V30 1123 H 115.816 1.40696 -0.306681 0
M  V30 1124 H 117.769 3.89855 1.59971 0
M  V30 1125 H 116.493 2.68372 1.86129 0
M  V30 1126 H 115.152 3.66586 -0.0315886 0
M  V30 1127 H 114.8 4.46765 2.31107 0
M  V30 1128 H 114.5 5.76647 1.12925 0
M  V30 1129 H 116.024 5.74748 2.06148 0
M  V30 1130 H 117.438 5.72916 -0.209877 0
M  V30 1131 H 115.835 5.92085 -0.977489 0
M  V30 1132 H 116.905 4.60948 -1.50514 0
M  V30 1133 N 118.248 0.346503 1.53744 0
M  V30 1134 C 119.478 -0.250047 2.05081 0
M  V30 1135 C 119.886 -1.44529 1.22098 0
M  V30 1136 O 119.229 -1.81992 0.249917 0
M  V30 1137 C 119.291 -0.725934 3.52094 0
M  V30 1138 C 118.955 0.350053 4.55657 0
M  V30 1139 C 119.952 1.19372 5.0601 0
M  V30 1140 C 117.637 0.504827 4.99757 0
M  V30 1141 C 119.631 2.17768 5.99046 0
M  V30 1142 C 117.318 1.49218 5.92602 0
M  V30 1143 C 118.316 2.32706 6.42135 0
M  V30 1144 O 118.004 3.2976 7.33153 0
M  V30 1145 H 117.736 -0.0515469 0.674032 0
M  V30 1146 H 120.29 0.497559 1.99282 0
M  V30 1147 H 118.52 -1.52483 3.55367 0
M  V30 1148 H 120.209 -1.24336 3.86388 0
M  V30 1149 H 120.975 1.08525 4.72702 0
M  V30 1150 H 116.854 -0.135178 4.60802 0
M  V30 1151 H 120.398 2.82971 6.37631 0
M  V30 1152 H 116.295 1.6012 6.25325 0
M  V30 1153 H 117.063 3.25265 7.51096 0
M  V30 1154 N 119.726 -1.57421 0.075193 0
M  V30 1155 C 120.951 -1.98364 -0.605515 0
M  V30 1156 C 121.376 -0.953383 -1.62149 0
M  V30 1157 O 120.734 0.0806053 -1.81121 0
M  V30 1158 C 120.782 -3.38332 -1.24756 0
M  V30 1159 O 119.886 -3.37959 -2.36342 0
M  V30 1160 H 119.227 -0.645553 -0.155428 0
M  V30 1161 H 121.757 -2.04044 0.150714 0
M  V30 1162 H 121.767 -3.75591 -1.5936 0
M  V30 1163 H 120.442 -4.12846 -0.503129 0
M  V30 1164 H 119.019 -3.12474 -2.03506 0
M  V30 1165 N 121.204 0.198386 -1.56346 0
M  V30 1166 C 122.134 1.24865 -1.9731 0
M  V30 1167 C 123.115 1.47651 -0.844576 0
M  V30 1168 O 124.3 1.59444 -1.10866 0
M  V30 1169 C 121.43 2.59358 -2.30977 0
M  V30 1170 C 120.384 2.5119 -3.46537 0
M  V30 1171 C 119.71 3.89926 -3.65871 0
M  V30 1172 C 121.01 2.03977 -4.80823 0
M  V30 1173 H 122.704 0.908252 -2.85291 0
M  V30 1174 H 120.25 0.435462 -1.37258 0
M  V30 1175 H 122.203 3.33011 -2.58228 0
M  V30 1176 H 120.927 2.95132 -1.39874 0
M  V30 1177 H 119.586 1.79993 -3.19371 0
M  V30 1178 H 119.234 4.23046 -2.72105 0
M  V30 1179 H 118.934 3.85336 -4.4361 0
M  V30 1180 H 120.458 4.65205 -3.95495 0
M  V30 1181 H 121.872 2.67386 -5.07127 0
M  V30 1182 H 120.269 2.10397 -5.62008 0
M  V30 1183 H 121.339 0.992861 -4.74626 0
M  V30 1184 N 122.682 1.50554 0.465978 0
M  V30 1185 C 123.907 1.65838 1.24549 0
M  V30 1186 C 124.332 0.343486 1.84937 0
M  V30 1187 O 123.69 -0.69324 1.67523 0
M  V30 1188 C 123.738 2.75533 2.32624 0
M  V30 1189 O 122.842 2.37142 3.37398 0
M  V30 1190 H 122.183 0.553893 0.366194 0
M  V30 1191 H 124.713 1.96959 0.553927 0
M  V30 1192 H 124.723 2.98763 2.77857 0
M  V30 1193 H 123.398 3.70962 1.88043 0
M  V30 1194 H 121.975 2.24377 2.97841 0
M  V30 1195 N 124.16 -0.719506 1.40217 0
M  V30 1196 C 125.385 -1.51371 1.4178 0
M  V30 1197 C 125.81 -1.88091 0.0182355 0
M  V30 1198 O 125.168 -1.52997 -0.972707 0
M  V30 1199 C 125.216 -2.768 2.31115 0
M  V30 1200 O 124.32 -3.73349 1.7517 0
M  V30 1201 H 123.661 -0.456529 0.482159 0
M  V30 1202 H 126.191 -0.88644 1.844 0
M  V30 1203 H 126.201 -3.25371 2.46167 0
M  V30 1204 H 124.876 -2.49407 3.3282 0
M  V30 1205 H 123.453 -3.32179 1.69444 0
M  V30 1206 N 125.638 -1.25649 -0.95132 0
M  V30 1207 C 126.884 -1.10757 -1.69884 0
M  V30 1208 C 127.217 0.350061 -1.91019 0
M  V30 1209 O 126.492 1.25783 -1.48354 0
M  V30 1210 C 126.775 -1.86606 -3.07978 0
M  V30 1211 C 126.628 -3.40217 -2.94232 0
M  V30 1212 C 127.947 -1.65182 -4.07925 0
M  V30 1213 H 125.066 -0.40374 -0.616574 0
M  V30 1214 H 127.708 -1.54521 -1.10558 0
M  V30 1215 H 125.858 -1.49409 -3.58621 0
M  V30 1216 H 127.53 -3.87108 -2.50889 0
M  V30 1217 H 125.773 -3.67759 -2.30078 0
M  V30 1218 H 126.444 -3.88505 -3.92133 0
M  V30 1219 H 128.92 -1.9757 -3.66204 0
M  V30 1220 H 127.796 -2.20683 -5.02583 0
M  V30 1221 H 128.057 -0.593933 -4.38092 0
M  V30 1222 N 127.117 1.15442 -1.07289 0
M  V30 1223 C 128.363 1.86489 -0.796846 0
M  V30 1224 C 128.696 1.82078 0.675371 0
M  V30 1225 O 127.971 1.24346 1.4956 0
M  V30 1226 C 128.254 3.35626 -1.30489 0
M  V30 1227 C 128.107 3.48673 -2.84161 0
M  V30 1228 C 129.426 4.30357 -0.920907 0
M  V30 1229 H 126.545 0.677144 -0.290939 0
M  V30 1230 H 129.187 1.35633 -1.33056 0
M  V30 1231 H 127.337 3.79068 -0.850883 0
M  V30 1232 H 129.009 3.14099 -3.37846 0
M  V30 1233 H 127.252 2.90253 -3.22391 0
M  V30 1234 H 127.923 4.53453 -3.14777 0
M  V30 1235 H 130.399 3.94871 -1.3121 0
M  V30 1236 H 129.275 5.33193 -1.30372 0
M  V30 1237 H 129.536 4.4176 0.173226 0
M  V30 1238 N 128.595 0.856903 1.32268 0
M  V30 1239 C 129.823 0.475439 2.01363 0
M  V30 1240 C 130.238 -0.928486 1.64392 0
M  V30 1241 O 129.595 -1.60624 0.866387 0
M  V30 1242 C 129.646 0.607545 3.56358 0
M  V30 1243 O 129.367 1.95617 3.92002 0
M  V30 1244 C 130.868 0.225382 4.42727 0
M  V30 1245 H 128.088 0.186636 0.644521 0
M  V30 1246 H 130.632 1.15446 1.68797 0
M  V30 1247 H 128.787 -0.0237719 3.87393 0
M  V30 1248 H 129.201 1.95455 4.86721 0
M  V30 1249 H 130.675 0.368813 5.50767 0
M  V30 1250 H 131.152 -0.834369 4.31202 0
M  V30 1251 H 131.758 0.831864 4.17085 0
M  V30 1252 N 130.073 -1.45103 0.615059 0
M  V30 1253 C 131.319 -2.02483 0.113347 0
M  V30 1254 C 131.652 -1.48146 -1.25564 0
M  V30 1255 O 130.927 -0.659104 -1.82992 0
M  V30 1256 C 131.21 -3.60005 0.0825278 0
M  V30 1257 C 131.063 -4.2466 1.48271 0
M  V30 1258 C 132.382 -4.35972 -0.601401 0
M  V30 1259 H 129.501 -0.735764 0.0426632 0
M  V30 1260 H 132.143 -1.72868 0.788461 0
M  V30 1261 H 130.293 -3.85367 -0.492378 0
M  V30 1262 H 131.965 -4.10458 2.10527 0
M  V30 1263 H 130.208 -3.82772 2.04127 0
M  V30 1264 H 130.879 -5.336 1.41332 0
M  V30 1265 H 133.355 -4.15947 -0.112666 0
M  V30 1266 H 132.231 -5.45697 -0.592097 0
M  V30 1267 H 132.492 -4.09391 -1.66887 0
M  V30 1268 N 131.551 -0.354651 -1.53558 0
M  V30 1269 C 132.962 0.126902 -1.86268 0
M  V30 1270 C 133.313 1.49075 -1.27558 0
M  V30 1271 O 132.438 2.08105 -0.5934 0
M  V30 1272 C 133.033 0.237046 -3.3797 0
M  V30 1273 C 131.592 0.662842 -3.70518 0
M  V30 1274 C 130.739 -0.196652 -2.76602 0
M  V30 1275 H 133.69 -0.573849 -1.47962 0
M  V30 1276 H 133.711 1.06259 -3.65362 0
M  V30 1277 H 133.223 -0.755725 -3.80671 0
M  V30 1278 H 131.324 1.66424 -3.33367 0
M  V30 1279 H 131.437 0.445034 -4.77029 0
M  V30 1280 H 129.801 0.332763 -2.52517 0
M  V30 1281 H 130.584 -1.18676 -3.22135 0
M  V30 1282 N 133.029 1.57378 -0.0835403 0
M  V30 1283 C 134.254 1.98682 0.594987 0
M  V30 1284 C 134.679 0.961969 1.61641 0
M  V30 1285 O 134.037 -0.0709989 1.81161 0
M  V30 1286 C 134.085 3.38988 1.2296 0
M  V30 1287 O 133.189 3.39208 2.34546 0
M  V30 1288 H 132.53 0.646368 0.152002 0
M  V30 1289 H 135.06 2.03961 -0.161533 0
M  V30 1290 H 135.07 3.76431 1.57366 0
M  V30 1291 H 133.745 4.13107 0.481228 0
M  V30 1292 H 132.322 3.13548 2.01846 0
M  V30 1293 N 134.507 -0.190092 1.56449 0
M  V30 1294 C 135.732 -0.929864 1.85387 0
M  V30 1295 C 136.157 -1.7585 0.667704 0
M  V30 1296 O 135.515 -1.77198 -0.383459 0
M  V30 1297 C 135.563 -1.79773 3.12593 0
M  V30 1298 O 134.667 -2.89713 2.93496 0
M  V30 1299 H 134.008 -0.261574 0.610307 0
M  V30 1300 H 136.538 -0.193896 2.03679 0
M  V30 1301 H 136.548 -2.20139 3.43515 0
M  V30 1302 H 135.223 -1.18892 3.98544 0
M  V30 1303 H 133.8 -2.53065 2.73884 0
M  V30 1304 N 135.985 -1.50799 -0.457987 0
M  V30 1305 C 137.21 -1.66496 -1.23668 0
M  V30 1306 C 137.635 -0.353288 -1.84752 0
M  V30 1307 O 136.993 0.684346 -1.67888 0
M  V30 1308 C 137.041 -2.76763 -2.3116 0
M  V30 1309 O 136.145 -2.38928 -3.36136 0
M  V30 1310 H 135.486 -0.555828 -0.363252 0
M  V30 1311 H 138.016 -1.9725 -0.543474 0
M  V30 1312 H 138.026 -3.00232 -2.76269 0
M  V30 1313 H 136.701 -3.71954 -1.86073 0
M  V30 1314 H 135.278 -2.25953 -2.96647 0
M  V30 1315 N 137.463 0.71206 -1.40597 0
M  V30 1316 C 138.393 1.83889 -1.43899 0
M  V30 1317 C 139.374 1.67442 -0.299504 0
M  V30 1318 O 140.559 1.87421 -0.508624 0
M  V30 1319 C 137.689 3.21877 -1.30431 0
M  V30 1320 C 136.643 3.53002 -2.42019 0
M  V30 1321 C 135.969 4.90172 -2.13626 0
M  V30 1322 C 137.269 3.53643 -3.84362 0
M  V30 1323 H 138.963 1.81383 -2.38203 0
M  V30 1324 H 136.509 0.871237 -1.14654 0
M  V30 1325 H 138.462 4.00404 -1.31357 0
M  V30 1326 H 137.186 3.24968 -0.326049 0
M  V30 1327 H 135.845 2.76818 -2.40349 0
M  V30 1328 H 135.493 4.89869 -1.14182 0
M  V30 1329 H 135.193 5.11962 -2.88389 0
M  V30 1330 H 136.717 5.71028 -2.1624 0
M  V30 1331 H 138.131 4.22203 -3.87837 0
M  V30 1332 H 136.528 3.86961 -4.58673 0
M  V30 1333 H 137.598 2.52954 -4.13693 0
M  V30 1334 N 138.941 1.26152 0.944643 0
M  V30 1335 C 140.189 1.11271 1.6871 0
M  V30 1336 C 140.51 -0.345166 1.91921 0
M  V30 1337 O 139.78 -1.24387 1.51343 0
M  V30 1338 H 138.36 0.408783 0.625224 0
M  V30 1339 H 141.022 1.58427 1.1352 0
M  V30 1340 H 140.118 1.62879 2.66227 0
M  V30 1341 N 140.419 -1.14872 1.07899 0
M  V30 1342 C 141.647 -1.89661 0.82683 0
M  V30 1343 C 142.062 -1.78312 -0.620519 0
M  V30 1344 O 141.419 -1.13888 -1.42604 0
M  V30 1345 C 141.47 -3.39817 1.23316 0
M  V30 1346 O 141.191 -3.50845 2.62372 0
M  V30 1347 C 142.692 -4.31615 1.0111 0
M  V30 1348 H 139.912 -0.60092 0.298557 0
M  V30 1349 H 142.456 -1.4551 1.43691 0
M  V30 1350 H 140.611 -3.8161 0.667286 0
M  V30 1351 H 141.025 -4.44076 2.79101 0
M  V30 1352 H 142.499 -5.35367 1.34486 0
M  V30 1353 H 142.976 -4.39169 -0.0522168 0
M  V30 1354 H 143.582 -3.95572 1.56215 0
M  V30 1355 N 141.898 -0.863906 -1.31812 0
M  V30 1356 C 142.83 -0.272485 -2.27575 0
M  V30 1357 C 143.843 0.56104 -1.52827 0
M  V30 1358 O 145.032 0.384021 -1.7432 0
M  V30 1359 C 142.132 0.63283 -3.32939 0
M  V30 1360 C 141.305 -0.166902 -4.37081 0
M  V30 1361 C 140.364 0.665608 -5.21973 0
M  V30 1362 O 139.39 0.0958091 -5.69119 0
M  V30 1363 N 140.592 1.9787 -5.45736 0
M  V30 1364 H 143.357 -1.0954 -2.78964 0
M  V30 1365 H 140.918 -0.724791 -1.4477 0
M  V30 1366 H 142.91 1.19532 -3.86645 0
M  V30 1367 H 141.48 1.35642 -2.81638 0
M  V30 1368 H 140.7 -0.910838 -3.83533 0
M  V30 1369 H 141.988 -0.715874 -5.03739 0
M  V30 1370 H 141.386 2.46484 -5.09178 0
M  V30 1371 H 139.943 2.48911 -6.024 0
M  V30 1372 N 143.376 1.44774 -0.622745 0
M  V30 1373 C 144.604 2.06487 -0.130722 0
M  V30 1374 C 145.019 1.46476 1.19123 0
M  V30 1375 O 144.376 0.584502 1.72887 0
M  V30 1376 C 144.427 3.615 -0.000807207 0
M  V30 1377 O 144.148 4.19274 -1.27048 0
M  V30 1378 C 145.649 4.40229 0.520898 0
M  V30 1379 H 142.869 0.666704 -0.0758106 0
M  V30 1380 H 145.413 1.85779 -0.854774 0
M  V30 1381 H 143.568 3.81498 0.673643 0
M  V30 1382 H 143.982 5.12622 -1.1099 0
M  V30 1383 H 145.456 5.49144 0.560838 0
M  V30 1384 H 145.933 4.1108 1.54627 0
M  V30 1385 H 146.539 4.25131 -0.120018 0
M  V30 1386 N 144.854 0.36279 1.53368 0
M  V30 1387 C 146.084 -0.228281 2.05335 0
M  V30 1388 C 146.492 -1.43226 1.23625 0
M  V30 1389 O 145.835 -1.81717 0.269206 0
M  V30 1390 C 145.897 -0.688549 3.52845 0
M  V30 1391 C 145.561 0.398362 4.5526 0
M  V30 1392 C 146.558 1.24732 5.04716 0
M  V30 1393 C 144.243 0.557805 4.99193 0
M  V30 1394 C 146.237 2.2411 5.96702 0
M  V30 1395 C 143.924 1.55495 5.90986 0
M  V30 1396 C 144.922 2.39503 6.39631 0
M  V30 1397 O 144.61 3.37517 7.29615 0
M  V30 1398 H 144.342 -0.044395 0.674541 0
M  V30 1399 H 146.896 0.518668 1.98744 0
M  V30 1400 H 145.126 -1.48706 3.56964 0
M  V30 1401 H 146.815 -1.20231 3.87685 0
M  V30 1402 H 147.581 1.13532 4.71525 0
M  V30 1403 H 143.46 -0.0862959 4.60919 0
M  V30 1404 H 147.004 2.89718 6.34594 0
M  V30 1405 H 142.901 1.66744 6.23592 0
M  V30 1406 H 143.669 3.33213 7.47604 0
M  V30 1407 N 146.332 -1.57332 0.0918853 0
M  V30 1408 C 147.581 -1.93412 -0.572249 0
M  V30 1409 C 147.894 -0.975515 -1.69538 0
M  V30 1410 O 149.1 -1.22991 -2.42045 0
M  V30 1411 C 147.556 -3.43648 -1.0693 0
M  V30 1412 C 147.164 -4.47994 0.0239049 0
M  V30 1413 C 148.908 -3.88695 -1.70635 0
M  V30 1414 C 146.815 -5.89381 -0.488319 0
M  V30 1415 H 145.745 -0.721939 -0.217532 0
M  V30 1416 H 148.396 -1.82735 0.167369 0
M  V30 1417 H 146.778 -3.49466 -1.8625 0
M  V30 1418 H 147.952 -4.53815 0.799277 0
M  V30 1419 H 146.267 -4.12536 0.565946 0
M  V30 1420 H 148.864 -4.91725 -2.10025 0
M  V30 1421 H 149.207 -3.27166 -2.57426 0
M  V30 1422 H 149.74 -3.85564 -0.979023 0
M  V30 1423 H 146.479 -6.54602 0.342906 0
M  V30 1424 H 145.999 -5.87037 -1.23077 0
M  V30 1425 H 147.678 -6.39863 -0.958317 0
M  V30 1426 N 147.81 0.181792 -1.56548 0
M  V30 1427 C 149.05 0.906711 -1.83189 0
M  V30 1428 C 149.414 1.79882 -0.671312 0
M  V30 1429 O 150.615 2.56054 -0.81792 0
M  V30 1430 C 148.886 1.69023 -3.14906 0
M  V30 1431 S 150.445 2.46535 -3.62996 0
M  V30 1432 H 147.263 0.303877 -0.642791 0
M  V30 1433 H 149.865 0.169107 -1.94767 0
M  V30 1434 H 148.569 1.02571 -3.97376 0
M  V30 1435 H 148.1 2.46941 -3.06241 0
M  V30 1436 H 150.115 3.71014 -3.29489 0
M  V30 1437 N 149.288 1.51039 0.449983 0
M  V30 1438 C 150.236 1.71995 1.5659 0
M  V30 1439 C 151.23 0.586029 1.5894 0
M  V30 1440 O 152.436 0.76709 1.62837 0
M  V30 1441 H 148.811 0.543233 0.520001 0
M  V30 1442 H 150.782 2.65562 1.36085 0
M  V30 1443 C 149.531 1.8506 2.9436 0
M  V30 1444 H 148.854 2.71712 2.93279 0
M  V30 1445 H 150.294 2.0374 3.71842 0
M  V30 1446 C 148.753 0.607277 3.31382 0
M  V30 1447 O 149.283 -0.243903 4.00959 0
M  V30 1448 N 147.489 0.455073 2.87015 0
M  V30 1449 H 147.036 1.14879 2.30566 0
M  V30 1450 H 146.994 -0.375611 3.12148 0
M  V30 1451 N 150.766 -0.704594 1.40972 0
M  V30 1452 C 152.012 -1.46675 1.40051 0
M  V30 1453 C 152.345 -1.94199 0.00641102 0
M  V30 1454 O 151.62 -1.68916 -0.964235 0
M  V30 1455 C 151.903 -2.68505 2.39952 0
M  V30 1456 C 151.756 -2.26805 3.88432 0
M  V30 1457 C 153.075 -3.70686 2.37233 0
M  V30 1458 H 150.194 -0.532015 0.510028 0
M  V30 1459 H 152.836 -0.803255 1.72185 0
M  V30 1460 H 150.986 -3.25114 2.1268 0
M  V30 1461 H 152.658 -1.75592 4.26574 0
M  V30 1462 H 150.901 -1.58685 4.03734 0
M  V30 1463 H 151.572 -3.14181 4.53866 0
M  V30 1464 H 154.048 -3.23731 2.61415 0
M  V30 1465 H 152.924 -4.53553 3.09162 0
M  V30 1466 H 153.185 -4.19754 1.38777 0
M  V30 1467 N 152.244 -1.26651 -0.937939 0
M  V30 1468 C 153.192 -1.08308 -2.05845 0
M  V30 1469 C 154.186 -0.0090757 -1.69398 0
M  V30 1470 O 155.392 -0.166007 -1.79233 0
M  V30 1471 H 151.767 -0.333416 -0.674046 0
M  V30 1472 H 153.738 -2.03261 -2.18467 0
M  V30 1473 C 152.487 -0.736229 -3.39816 0
M  V30 1474 H 151.81 -1.55453 -3.6834 0
M  V30 1475 H 153.25 -0.64769 -4.19024 0
M  V30 1476 C 151.709 0.558824 -3.32233 0
M  V30 1477 O 152.239 1.59621 -3.68624 0
M  V30 1478 N 150.445 0.550657 -2.85335 0
M  V30 1479 H 149.992 -0.293943 -2.55917 0
M  V30 1480 H 149.95 1.41726 -2.80644 0
M  V30 1481 N 153.722 1.14298 -1.08507 0
M  V30 1482 C 154.672 2.17449 -0.685569 0
M  V30 1483 C 155.656 1.58167 0.295315 0
M  V30 1484 O 156.848 1.76675 0.107172 0
M  V30 1485 C 153.977 3.43161 -0.0975318 0
M  V30 1486 C 153.063 4.09471 -1.10426 0
M  V30 1487 N 153.454 4.51089 -2.28806 0
M  V30 1488 C 151.752 4.35976 -0.940258 0
M  V30 1489 C 152.453 5.02654 -2.9277 0
M  V30 1490 N 151.429 4.96927 -2.20374 0
M  V30 1491 H 155.231 2.47369 -1.587 0
M  V30 1492 H 152.745 1.30992 -0.959936 0
M  V30 1493 H 154.742 4.16388 0.20664 0
M  V30 1494 H 153.402 3.14719 0.798872 0
M  V30 1495 H 154.413 4.44097 -2.66455 0
M  V30 1496 H 151.09 4.17386 -0.0977441 0
M  V30 1497 H 152.48 5.44723 -3.93352 0
M  V30 1498 N 155.201 0.870884 1.31352 0
M  V30 1499 C 156.148 0.325425 2.28494 0
M  V30 1500 C 157.118 -0.576615 1.5577 0
M  V30 1501 O 158.303 -0.508059 1.83911 0
M  V30 1502 C 155.443 -0.466283 3.41935 0
M  V30 1503 C 154.556 0.463378 4.29508 0
M  V30 1504 C 153.691 -0.342544 5.30094 0
M  V30 1505 C 152.73 0.583486 6.09313 0
M  V30 1506 N 151.867 -0.186244 7.01853 0
M  V30 1507 H 156.707 1.15901 2.74538 0
M  V30 1508 H 154.244 0.58294 1.35056 0
M  V30 1509 H 156.202 -0.941085 4.06447 0
M  V30 1510 H 154.832 -1.26456 2.97 0
M  V30 1511 H 153.884 1.05663 3.65431 0
M  V30 1512 H 155.196 1.1734 4.84802 0
M  V30 1513 H 154.35 -0.879816 6.00287 0
M  V30 1514 H 153.089 -1.08585 4.75458 0
M  V30 1515 H 152.094 1.13251 5.3801 0
M  V30 1516 H 153.319 1.32566 6.66035 0
M  V30 1517 H 151.265 -0.912348 6.49625 0
M  V30 1518 H 151.182 0.464422 7.54572 0
M  V30 1519 H 152.45 -0.704716 7.76308 0
M  V30 1520 N 156.679 -1.44442 0.630414 0
M  V30 1521 C 158.09 -1.85434 0.217063 0
M  V30 1522 C 158.441 -1.52748 -1.23136 0
M  V30 1523 O 157.566 -0.965205 -1.93682 0
M  V30 1524 C 158.161 -3.36581 0.387168 0
M  V30 1525 C 156.72 -3.76389 0.0283297 0
M  V30 1526 C 155.867 -2.68296 0.700889 0
M  V30 1527 H 158.818 -1.34919 0.83562 0
M  V30 1528 H 158.839 -3.78657 -0.374086 0
M  V30 1529 H 158.351 -3.60339 1.44144 0
M  V30 1530 H 156.452 -3.58246 -1.02423 0
M  V30 1531 H 156.565 -4.77095 0.437892 0
M  V30 1532 H 154.929 -2.54335 0.136267 0
M  V30 1533 H 155.712 -2.94887 1.75774 0
M  V30 1534 N 158.157 -0.370918 -1.53173 0
M  V30 1535 C 159.382 0.220293 -2.06227 0
M  V30 1536 C 159.807 1.41243 -1.24225 0
M  V30 1537 O 159.165 1.79387 -0.262645 0
M  V30 1538 C 159.213 0.586663 -3.55796 0
M  V30 1539 O 158.317 1.68317 -3.76488 0
M  V30 1540 H 157.658 0.0308099 -0.663285 0
M  V30 1541 H 160.188 -0.533068 -1.97534 0
M  V30 1542 H 160.198 0.85617 -3.98916 0
M  V30 1543 H 158.873 -0.285013 -4.14922 0
M  V30 1544 H 157.45 1.40881 -3.45264 0
M  V30 1545 N 159.635 1.57281 -0.100228 0
M  V30 1546 C 160.583 2.15542 0.874328 0
M  V30 1547 C 161.577 1.09962 1.28859 0
M  V30 1548 O 162.783 1.28298 1.26252 0
M  V30 1549 H 159.158 0.689567 0.300003 0
M  V30 1550 H 161.129 2.96241 0.35829 0
M  V30 1551 C 159.878 2.75454 2.1218 0
M  V30 1552 H 159.201 3.56384 1.81193 0
M  V30 1553 H 160.641 3.19781 2.78417 0
M  V30 1554 C 159.1 1.71602 2.89921 0
M  V30 1555 O 159.63 1.15804 3.84646 0
M  V30 1556 N 157.836 1.41975 2.53558 0
M  V30 1557 H 157.383 1.87539 1.76598 0
M  V30 1558 H 157.341 0.727274 3.05873 0
M  V30 1559 N 161.113 -0.173488 1.56642 0
M  V30 1560 C 162.341 -0.906095 1.86004 0
M  V30 1561 C 162.756 -1.75921 0.685355 0
M  V30 1562 O 162.113 -1.79198 -0.345578 0
M  V30 1563 C 162.164 -1.78462 3.14378 0
M  V30 1564 O 161.885 -0.965914 4.27319 0
M  V30 1565 C 163.386 -2.62707 3.57071 0
M  V30 1566 H 160.606 -0.263341 0.617165 0
M  V30 1567 H 163.15 -0.174236 2.03756 0
M  V30 1568 H 161.305 -2.46984 2.98459 0
M  V30 1569 H 161.719 -1.56655 5.00559 0
M  V30 1570 H 163.193 -3.19969 4.49804 0
M  V30 1571 H 163.67 -3.37472 2.81086 0
M  V30 1572 H 164.276 -1.99521 3.75595 0
M  V30 1573 N 162.591 -1.51276 -0.441967 0
M  V30 1574 C 163.538 -1.72256 -1.53612 0
M  V30 1575 C 164.508 -0.564164 -1.56225 0
M  V30 1576 O 165.693 -0.798074 -1.73307 0
M  V30 1577 C 162.833 -1.84932 -2.91366 0
M  V30 1578 C 161.946 -3.12459 -2.98317 0
M  V30 1579 C 161.081 -3.15758 -4.27166 0
M  V30 1580 C 160.12 -4.37619 -4.27967 0
M  V30 1581 N 159.257 -4.38493 -5.48333 0
M  V30 1582 H 164.097 -2.65654 -1.35026 0
M  V30 1583 H 161.634 -1.31662 -0.656009 0
M  V30 1584 H 163.592 -1.90263 -3.7129 0
M  V30 1585 H 162.222 -0.949461 -3.08521 0
M  V30 1586 H 161.274 -3.1646 -2.11086 0
M  V30 1587 H 162.586 -4.02382 -2.94771 0
M  V30 1588 H 161.74 -3.19979 -5.15459 0
M  V30 1589 H 160.479 -2.23715 -4.33362 0
M  V30 1590 H 159.484 -4.33579 -3.38067 0
M  V30 1591 H 160.709 -5.30921 -4.23438 0
M  V30 1592 H 158.655 -3.49318 -5.55259 0
M  V30 1593 H 158.572 -5.22219 -5.46647 0
M  V30 1594 H 159.84 -4.469 -6.38671 0
M  V30 1595 N 164.069 0.697108 -1.41344 0
M  V30 1596 C 165.315 1.4593 -1.40827 0
M  V30 1597 C 165.648 1.94193 -0.0167098 0
M  V30 1598 O 164.923 1.69425 0.955263 0
M  V30 1599 C 165.206 2.67229 -2.41373 0
M  V30 1600 C 165.059 2.24741 -3.8963 0
M  V30 1601 C 166.378 3.69423 -2.39196 0
M  V30 1602 H 163.497 0.529303 -0.512842 0
M  V30 1603 H 166.139 0.794112 -1.72609 0
M  V30 1604 H 164.289 3.23982 -2.14401 0
M  V30 1605 H 165.961 1.73327 -4.27499 0
M  V30 1606 H 164.204 1.56542 -4.0457 0
M  V30 1607 H 164.875 3.1177 -4.55525 0
M  V30 1608 H 167.351 3.2234 -2.63128 0
M  V30 1609 H 166.227 4.51907 -3.11563 0
M  V30 1610 H 166.488 4.19012 -1.41001 0
M  V30 1611 N 165.547 1.27147 0.931209 0
M  V30 1612 C 166.824 1.0401 1.65654 0
M  V30 1613 C 167.204 -0.426297 2.06751 0
M  V30 1614 O 166.552 -1.40879 1.79904 0
M  V30 1615 C 166.762 1.99834 2.86125 0
M  V30 1616 C 168.11 2.29007 3.57549 0
M  V30 1617 O 169.134 1.97779 2.96246 0
M  V30 1618 O 167.993 2.82222 4.67989 0
M  V30 1619 H 165.087 0.396239 0.725895 0
M  V30 1620 H 167.633 1.38397 0.982056 0
M  V30 1621 H 166.405 2.98744 2.52721 0
M  V30 1622 H 166.028 1.65987 3.61295 0
M  V30 1623 N 167.025 -1.13721 1.09112 0
M  V30 1624 C 167.972 -2.19031 0.727591 0
M  V30 1625 C 168.942 -1.63555 -0.289656 0
M  V30 1626 O 170.127 -1.90023 -0.172026 0
M  V30 1627 C 167.267 -3.4477 0.15082 0
M  V30 1628 C 166.38 -4.14365 1.22172 0
M  V30 1629 C 165.515 -5.27709 0.608042 0
M  V30 1630 C 164.554 -5.89147 1.66047 0
M  V30 1631 N 163.691 -6.93929 1.06806 0
M  V30 1632 H 168.531 -2.49475 1.62991 0
M  V30 1633 H 166.068 -1.22499 0.81439 0
M  V30 1634 H 168.026 -4.16714 -0.201358 0
M  V30 1635 H 166.656 -3.14787 -0.714783 0
M  V30 1636 H 165.708 -3.40737 1.69122 0
M  V30 1637 H 167.02 -4.56114 2.01895 0
M  V30 1638 H 166.174 -6.06355 0.204523 0
M  V30 1639 H 164.913 -4.872 -0.220769 0
M  V30 1640 H 163.918 -5.09198 2.07357 0
M  V30 1641 H 165.143 -6.31729 2.49189 0
M  V30 1642 H 163.089 -6.55483 0.260476 0
M  V30 1643 H 163.006 -7.34202 1.8023 0
M  V30 1644 H 164.274 -7.76434 0.690644 0
M  V30 1645 N 168.503 -0.877838 -1.30888 0
M  V30 1646 C 169.919 -0.570844 -1.49042 0
M  V30 1647 C 170.119 0.893159 -1.80624 0
M  V30 1648 O 169.175 1.67485 -1.88958 0
M  V30 1649 C 170.488 -1.47784 -2.61878 0
M  V30 1650 C 172.036 -1.48071 -2.75761 0
M  V30 1651 C 172.511 -2.37347 -3.91702 0
M  V30 1652 N 174.002 -2.35271 -3.99001 0
M  V30 1653 C 174.737 -3.01063 -4.88004 0
M  V30 1654 N 174.233 -3.76055 -5.81854 0
M  V30 1655 N 176.026 -2.90332 -4.81315 0
M  V30 1656 H 168.177 -1.82502 -1.0866 0
M  V30 1657 H 170.44 -0.780797 -0.537644 0
M  V30 1658 H 170.146 -2.51993 -2.45341 0
M  V30 1659 H 170.02 -1.18215 -3.58197 0
M  V30 1660 H 172.407 -0.446166 -2.91708 0
M  V30 1661 H 172.488 -1.81668 -1.80085 0
M  V30 1662 H 172.132 -3.40883 -3.76512 0
M  V30 1663 H 172.062 -2.01071 -4.86701 0
M  V30 1664 H 174.553 -1.80768 -3.3186 0
M  V30 1665 H 174.866 -4.23366 -6.46514 0
M  V30 1666 H 173.211 -3.80163 -5.81808 0
M  V30 1667 H 176.402 -2.31278 -4.06974 0
M  V30 1668 H 176.575 -3.41885 -5.50471 0
M  V30 1669 N 169.982 1.44106 -0.638065 0
M  V30 1670 C 171.228 2.02277 -0.145546 0
M  V30 1671 C 171.561 1.50125 1.23191 0
M  V30 1672 O 170.836 0.688133 1.8192 0
M  V30 1673 C 171.119 3.59829 -0.139791 0
M  V30 1674 C 170.972 4.22247 -1.55008 0
M  V30 1675 C 172.291 4.36873 0.531966 0
M  V30 1676 H 169.41 0.734992 -0.0543632 0
M  V30 1677 H 172.052 1.71592 -0.815863 0
M  V30 1678 H 170.202 3.86102 0.431007 0
M  V30 1679 H 171.874 4.07057 -2.1703 0
M  V30 1680 H 170.117 3.79476 -2.10191 0
M  V30 1681 H 170.788 5.31284 -1.49804 0
M  V30 1682 H 173.264 4.16074 0.0464781 0
M  V30 1683 H 172.14 5.4657 0.505206 0
M  V30 1684 H 172.401 4.11995 1.60352 0
M  V30 1685 N 171.46 0.379036 1.52974 0
M  V30 1686 C 172.37 -0.468639 2.29872 0
M  V30 1687 C 173.386 -1.08067 1.36373 0
M  V30 1688 O 174.562 -1.08871 1.69438 0
M  V30 1689 C 171.627 -1.58594 3.083 0
M  V30 1690 C 170.688 -1.00007 4.17489 0
M  V30 1691 C 169.921 -2.06413 4.92168 0
M  V30 1692 O 170.144 -3.27751 4.66835 0
M  V30 1693 O 169.078 -1.68717 5.7777 0
M  V30 1694 H 172.904 0.157508 3.03291 0
M  V30 1695 H 170.489 0.143035 1.48714 0
M  V30 1696 H 172.371 -2.23525 3.57232 0
M  V30 1697 H 171.046 -2.19724 2.37703 0
M  V30 1698 H 169.953 -0.314299 3.72777 0
M  V30 1699 H 171.286 -0.433135 4.90291 0
M  V30 1700 N 172.938 -1.57226 0.108567 0
M  V30 1701 C 174.349 -1.8195 -0.418464 0
M  V30 1702 C 174.7 -1.02508 -1.67292 0
M  V30 1703 O 173.825 -0.258496 -2.14851 0
M  V30 1704 C 174.42 -3.30028 -0.765979 0
M  V30 1705 C 172.979 -3.55469 -1.23769 0
M  V30 1706 C 172.126 -2.7625 -0.241106 0
M  V30 1707 H 175.077 -1.55149 0.33384 0
M  V30 1708 H 175.098 -3.44086 -1.62434 0
M  V30 1709 H 174.61 -3.87821 0.147219 0
M  V30 1710 H 172.711 -3.03022 -2.16814 0
M  V30 1711 H 172.824 -4.6408 -1.19022 0
M  V30 1712 H 171.188 -2.44133 -0.72602 0
M  V30 1713 H 171.971 -3.36797 0.665007 0
M  V30 1714 N 174.416 0.165178 -1.56732 0
M  V30 1715 C 175.363 1.2044 -1.96883 0
M  V30 1716 C 176.333 1.43664 -0.833657 0
M  V30 1717 O 177.518 1.56302 -1.09427 0
M  V30 1718 C 174.658 2.53727 -2.33916 0
M  V30 1719 C 173.771 2.3783 -3.6064 0
M  V30 1720 C 172.906 3.64026 -3.86857 0
M  V30 1721 C 171.945 3.43088 -5.06909 0
M  V30 1722 N 171.082 4.61369 -5.29229 0
M  V30 1723 H 175.922 0.854996 -2.85471 0
M  V30 1724 H 173.459 0.41076 -1.41249 0
M  V30 1725 H 175.417 3.31419 -2.53411 0
M  V30 1726 H 174.047 2.8665 -1.48431 0
M  V30 1727 H 173.099 1.51282 -3.49024 0
M  V30 1728 H 174.411 2.18308 -4.4849 0
M  V30 1729 H 173.565 4.50152 -4.06753 0
M  V30 1730 H 172.304 3.86533 -2.97394 0
M  V30 1731 H 171.309 2.55349 -4.86906 0
M  V30 1732 H 172.534 3.21997 -5.97909 0
M  V30 1733 H 170.48 4.84084 -4.42718 0
M  V30 1734 H 170.397 4.44783 -6.11313 0
M  V30 1735 H 171.665 5.48761 -5.53608 0
M  V30 1736 N 175.894 1.51508 0.433938 0
M  V30 1737 C 177.119 1.68443 1.21003 0
M  V30 1738 C 177.544 0.382636 1.84167 0
M  V30 1739 O 176.902 -0.65755 1.68956 0
M  V30 1740 C 176.95 2.80405 2.26727 0
M  V30 1741 O 176.054 2.44245 3.32292 0
M  V30 1742 H 175.395 0.561536 0.354363 0
M  V30 1743 H 177.925 1.9809 0.512024 0
M  V30 1744 H 177.935 3.0459 2.71457 0
M  V30 1745 H 176.61 3.74867 1.80132 0
M  V30 1746 H 175.187 2.30644 2.93015 0
M  V30 1747 N 177.372 -0.689602 1.41712 0
M  V30 1748 C 178.612 -1.46184 1.42862 0
M  V30 1749 C 178.976 -1.91962 0.0382204 0
M  V30 1750 O 180.177 -2.68694 -0.0755019 0
M  V30 1751 C 178.448 -2.6371 2.4123 0
M  V30 1752 S 180.007 -3.52768 2.6096 0
M  V30 1753 H 176.825 -0.49947 0.506015 0
M  V30 1754 H 179.427 -0.804107 1.78198 0
M  V30 1755 H 178.131 -2.28293 3.41044 0
M  V30 1756 H 177.662 -3.3437 2.07269 0
M  V30 1757 H 179.677 -4.59146 1.88148 0
M  V30 1758 N 178.85 -1.27639 -0.924453 0
M  V30 1759 C 180.127 -1.04887 -1.651 0
M  V30 1760 C 180.507 0.415327 -2.06974 0
M  V30 1761 O 179.855 1.39923 -1.80648 0
M  V30 1762 C 180.065 -2.01348 -2.85061 0
M  V30 1763 C 181.413 -2.30899 -3.56329 0
M  V30 1764 O 182.437 -1.99348 -2.95193 0
M  V30 1765 O 181.296 -2.84699 -4.66485 0
M  V30 1766 H 178.39 -0.400083 -0.723784 0
M  V30 1767 H 180.936 -1.38916 -0.974703 0
M  V30 1768 H 179.708 -3.0008 -2.51133 0
M  V30 1769 H 179.331 -1.679 -3.6041 0
M  V30 1770 N 180.328 1.1314 -1.09713 0
M  V30 1771 C 181.275 2.18642 -0.739196 0
M  V30 1772 C 182.245 1.63706 0.280978 0
M  V30 1773 O 183.43 1.90111 0.161946 0
M  V30 1774 C 180.57 3.44685 -0.169102 0
M  V30 1775 C 179.683 4.13711 -1.24367 0
M  V30 1776 C 178.818 5.27379 -0.636019 0
M  V30 1777 C 177.857 5.88259 -1.69169 0
M  V30 1778 N 176.994 6.93352 -1.10485 0
M  V30 1779 H 181.834 2.48607 -1.64312 0
M  V30 1780 H 179.371 1.22066 -0.820875 0
M  V30 1781 H 181.329 4.16815 0.179256 0
M  V30 1782 H 179.959 3.15161 0.698079 0
M  V30 1783 H 179.011 3.39835 -1.70927 0
M  V30 1784 H 180.323 4.55037 -2.04311 0
M  V30 1785 H 179.477 6.06238 -0.236677 0
M  V30 1786 H 178.216 4.8731 0.194928 0
M  V30 1787 H 177.221 5.08092 -2.10055 0
M  V30 1788 H 178.446 6.30399 -2.52536 0
M  V30 1789 H 176.392 6.55335 -0.295234 0
M  V30 1790 H 176.309 7.33236 -1.84121 0
M  V30 1791 H 177.577 7.76057 -0.73181 0
M  V30 1792 N 181.806 0.884767 1.30421 0
M  V30 1793 C 183.034 0.518044 2.0031 0
M  V30 1794 C 183.449 -0.893408 1.66324 0
M  V30 1795 O 182.806 -1.5875 0.900262 0
M  V30 1796 C 182.857 0.682997 3.54989 0
M  V30 1797 O 182.578 2.03888 3.87764 0
M  V30 1798 C 184.079 0.31924 4.42149 0
M  V30 1799 H 181.299 0.200265 0.640418 0
M  V30 1800 H 183.843 1.19001 1.6631 0
M  V30 1801 H 181.998 0.0584052 3.87356 0
M  V30 1802 H 182.412 2.05735 4.82466 0
M  V30 1803 H 183.886 0.485555 5.4986 0
M  V30 1804 H 184.363 -0.742717 4.32875 0
M  V30 1805 H 184.969 0.920147 4.15227 0
M  V30 1806 N 183.284 -1.43765 0.645699 0
M  V30 1807 C 184.234 -2.27884 -0.0726442 0
M  V30 1808 C 185.218 -1.39483 -0.802086 0
M  V30 1809 O 186.41 -1.63174 -0.685791 0
M  V30 1810 C 183.539 -3.27055 -1.04356 0
M  V30 1811 C 182.625 -4.22944 -0.312985 0
M  V30 1812 N 183.016 -5.01391 0.666386 0
M  V30 1813 C 181.314 -4.42528 -0.55546 0
M  V30 1814 C 182.015 -5.71217 1.09935 0
M  V30 1815 N 180.991 -5.41856 0.435137 0
M  V30 1816 H 184.793 -2.85949 0.678988 0
M  V30 1817 H 182.307 -1.55378 0.472368 0
M  V30 1818 H 184.304 -3.86089 -1.57292 0
M  V30 1819 H 182.964 -2.70551 -1.79534 0
M  V30 1820 H 183.975 -5.07252 1.04481 0
M  V30 1821 H 180.652 -3.97104 -1.28899 0
M  V30 1822 H 182.042 -6.44202 1.90929 0
M  V30 1823 N 184.763 -0.387143 -1.52771 0
M  V30 1824 C 185.991 0.195869 -2.05971 0
M  V30 1825 C 186.406 1.40691 -1.25903 0
M  V30 1826 O 185.763 1.79931 -0.305134 0
M  V30 1827 C 185.814 0.56812 -3.57008 0
M  V30 1828 O 185.535 -0.594803 -4.34043 0
M  V30 1829 C 187.036 1.20723 -4.26545 0
M  V30 1830 H 184.256 0.0300578 -0.670326 0
M  V30 1831 H 186.8 -0.551749 -1.96916 0
M  V30 1832 H 184.955 1.26564 -3.66143 0
M  V30 1833 H 185.369 -0.289322 -5.23701 0
M  V30 1834 H 186.843 1.41807 -5.33474 0
M  V30 1835 H 187.32 2.17395 -3.81623 0
M  V30 1836 H 187.926 0.550535 -4.21722 0
M  V30 1837 N 186.241 1.57166 -0.116904 0
M  V30 1838 C 187.481 1.97008 0.544715 0
M  V30 1839 C 187.845 0.998713 1.63981 0
M  V30 1840 O 189.046 1.28644 2.36018 0
M  V30 1841 C 187.317 3.41145 1.06559 0
M  V30 1842 S 188.876 4.02998 1.73603 0
M  V30 1843 H 185.694 0.688587 0.177112 0
M  V30 1844 H 188.296 1.94459 -0.201487 0
M  V30 1845 H 187 4.09592 0.257374 0
M  V30 1846 H 186.531 3.4734 1.84712 0
M  V30 1847 H 188.546 3.93585 3.02168 0
M  V30 1848 N 187.719 -0.156864 1.56817 0
M  V30 1849 C 189.13 -0.717916 1.72345 0
M  V30 1850 C 189.481 -1.82124 0.729747 0
M  V30 1851 O 188.606 -2.16141 -0.105781 0
M  V30 1852 C 189.201 -1.30904 3.12489 0
M  V30 1853 C 187.76 -1.81676 3.29653 0
M  V30 1854 C 186.907 -0.701349 2.68284 0
M  V30 1855 H 189.858 0.0686989 1.58551 0
M  V30 1856 H 189.879 -2.17882 3.11942 0
M  V30 1857 H 189.391 -0.505796 3.8479 0
M  V30 1858 H 187.492 -2.64598 2.62333 0
M  V30 1859 H 187.605 -1.95226 4.3752 0
M  V30 1860 H 185.969 -1.12548 2.28484 0
M  V30 1861 H 186.752 0.0902846 3.43181 0
M  V30 1862 N 189.197 -1.51736 -0.425897 0
M  V30 1863 C 190.608 -1.5732 -1.00536 0
M  V30 1864 C 190.959 -0.403537 -1.92005 0
M  V30 1865 O 190.084 0.478256 -2.11049 0
M  V30 1866 C 190.679 -2.85119 -1.8301 0
M  V30 1867 C 189.238 -2.93236 -2.35987 0
M  V30 1868 C 188.385 -2.52098 -1.15508 0
M  V30 1869 H 191.336 -1.57348 -0.206739 0
M  V30 1870 H 191.357 -2.69526 -2.68581 0
M  V30 1871 H 190.869 -3.7023 -1.16411 0
M  V30 1872 H 188.97 -2.12581 -3.06007 0
M  V30 1873 H 189.083 -3.9713 -2.68001 0
M  V30 1874 H 187.447 -2.05558 -1.50393 0
M  V30 1875 H 188.23 -3.39565 -0.505014 0
M  V30 1876 N 190.675 0.682077 -1.42076 0
M  V30 1877 C 191.915 1.45424 -1.43636 0
M  V30 1878 C 192.279 1.91939 -0.0484001 0
M  V30 1879 O 193.48 2.6873 0.0612514 0
M  V30 1880 C 191.751 2.62427 -2.42625 0
M  V30 1881 S 193.31 3.51379 -2.62827 0
M  V30 1882 H 190.128 0.496779 -0.508657 0
M  V30 1883 H 192.73 0.794645 -1.78621 0
M  V30 1884 H 191.434 2.26481 -3.42249 0
M  V30 1885 H 190.965 3.33266 -2.09039 0
M  V30 1886 H 192.98 4.58141 -1.9058 0
M  V30 1887 N 192.153 1.28127 0.917671 0
M  V30 1888 C 193.564 1.13622 1.48145 0
M  V30 1889 C 193.915 -0.275207 1.9426 0
M  V30 1890 O 193.04 -1.1691 1.82102 0
M  V30 1891 C 193.635 2.05648 2.69248 0
M  V30 1892 C 192.194 1.95219 3.21818 0
M  V30 1893 C 191.341 1.97618 1.94532 0
M  V30 1894 H 194.292 1.40874 0.730772 0
M  V30 1895 H 194.313 1.61818 3.44377 0
M  V30 1896 H 193.825 3.08365 2.35653 0
M  V30 1897 H 191.926 0.955244 3.60147 0
M  V30 1898 H 192.039 2.81976 3.87333 0
M  V30 1899 H 190.403 1.41973 2.11461 0
M  V30 1900 H 191.186 3.02007 1.63238 0
M  V30 1901 N 193.631 -1.12557 1.10312 0
M  V30 1902 C 194.594 -2.16434 0.75424 0
M  V30 1903 C 195.594 -1.59278 -0.220685 0
M  V30 1904 O 196.784 -1.742 0.00230591 0
M  V30 1905 C 193.916 -3.40699 0.116987 0
M  V30 1906 H 195.109 -2.48811 1.67431 0
M  V30 1907 H 192.662 -1.27542 0.903475 0
M  V30 1908 H 193.397 -3.13921 -0.813877 0
M  V30 1909 H 193.182 -3.83459 0.818613 0
M  V30 1910 H 194.672 -4.17451 -0.111387 0
M  V30 1911 N 195.109 -0.891671 -1.2995 0
M  V30 1912 C 196.52 -0.563104 -1.78006 0
M  V30 1913 C 196.871 0.920978 -1.73241 0
M  V30 1914 O 195.996 1.71987 -1.31337 0
M  V30 1915 C 196.591 -1.01539 -3.23226 0
M  V30 1916 C 195.15 -0.738124 -3.69092 0
M  V30 1917 C 194.297 -1.19461 -2.50249 0
M  V30 1918 H 197.248 -1.07522 -1.16725 0
M  V30 1919 H 197.269 -0.347217 -3.78912 0
M  V30 1920 H 196.781 -2.09555 -3.26662 0
M  V30 1921 H 194.882 0.329766 -3.71138 0
M  V30 1922 H 194.995 -1.33037 -4.60259 0
M  V30 1923 H 193.359 -0.613787 -2.47194 0
M  V30 1924 H 194.142 -2.28265 -2.56417 0
M  V30 1925 N 196.587 1.43421 -0.653314 0
M  V30 1926 C 197.497 2.34568 0.0388565 0
M  V30 1927 C 198.513 1.53888 0.81207 0
M  V30 1928 O 199.689 1.86539 0.759294 0
M  V30 1929 C 196.754 3.32167 0.993269 0
M  V30 1930 C 195.815 4.28751 0.216977 0
M  V30 1931 C 195.048 5.21688 1.12593 0
M  V30 1932 O 195.271 5.19052 2.36519 0
M  V30 1933 O 194.205 5.98919 0.598284 0
M  V30 1934 H 198.031 2.95251 -0.711386 0
M  V30 1935 H 195.616 1.43564 -0.413502 0
M  V30 1936 H 197.498 3.92183 1.54176 0
M  V30 1937 H 196.173 2.73987 1.72374 0
M  V30 1938 H 195.08 3.72215 -0.375101 0
M  V30 1939 H 196.413 4.89913 -0.473924 0
M  V30 1940 N 198.065 0.39524 1.52563 0
M  V30 1941 C 198.995 -0.428384 2.29537 0
M  V30 1942 C 199.976 -1.05831 1.33169 0
M  V30 1943 O 201.161 -1.06995 1.62067 0
M  V30 1944 C 198.291 -1.55274 3.10656 0
M  V30 1945 C 197.245 -1.04855 4.14957 0
M  V30 1946 C 196.571 -2.26543 4.84337 0
M  V30 1947 C 197.871 -0.112324 5.22179 0
M  V30 1948 H 199.565 0.213867 2.98635 0
M  V30 1949 H 197.111 0.104298 1.43622 0
M  V30 1950 H 199.064 -2.1358 3.63265 0
M  V30 1951 H 197.788 -2.22266 2.39302 0
M  V30 1952 H 196.447 -0.487985 3.63338 0
M  V30 1953 H 196.095 -2.92059 4.09525 0
M  V30 1954 H 195.795 -1.93466 5.54837 0
M  V30 1955 H 197.319 -2.85481 5.39753 0
M  V30 1956 H 198.733 -0.603752 5.70112 0
M  V30 1957 H 197.13 0.128968 5.99961 0
M  V30 1958 H 198.2 0.837052 4.77621 0
M  V30 1959 N 199.544 -1.57102 0.125237 0
M  V30 1960 C 200.474 -2.18659 -0.819174 0
M  V30 1961 C 201.455 -1.12843 -1.27281 0
M  V30 1962 O 202.64 -1.41104 -1.33429 0
M  V30 1963 C 199.77 -2.79096 -2.06695 0
M  V30 1964 C 198.724 -3.90548 -1.75088 0
M  V30 1965 C 198.05 -4.37821 -3.06948 0
M  V30 1966 C 199.35 -5.12356 -1.01435 0
M  V30 1967 H 201.044 -2.9783 -0.306202 0
M  V30 1968 H 198.59 -1.4326 -0.145839 0
M  V30 1969 H 200.543 -3.2082 -2.73226 0
M  V30 1970 H 199.267 -1.97223 -2.60328 0
M  V30 1971 H 197.926 -3.49409 -1.10944 0
M  V30 1972 H 197.574 -3.52799 -3.58527 0
M  V30 1973 H 197.274 -5.12982 -2.86571 0
M  V30 1974 H 198.798 -4.822 -3.74587 0
M  V30 1975 H 200.212 -5.5106 -1.58132 0
M  V30 1976 H 198.609 -5.9314 -0.911319 0
M  V30 1977 H 199.679 -4.849 -0.00218681 0
M  V30 1978 N 201.022 0.148545 -1.56898 0
M  V30 1979 C 202.27 0.859717 -1.82902 0
M  V30 1980 C 202.591 1.81775 -0.70588 0
M  V30 1981 O 201.861 1.93994 0.272586 0
M  V30 1982 H 200.441 0.320469 -0.674766 0
M  V30 1983 H 203.103 0.142918 -1.94375 0
M  V30 1984 H 202.199 1.4229 -2.77777 0
M  V30 1985 N 202.5 1.5196 0.417844 0
M  V30 1986 C 203.748 1.65263 1.16329 0
M  V30 1987 C 204.069 0.380634 1.91249 0
M  V30 1988 O 203.339 -0.604214 1.86349 0
M  V30 1989 H 201.919 0.60912 0.432414 0
M  V30 1990 H 204.581 1.88969 0.477162 0
M  V30 1991 H 203.677 2.4896 1.88217 0
M  V30 1992 N 203.978 -0.674533 1.42435 0
M  V30 1993 C 205.389 -1.25514 1.38214 0
M  V30 1994 C 205.74 -1.96055 0.0755464 0
M  V30 1995 O 204.865 -2.00028 -0.8257 0
M  V30 1996 C 205.46 -2.28269 2.50357 0
M  V30 1997 C 204.019 -2.81856 2.49467 0
M  V30 1998 C 203.166 -1.56182 2.29134 0
M  V30 1999 H 206.117 -0.467902 1.51646 0
M  V30 2000 H 206.138 -3.10009 2.20624 0
M  V30 2001 H 205.65 -1.769 3.45439 0
M  V30 2002 H 203.751 -3.37346 1.58204 0
M  V30 2003 H 203.864 -3.30854 3.46515 0
M  V30 2004 H 202.228 -1.82761 1.774 0
M  V30 2005 H 203.011 -1.06778 3.26272 0
M  V30 2006 N 205.456 -1.28612 -0.910864 0
M  V30 2007 C 206.681 -1.1891 -1.69927 0
M  V30 2008 C 207.106 0.248372 -1.86453 0
M  V30 2009 O 206.464 1.17961 -1.37676 0
M  V30 2010 C 206.512 -1.89578 -3.06745 0
M  V30 2011 O 205.616 -1.20521 -3.94396 0
M  V30 2012 H 204.957 -0.412632 -0.520222 0
M  V30 2013 H 207.487 -1.69985 -1.1387 0
M  V30 2014 H 207.497 -1.97597 -3.56958 0
M  V30 2015 H 206.172 -2.94136 -2.94035 0
M  V30 2016 H 204.749 -1.20684 -3.52831 0
M  V30 2017 N 206.934 1.1197 -1.10907 0
M  V30 2018 C 208.18 1.8386 -0.855773 0
M  V30 2019 C 208.513 1.84134 0.617103 0
M  V30 2020 O 207.788 1.29041 1.45529 0
M  V30 2021 C 208.071 3.31305 -1.411 0
M  V30 2022 C 207.924 3.39456 -2.9511 0
M  V30 2023 C 209.243 4.2721 -1.05736 0
M  V30 2024 H 206.362 0.667545 -0.312334 0
M  V30 2025 H 209.004 1.31331 -1.37303 0
M  V30 2026 H 207.154 3.76169 -0.97105 0
M  V30 2027 H 208.826 3.03191 -3.47668 0
M  V30 2028 H 207.069 2.79849 -3.31462 0
M  V30 2029 H 207.74 4.43209 -3.29044 0
M  V30 2030 H 210.216 3.90497 -1.43706 0
M  V30 2031 H 209.092 5.28775 -1.47269 0
M  V30 2032 H 209.353 4.42088 0.0325958 0
M  V30 2033 N 208.412 0.89855 1.29475 0
M  V30 2034 C 209.659 0.523882 1.95606 0
M  V30 2035 C 209.987 -0.929608 1.70847 0
M  V30 2036 O 209.242 -1.67401 1.01367 0
M  V30 2037 C 209.541 0.761398 3.49195 0
M  V30 2038 C 209.207 2.19207 3.94029 0
M  V30 2039 C 207.869 2.58326 4.05982 0
M  V30 2040 C 210.221 3.12379 4.17216 0
M  V30 2041 C 207.549 3.898 4.38489 0
M  V30 2042 C 209.901 4.43401 4.51197 0
M  V30 2043 C 208.565 4.82394 4.61359 0
M  V30 2044 H 207.835 0.191702 0.715773 0
M  V30 2045 H 210.482 1.13699 1.54094 0
M  V30 2046 H 208.787 0.0653622 3.91745 0
M  V30 2047 H 210.484 0.450904 3.98457 0
M  V30 2048 H 207.074 1.87846 3.85242 0
M  V30 2049 H 211.258 2.83371 4.07449 0
M  V30 2050 H 206.514 4.19734 4.44559 0
M  V30 2051 H 210.688 5.15623 4.68087 0
M  V30 2052 H 208.315 5.84306 4.86303 0
M  V30 2053 N 209.89 -1.43072 0.660911 0
M  V30 2054 C 210.82 -2.33497 -0.0122829 0
M  V30 2055 C 211.801 -1.49903 -0.803925 0
M  V30 2056 O 212.986 -1.78546 -0.763864 0
M  V30 2057 C 210.116 -3.33363 -0.973994 0
M  V30 2058 C 209.07 -4.27003 -0.291928 0
M  V30 2059 C 208.396 -5.16967 -1.36562 0
M  V30 2060 C 209.696 -5.15816 0.820462 0
M  V30 2061 H 211.39 -2.90038 0.742873 0
M  V30 2062 H 208.936 -1.39461 0.358688 0
M  V30 2063 H 210.889 -3.95524 -1.45392 0
M  V30 2064 H 209.613 -2.75095 -1.7604 0
M  V30 2065 H 208.272 -3.66217 0.167623 0
M  V30 2066 H 207.92 -4.55034 -2.14366 0
M  V30 2067 H 207.62 -5.80441 -0.914454 0
M  V30 2068 H 209.144 -5.82003 -1.84675 0
M  V30 2069 H 210.558 -5.71742 0.422366 0
M  V30 2070 H 208.955 -5.8805 1.19656 0
M  V30 2071 H 210.025 -4.55045 1.67518 0
M  V30 2072 N 211.368 -0.403325 -1.52352 0
M  V30 2073 C 212.615 0.174347 -2.01748 0
M  V30 2074 C 212.943 1.45636 -1.2892 0
M  V30 2075 O 212.198 1.9193 -0.382258 0
M  V30 2076 C 212.497 0.474665 -3.54234 0
M  V30 2077 C 212.163 -0.717458 -4.45155 0
M  V30 2078 C 210.825 -1.04447 -4.69728 0
M  V30 2079 C 213.177 -1.51432 -4.98716 0
M  V30 2080 C 210.505 -2.16963 -5.45109 0
M  V30 2081 C 212.857 -2.6302 -5.75329 0
M  V30 2082 C 211.521 -2.96213 -5.98175 0
M  V30 2083 H 210.791 0.0637981 -0.738248 0
M  V30 2084 H 213.438 -0.543553 -1.83624 0
M  V30 2085 H 211.743 1.27406 -3.70506 0
M  V30 2086 H 213.44 0.934496 -3.89959 0
M  V30 2087 H 210.03 -0.452596 -4.26204 0
M  V30 2088 H 214.214 -1.27491 -4.79645 0
M  V30 2089 H 209.47 -2.43034 -5.61021 0
M  V30 2090 H 213.644 -3.25158 -6.15829 0
M  V30 2091 H 211.271 -3.83516 -6.56368 0
M  V30 2092 N 212.846 1.57033 -0.133567 0
M  V30 2093 C 214.257 1.82593 0.389464 0
M  V30 2094 C 214.608 1.05156 1.6564 0
M  V30 2095 O 213.733 0.292644 2.14412 0
M  V30 2096 C 214.328 3.31204 0.713377 0
M  V30 2097 C 212.887 3.57393 1.18098 0
M  V30 2098 C 212.034 2.76598 0.197126 0
M  V30 2099 H 214.985 1.54598 -0.358481 0
M  V30 2100 H 215.006 3.46627 1.56939 0
M  V30 2101 H 214.518 3.87537 -0.2089 0
M  V30 2102 H 212.619 3.06433 2.11966 0
M  V30 2103 H 212.732 4.65915 1.11624 0
M  V30 2104 H 211.096 2.45257 0.687088 0
M  V30 2105 H 211.879 3.35697 -0.718504 0
M  V30 2106 N 214.325 -0.140222 1.56975 0
M  V30 2107 C 215.736 -0.699596 1.73097 0
M  V30 2108 C 216.087 -1.8134 0.749022 0
M  V30 2109 O 215.212 -2.16241 -0.0828503 0
M  V30 2110 C 215.807 -1.27582 3.1386 0
M  V30 2111 C 214.366 -1.78169 3.31561 0
M  V30 2112 C 213.513 -0.672855 2.69013 0
M  V30 2113 H 216.464 0.0855115 1.58469 0
M  V30 2114 H 216.485 -2.14561 3.14235 0
M  V30 2115 H 215.997 -0.464955 3.85305 0
M  V30 2116 H 214.098 -2.61801 2.65124 0
M  V30 2117 H 214.211 -1.90574 4.39566 0
M  V30 2118 H 212.575 -1.10118 2.29665 0
M  V30 2119 H 213.358 0.126679 3.43066 0
M  V30 2120 N 215.803 -1.52179 -0.40978 0
M  V30 2121 C 216.75 -1.75475 -1.49924 0
M  V30 2122 C 217.72 -0.597175 -1.54994 0
M  V30 2123 O 218.905 -0.834655 -1.71575 0
M  V30 2124 C 216.045 -1.9107 -2.87378 0
M  V30 2125 C 215.158 -3.18717 -2.91622 0
M  V30 2126 C 214.293 -3.24747 -4.20372 0
M  V30 2127 C 213.332 -4.46598 -4.18588 0
M  V30 2128 N 212.469 -4.50025 -5.38908 0
M  V30 2129 H 217.309 -2.68458 -1.29361 0
M  V30 2130 H 214.846 -1.33024 -0.627934 0
M  V30 2131 H 216.804 -1.98096 -3.6717 0
M  V30 2132 H 215.434 -1.01469 -3.06437 0
M  V30 2133 H 214.486 -3.20866 -2.04326 0
M  V30 2134 H 215.798 -4.08544 -2.86169 0
M  V30 2135 H 214.952 -3.30841 -5.08556 0
M  V30 2136 H 213.691 -2.32857 -4.28519 0
M  V30 2137 H 212.696 -4.40652 -3.28794 0
M  V30 2138 H 213.921 -5.39783 -4.12081 0
M  V30 2139 H 211.867 -3.61017 -5.47725 0
M  V30 2140 H 211.784 -5.33697 -5.35447 0
M  V30 2141 H 213.052 -4.60347 -6.29048 0
M  V30 2142 N 217.281 0.66697 -1.42791 0
M  V30 2143 C 218.692 1.2478 -1.38877 0
M  V30 2144 C 219.043 1.96012 -0.0859426 0
M  V30 2145 O 218.168 2.00463 0.815081 0
M  V30 2146 C 218.763 2.26938 -2.51564 0
M  V30 2147 C 217.322 2.80529 -2.50959 0
M  V30 2148 C 216.469 1.54965 -2.29959 0
M  V30 2149 H 219.42 0.459853 -1.51892 0
M  V30 2150 H 219.441 3.08834 -2.22265 0
M  V30 2151 H 218.953 1.75065 -3.46372 0
M  V30 2152 H 217.054 3.36502 -1.59991 0
M  V30 2153 H 217.167 3.29012 -3.48265 0
M  V30 2154 H 215.531 1.81817 -1.78366 0
M  V30 2155 H 216.314 1.05047 -3.26833 0
M  V30 2156 N 218.759 1.29093 0.90403 0
M  V30 2157 C 219.706 1.13853 2.00764 0
M  V30 2158 C 220.676 0.0330084 1.66067 0
M  V30 2159 O 221.861 0.199733 1.89752 0
M  V30 2160 C 219.001 0.816537 3.35301 0
M  V30 2161 C 218.114 2.00206 3.82807 0
M  V30 2162 C 217.249 1.61983 5.059 0
M  V30 2163 C 216.288 2.77143 5.45764 0
M  V30 2164 N 215.425 2.39346 6.60044 0
M  V30 2165 H 220.265 2.08276 2.13132 0
M  V30 2166 H 217.802 1.03648 1.04381 0
M  V30 2167 H 219.76 0.610557 4.12708 0
M  V30 2168 H 218.39 -0.090779 3.22672 0
M  V30 2169 H 217.442 2.31988 3.01473 0
M  V30 2170 H 218.754 2.86512 4.08304 0
M  V30 2171 H 217.908 1.37649 5.90879 0
M  V30 2172 H 216.647 0.728202 4.82233 0
M  V30 2173 H 215.652 3.02165 4.59322 0
M  V30 2174 H 216.877 3.66964 5.71414 0
M  V30 2175 H 214.823 1.52665 6.37989 0
M  V30 2176 H 214.74 3.19185 6.85315 0
M  V30 2177 H 216.008 2.1832 7.48303 0
M  V30 2178 N 220.237 -1.11381 1.11499 0
M  V30 2179 C 221.514 -1.7955 0.775965 0
M  V30 2180 C 221.894 -1.97859 -0.73588 0
M  V30 2181 O 221.242 -1.56376 -1.66609 0
M  V30 2182 C 221.452 -3.13196 1.53977 0
M  V30 2183 C 222.8 -3.88227 1.71944 0
M  V30 2184 O 223.824 -3.22887 1.50407 0
M  V30 2185 O 222.683 -5.05477 2.07738 0
M  V30 2186 H 219.777 -0.777728 0.28119 0
M  V30 2187 H 222.323 -1.18118 1.21845 0
M  V30 2188 H 221.095 -2.95229 2.56818 0
M  V30 2189 H 220.718 -3.82342 1.09088 0
M  V30 2190 N 221.715 -0.905404 -1.28997 0
M  V30 2191 C 222.943 -0.549846 -1.9946 0
M  V30 2192 C 223.358 0.866834 -1.67724 0
M  V30 2193 O 222.715 1.57298 -0.925404 0
M  V30 2194 C 222.766 -0.739387 -3.53858 0
M  V30 2195 O 222.487 -2.10031 -3.84472 0
M  V30 2196 C 223.988 -0.389541 -4.41585 0
M  V30 2197 H 221.208 -0.210429 -0.637151 0
M  V30 2198 H 223.752 -1.21632 -1.64396 0
M  V30 2199 H 221.907 -0.120023 -3.87214 0
M  V30 2200 H 222.321 -2.13385 -4.79132 0
M  V30 2201 H 223.795 -0.572972 -5.49018 0
M  V30 2202 H 224.272 0.673756 -4.34001 0
M  V30 2203 H 224.878 -0.986089 -4.1371 0
M  V30 2204 N 223.193 1.4272 -0.668489 0
M  V30 2205 C 224.123 2.335 -0.000100175 0
M  V30 2206 C 225.104 1.50328 0.795964 0
M  V30 2207 O 226.289 1.78949 0.754385 0
M  V30 2208 C 223.419 3.33874 0.956302 0
M  V30 2209 C 222.373 4.27152 0.269278 0
M  V30 2210 C 221.699 5.17684 1.33818 0
M  V30 2211 C 222.999 5.15373 -0.847805 0
M  V30 2212 H 224.693 2.89639 -0.758244 0
M  V30 2213 H 222.239 1.39269 -0.366079 0
M  V30 2214 H 224.192 3.9629 1.43292 0
M  V30 2215 H 222.916 2.76025 1.74579 0
M  V30 2216 H 221.575 3.66123 -0.187042 0
M  V30 2217 H 221.223 4.56165 2.1195 0
M  V30 2218 H 220.923 5.80918 0.883659 0
M  V30 2219 H 222.447 5.82974 1.81586 0
M  V30 2220 H 223.861 5.7151 -0.452681 0
M  V30 2221 H 222.258 5.87407 -1.22773 0
M  V30 2222 H 223.328 4.5415 -1.69929 0
M  V30 2223 N 224.671 0.411399 1.52136 0
M  V30 2224 C 225.604 -0.457614 2.23565 0
M  V30 2225 C 226.582 -1.04613 1.24478 0
M  V30 2226 O 227.766 -1.09356 1.53536 0
M  V30 2227 C 224.893 -1.6354 2.96602 0
M  V30 2228 C 223.939 -1.17005 4.10137 0
M  V30 2229 S 224.772 -0.13333 5.35334 0
M  V30 2230 C 225.928 -1.31638 6.119 0
M  V30 2231 H 226.161 0.148883 2.96927 0
M  V30 2232 H 223.694 0.195713 1.53155 0
M  V30 2233 H 225.652 -2.31074 3.39286 0
M  V30 2234 H 224.313 -2.21324 2.22878 0
M  V30 2235 H 223.506 -2.05005 4.60422 0
M  V30 2236 H 223.108 -0.573319 3.6958 0
M  V30 2237 H 225.4 -2.23957 6.39413 0
M  V30 2238 H 226.343 -0.854014 7.02931 0
M  V30 2239 H 226.751 -1.54321 5.42997 0
M  V30 2240 N 226.149 -1.5696 0.141893 0
M  V30 2241 C 227.398 -1.95135 -0.510427 0
M  V30 2242 C 227.711 -1.02896 -1.66348 0
M  V30 2243 O 228.917 -1.30629 -2.38009 0
M  V30 2244 C 227.373 -3.46876 -0.959427 0
M  V30 2245 C 226.981 -4.47691 0.166419 0
M  V30 2246 C 228.725 -3.93927 -1.58183 0
M  V30 2247 C 226.632 -5.90636 -0.300565 0
M  V30 2248 H 225.562 -0.728494 -0.194454 0
M  V30 2249 H 228.213 -1.8211 0.22542 0
M  V30 2250 H 226.595 -3.55215 -1.75038 0
M  V30 2251 H 227.769 -4.51043 0.94325 0
M  V30 2252 H 226.084 -4.10527 0.696905 0
M  V30 2253 H 228.681 -4.98158 -1.94275 0
M  V30 2254 H 229.024 -3.3519 -2.46888 0
M  V30 2255 H 229.557 -3.88484 -0.855863 0
M  V30 2256 H 226.296 -6.5318 0.550989 0
M  V30 2257 H 225.816 -5.90655 -1.04338 0
M  V30 2258 H 227.495 -6.42588 -0.754265 0
M  V30 2259 N 227.627 0.131896 -1.57047 0
M  V30 2260 C 228.852 0.860418 -1.8871 0
M  V30 2261 C 229.277 1.73251 -0.73251 0
M  V30 2262 O 228.635 1.785 0.317429 0
M  V30 2263 C 228.683 1.68047 -3.19049 0
M  V30 2264 O 227.787 2.7862 -3.04047 0
M  V30 2265 H 227.128 0.238743 -0.619595 0
M  V30 2266 H 229.658 0.118169 -2.04258 0
M  V30 2267 H 229.668 2.07238 -3.51449 0
M  V30 2268 H 228.343 1.04018 -4.02682 0
M  V30 2269 H 226.92 2.42726 -2.83088 0
M  V30 2270 N 229.106 1.52395 0.401703 0
M  V30 2271 C 230.522 1.41363 0.740864 0
M  V30 2272 C 230.722 0.523982 1.94568 0
M  V30 2273 O 229.778 -0.00741204 2.52499 0
M  V30 2274 C 231.091 2.84011 0.987847 0
M  V30 2275 C 232.639 2.93404 1.09011 0
M  V30 2276 C 233.114 4.37036 1.3698 0
M  V30 2277 N 234.605 4.40304 1.43829 0
M  V30 2278 C 235.34 5.48508 1.67112 0
M  V30 2279 N 234.836 6.66819 1.87949 0
M  V30 2280 N 236.629 5.36034 1.69187 0
M  V30 2281 H 228.78 2.08765 -0.391262 0
M  V30 2282 H 231.043 0.941265 -0.112798 0
M  V30 2283 H 230.749 3.51265 0.174835 0
M  V30 2284 H 230.623 3.25502 1.906 0
M  V30 2285 H 233.01 2.26325 1.8937 0
M  V30 2286 H 233.091 2.55359 0.15015 0
M  V30 2287 H 232.735 5.04676 0.571353 0
M  V30 2288 H 232.665 4.72623 2.3224 0
M  V30 2289 H 235.156 3.55024 1.29486 0
M  V30 2290 H 235.469 7.45063 2.05185 0
M  V30 2291 H 233.814 6.6987 1.85199 0
M  V30 2292 H 237.005 4.42579 1.52451 0
M  V30 2293 H 237.178 6.20434 1.86993 0
M  V30 2294 N 230.584 -0.659388 1.43143 0
M  V30 2295 C 231.812 -1.44723 1.47861 0
M  V30 2296 C 232.227 -1.88563 0.0945886 0
M  V30 2297 O 231.584 -1.59108 -0.893915 0
M  V30 2298 C 231.635 -2.68627 2.41913 0
M  V30 2299 O 231.356 -2.26623 3.74932 0
M  V30 2300 C 232.857 -3.62045 2.55809 0
M  V30 2301 H 230.077 -0.444801 0.502387 0
M  V30 2302 H 232.621 -0.808916 1.87821 0
M  V30 2303 H 230.776 -3.28613 2.05164 0
M  V30 2304 H 231.19 -3.06745 4.2545 0
M  V30 2305 H 232.664 -4.45666 3.25708 0
M  V30 2306 H 233.141 -4.08981 1.60099 0
M  V30 2307 H 233.747 -3.07944 2.93344 0
M  V30 2308 N 232.062 -1.29571 -0.897171 0
M  V30 2309 C 233.473 -1.15964 -1.46319 0
M  V30 2310 C 233.824 0.244267 -1.94674 0
M  V30 2311 O 232.949 1.13998 -1.83939 0
M  V30 2312 C 233.544 -2.09906 -2.65942 0
M  V30 2313 C 232.103 -2.00314 -3.18671 0
M  V30 2314 C 231.25 -2.00687 -1.91363 0
M  V30 2315 H 234.201 -1.42019 -0.708268 0
M  V30 2316 H 234.222 -1.67276 -3.41759 0
M  V30 2317 H 233.734 -3.12075 -2.30718 0
M  V30 2318 H 231.835 -1.01242 -3.58582 0
M  V30 2319 H 231.948 -2.88102 -3.82798 0
M  V30 2320 H 230.312 -1.45319 -2.09175 0
M  V30 2321 H 231.095 -3.04566 -1.58413 0
M  V30 2322 N 233.54 1.10788 -1.12088 0
M  V30 2323 C 234.45 2.20599 -0.798338 0
M  V30 2324 C 235.466 1.72712 0.21135 0
M  V30 2325 O 236.642 2.01348 0.0458477 0
M  V30 2326 C 233.707 3.45771 -0.253674 0
M  V30 2327 C 232.768 4.08411 -1.32283 0
M  V30 2328 C 232.001 5.27608 -0.80406 0
M  V30 2329 O 232.224 5.69241 0.363478 0
M  V30 2330 O 231.158 5.8101 -1.57198 0
M  V30 2331 H 234.984 2.50614 -1.7154 0
M  V30 2332 H 232.569 1.19454 -0.897275 0
M  V30 2333 H 234.451 4.21376 0.0453691 0
M  V30 2334 H 233.126 3.1739 0.636005 0
M  V30 2335 H 232.033 3.34507 -1.67499 0
M  V30 2336 H 233.366 4.40986 -2.18614 0
M  V30 2337 N 235.018 0.912232 1.28515 0
M  V30 2338 C 236.264 0.545405 1.95328 0
M  V30 2339 C 236.597 -0.908313 1.71649 0
M  V30 2340 O 235.872 -1.64575 1.03659 0
M  V30 2341 C 236.155 0.853483 3.4984 0
M  V30 2342 C 236.008 2.35982 3.82926 0
M  V30 2343 C 237.327 0.348589 4.38717 0
M  V30 2344 H 234.446 0.199626 0.709449 0
M  V30 2345 H 237.088 1.1412 1.5191 0
M  V30 2346 H 235.238 0.34643 3.86952 0
M  V30 2347 H 236.91 2.93738 3.55691 0
M  V30 2348 H 235.153 2.81543 3.30024 0
M  V30 2349 H 235.824 2.52593 4.90816 0
M  V30 2350 H 238.3 0.78294 4.08668 0
M  V30 2351 H 237.176 0.593242 5.45685 0
M  V30 2352 H 237.437 -0.751049 4.35674 0
M  V30 2353 N 236.496 -1.42363 0.676048 0
M  V30 2354 C 237.724 -2.05859 0.207268 0
M  V30 2355 C 238.139 -1.50796 -1.13605 0
M  V30 2356 O 237.496 -0.648265 -1.70598 0
M  V30 2357 C 237.547 -3.61248 0.134975 0
M  V30 2358 O 237.268 -4.1427 1.42521 0
M  V30 2359 C 238.769 -4.41859 -0.357151 0
M  V30 2360 H 235.989 -0.663431 0.100503 0
M  V30 2361 H 238.533 -1.82479 0.923136 0
M  V30 2362 H 236.688 -3.83735 -0.531588 0
M  V30 2363 H 237.102 -5.0815 1.29939 0
M  V30 2364 H 238.576 -5.50847 -0.356641 0
M  V30 2365 H 239.053 -4.16536 -1.39264 0
M  V30 2366 H 239.659 -4.24392 0.27772 0
M  V30 2367 N 237.974 -0.419461 -1.51915 0
M  V30 2368 C 239.214 0.152336 -2.03832 0
M  V30 2369 C 239.578 1.41501 -1.29775 0
M  V30 2370 O 240.779 2.06591 -1.7197 0
M  V30 2371 C 239.05 0.383812 -3.55333 0
M  V30 2372 S 240.609 0.921577 -4.29013 0
M  V30 2373 H 237.427 0.0402193 -0.709862 0
M  V30 2374 H 240.029 -0.574758 -1.8686 0
M  V30 2375 H 238.733 -0.541794 -4.06808 0
M  V30 2376 H 238.264 1.13849 -3.76566 0
M  V30 2377 H 240.279 2.20108 -4.4471 0
M  V30 2378 N 239.452 1.56882 -0.150215 0
M  V30 2379 C 240.698 1.96518 0.500834 0
M  V30 2380 C 241.031 1.03527 1.64304 0
M  V30 2381 O 240.306 0.0782751 1.94342 0
M  V30 2382 C 240.589 3.45822 1.00395 0
M  V30 2383 C 240.442 4.49591 -0.136983 0
M  V30 2384 C 241.761 3.97704 1.88467 0
M  V30 2385 H 238.88 0.714535 0.18058 0
M  V30 2386 H 241.522 1.88577 -0.232091 0
M  V30 2387 H 239.672 3.5272 1.62851 0
M  V30 2388 H 241.344 4.5477 -0.77343 0
M  V30 2389 H 239.587 4.26441 -0.795652 0
M  V30 2390 H 240.258 5.51402 0.256815 0
M  V30 2391 H 242.734 3.93304 1.35834 0
M  V30 2392 H 241.61 5.0263 2.20578 0
M  V30 2393 H 241.871 3.40252 2.82279 0
M  V30 2394 N 240.93 -0.123565 1.57115 0
M  V30 2395 C 242.176 -0.833386 1.84885 0
M  V30 2396 C 242.509 -1.79742 0.735292 0
M  V30 2397 O 241.784 -1.92764 -0.25925 0
M  V30 2398 C 242.067 -1.5873 3.23228 0
M  V30 2399 C 241.92 -0.643183 4.45178 0
M  V30 2400 C 243.239 -2.54453 3.59085 0
M  V30 2401 H 240.358 -0.301518 0.6725 0
M  V30 2402 H 243 -0.097778 1.89748 0
M  V30 2403 H 241.15 -2.21438 3.19214 0
M  V30 2404 H 242.822 -0.0253015 4.61293 0
M  V30 2405 H 241.065 0.0456139 4.33776 0
M  V30 2406 H 241.736 -1.20724 5.38637 0
M  V30 2407 H 244.212 -2.01853 3.63861 0
M  V30 2408 H 243.088 -3.04238 4.5687 0
M  V30 2409 H 243.349 -3.36906 2.86264 0
M  V30 2410 N 242.408 -1.52605 -0.393616 0
M  V30 2411 C 243.654 -1.67672 -1.14079 0
M  V30 2412 C 243.987 -0.413121 -1.89755 0
M  V30 2413 O 243.262 0.588952 -1.85369 0
M  V30 2414 C 243.545 -2.9088 -2.12276 0
M  V30 2415 C 243.398 -4.27329 -1.40394 0
M  V30 2416 C 244.717 -3.09628 -3.12759 0
M  V30 2417 H 241.836 -0.610168 -0.413356 0
M  V30 2418 H 244.478 -1.85193 -0.424696 0
M  V30 2419 H 242.628 -2.76073 -2.73342 0
M  V30 2420 H 244.3 -4.53894 -0.82327 0
M  V30 2421 H 242.543 -4.2802 -0.705801 0
M  V30 2422 H 243.214 -5.09615 -2.12123 0
M  V30 2423 H 245.69 -3.23436 -2.61779 0
M  V30 2424 H 244.566 -3.97322 -3.78717 0
M  V30 2425 H 244.827 -2.23637 -3.81365 0
M  V30 2426 N 243.887 0.651787 -1.4349 0
M  V30 2427 C 245.164 1.40909 -1.35661 0
M  V30 2428 C 245.544 2.11099 -0.00511733 0
M  V30 2429 O 244.892 2.04892 1.0115 0
M  V30 2430 C 245.102 2.3926 -2.54078 0
M  V30 2431 C 246.45 3.03217 -2.97228 0
M  V30 2432 O 247.474 2.49588 -2.54135 0
M  V30 2433 O 246.333 4.00455 -3.71885 0
M  V30 2434 H 243.427 0.629625 -0.536191 0
M  V30 2435 H 245.973 0.678575 -1.55542 0
M  V30 2436 H 244.745 1.86352 -3.44076 0
M  V30 2437 H 244.368 3.1976 -2.36303 0
M  V30 2438 N 245.365 1.30045 0.890287 0
M  V30 2439 C 246.611 1.18737 1.64406 0
M  V30 2440 C 246.944 -0.258525 1.92472 0
M  V30 2441 O 246.219 -1.18562 1.54186 0
M  V30 2442 C 246.502 2.01087 2.98724 0
M  V30 2443 C 246.355 3.53867 2.77665 0
M  V30 2444 C 247.674 1.84457 3.9958 0
M  V30 2445 H 244.793 0.432698 0.596608 0
M  V30 2446 H 247.435 1.5962 1.0306 0
M  V30 2447 H 245.585 1.66349 3.51084 0
M  V30 2448 H 247.257 3.98637 2.32133 0
M  V30 2449 H 245.5 3.78318 2.12269 0
M  V30 2450 H 246.171 4.06772 3.7315 0
M  V30 2451 H 248.647 2.14817 3.56361 0
M  V30 2452 H 247.523 2.44411 4.91482 0
M  V30 2453 H 247.784 0.802276 4.3476 0
M  V30 2454 N 246.843 -1.10192 1.12674 0
M  V30 2455 C 248.068 -1.86523 0.906853 0
M  V30 2456 C 248.493 -1.80221 -0.538711 0
M  V30 2457 O 247.851 -1.17396 -1.38158 0
M  V30 2458 C 247.899 -3.32758 1.3894 0
M  V30 2459 O 247.003 -4.08449 0.5695 0
M  V30 2460 H 246.344 -0.578678 0.325619 0
M  V30 2461 H 248.874 -1.39203 1.49946 0
M  V30 2462 H 248.884 -3.83608 1.38958 0
M  V30 2463 H 247.559 -3.36661 2.44197 0
M  V30 2464 H 246.136 -3.67427 0.636528 0
M  V30 2465 N 248.321 -0.919034 -1.28029 0
M  V30 2466 C 249.271 -0.382574 -2.24767 0
M  V30 2467 C 250.255 0.508286 -1.52661 0
M  V30 2468 O 251.447 0.347145 -1.73562 0
M  V30 2469 C 248.576 0.371432 -3.41285 0
M  V30 2470 C 247.662 -0.535449 -4.20706 0
M  V30 2471 N 248.053 -1.65141 -4.78082 0
M  V30 2472 C 246.351 -0.336824 -4.44726 0
M  V30 2473 C 247.052 -2.21475 -5.37888 0
M  V30 2474 N 246.028 -1.50537 -5.22341 0
M  V30 2475 H 249.83 -1.23477 -2.66703 0
M  V30 2476 H 247.344 -0.772299 -1.42861 0
M  V30 2477 H 249.341 0.772638 -4.09678 0
M  V30 2478 H 248.001 1.22066 -3.00882 0
M  V30 2479 H 249.012 -2.03392 -4.7629 0
M  V30 2480 H 245.689 0.47246 -4.14818 0
M  V30 2481 H 247.079 -3.15379 -5.93284 0
M  V30 2482 N 249.799 1.42003 -0.683588 0
M  V30 2483 C 250.709 2.34597 -0.0109075 0
M  V30 2484 C 251.725 1.55576 0.779245 0
M  V30 2485 O 252.901 1.88107 0.719555 0
M  V30 2486 C 249.966 3.34199 0.922588 0
M  V30 2487 C 249.027 4.29115 0.125984 0
M  V30 2488 C 248.26 5.23959 1.01502 0
M  V30 2489 O 248.483 5.23952 2.25456 0
M  V30 2490 O 247.417 6.00053 0.47111 0
M  V30 2491 H 251.243 2.93675 -0.773853 0
M  V30 2492 H 248.828 1.42654 -0.443861 0
M  V30 2493 H 250.71 3.95365 1.45823 0
M  V30 2494 H 249.385 2.77582 1.66523 0
M  V30 2495 H 248.292 3.71335 -0.453969 0
M  V30 2496 H 249.625 4.88798 -0.577736 0
M  V30 2497 N 251.277 0.427512 1.51691 0
M  V30 2498 C 252.554 -0.201684 1.94557 0
M  V30 2499 C 252.934 -1.60981 1.36559 0
M  V30 2500 O 252.282 -2.21814 0.548702 0
M  V30 2501 C 252.492 -0.189394 3.48486 0
M  V30 2502 C 253.84 -0.39978 4.22714 0
M  V30 2503 O 254.864 -0.267945 3.55191 0
M  V30 2504 O 253.723 -0.661249 5.42485 0
M  V30 2505 H 250.817 -0.135261 0.815864 0
M  V30 2506 H 253.363 0.484782 1.62628 0
M  V30 2507 H 252.135 0.795431 3.8313 0
M  V30 2508 H 251.758 -0.919187 3.86829 0
M  V30 2509 N 252.755 -1.56801 0.158532 0
M  V30 2510 C 254.166 -1.83189 -0.360366 0
M  V30 2511 C 254.517 -1.07778 -1.63946 0
M  V30 2512 O 253.642 -0.326718 -2.13919 0
M  V30 2513 C 254.237 -3.32297 -0.660595 0
M  V30 2514 C 252.796 -3.59227 -1.12398 0
M  V30 2515 C 251.943 -2.76877 -0.153097 0
M  V30 2516 H 254.894 -1.54008 0.383031 0
M  V30 2517 H 254.915 -3.4908 -1.51405 0
M  V30 2518 H 254.427 -3.87156 0.270527 0
M  V30 2519 H 252.528 -3.09766 -2.07064 0
M  V30 2520 H 252.641 -4.67632 -1.04197 0
M  V30 2521 H 251.005 -2.46319 -0.647983 0
M  V30 2522 H 251.788 -3.34511 0.77182 0
M  V30 2523 N 254.233 0.115231 -1.57178 0
M  V30 2524 C 255.143 1.15994 -2.03918 0
M  V30 2525 C 256.159 1.45103 -0.960268 0
M  V30 2526 O 257.335 1.56144 -1.27204 0
M  V30 2527 C 254.4 2.46568 -2.43732 0
M  V30 2528 C 253.461 2.24822 -3.65723 0
M  V30 2529 C 252.694 3.4917 -4.03629 0
M  V30 2530 O 252.917 4.56623 -3.41835 0
M  V30 2531 O 251.851 3.39949 -4.96708 0
M  V30 2532 H 255.677 0.793019 -2.93164 0
M  V30 2533 H 253.262 0.3263 -1.45793 0
M  V30 2534 H 255.144 3.23492 -2.70057 0
M  V30 2535 H 253.819 2.82726 -1.57631 0
M  V30 2536 H 252.726 1.45744 -3.44542 0
M  V30 2537 H 254.059 1.93566 -4.52541 0
M  V30 2538 N 255.711 1.52812 0.385517 0
M  V30 2539 C 256.957 1.68275 1.13188 0
M  V30 2540 C 257.29 0.423179 1.89533 0
M  V30 2541 O 256.565 -0.579113 1.85679 0
M  V30 2542 C 256.848 2.92001 2.1073 0
M  V30 2543 C 256.701 4.28067 1.38125 0
M  V30 2544 C 258.02 3.11283 3.11113 0
M  V30 2545 H 255.139 0.612352 0.410115 0
M  V30 2546 H 257.781 1.85415 0.414869 0
M  V30 2547 H 255.931 2.77519 2.71874 0
M  V30 2548 H 257.603 4.54324 0.799187 0
M  V30 2549 H 255.846 4.28388 0.683092 0
M  V30 2550 H 256.517 5.10733 2.09417 0
M  V30 2551 H 258.993 3.2482 2.6006 0
M  V30 2552 H 257.869 3.99325 3.76605 0
M  V30 2553 H 258.13 2.25656 3.80173 0
M  V30 2554 N 257.189 -0.644168 1.43834 0
M  V30 2555 C 258.136 -1.75671 1.49694 0
M  V30 2556 C 259.106 -1.6246 0.345809 0
M  V30 2557 O 260.291 -1.82573 0.554234 0
M  V30 2558 C 257.431 -3.13867 1.43463 0
M  V30 2559 C 256.544 -3.38147 2.6885 0
M  V30 2560 C 255.679 -4.66241 2.54544 0
M  V30 2561 C 254.718 -4.83657 3.75157 0
M  V30 2562 N 253.855 -6.03016 3.59605 0
M  V30 2563 H 258.695 -1.69998 2.44754 0
M  V30 2564 H 256.232 -0.829458 1.21484 0
M  V30 2565 H 258.19 -3.9377 1.37843 0
M  V30 2566 H 256.82 -3.18588 0.519783 0
M  V30 2567 H 255.872 -2.52276 2.84712 0
M  V30 2568 H 257.184 -3.46899 3.58417 0
M  V30 2569 H 256.338 -5.54285 2.46683 0
M  V30 2570 H 255.077 -4.59826 1.62516 0
M  V30 2571 H 254.082 -3.94046 3.83416 0
M  V30 2572 H 255.307 -4.91896 4.68204 0
M  V30 2573 H 253.253 -5.97715 2.7032 0
M  V30 2574 H 253.17 -6.12766 4.42779 0
M  V30 2575 H 254.438 -6.93657 3.55613 0
M  V30 2576 N 258.668 -1.30515 -0.883378 0
M  V30 2577 C 259.915 -1.1943 -1.63532 0
M  V30 2578 C 260.243 0.250627 -1.92878 0
M  V30 2579 O 259.498 1.19556 -1.54935 0
M  V30 2580 C 259.797 -1.96994 -2.98209 0
M  V30 2581 C 259.463 -3.466 -2.88408 0
M  V30 2582 C 258.125 -3.87397 -2.85442 0
M  V30 2583 C 260.477 -4.41863 -2.76418 0
M  V30 2584 C 257.805 -5.21745 -2.68327 0
M  V30 2585 C 260.157 -5.7632 -2.60841 0
M  V30 2586 C 258.821 -6.16354 -2.56251 0
M  V30 2587 H 258.091 -0.437025 -0.598406 0
M  V30 2588 H 260.738 -1.61635 -1.02696 0
M  V30 2589 H 259.043 -1.47429 -3.63004 0
M  V30 2590 H 260.74 -1.85808 -3.55354 0
M  V30 2591 H 257.33 -3.14182 -2.91527 0
M  V30 2592 H 261.514 -4.11285 -2.77775 0
M  V30 2593 H 256.77 -5.51853 -2.63189 0
M  V30 2594 H 260.944 -6.49772 -2.50538 0
M  V30 2595 H 258.571 -7.20401 -2.42748 0
M  V30 2596 N 260.146 1.09593 -1.13257 0
M  V30 2597 C 261.094 2.18271 -0.803783 0
M  V30 2598 C 262.088 1.68054 0.213148 0
M  V30 2599 O 263.294 1.79862 0.0704699 0
M  V30 2600 H 259.669 0.711949 -0.242143 0
M  V30 2601 H 261.64 2.43235 -1.72856 0
M  V30 2602 C 260.389 3.46536 -0.28424 0
M  V30 2603 H 259.712 3.85545 -1.05807 0
M  V30 2604 H 261.152 4.23899 -0.0925945 0
M  V30 2605 C 259.611 3.22036 0.989684 0
M  V30 2606 O 260.141 3.44509 2.06584 0
M  V30 2607 N 258.347 2.7565 0.920086 0
M  V30 2608 H 257.894 2.57562 0.0442019 0
M  V30 2609 H 257.852 2.59635 1.77306 0
M  V30 2610 N 261.624 0.925811 1.2754 0
M  V30 2611 C 262.87 0.575575 1.95086 0
M  V30 2612 C 263.225 -0.873246 1.71441 0
M  V30 2613 O 262.518 -1.61443 1.03183 0
M  V30 2614 C 262.712 0.835296 3.47502 0
M  V30 2615 C 262.541 2.30781 3.85967 0
M  V30 2616 C 261.311 2.96017 4.09514 0
M  V30 2617 C 263.509 3.28519 3.95702 0
M  V30 2618 N 261.491 4.3344 4.34744 0
M  V30 2619 C 262.862 4.51146 4.25285 0
M  V30 2620 C 264.917 3.23753 3.7827 0
M  V30 2621 C 263.62 5.69606 4.39251 0
M  V30 2622 C 265.646 4.41523 3.9346 0
M  V30 2623 C 265.008 5.62928 4.23428 0
M  V30 2624 H 261.107 0.260711 0.737261 0
M  V30 2625 H 263.691 1.19204 1.53943 0
M  V30 2626 H 261.862 0.248005 3.87607 0
M  V30 2627 H 263.594 0.447878 4.02214 0
M  V30 2628 H 260.349 2.46695 4.04275 0
M  V30 2629 H 260.773 5.04528 4.5142 0
M  V30 2630 H 265.415 2.3096 3.54143 0
M  V30 2631 H 263.133 6.62866 4.62205 0
M  V30 2632 H 266.719 4.39351 3.81394 0
M  V30 2633 H 265.599 6.52538 4.34929 0
M  V30 2634 N 263.102 -1.41638 0.69111 0
M  V30 2635 C 264.332 -2.0533 0.228758 0
M  V30 2636 C 264.74 -1.52089 -1.12541 0
M  V30 2637 O 264.083 -0.662145 -1.71351 0
M  V30 2638 C 264.145 -3.59349 0.10407 0
M  V30 2639 C 263.809 -4.35362 1.38956 0
M  V30 2640 C 264.806 -4.64942 2.32648 0
M  V30 2641 C 262.491 -4.74714 1.64169 0
M  V30 2642 C 264.485 -5.32828 3.49818 0
M  V30 2643 C 262.172 -5.42338 2.81625 0
M  V30 2644 C 263.17 -5.71322 3.74273 0
M  V30 2645 O 262.858 -6.37554 4.89673 0
M  V30 2646 H 262.59 -0.667796 0.104997 0
M  V30 2647 H 265.144 -1.82477 0.942938 0
M  V30 2648 H 263.374 -3.80924 -0.665839 0
M  V30 2649 H 265.063 -4.04633 -0.320519 0
M  V30 2650 H 265.829 -4.35025 2.14425 0
M  V30 2651 H 261.708 -4.51538 0.929202 0
M  V30 2652 H 265.252 -5.55368 4.22152 0
M  V30 2653 H 261.149 -5.71673 2.99768 0
M  V30 2654 H 261.917 -6.56049 4.8943 0
M  V30 2655 N 264.58 -0.43555 -1.51462 0
M  V30 2656 C 265.826 0.131709 -2.02372 0
M  V30 2657 C 266.159 1.42516 -1.3192 0
M  V30 2658 O 265.434 1.89606 -0.433573 0
M  V30 2659 C 265.717 0.352301 -3.58373 0
M  V30 2660 C 265.57 -0.959676 -4.39443 0
M  V30 2661 C 266.889 1.12286 -4.25535 0
M  V30 2662 H 264.008 0.0463936 -0.735538 0
M  V30 2663 H 266.65 -0.574197 -1.81116 0
M  V30 2664 H 264.8 0.9536 -3.76615 0
M  V30 2665 H 266.472 -1.59482 -4.32855 0
M  V30 2666 H 264.715 -1.56468 -4.04599 0
M  V30 2667 H 265.386 -0.759394 -5.46752 0
M  V30 2668 H 267.862 0.613545 -4.11552 0
M  V30 2669 H 266.738 1.24598 -5.34571 0
M  V30 2670 H 266.999 2.15048 -3.86273 0
M  V30 2671 N 266.058 1.56714 -0.166846 0
M  V30 2672 C 267.335 1.88412 0.525373 0
M  V30 2673 C 267.715 1.07602 1.81618 0
M  V30 2674 O 267.063 0.168621 2.27877 0
M  V30 2675 C 267.273 3.40363 0.771613 0
M  V30 2676 C 268.621 4.10007 1.1036 0
M  V30 2677 O 269.645 3.45655 0.860304 0
M  V30 2678 O 268.504 5.2369 1.56239 0
M  V30 2679 H 265.598 0.781587 0.270278 0
M  V30 2680 H 268.144 1.68458 -0.204946 0
M  V30 2681 H 266.916 3.91046 -0.141093 0
M  V30 2682 H 266.539 3.65914 1.55541 0
M  V30 2683 N 267.536 -0.106894 1.57237 0
M  V30 2684 C 268.784 -0.810921 1.85117 0
M  V30 2685 C 269.105 -1.7984 0.753827 0
M  V30 2686 O 268.375 -1.94649 -0.221056 0
M  V30 2687 H 266.955 -0.302466 0.683025 0
M  V30 2688 H 269.617 -0.0913324 1.94686 0
M  V30 2689 H 268.713 -1.34875 2.81452 0
M  V30 2690 N 269.014 -1.53014 -0.377408 0
M  V30 2691 C 270.26 -1.68872 -1.12294 0
M  V30 2692 C 270.593 -0.433224 -1.89306 0
M  V30 2693 O 269.868 0.569258 -1.85983 0
M  V30 2694 C 270.151 -2.93115 -2.09179 0
M  V30 2695 C 270.004 -4.28794 -1.35853 0
M  V30 2696 C 271.323 -3.12928 -3.09458 0
M  V30 2697 H 268.442 -0.614518 -0.406862 0
M  V30 2698 H 271.084 -1.85633 -0.40503 0
M  V30 2699 H 269.234 -2.78956 -2.70399 0
M  V30 2700 H 270.906 -4.54742 -0.775082 0
M  V30 2701 H 269.149 -4.28744 -0.660364 0
M  V30 2702 H 269.82 -5.11837 -2.06706 0
M  V30 2703 H 272.296 -3.26194 -2.58334 0
M  V30 2704 H 271.172 -4.01316 -3.74482 0
M  V30 2705 H 271.433 -2.27669 -3.78971 0
M  V30 2706 N 270.492 0.636531 -1.44174 0
M  V30 2707 C 271.402 1.77754 -1.53103 0
M  V30 2708 C 272.418 1.68928 -0.417034 0
M  V30 2709 O 273.594 1.89801 -0.6736 0
M  V30 2710 C 270.659 3.14115 -1.46741 0
M  V30 2711 C 269.72 3.34612 -2.68948 0
M  V30 2712 C 268.953 4.64467 -2.6288 0
M  V30 2713 O 269.176 5.44919 -1.68581 0
M  V30 2714 O 268.11 4.87049 -3.53648 0
M  V30 2715 H 271.936 1.73174 -2.49489 0
M  V30 2716 H 269.521 0.79709 -1.2636 0
M  V30 2717 H 271.403 3.95412 -1.45696 0
M  V30 2718 H 270.078 3.19249 -0.534975 0
M  V30 2719 H 268.985 2.53014 -2.75562 0
M  V30 2720 H 270.318 3.34336 -3.61221 0
M  V30 2721 N 271.97 1.30982 0.876444 0
M  V30 2722 C 273.216 1.20474 1.63138 0
M  V30 2723 C 273.549 -0.238096 1.92735 0
M  V30 2724 O 272.824 -1.1692 1.55435 0
M  V30 2725 C 273.107 2.04244 2.96574 0
M  V30 2726 C 272.96 3.56793 2.73896 0
M  V30 2727 C 274.279 1.88684 3.97601 0
M  V30 2728 H 271.398 0.439001 0.591985 0
M  V30 2729 H 274.04 1.60704 1.01361 0
M  V30 2730 H 272.19 1.70063 3.493 0
M  V30 2731 H 273.862 4.01077 2.27892 0
M  V30 2732 H 272.105 3.80548 2.08245 0
M  V30 2733 H 272.776 4.10706 3.68815 0
M  V30 2734 H 275.252 2.18584 3.54062 0
M  V30 2735 H 274.128 2.4961 4.88862 0
M  V30 2736 H 274.389 0.848343 4.33884 0
M  V30 2737 N 273.449 -1.08991 1.13837 0
M  V30 2738 C 274.399 -2.1393 0.788535 0
M  V30 2739 C 275.383 -1.59396 -0.219516 0
M  V30 2740 O 276.575 -1.76985 -0.0227557 0
M  V30 2741 C 273.704 -3.42305 0.261147 0
M  V30 2742 C 272.79 -4.03736 1.29837 0
M  V30 2743 N 273.181 -4.39659 2.50067 0
M  V30 2744 C 271.479 -4.30993 1.1472 0
M  V30 2745 C 272.18 -4.88113 3.16419 0
M  V30 2746 N 271.156 -4.85846 2.43832 0
M  V30 2747 H 274.958 -2.39516 1.70322 0
M  V30 2748 H 272.472 -1.26263 1.02134 0
M  V30 2749 H 274.469 -4.16899 -0.0077405 0
M  V30 2750 H 273.129 -3.18172 -0.647805 0
M  V30 2751 H 274.14 -4.30878 2.8734 0
M  V30 2752 H 270.817 -4.16444 0.296773 0
M  V30 2753 H 272.207 -5.25336 4.18894 0
M  V30 2754 N 274.927 -0.932562 -1.27047 0
M  V30 2755 C 275.875 -0.42603 -2.28665 0
M  V30 2756 C 276.869 0.49219 -1.62092 0
M  V30 2757 O 278.075 0.371355 -1.76128 0
M  V30 2758 H 274.45 -0.119213 -0.742491 0
M  V30 2759 H 276.421 -1.29579 -2.68797 0
M  V30 2760 C 275.17 0.301426 -3.46391 0
M  V30 2761 H 274.493 -0.39595 -3.97834 0
M  V30 2762 H 275.933 0.6202 -4.1944 0
M  V30 2763 C 274.392 1.51616 -3.00856 0
M  V30 2764 O 274.922 2.61476 -3.04948 0
M  V30 2765 N 273.128 1.36969 -2.56296 0
M  V30 2766 H 272.675 0.475873 -2.53166 0
M  V30 2767 H 272.633 2.18368 -2.26192 0
M  V30 2768 N 276.405 1.4127 -0.698611 0
M  V30 2769 C 277.368 2.29158 -0.044132 0
M  V30 2770 C 278.368 1.44529 0.704841 0
M  V30 2771 O 279.558 1.65643 0.539276 0
M  V30 2772 C 276.69 3.27459 0.947809 0
M  V30 2773 H 277.883 2.88529 -0.817994 0
M  V30 2774 H 275.436 1.49307 -0.46228 0
M  V30 2775 H 276.171 2.73073 1.74933 0
M  V30 2776 H 275.956 3.8991 0.41385 0
M  V30 2777 H 277.446 3.93311 1.40344 0
M  V30 2778 N 277.883 0.443576 1.51229 0
M  V30 2779 C 278.83 -0.364716 2.279 0
M  V30 2780 C 279.8 -1.0114 1.31757 0
M  V30 2781 O 280.985 -1.02912 1.60667 0
M  V30 2782 C 278.125 -1.45644 3.12861 0
M  V30 2783 C 277.238 -0.827269 4.24005 0
M  V30 2784 C 276.373 -1.89456 4.96266 0
M  V30 2785 C 275.412 -1.24416 5.99322 0
M  V30 2786 N 274.549 -2.25309 6.64966 0
M  V30 2787 H 279.389 0.295464 2.96532 0
M  V30 2788 H 276.926 0.157554 1.46254 0
M  V30 2789 H 278.884 -2.10076 3.6045 0
M  V30 2790 H 277.514 -2.08616 2.46331 0
M  V30 2791 H 276.566 -0.0710839 3.80334 0
M  V30 2792 H 277.878 -0.312481 4.9782 0
M  V30 2793 H 277.032 -2.61535 5.47434 0
M  V30 2794 H 275.771 -2.4431 4.22095 0
M  V30 2795 H 274.776 -0.508868 5.4744 0
M  V30 2796 H 276.001 -0.702882 6.75453 0
M  V30 2797 H 273.947 -2.79231 5.93604 0
M  V30 2798 H 273.864 -1.78739 7.34567 0
M  V30 2799 H 275.132 -2.96853 7.20763 0
M  V30 2800 N 279.361 -1.56624 0.175154 0
M  V30 2801 C 280.589 -2.01374 -0.474971 0
M  V30 2802 C 281.004 -1.05537 -1.56548 0
M  V30 2803 O 280.361 -0.0568668 -1.82411 0
M  V30 2804 C 280.412 -3.45923 -1.04975 0
M  V30 2805 O 280.133 -4.381 -0.00276605 0
M  V30 2806 C 281.634 -4.06093 -1.77773 0
M  V30 2807 H 278.854 -0.659962 -0.121206 0
M  V30 2808 H 281.398 -2.02601 0.27801 0
M  V30 2809 H 279.553 -3.45458 -1.75321 0
M  V30 2810 H 279.967 -5.22753 -0.427681 0
M  V30 2811 H 281.441 -5.09147 -2.13245 0
M  V30 2812 H 281.918 -3.48405 -2.67414 0
M  V30 2813 H 282.524 -4.10272 -1.12059 0
M  V30 2814 N 280.839 0.0985539 -1.57292 0
M  V30 2815 C 281.786 1.11981 -2.01814 0
M  V30 2816 C 282.756 1.39999 -0.89384 0
M  V30 2817 O 283.941 1.5152 -1.15958 0
M  V30 2818 C 281.081 2.43577 -2.44467 0
M  V30 2819 C 280.194 2.2232 -3.70402 0
M  V30 2820 C 279.329 3.4729 -4.01949 0
M  V30 2821 C 278.368 3.2128 -5.21005 0
M  V30 2822 N 277.505 4.38507 -5.48321 0
M  V30 2823 H 282.345 0.733149 -2.88841 0
M  V30 2824 H 279.882 0.350482 -1.42864 0
M  V30 2825 H 281.84 3.20373 -2.6724 0
M  V30 2826 H 280.47 2.80097 -1.60455 0
M  V30 2827 H 279.522 1.36343 -3.55126 0
M  V30 2828 H 280.834 1.99089 -4.57345 0
M  V30 2829 H 279.988 4.32495 -4.25479 0
M  V30 2830 H 278.727 3.73572 -3.13521 0
M  V30 2831 H 277.732 2.34468 -4.97298 0
M  V30 2832 H 278.957 2.96348 -6.11028 0
M  V30 2833 H 276.903 4.64871 -4.62851 0
M  V30 2834 H 276.82 4.18455 -6.29628 0
M  V30 2835 H 278.088 5.24787 -5.76385 0
M  V30 2836 N 282.317 1.53212 0.369288 0
M  V30 2837 C 283.728 1.60943 0.946276 0
M  V30 2838 C 284.079 0.47452 1.90375 0
M  V30 2839 O 283.204 -0.399597 2.12679 0
M  V30 2840 C 283.799 2.91715 1.72302 0
M  V30 2841 C 282.358 3.01792 2.24941 0
M  V30 2842 C 281.505 2.56211 1.06072 0
M  V30 2843 H 284.456 1.58007 0.148198 0
M  V30 2844 H 284.477 2.79309 2.58393 0
M  V30 2845 H 283.989 3.74295 1.0259 0
M  V30 2846 H 282.09 2.23791 2.97906 0
M  V30 2847 H 282.203 4.06803 2.53077 0
M  V30 2848 H 280.567 2.10998 1.4266 0
M  V30 2849 H 281.35 3.41206 0.378639 0
M  V30 2850 N 283.795 -0.628877 1.44509 0
M  V30 2851 C 285.211 -0.947305 1.28446 0
M  V30 2852 C 285.411 -2.00275 0.221872 0
M  V30 2853 O 284.467 -2.49447 -0.391471 0
M  V30 2854 C 285.78 -1.40843 2.65676 0
M  V30 2855 C 287.328 -1.52379 2.73404 0
M  V30 2856 C 287.803 -2.01875 4.11109 0
M  V30 2857 N 289.294 -2.09142 4.13296 0
M  V30 2858 C 290.029 -2.48615 5.16699 0
M  V30 2859 N 289.525 -2.87209 6.30462 0
M  V30 2860 N 291.318 -2.48768 5.04054 0
M  V30 2861 H 283.469 0.0690977 2.12288 0
M  V30 2862 H 285.732 -0.0317164 0.947469 0
M  V30 2863 H 285.438 -0.707206 3.44516 0
M  V30 2864 H 285.312 -2.37902 2.92716 0
M  V30 2865 H 287.699 -2.21598 1.9488 0
M  V30 2866 H 287.78 -0.536898 2.50102 0
M  V30 2867 H 287.424 -1.3325 4.90109 0
M  V30 2868 H 287.354 -3.0144 4.31789 0
M  V30 2869 H 289.845 -1.81991 3.31191 0
M  V30 2870 H 290.158 -3.16149 7.05174 0
M  V30 2871 H 288.503 -2.84955 6.33897 0
M  V30 2872 H 291.694 -2.18009 4.14234 0
M  V30 2873 H 291.867 -2.79207 5.84763 0
M  V30 2874 N 285.273 -1.31445 -0.869486 0
M  V30 2875 C 286.183 -1.21097 -2.0093 0
M  V30 2876 C 287.199 -0.127584 -1.73532 0
M  V30 2877 O 288.375 -0.345477 -1.98415 0
M  V30 2878 C 285.44 -0.919378 -3.34288 0
M  V30 2879 C 284.501 -2.08971 -3.75006 0
M  V30 2880 C 283.734 -1.81194 -5.02001 0
M  V30 2881 O 283.957 -0.747296 -5.65484 0
M  V30 2882 O 282.891 -2.66883 -5.39497 0
M  V30 2883 H 286.717 -2.16883 -2.12592 0
M  V30 2884 H 284.302 -1.11189 -0.997868 0
M  V30 2885 H 286.184 -0.772625 -4.14257 0
M  V30 2886 H 284.859 0.00844772 -3.23699 0
M  V30 2887 H 283.766 -2.29187 -2.95676 0
M  V30 2888 H 285.099 -2.9998 -3.90221 0
M  V30 2889 N 286.751 1.08385 -1.14413 0
M  V30 2890 C 287.661 2.18856 -0.844951 0
M  V30 2891 C 288.677 1.73121 0.174668 0
M  V30 2892 O 289.853 2.014 0.00312857 0
M  V30 2893 C 286.918 3.45155 -0.32696 0
M  V30 2894 C 285.979 4.05513 -1.40916 0
M  V30 2895 C 285.212 5.25784 -0.915793 0
M  V30 2896 O 285.435 5.69884 0.242651 0
M  V30 2897 O 284.369 5.77545 -1.69487 0
M  V30 2898 H 288.195 2.46919 -1.76818 0
M  V30 2899 H 285.78 1.17524 -0.922411 0
M  V30 2900 H 287.662 4.21377 -0.0440211 0
M  V30 2901 H 286.337 3.18668 0.568539 0
M  V30 2902 H 285.244 3.30879 -1.74556 0
M  V30 2903 H 286.577 4.3625 -2.27919 0
M  V30 2904 N 288.23 0.939286 1.26551 0
M  V30 2905 C 289.162 0.404704 2.25599 0
M  V30 2906 C 290.175 -0.470983 1.55838 0
M  V30 2907 O 291.364 -0.281734 1.76263 0
M  V30 2908 C 288.464 -0.43764 3.36062 0
M  V30 2909 C 287.637 0.421449 4.35365 0
M  V30 2910 C 286.696 -0.36015 5.24966 0
M  V30 2911 O 285.722 0.236167 5.6871 0
M  V30 2912 N 286.924 -1.65715 5.56344 0
M  V30 2913 H 289.689 1.25618 2.72103 0
M  V30 2914 H 287.25 0.807963 1.40298 0
M  V30 2915 H 289.242 -0.967866 3.92956 0
M  V30 2916 H 287.812 -1.18991 2.89067 0
M  V30 2917 H 287.032 1.1329 3.7757 0
M  V30 2918 H 288.32 1.00835 4.98708 0
M  V30 2919 H 287.718 -2.16378 5.22682 0
M  V30 2920 H 286.275 -2.13366 6.15888 0
M  V30 2921 N 289.708 -1.40897 0.706093 0
M  V30 2922 C 290.938 -2.05075 0.250523 0
M  V30 2923 C 291.346 -1.53275 -1.10921 0
M  V30 2924 O 290.689 -0.680281 -1.7064 0
M  V30 2925 C 290.751 -3.59219 0.142178 0
M  V30 2926 C 290.415 -4.33864 1.43566 0
M  V30 2927 C 291.412 -4.62448 2.37566 0
M  V30 2928 C 289.097 -4.72946 1.69195 0
M  V30 2929 C 291.091 -5.29088 3.5545 0
M  V30 2930 C 288.778 -5.3932 2.87362 0
M  V30 2931 C 289.776 -5.6732 3.80312 0
M  V30 2932 O 289.464 -6.32325 4.96408 0
M  V30 2933 H 289.196 -0.666645 0.112074 0
M  V30 2934 H 291.75 -1.81467 0.962239 0
M  V30 2935 H 289.98 -3.81609 -0.6254 0
M  V30 2936 H 291.669 -4.0495 -0.277584 0
M  V30 2937 H 292.435 -4.32727 2.19027 0
M  V30 2938 H 288.314 -4.50527 0.977042 0
M  V30 2939 H 291.858 -5.50859 4.28018 0
M  V30 2940 H 287.755 -5.68461 3.05814 0
M  V30 2941 H 288.523 -6.50821 4.9636 0
M  V30 2942 N 291.186 -0.45159 -1.50991 0
M  V30 2943 C 292.134 0.366864 -2.29689 0
M  V30 2944 C 293.128 1.00809 -1.36139 0
M  V30 2945 O 294.334 0.941427 -1.53418 0
M  V30 2946 H 290.709 0.137133 -0.739391 0
M  V30 2947 H 292.68 -0.317538 -2.96706 0
M  V30 2948 C 291.429 1.44751 -3.16137 0
M  V30 2949 H 290.752 0.963473 -3.88017 0
M  V30 2950 H 292.192 1.99315 -3.74232 0
M  V30 2951 C 290.651 2.43869 -2.32442 0
M  V30 2952 O 291.181 3.4872 -1.99392 0
M  V30 2953 N 289.387 2.15105 -1.95392 0
M  V30 2954 H 288.934 1.29866 -2.22469 0
M  V30 2955 H 288.892 2.81661 -1.39693 0
M  V30 2956 N 292.664 1.56529 -0.183458 0
M  V30 2957 C 293.889 2.02064 0.467428 0
M  V30 2958 C 294.314 1.06282 1.55196 0
M  V30 2959 O 293.672 0.0443565 1.81246 0
M  V30 2960 C 293.72 3.46122 1.01153 0
M  V30 2961 O 292.824 3.53437 2.12499 0
M  V30 2962 H 292.165 0.654726 0.110588 0
M  V30 2963 H 294.695 2.02521 -0.290917 0
M  V30 2964 H 294.705 3.85676 1.33108 0
M  V30 2965 H 293.38 4.15331 0.217533 0
M  V30 2966 H 291.957 3.2575 1.81497 0
M  V30 2967 N 294.142 -0.090211 1.57342 0
M  V30 2968 C 295.37 -0.806224 1.90546 0
M  V30 2969 C 295.785 -1.72041 0.777644 0
M  V30 2970 O 295.142 -1.80778 -0.250103 0
M  V30 2971 C 295.193 -1.61546 3.23396 0
M  V30 2972 O 294.914 -0.738043 4.31839 0
M  V30 2973 C 296.415 -2.4341 3.70495 0
M  V30 2974 H 293.635 -0.230256 0.630257 0
M  V30 2975 H 296.179 -0.0659843 2.04394 0
M  V30 2976 H 294.334 -2.30816 3.11131 0
M  V30 2977 H 294.748 -1.29901 5.08159 0
M  V30 2978 H 296.222 -2.95676 4.66133 0
M  V30 2979 H 296.699 -3.22098 2.98579 0
M  V30 2980 H 297.305 -1.79331 3.85643 0
M  V30 2981 N 295.62 -1.53406 -0.361157 0
M  V30 2982 C 296.85 -1.73465 -1.1222 0
M  V30 2983 C 297.258 -0.465486 -1.83384 0
M  V30 2984 O 296.601 0.571611 -1.7458 0
M  V30 2985 C 296.663 -2.84834 -2.19339 0
M  V30 2986 C 296.327 -4.25038 -1.67903 0
M  V30 2987 C 297.324 -5.07231 -1.14074 0
M  V30 2988 C 295.009 -4.71464 -1.73282 0
M  V30 2989 C 297.003 -6.33942 -0.663068 0
M  V30 2990 C 294.69 -5.98153 -1.25127 0
M  V30 2991 C 295.688 -6.79223 -0.717296 0
M  V30 2992 O 295.376 -8.03533 -0.242865 0
M  V30 2993 H 295.108 -0.583526 -0.341283 0
M  V30 2994 H 297.662 -2.00964 -0.424591 0
M  V30 2995 H 295.892 -2.5282 -2.92607 0
M  V30 2996 H 297.581 -2.9303 -2.80871 0
M  V30 2997 H 298.347 -4.72534 -1.09254 0
M  V30 2998 H 294.226 -4.08432 -2.13786 0
M  V30 2999 H 297.77 -6.97167 -0.245612 0
M  V30 3000 H 293.667 -6.32347 -1.29642 0
M  V30 3001 H 294.435 -8.177 -0.361786 0
M  V30 3002 N 297.098 0.621204 -1.44841 0
M  V30 3003 C 298.514 0.94048 -1.28946 0
M  V30 3004 C 298.714 2.00154 -0.23249 0
M  V30 3005 O 297.77 2.49651 0.378237 0
M  V30 3006 C 299.083 1.39433 -2.66419 0
M  V30 3007 C 300.631 1.50927 -2.74208 0
M  V30 3008 C 301.106 1.99692 -4.12174 0
M  V30 3009 N 302.597 2.06947 -4.144 0
M  V30 3010 C 303.332 2.45871 -5.1801 0
M  V30 3011 N 302.828 2.83862 -6.31977 0
M  V30 3012 N 304.621 2.46092 -5.05366 0
M  V30 3013 H 296.772 -0.0803548 -2.12248 0
M  V30 3014 H 299.035 0.0266913 -0.947624 0
M  V30 3015 H 298.741 0.688925 -3.44887 0
M  V30 3016 H 298.615 2.36347 -2.93973 0
M  V30 3017 H 301.002 2.20561 -1.96053 0
M  V30 3018 H 301.083 0.523627 -2.50383 0
M  V30 3019 H 300.727 1.30649 -4.90809 0
M  V30 3020 H 300.657 2.99146 -4.33381 0
M  V30 3021 H 303.148 1.80232 -3.32152 0
M  V30 3022 H 303.461 3.12405 -7.0684 0
M  V30 3023 H 301.806 2.8159 -6.35399 0
M  V30 3024 H 304.997 2.1581 -4.15384 0
M  V30 3025 H 305.17 2.76102 -5.86235 0
M  V30 3026 N 298.576 1.31904 0.862503 0
M  V30 3027 C 299.822 1.22197 1.61851 0
M  V30 3028 C 300.155 -0.217641 1.92977 0
M  V30 3029 O 299.43 -1.15264 1.56666 0
M  V30 3030 C 299.713 2.07378 2.94391 0
M  V30 3031 C 299.566 3.59678 2.70096 0
M  V30 3032 C 300.885 1.92891 3.95577 0
M  V30 3033 H 298.004 0.445255 0.587296 0
M  V30 3034 H 300.646 1.6177 0.99651 0
M  V30 3035 H 298.796 1.73758 3.47477 0
M  V30 3036 H 300.468 4.03472 2.23625 0
M  V30 3037 H 298.711 3.82735 2.04197 0
M  V30 3038 H 299.382 4.14595 3.64438 0
M  V30 3039 H 301.858 2.22327 3.51724 0
M  V30 3040 H 300.734 2.54781 4.86187 0
M  V30 3041 H 300.995 0.894315 4.3296 0
M  V30 3042 N 300.054 -1.07777 1.14986 0
M  V30 3043 C 301.3 -1.80557 0.923422 0
M  V30 3044 C 301.633 -1.86298 -0.548337 0
M  V30 3045 O 300.908 -1.34354 -1.40639 0
M  V30 3046 C 301.191 -3.25839 1.53299 0
M  V30 3047 C 301.044 -3.28269 3.07505 0
M  V30 3048 C 302.363 -4.22991 1.21518 0
M  V30 3049 H 299.482 -0.655493 0.336894 0
M  V30 3050 H 302.124 -1.26144 1.42083 0
M  V30 3051 H 300.274 -3.72306 1.10999 0
M  V30 3052 H 301.946 -2.90079 3.58681 0
M  V30 3053 H 300.189 -2.67355 3.4162 0
M  V30 3054 H 300.86 -4.30691 3.45266 0
M  V30 3055 H 303.336 -3.84894 1.581 0
M  V30 3056 H 302.212 -5.22945 1.66793 0
M  V30 3057 H 302.473 -4.41904 0.131505 0
M  V30 3058 N 301.532 -0.945985 -1.26051 0
M  V30 3059 C 302.757 -0.612525 -1.98149 0
M  V30 3060 C 303.182 0.806623 -1.69927 0
M  V30 3061 O 302.54 1.54411 -0.950108 0
M  V30 3062 C 302.588 -0.866981 -3.50023 0
M  V30 3063 O 301.692 0.0585333 -4.12358 0
M  V30 3064 H 301.033 -0.23379 -0.621481 0
M  V30 3065 H 303.563 -1.27023 -1.60395 0
M  V30 3066 H 303.573 -0.789792 -4.00283 0
M  V30 3067 H 302.248 -1.90135 -3.69894 0
M  V30 3068 H 300.825 -0.0701241 -3.72834 0
M  V30 3069 N 303.011 1.40521 -0.713556 0
M  V30 3070 C 304.257 2.01221 -0.252564 0
M  V30 3071 C 304.59 1.56444 1.1506 0
M  V30 3072 O 303.865 0.783597 1.78017 0
M  V30 3073 C 304.148 3.58582 -0.330332 0
M  V30 3074 C 304.001 4.13437 -1.77173 0
M  V30 3075 C 305.32 4.39079 0.299641 0
M  V30 3076 H 302.439 0.731077 -0.0932471 0
M  V30 3077 H 305.081 1.67026 -0.905673 0
M  V30 3078 H 303.231 3.87844 0.225737 0
M  V30 3079 H 304.903 3.9498 -2.38303 0
M  V30 3080 H 303.146 3.67801 -2.3001 0
M  V30 3081 H 303.817 5.22597 -1.77755 0
M  V30 3082 H 306.293 4.15735 -0.174139 0
M  V30 3083 H 305.169 5.4848 0.214771 0
M  V30 3084 H 305.43 4.19915 1.38288 0
M  V30 3085 N 304.489 0.459591 1.5075 0
M  V30 3086 C 305.419 -0.330644 2.31147 0
M  V30 3087 C 306.4 -1.00087 1.37538 0
M  V30 3088 O 307.585 -1.00025 1.66459 0
M  V30 3089 C 304.715 -1.41958 3.16962 0
M  V30 3090 C 303.669 -0.871608 4.19031 0
M  V30 3091 C 302.995 -2.05797 4.9351 0
M  V30 3092 C 304.295 0.109251 5.22186 0
M  V30 3093 H 305.989 0.340336 2.97459 0
M  V30 3094 H 303.535 0.165119 1.4305 0
M  V30 3095 H 305.488 -1.9798 3.71997 0
M  V30 3096 H 304.212 -2.11917 2.48513 0
M  V30 3097 H 302.871 -0.333442 3.6508 0
M  V30 3098 H 302.519 -2.74427 4.21544 0
M  V30 3099 H 302.219 -1.6976 5.62544 0
M  V30 3100 H 303.743 -2.62331 5.51375 0
M  V30 3101 H 305.157 -0.361405 5.7216 0
M  V30 3102 H 303.554 0.383316 5.98875 0
M  V30 3103 H 304.624 1.03887 4.73641 0
M  V30 3104 N 305.967 -1.56429 0.191757 0
M  V30 3105 C 307.195 -2.01867 -0.453586 0
M  V30 3106 C 307.61 -1.07191 -1.5542 0
M  V30 3107 O 306.967 -0.0762108 -1.82341 0
M  V30 3108 C 307.018 -3.47017 -1.013 0
M  V30 3109 O 306.739 -4.38078 0.0437005 0
M  V30 3110 C 308.24 -4.07956 -1.73456 0
M  V30 3111 H 305.46 -0.661211 -0.114199 0
M  V30 3112 H 308.004 -2.02295 0.299483 0
M  V30 3113 H 306.159 -3.47298 -1.71647 0
M  V30 3114 H 306.573 -5.23178 -0.372212 0
M  V30 3115 H 308.047 -5.1138 -2.07833 0
M  V30 3116 H 308.524 -3.51222 -2.63704 0
M  V30 3117 H 309.13 -4.11437 -1.07702 0
M  V30 3118 N 307.445 0.0818655 -1.57387 0
M  V30 3119 C 308.691 0.784074 -1.8703 0
M  V30 3120 C 309.024 1.77729 -0.782689 0
M  V30 3121 O 308.299 1.93384 0.208051 0
M  V30 3122 C 308.582 1.50105 -3.27323 0
M  V30 3123 C 308.435 0.524925 -4.46727 0
M  V30 3124 C 309.754 2.44843 -3.65705 0
M  V30 3125 H 306.873 0.283582 -0.680257 0
M  V30 3126 H 309.515 0.0474352 -1.89941 0
M  V30 3127 H 307.665 2.12897 -3.24972 0
M  V30 3128 H 309.337 -0.0970111 -4.61198 0
M  V30 3129 H 307.58 -0.160606 -4.33503 0
M  V30 3130 H 308.251 1.064 -5.41648 0
M  V30 3131 H 310.727 1.92135 -3.69085 0
M  V30 3132 H 309.603 2.92018 -4.64776 0
M  V30 3133 H 309.864 3.29197 -2.95096 0
M  V30 3134 N 308.923 1.53595 0.353017 0
M  V30 3135 C 309.853 1.83902 1.43883 0
M  V30 3136 C 310.834 0.693421 1.55324 0
M  V30 3137 O 312.019 0.944452 1.69687 0
M  V30 3138 C 309.149 2.04016 2.8106 0
M  V30 3139 C 308.103 3.19814 2.84434 0
M  V30 3140 C 307.429 3.25244 4.24406 0
M  V30 3141 C 308.729 4.58133 2.50822 0
M  V30 3142 H 310.423 2.74835 1.1877 0
M  V30 3143 H 307.969 1.32242 0.569917 0
M  V30 3144 H 309.922 2.238 3.57059 0
M  V30 3145 H 308.646 1.09804 3.07588 0
M  V30 3146 H 307.305 2.9987 2.10887 0
M  V30 3147 H 306.953 2.28646 4.48029 0
M  V30 3148 H 306.653 4.03054 4.27576 0
M  V30 3149 H 308.177 3.47228 5.0226 0
M  V30 3150 H 309.591 4.77995 3.16534 0
M  V30 3151 H 307.988 5.38276 2.6529 0
M  V30 3152 H 309.058 4.62387 1.46034 0
M  V30 3153 N 310.401 -0.613514 1.45168 0
M  V30 3154 C 311.351 -1.71871 1.49815 0
M  V30 3155 C 312.335 -1.56774 0.362021 0
M  V30 3156 O 313.527 -1.66212 0.608493 0
M  V30 3157 C 310.656 -3.1061 1.46207 0
M  V30 3158 C 309.742 -3.31114 2.64999 0
M  V30 3159 N 310.133 -3.21904 3.90143 0
M  V30 3160 C 308.431 -3.61966 2.6057 0
M  V30 3161 C 309.132 -3.43577 4.69393 0
M  V30 3162 N 308.108 -3.67287 4.00751 0
M  V30 3163 H 311.91 -1.63235 2.444 0
M  V30 3164 H 309.424 -0.816577 1.40377 0
M  V30 3165 H 311.421 -3.8989 1.4762 0
M  V30 3166 H 310.081 -3.20399 0.52673 0
M  V30 3167 H 311.092 -3.00436 4.21852 0
M  V30 3168 H 307.769 -3.78629 1.75916 0
M  V30 3169 H 309.159 -3.41901 5.78406 0
M  V30 3170 N 311.879 -1.3236 -0.855495 0
M  V30 3171 C 312.811 -1.17052 -1.97057 0
M  V30 3172 C 313.824 -0.10574 -1.62456 0
M  V30 3173 O 315.013 -0.354619 -1.74942 0
M  V30 3174 C 312.113 -0.769305 -3.30053 0
M  V30 3175 C 311.286 -1.9222 -3.929 0
M  V30 3176 C 310.345 -1.50466 -5.04228 0
M  V30 3177 O 309.371 -2.21655 -5.24269 0
M  V30 3178 N 310.573 -0.400209 -5.79119 0
M  V30 3179 H 313.338 -2.13103 -2.1073 0
M  V30 3180 H 310.899 -1.24885 -1.0303 0
M  V30 3181 H 312.891 -0.472407 -4.01933 0
M  V30 3182 H 311.461 0.100025 -3.1244 0
M  V30 3183 H 310.681 -2.38563 -3.13817 0
M  V30 3184 H 311.969 -2.69403 -4.31624 0
M  V30 3185 H 311.367 0.192319 -5.65373 0
M  V30 3186 H 309.924 -0.162912 -6.51596 0
M  V30 3187 N 313.357 1.07166 -1.15556 0
M  V30 3188 C 314.634 1.76546 -0.842069 0
M  V30 3189 C 315.014 2.00453 0.661939 0
M  V30 3190 O 314.362 1.62452 1.60691 0
M  V30 3191 C 314.572 3.07266 -1.65495 0
M  V30 3192 C 315.92 3.81578 -1.86234 0
M  V30 3193 O 316.944 3.17083 -1.62287 0
M  V30 3194 O 315.803 4.97419 -2.26355 0
M  V30 3195 H 312.897 0.766756 -0.309862 0
M  V30 3196 H 315.443 1.13514 -1.26145 0
M  V30 3197 H 314.215 2.85494 -2.67598 0
M  V30 3198 H 313.838 3.7803 -1.23203 0
M  V30 3199 N 314.835 0.952656 1.25548 0
M  V30 3200 C 316.081 0.616826 1.93822 0
M  V30 3201 C 316.436 -0.836684 1.73255 0
M  V30 3202 O 315.729 -1.59218 1.06584 0
M  V30 3203 C 315.923 0.908818 3.45652 0
M  V30 3204 C 315.752 2.38916 3.80984 0
M  V30 3205 C 314.522 3.04637 4.03143 0
M  V30 3206 C 316.72 3.36838 3.88645 0
M  V30 3207 N 314.702 4.42565 4.25453 0
M  V30 3208 C 316.073 4.60065 4.1562 0
M  V30 3209 C 318.128 3.31704 3.71318 0
M  V30 3210 C 316.831 5.78795 4.2707 0
M  V30 3211 C 318.857 4.4977 3.84006 0
M  V30 3212 C 318.219 5.71783 4.11392 0
M  V30 3213 H 314.318 0.27629 0.731565 0
M  V30 3214 H 316.902 1.22443 1.5138 0
M  V30 3215 H 315.073 0.330166 3.86994 0
M  V30 3216 H 316.805 0.533093 4.01174 0
M  V30 3217 H 313.56 2.55215 3.98952 0
M  V30 3218 H 313.984 5.1399 4.40617 0
M  V30 3219 H 318.626 2.3842 3.49164 0
M  V30 3220 H 316.344 6.72521 4.48041 0
M  V30 3221 H 319.93 4.47342 3.71989 0
M  V30 3222 H 318.81 6.61617 4.2099 0
M  V30 3223 N 316.313 -1.40141 0.720998 0
M  V30 3224 C 317.243 -2.33339 0.0867621 0
M  V30 3225 C 318.224 -1.53178 -0.739622 0
M  V30 3226 O 319.409 -1.81625 -0.687449 0
M  V30 3227 C 316.539 -3.37194 -0.831728 0
M  V30 3228 C 315.493 -4.27857 -0.110558 0
M  V30 3229 C 314.819 -5.22294 -1.14513 0
M  V30 3230 C 316.119 -5.11872 1.0385 0
M  V30 3231 H 317.813 -2.86626 0.865219 0
M  V30 3232 H 315.359 -1.37814 0.417516 0
M  V30 3233 H 317.312 -4.01335 -1.28485 0
M  V30 3234 H 316.036 -2.82314 -1.64214 0
M  V30 3235 H 314.695 -3.65176 0.322797 0
M  V30 3236 H 314.343 -4.63717 -1.94874 0
M  V30 3237 H 314.043 -5.83797 -0.667446 0
M  V30 3238 H 315.567 -5.89312 -1.59824 0
M  V30 3239 H 316.981 -5.69436 0.664482 0
M  V30 3240 H 315.378 -5.82445 1.4449 0
M  V30 3241 H 316.448 -4.4753 1.86668 0
M  V30 3242 N 317.792 -0.46758 -1.50504 0
M  V30 3243 C 318.74 0.342482 -2.30065 0
M  V30 3244 C 319.734 0.993596 -1.37201 0
M  V30 3245 O 320.94 0.925102 -1.54408 0
M  V30 3246 H 317.315 0.129283 -0.740803 0
M  V30 3247 H 319.286 -0.34899 -2.96352 0
M  V30 3248 C 318.035 1.4139 -3.17654 0
M  V30 3249 H 317.358 0.922264 -3.89017 0
M  V30 3250 H 318.798 1.95335 -3.76325 0
M  V30 3251 C 317.257 2.4139 -2.35016 0
M  V30 3252 O 317.787 3.46586 -2.03079 0
M  V30 3253 N 315.993 2.13021 -1.97662 0
M  V30 3254 H 315.54 1.27499 -2.23834 0
M  V30 3255 H 315.498 2.80164 -1.42673 0
M  V30 3256 N 319.27 1.56325 -0.20005 0
M  V30 3257 C 320.518 1.97329 0.436547 0
M  V30 3258 C 320.839 1.08826 1.61808 0
M  V30 3259 O 320.109 0.160604 1.95241 0
M  V30 3260 H 318.689 0.728714 0.164272 0
M  V30 3261 H 321.351 1.92761 -0.287937 0
M  V30 3262 H 320.447 3.02264 0.777353 0
M  V30 3263 N 320.748 -0.0735177 1.57428 0
M  V30 3264 C 321.695 -1.08756 2.0357 0
M  V30 3265 C 322.665 -1.38559 0.916 0
M  V30 3266 O 323.85 -1.49656 1.18354 0
M  V30 3267 C 320.99 -2.39657 2.48311 0
M  V30 3268 C 320.103 -2.16399 3.73892 0
M  V30 3269 C 319.238 -3.40852 4.07423 0
M  V30 3270 C 318.277 -3.1295 5.2605 0
M  V30 3271 N 317.414 -4.29729 5.55228 0
M  V30 3272 H 322.254 -0.687104 2.8997 0
M  V30 3273 H 319.791 -0.327709 1.43403 0
M  V30 3274 H 321.749 -3.16081 2.72303 0
M  V30 3275 H 320.379 -2.77508 1.64891 0
M  V30 3276 H 319.431 -1.30676 3.57251 0
M  V30 3277 H 320.743 -1.91788 4.60455 0
M  V30 3278 H 319.897 -4.25671 4.32306 0
M  V30 3279 H 318.636 -3.68537 3.19425 0
M  V30 3280 H 317.641 -2.26526 5.00965 0
M  V30 3281 H 318.866 -2.86589 6.15665 0
M  V30 3282 H 316.812 -4.57448 4.70188 0
M  V30 3283 H 316.729 -4.08385 6.36206 0
M  V30 3284 H 317.997 -5.1555 5.84661 0
M  V30 3285 N 322.226 -1.5378 -0.344866 0
M  V30 3286 C 323.136 -1.84667 -1.4469 0
M  V30 3287 C 324.152 -0.736704 -1.57635 0
M  V30 3288 O 325.328 -1.02888 -1.73136 0
M  V30 3289 C 322.393 -2.04869 -2.79696 0
M  V30 3290 C 321.454 -3.28731 -2.76106 0
M  V30 3291 C 320.687 -3.4796 -4.04673 0
M  V30 3292 O 320.91 -2.71052 -5.01883 0
M  V30 3293 O 319.844 -4.41383 -4.09224 0
M  V30 3294 H 323.67 -2.78334 -1.21506 0
M  V30 3295 H 321.255 -1.39418 -0.536921 0
M  V30 3296 H 323.137 -2.19609 -3.59652 0
M  V30 3297 H 321.812 -1.14391 -3.02814 0
M  V30 3298 H 320.719 -3.19396 -1.94774 0
M  V30 3299 H 322.052 -4.19198 -2.57941 0
M  V30 3300 N 323.704 0.605807 -1.45491 0
M  V30 3301 C 324.934 1.38934 -1.52908 0
M  V30 3302 C 325.342 1.88513 -0.161086 0
M  V30 3303 O 324.685 1.62962 0.847891 0
M  V30 3304 C 324.747 2.62737 -2.45376 0
M  V30 3305 C 324.411 2.34785 -3.92078 0
M  V30 3306 C 325.408 1.95038 -4.8193 0
M  V30 3307 C 323.093 2.47642 -4.37011 0
M  V30 3308 C 325.087 1.68511 -6.14722 0
M  V30 3309 C 322.774 2.20728 -5.69844 0
M  V30 3310 C 323.772 1.81225 -6.58519 0
M  V30 3311 O 323.46 1.54627 -7.88889 0
M  V30 3312 H 323.192 0.431629 -0.520262 0
M  V30 3313 H 325.746 0.74573 -1.91384 0
M  V30 3314 H 323.976 3.29824 -2.01874 0
M  V30 3315 H 325.665 3.24783 -2.43456 0
M  V30 3316 H 326.431 1.84639 -4.48479 0
M  V30 3317 H 322.31 2.77356 -3.68232 0
M  V30 3318 H 325.854 1.37602 -6.83894 0
M  V30 3319 H 321.751 2.30744 -6.02849 0
M  V30 3320 H 322.519 1.68665 -8.00933 0
M  V30 3321 N 325.182 1.32811 0.848464 0
M  V30 3322 C 326.129 1.22265 1.95755 0
M  V30 3323 C 327.099 0.103413 1.65778 0
M  V30 3324 O 328.284 0.280033 1.88734 0
M  V30 3325 C 325.424 0.958014 3.31536 0
M  V30 3326 C 324.537 2.16262 3.73971 0
M  V30 3327 C 323.672 1.83295 4.98575 0
M  V30 3328 C 322.711 3.00041 5.33518 0
M  V30 3329 N 321.848 2.67125 6.49299 0
M  V30 3330 H 326.688 2.17128 2.04107 0
M  V30 3331 H 324.225 1.07982 0.998913 0
M  V30 3332 H 326.183 0.785052 4.09747 0
M  V30 3333 H 324.813 0.046159 3.22767 0
M  V30 3334 H 323.865 2.44565 2.91362 0
M  V30 3335 H 325.177 3.03572 3.95785 0
M  V30 3336 H 324.331 1.62586 5.84509 0
M  V30 3337 H 323.07 0.932078 4.7871 0
M  V30 3338 H 322.075 3.21374 4.46093 0
M  V30 3339 H 323.3 3.90869 5.55336 0
M  V30 3340 H 321.246 1.79586 6.3094 0
M  V30 3341 H 321.163 3.47965 6.71161 0
M  V30 3342 H 322.431 2.49861 7.3837 0
M  V30 3343 N 326.66 -1.06551 1.16123 0
M  V30 3344 C 327.9 -1.80889 0.951766 0
M  V30 3345 C 328.264 -1.85062 -0.511465 0
M  V30 3346 O 329.465 -2.55353 -0.83954 0
M  V30 3347 C 327.736 -3.21609 1.55893 0
M  V30 3348 S 329.295 -4.12593 1.49373 0
M  V30 3349 H 326.113 -0.623156 0.342341 0
M  V30 3350 H 328.715 -1.27943 1.47821 0
M  V30 3351 H 327.419 -3.16165 2.61664 0
M  V30 3352 H 326.95 -3.79631 1.0317 0
M  V30 3353 H 328.965 -4.93753 0.492196 0
M  V30 3354 N 328.138 -0.959301 -1.25041 0
M  V30 3355 C 329.085 -0.482057 -2.2571 0
M  V30 3356 C 330.055 0.467939 -1.59372 0
M  V30 3357 O 331.24 0.380159 -1.86974 0
M  V30 3358 C 328.38 0.229623 -3.44335 0
M  V30 3359 C 327.493 -0.758156 -4.25295 0
M  V30 3360 C 326.628 -0.0234403 -5.31195 0
M  V30 3361 C 325.667 -1.00184 -6.03846 0
M  V30 3362 N 324.804 -0.29769 -7.01469 0
M  V30 3363 H 329.644 -1.34538 -2.65901 0
M  V30 3364 H 327.181 -0.674592 -1.3072 0
M  V30 3365 H 329.139 0.658856 -4.11965 0
M  V30 3366 H 327.769 1.05696 -3.05005 0
M  V30 3367 H 326.821 -1.30586 -3.57284 0
M  V30 3368 H 328.133 -1.50458 -4.75567 0
M  V30 3369 H 327.287 0.464201 -6.04922 0
M  V30 3370 H 326.026 0.755741 -4.81809 0
M  V30 3371 H 325.031 -1.50044 -5.2893 0
M  V30 3372 H 326.256 -1.78133 -6.55321 0
M  V30 3373 H 324.202 0.462668 -6.54366 0
M  V30 3374 H 324.119 -0.983128 -7.4958 0
M  V30 3375 H 325.387 0.16826 -7.79318 0
M  V30 3376 N 329.616 1.39756 -0.72842 0
M  V30 3377 C 330.862 2.00942 -0.273892 0
M  V30 3378 C 331.195 1.57656 1.13394 0
M  V30 3379 O 330.47 0.802434 1.77176 0
M  V30 3380 C 330.753 3.58211 -0.368346 0
M  V30 3381 C 330.606 4.11534 -1.81548 0
M  V30 3382 C 331.925 4.39372 0.253054 0
M  V30 3383 H 329.044 0.730047 -0.100996 0
M  V30 3384 H 331.686 1.66056 -0.923337 0
M  V30 3385 H 329.836 3.88061 0.184588 0
M  V30 3386 H 331.508 3.92431 -2.42478 0
M  V30 3387 H 329.751 3.65341 -2.33898 0
M  V30 3388 H 330.422 5.20682 -1.83288 0
M  V30 3389 H 332.898 4.15527 -0.218224 0
M  V30 3390 H 331.774 5.48677 0.156585 0
M  V30 3391 H 332.035 4.21358 1.33826 0
M  V30 3392 N 331.094 0.475555 1.50254 0
M  V30 3393 C 332.319 -0.0777042 2.07254 0
M  V30 3394 C 332.744 -1.3235 1.3366 0
M  V30 3395 O 332.102 -1.77152 0.385597 0
M  V30 3396 C 332.15 -0.340169 3.58992 0
M  V30 3397 O 331.254 -1.41982 3.87188 0
M  V30 3398 H 330.595 0.0149556 0.663832 0
M  V30 3399 H 333.125 0.667878 1.93392 0
M  V30 3400 H 333.135 -0.579332 4.03866 0
M  V30 3401 H 331.81 0.570167 4.11973 0
M  V30 3402 H 330.387 -1.16762 3.54148 0
M  V30 3403 N 332.573 -1.56217 0.208337 0
M  V30 3404 C 333.521 -2.21053 -0.723769 0
M  V30 3405 C 334.515 -1.18578 -1.20978 0
M  V30 3406 O 335.721 -1.36691 -1.17114 0
M  V30 3407 H 332.096 -0.708595 -0.251788 0
M  V30 3408 H 334.067 -2.98006 -0.153365 0
M  V30 3409 C 332.816 -2.89417 -1.927 0
M  V30 3410 H 332.139 -3.68019 -1.56212 0
M  V30 3411 H 333.579 -3.38201 -2.55727 0
M  V30 3412 C 332.038 -1.91166 -2.77411 0
M  V30 3413 O 332.568 -1.42026 -3.75754 0
M  V30 3414 N 330.774 -1.59105 -2.43175 0
M  V30 3415 H 330.321 -1.99259 -1.63259 0
M  V30 3416 H 330.279 -0.936255 -3.00136 0
M  V30 3417 N 334.051 0.0651679 -1.57465 0
M  V30 3418 C 334.998 1.07675 -2.04144 0
M  V30 3419 C 335.968 1.38071 -0.923335 0
M  V30 3420 O 337.153 1.49026 -1.19146 0
M  V30 3421 C 334.293 2.38337 -2.49579 0
M  V30 3422 C 333.406 2.14413 -3.75035 0
M  V30 3423 C 332.541 3.38686 -4.09225 0
M  V30 3424 C 331.58 3.10156 -5.27702 0
M  V30 3425 N 330.717 4.26778 -5.57499 0
M  V30 3426 H 335.557 0.671716 -2.90331 0
M  V30 3427 H 333.094 0.3201 -1.43575 0
M  V30 3428 H 335.052 3.14632 -2.73975 0
M  V30 3429 H 333.682 2.7663 -1.6636 0
M  V30 3430 H 332.734 1.2878 -3.57939 0
M  V30 3431 H 334.046 1.89344 -4.61466 0
M  V30 3432 H 333.2 4.23373 -4.34558 0
M  V30 3433 H 331.939 3.66837 -3.21374 0
M  V30 3434 H 330.944 2.23866 -5.02159 0
M  V30 3435 H 332.169 2.8332 -6.17176 0
M  V30 3436 H 330.115 4.54948 -4.72608 0
M  V30 3437 H 330.032 4.05005 -6.38362 0
M  V30 3438 H 331.3 5.12443 -5.87386 0
M  V30 3439 N 335.529 1.53961 0.336706 0
M  V30 3440 C 336.492 1.81724 1.39675 0
M  V30 3441 C 337.492 0.688532 1.45313 0
M  V30 3442 O 338.682 0.956829 1.45569 0
M  V30 3443 C 335.814 1.96543 2.78538 0
M  V30 3444 H 337.007 2.76424 1.16318 0
M  V30 3445 H 334.56 1.45478 0.571474 0
M  V30 3446 H 335.295 1.0401 3.07168 0
M  V30 3447 H 335.08 2.78665 2.75841 0
M  V30 3448 H 336.57 2.19516 3.5525 0
M  V30 3449 N 337.007 -0.598083 1.45811 0
M  V30 3450 C 337.937 -1.71873 1.58057 0
M  V30 3451 C 338.918 -1.64533 0.431615 0
M  V30 3452 O 340.103 -1.82787 0.65595 0
M  V30 3453 C 337.233 -3.10495 1.55597 0
M  V30 3454 C 336.187 -3.32654 2.69305 0
M  V30 3455 C 335.513 -4.71646 2.51902 0
M  V30 3456 C 336.813 -3.21981 4.11248 0
M  V30 3457 H 338.507 -1.61881 2.51863 0
M  V30 3458 H 336.053 -0.777372 1.21214 0
M  V30 3459 H 338.006 -3.88699 1.6276 0
M  V30 3460 H 336.73 -3.2135 0.583255 0
M  V30 3461 H 335.389 -2.56843 2.61586 0
M  V30 3462 H 335.037 -4.79246 1.52748 0
M  V30 3463 H 334.737 -4.87426 3.2816 0
M  V30 3464 H 336.261 -5.52038 2.60933 0
M  V30 3465 H 337.675 -3.90049 4.20161 0
M  V30 3466 H 336.072 -3.49289 4.87972 0
M  V30 3467 H 337.142 -2.1928 4.32486 0
M  V30 3468 N 338.485 -1.33259 -0.841409 0
M  V30 3469 C 339.896 -1.22066 -1.41269 0
M  V30 3470 C 340.247 0.161479 -1.95534 0
M  V30 3471 O 339.372 1.06094 -1.88608 0
M  V30 3472 C 339.967 -2.20996 -2.568 0
M  V30 3473 C 338.526 -2.13649 -3.09888 0
M  V30 3474 C 337.673 -2.08623 -1.82679 0
M  V30 3475 H 340.624 -1.44895 -0.647395 0
M  V30 3476 H 340.645 -1.81621 -3.34356 0
M  V30 3477 H 340.157 -3.2158 -2.17274 0
M  V30 3478 H 338.258 -1.16359 -3.53965 0
M  V30 3479 H 338.371 -3.04079 -3.70234 0
M  V30 3480 H 336.735 -1.54061 -2.02824 0
M  V30 3481 H 337.518 -3.1101 -1.45353 0
M  V30 3482 N 339.963 1.05934 -1.16686 0
M  V30 3483 C 340.926 2.11669 -0.879144 0
M  V30 3484 C 341.926 1.60294 0.127445 0
M  V30 3485 O 343.116 1.7389 -0.103865 0
M  V30 3486 C 340.248 3.39438 -0.315425 0
M  V30 3487 H 341.441 2.38626 -1.81653 0
M  V30 3488 H 338.994 1.22058 -0.976299 0
M  V30 3489 H 339.729 3.18132 0.629468 0
M  V30 3490 H 339.514 3.78034 -1.04079 0
M  V30 3491 H 341.004 4.17391 -0.132189 0
M  V30 3492 N 341.441 0.965919 1.2453 0
M  V30 3493 C 342.852 0.665929 1.7442 0
M  V30 3494 C 343.203 -0.818407 1.78316 0
M  V30 3495 O 342.328 -1.64037 1.41141 0
M  V30 3496 C 342.923 1.20211 3.16757 0
M  V30 3497 C 341.482 0.952059 3.6416 0
M  V30 3498 C 340.629 1.33848 2.42858 0
M  V30 3499 H 343.58 1.14144 1.10258 0
M  V30 3500 H 343.601 0.567544 3.76244 0
M  V30 3501 H 343.113 2.28244 3.13889 0
M  V30 3502 H 341.214 -0.112821 3.72429 0
M  V30 3503 H 341.327 1.59645 4.51719 0
M  V30 3504 H 339.691 0.756864 2.43195 0
M  V30 3505 H 340.474 2.42827 2.42673 0
M  V30 3506 N 342.919 -1.39368 0.735821 0
M  V30 3507 C 344.168 -1.99733 0.281004 0
M  V30 3508 C 344.481 -1.59055 -1.13846 0
M  V30 3509 O 345.687 -2.12262 -1.69284 0
M  V30 3510 C 344.143 -3.57057 0.451462 0
M  V30 3511 C 343.751 -4.06697 1.87886 0
M  V30 3512 C 345.495 -4.2446 0.0584616 0
M  V30 3513 C 343.402 -5.56598 1.99883 0
M  V30 3514 H 342.332 -0.747163 0.101311 0
M  V30 3515 H 344.983 -1.59357 0.909819 0
M  V30 3516 H 343.365 -3.95234 -0.246263 0
M  V30 3517 H 344.539 -3.79853 2.60861 0
M  V30 3518 H 342.854 -3.5196 2.22515 0
M  V30 3519 H 345.451 -5.34549 0.127099 0
M  V30 3520 H 345.794 -4.04444 -0.986433 0
M  V30 3521 H 346.327 -3.9146 0.707374 0
M  V30 3522 H 343.066 -5.81494 3.02564 0
M  V30 3523 H 342.586 -5.85242 1.31346 0
M  V30 3524 H 344.265 -6.22022 1.78039 0
M  V30 3525 N 344.397 -0.483516 -1.5 0
M  V30 3526 C 345.307 0.309172 -2.32554 0
M  V30 3527 C 346.323 0.984159 -1.43493 0
M  V30 3528 O 347.499 0.969399 -1.76535 0
M  V30 3529 C 344.564 1.36979 -3.18493 0
M  V30 3530 C 343.625 0.710095 -4.23387 0
M  V30 3531 C 342.858 1.72018 -5.05218 0
M  V30 3532 O 343.081 2.94813 -4.88305 0
M  V30 3533 O 342.015 1.28515 -5.8802 0
M  V30 3534 H 345.841 -0.366064 -3.01486 0
M  V30 3535 H 343.426 -0.24514 -1.47375 0
M  V30 3536 H 345.308 1.98385 -3.71781 0
M  V30 3537 H 343.983 2.02828 -2.52275 0
M  V30 3538 H 342.89 0.0567539 -3.74057 0
M  V30 3539 H 344.223 0.0943557 -4.9211 0
M  V30 3540 N 345.875 1.56104 -0.216619 0
M  V30 3541 C 346.822 2.2007 0.695531 0
M  V30 3542 C 347.792 1.15471 1.19397 0
M  V30 3543 O 348.977 1.43807 1.25396 0
M  V30 3544 C 346.117 2.88073 1.90021 0
M  V30 3545 C 345.23 4.07253 1.44113 0
M  V30 3546 C 344.365 4.63052 2.603 0
M  V30 3547 C 343.404 5.74545 2.11103 0
M  V30 3548 N 342.541 6.24656 3.20545 0
M  V30 3549 H 347.381 2.97655 0.143327 0
M  V30 3550 H 344.918 1.46982 0.0589934 0
M  V30 3551 H 346.876 3.25681 2.60745 0
M  V30 3552 H 345.506 2.13015 2.42538 0
M  V30 3553 H 344.558 3.75164 0.628999 0
M  V30 3554 H 345.87 4.8783 1.04036 0
M  V30 3555 H 345.024 5.03078 3.39113 0
M  V30 3556 H 343.763 3.81628 3.03663 0
M  V30 3557 H 342.768 5.34027 1.3075 0
M  V30 3558 H 343.993 6.57801 1.68746 0
M  V30 3559 H 341.939 5.46148 3.63399 0
M  V30 3560 H 341.856 7.00343 2.84704 0
M  V30 3561 H 343.124 6.69338 3.99508 0
M  V30 3562 N 347.353 -0.0568162 1.57498 0
M  V30 3563 C 348.581 -0.765626 1.92213 0
M  V30 3564 C 348.996 -1.70353 0.813961 0
M  V30 3565 O 348.353 -1.81268 -0.211701 0
M  V30 3566 C 348.404 -1.5465 3.2675 0
M  V30 3567 O 348.125 -0.646278 4.33307 0
M  V30 3568 C 349.626 -2.35497 3.75574 0
M  V30 3569 H 346.846 -0.216835 0.634999 0
M  V30 3570 H 349.39 -0.0226146 2.04487 0
M  V30 3571 H 347.545 -2.24165 3.15957 0
M  V30 3572 H 347.959 -1.19093 5.108 0
M  V30 3573 H 349.433 -2.85722 4.72299 0
M  V30 3574 H 349.91 -3.15692 3.05344 0
M  V30 3575 H 350.516 -1.7111 3.8936 0
M  V30 3576 N 348.832 -1.54138 -0.328536 0
M  V30 3577 C 350.081 -1.71318 -1.06456 0
M  V30 3578 C 350.394 -0.491109 -1.89334 0
M  V30 3579 O 351.6 -0.54416 -2.65991 0
M  V30 3580 C 350.056 -3.03 -1.94214 0
M  V30 3581 C 349.664 -4.32595 -1.16471 0
M  V30 3582 C 351.408 -3.29544 -2.67583 0
M  V30 3583 C 349.315 -5.55341 -2.03347 0
M  V30 3584 H 348.245 -0.638429 -0.401155 0
M  V30 3585 H 350.896 -1.80633 -0.323106 0
M  V30 3586 H 349.278 -2.87579 -2.72239 0
M  V30 3587 H 350.452 -4.58766 -0.432525 0
M  V30 3588 H 348.767 -4.12777 -0.548063 0
M  V30 3589 H 351.364 -4.18444 -3.3288 0
M  V30 3590 H 351.707 -2.47206 -3.34955 0
M  V30 3591 H 352.24 -3.45809 -1.96623 0
M  V30 3592 H 348.979 -6.40268 -1.40491 0
M  V30 3593 H 348.499 -5.33397 -2.74313 0
M  V30 3594 H 350.178 -5.91557 -2.62049 0
M  V30 3595 N 350.31 0.590341 -1.46126 0
M  V30 3596 C 351.535 1.37991 -1.54833 0
M  V30 3597 C 351.96 1.87163 -0.187506 0
M  V30 3598 O 351.318 1.61133 0.831008 0
M  V30 3599 C 351.366 2.54867 -2.55098 0
M  V30 3600 O 350.47 3.56061 -2.08073 0
M  V30 3601 H 349.811 0.411265 -0.521303 0
M  V30 3602 H 352.341 0.716819 -1.91632 0
M  V30 3603 H 352.351 3.01886 -2.74461 0
M  V30 3604 H 351.026 2.18429 -3.53923 0
M  V30 3605 H 349.603 3.15574 -1.98664 0
M  V30 3606 N 351.788 1.33704 0.83433 0
M  V30 3607 C 352.735 1.24335 1.94447 0
M  V30 3608 C 353.705 0.120991 1.65659 0
M  V30 3609 O 354.89 0.300035 1.88426 0
M  V30 3610 C 352.03 0.993124 3.30501 0
M  V30 3611 C 351.143 2.20217 3.71657 0
M  V30 3612 C 350.278 1.88572 4.96602 0
M  V30 3613 C 349.317 3.05683 5.30306 0
M  V30 3614 N 348.454 2.73997 6.46429 0
M  V30 3615 H 353.294 2.1928 2.01792 0
M  V30 3616 H 350.831 1.09035 0.987404 0
M  V30 3617 H 352.789 0.828467 4.08892 0
M  V30 3618 H 351.419 0.0803902 3.227 0
M  V30 3619 H 350.471 2.47642 2.88752 0
M  V30 3620 H 351.783 3.07752 3.92543 0
M  V30 3621 H 350.937 1.68776 5.82752 0
M  V30 3622 H 349.676 0.982799 4.77695 0
M  V30 3623 H 348.681 3.26088 4.42659 0
M  V30 3624 H 349.906 3.96737 5.51159 0
M  V30 3625 H 347.852 1.86268 6.28999 0
M  V30 3626 H 347.769 3.55064 6.67432 0
M  V30 3627 H 349.037 2.57679 7.35678 0
M  V30 3628 N 353.266 -1.05314 1.17247 0
M  V30 3629 C 354.229 -2.112 0.890357 0
M  V30 3630 C 355.229 -1.60359 -0.118943 0
M  V30 3631 O 356.419 -1.73833 0.113086 0
M  V30 3632 C 353.551 -3.39266 0.333422 0
M  V30 3633 H 354.744 -2.37659 1.82916 0
M  V30 3634 H 352.297 -1.21538 0.982758 0
M  V30 3635 H 353.032 -3.18462 -0.612587 0
M  V30 3636 H 352.817 -3.77477 1.06082 0
M  V30 3637 H 354.307 -4.17315 0.154322 0
M  V30 3638 N 354.744 -0.972509 -1.24016 0
M  V30 3639 C 355.691 -0.505969 -2.25186 0
M  V30 3640 C 356.661 0.451009 -1.5986 0
M  V30 3641 O 357.846 0.360307 -1.87367 0
M  V30 3642 C 354.986 0.193089 -3.44559 0
M  V30 3643 C 354.099 -0.803222 -4.24467 0
M  V30 3644 C 353.234 -0.0797793 -5.3114 0
M  V30 3645 C 352.273 -1.06583 -6.02749 0
M  V30 3646 N 351.41 -0.372074 -7.01113 0
M  V30 3647 H 356.25 -1.37351 -2.64459 0
M  V30 3648 H 353.787 -0.688419 -1.29997 0
M  V30 3649 H 355.745 0.615125 -4.1264 0
M  V30 3650 H 354.375 1.02455 -3.06109 0
M  V30 3651 H 353.427 -1.34368 -3.55878 0
M  V30 3652 H 354.739 -1.55494 -4.73944 0
M  V30 3653 H 353.893 0.400015 -6.0538 0
M  V30 3654 H 352.632 0.704597 -4.82583 0
M  V30 3655 H 351.637 -1.55645 -5.27309 0
M  V30 3656 H 352.862 -1.85074 -6.53395 0
M  V30 3657 H 350.808 0.393238 -6.5482 0
M  V30 3658 H 350.725 -1.06258 -7.48495 0
M  V30 3659 H 351.993 0.0855932 -7.79453 0
M  V30 3660 N 356.222 1.38976 -0.743202 0
M  V30 3661 C 357.47 1.99948 -0.29417 0
M  V30 3662 C 357.791 1.59279 1.12495 0
M  V30 3663 O 357.061 0.844808 1.76748 0
M  V30 3664 H 355.641 0.739473 -0.105774 0
M  V30 3665 H 358.303 1.699 -0.954986 0
M  V30 3666 H 357.399 3.10142 -0.349056 0
M  V30 3667 N 357.7 0.491464 1.49741 0
M  V30 3668 C 358.632 -0.328609 2.26832 0
M  V30 3669 C 359.645 -0.939113 1.32983 0
M  V30 3670 O 360.834 -0.824067 1.58339 0
M  V30 3671 C 357.934 -1.47675 3.05033 0
M  V30 3672 C 357.107 -0.975305 4.26388 0
M  V30 3673 C 356.166 -1.99991 4.86714 0
M  V30 3674 O 355.192 -1.57229 5.47054 0
M  V30 3675 N 356.394 -3.32962 4.75517 0
M  V30 3676 H 359.159 0.332377 2.97851 0
M  V30 3677 H 356.72 0.323441 1.58636 0
M  V30 3678 H 358.712 -2.15954 3.42266 0
M  V30 3679 H 357.282 -2.04206 2.36683 0
M  V30 3680 H 356.502 -0.117723 3.94024 0
M  V30 3681 H 357.79 -0.618531 5.05026 0
M  V30 3682 H 357.188 -3.70399 4.27576 0
M  V30 3683 H 355.745 -3.96982 5.16961 0
M  V30 3684 N 359.178 -1.55987 0.224894 0
M  V30 3685 C 360.589 -1.84553 -0.282345 0
M  V30 3686 C 360.94 -1.14634 -1.59227 0
M  V30 3687 O 360.065 -0.417155 -2.12341 0
M  V30 3688 C 360.66 -3.348 -0.519062 0
M  V30 3689 C 359.219 -3.63671 -0.970604 0
M  V30 3690 C 358.366 -2.77277 -0.0355261 0
M  V30 3691 H 361.317 -1.52245 0.448006 0
M  V30 3692 H 361.338 -3.55187 -1.36463 0
M  V30 3693 H 360.85 -3.8566 0.43449 0
M  V30 3694 H 358.951 -3.1827 -1.9374 0
M  V30 3695 H 359.064 -4.71631 -0.842698 0
M  V30 3696 H 357.428 -2.48846 -0.542927 0
M  V30 3697 H 358.211 -3.30937 0.913003 0
M  V30 3698 N 360.656 0.0484629 -1.57525 0
M  V30 3699 C 362.072 0.40375 -1.54409 0
M  V30 3700 C 362.272 1.77786 -0.948384 0
M  V30 3701 O 361.328 2.46189 -0.560983 0
M  V30 3702 C 362.641 0.323394 -2.98956 0
M  V30 3703 C 364.189 0.401892 -3.10409 0
M  V30 3704 C 364.664 0.351195 -4.56652 0
M  V30 3705 N 366.155 0.410576 -4.61377 0
M  V30 3706 C 366.89 0.393933 -5.72045 0
M  V30 3707 N 366.386 0.330724 -6.9201 0
M  V30 3708 N 368.179 0.442227 -5.60358 0
M  V30 3709 H 360.33 -0.851016 -1.94606 0
M  V30 3710 H 362.593 -0.321721 -0.89174 0
M  V30 3711 H 362.299 -0.62011 -3.4619 0
M  V30 3712 H 362.173 1.12463 -3.60044 0
M  V30 3713 H 364.56 1.33582 -2.63134 0
M  V30 3714 H 364.641 -0.428342 -2.52188 0
M  V30 3715 H 364.285 -0.578987 -5.04589 0
M  V30 3716 H 364.215 1.19928 -5.12762 0
M  V30 3717 H 366.706 0.462729 -3.75056 0
M  V30 3718 H 367.019 0.322592 -7.72126 0
M  V30 3719 H 365.364 0.29706 -6.94365 0
M  V30 3720 H 368.555 0.489464 -4.65534 0
M  V30 3721 H 368.728 0.425788 -6.466 0
M  V30 3722 N 362.134 1.5431 0.320358 0
M  V30 3723 C 363.044 1.86946 1.41734 0
M  V30 3724 C 364.06 0.761689 1.56443 0
M  V30 3725 O 365.236 1.05629 1.71477 0
M  V30 3726 C 362.301 2.09293 2.76401 0
M  V30 3727 C 361.362 3.33082 2.70841 0
M  V30 3728 C 360.595 3.54353 3.99086 0
M  V30 3729 O 360.818 2.79002 4.97508 0
M  V30 3730 O 359.752 4.47838 4.0215 0
M  V30 3731 H 363.578 2.80232 1.17062 0
M  V30 3732 H 361.163 1.40255 0.514673 0
M  V30 3733 H 363.045 2.25303 3.56113 0
M  V30 3734 H 361.72 1.19194 3.00956 0
M  V30 3735 H 360.627 3.22454 1.89668 0
M  V30 3736 H 361.96 4.23249 2.5124 0
M  V30 3737 N 363.613 -0.582584 1.46437 0
M  V30 3738 C 365.024 -1.1647 1.45916 0
M  V30 3739 C 365.375 -1.95177 0.200077 0
M  V30 3740 O 364.5 -2.04874 -0.696819 0
M  V30 3741 C 365.095 -2.11885 2.64367 0
M  V30 3742 C 363.654 -2.65421 2.66887 0
M  V30 3743 C 362.801 -1.41294 2.38603 0
M  V30 3744 H 365.752 -0.370514 1.54314 0
M  V30 3745 H 365.773 -2.9535 2.39892 0
M  V30 3746 H 365.285 -1.54573 3.5599 0
M  V30 3747 H 363.386 -3.26602 1.79338 0
M  V30 3748 H 363.499 -3.08147 3.66854 0
M  V30 3749 H 361.863 -1.71109 1.88663 0
M  V30 3750 H 362.646 -0.858125 3.32402 0
M  V30 3751 N 365.091 -1.34144 -0.827227 0
M  V30 3752 C 366.023 -1.21206 -1.9453 0
M  V30 3753 C 367.036 -0.140176 -1.62195 0
M  V30 3754 O 368.225 -0.391647 -1.7415 0
M  V30 3755 C 365.325 -0.839141 -3.28347 0
M  V30 3756 C 364.498 -2.0051 -3.88734 0
M  V30 3757 C 363.557 -1.61128 -5.00923 0
M  V30 3758 O 362.583 -2.32726 -5.19449 0
M  V30 3759 N 363.785 -0.522958 -5.7814 0
M  V30 3760 H 366.55 -2.17525 -2.06162 0
M  V30 3761 H 364.111 -1.27043 -1.00358 0
M  V30 3762 H 366.103 -0.557556 -4.00841 0
M  V30 3763 H 364.673 0.0337293 -3.12582 0
M  V30 3764 H 363.893 -2.45166 -3.08686 0
M  V30 3765 H 365.181 -2.78498 -4.25812 0
M  V30 3766 H 364.579 0.0723518 -5.65654 0
M  V30 3767 H 363.136 -0.301089 -6.51104 0
M  V30 3768 N 366.569 1.04691 -1.17803 0
M  V30 3769 C 367.815 1.78045 -0.970969 0
M  V30 3770 C 368.148 1.87686 0.498751 0
M  V30 3771 O 367.423 1.38035 1.37027 0
M  V30 3772 C 367.706 3.2166 -1.61884 0
M  V30 3773 C 367.559 3.20001 -3.161 0
M  V30 3774 C 368.878 4.1962 -1.3269 0
M  V30 3775 H 365.997 0.64633 -0.354155 0
M  V30 3776 H 368.639 1.22333 -1.45378 0
M  V30 3777 H 366.789 3.69232 -1.20831 0
M  V30 3778 H 368.461 2.80467 -3.66246 0
M  V30 3779 H 366.704 2.58203 -3.48588 0
M  V30 3780 H 367.375 4.21386 -3.56564 0
M  V30 3781 H 369.851 3.80567 -1.68249 0
M  V30 3782 H 368.727 5.18339 -1.80599 0
M  V30 3783 H 368.988 4.414 -0.248622 0
M  V30 3784 N 368.047 0.979072 1.23499 0
M  V30 3785 C 369.277 0.664237 1.95631 0
M  V30 3786 C 369.685 -0.772653 1.72704 0
M  V30 3787 O 369.028 -1.53141 1.01457 0
M  V30 3788 C 369.09 0.873115 3.48736 0
M  V30 3789 C 368.754 2.29182 3.95379 0
M  V30 3790 C 369.751 3.2704 4.04155 0
M  V30 3791 C 367.436 2.62256 4.28401 0
M  V30 3792 C 369.43 4.56052 4.45304 0
M  V30 3793 C 367.117 3.91491 4.69231 0
M  V30 3794 C 368.115 4.88201 4.77649 0
M  V30 3795 O 367.803 6.15129 5.17563 0
M  V30 3796 H 367.535 0.245915 0.629684 0
M  V30 3797 H 370.089 1.3127 1.57979 0
M  V30 3798 H 368.319 0.167476 3.86337 0
M  V30 3799 H 370.008 0.555642 4.02079 0
M  V30 3800 H 370.774 3.02819 3.78848 0
M  V30 3801 H 366.653 1.87692 4.21061 0
M  V30 3802 H 370.197 5.31538 4.51789 0
M  V30 3803 H 366.094 4.15508 4.93987 0
M  V30 3804 H 366.862 6.18862 5.35679 0
M  V30 3805 N 369.525 -1.3858 0.750561 0
M  V30 3806 C 370.753 -2.04471 0.316098 0
M  V30 3807 C 371.168 -1.56606 -1.05452 0
M  V30 3808 O 370.525 -0.737784 -1.66922 0
M  V30 3809 C 370.576 -3.60025 0.326275 0
M  V30 3810 O 370.297 -4.06133 1.6428 0
M  V30 3811 C 371.798 -4.43131 -0.122429 0
M  V30 3812 H 369.018 -0.65717 0.135528 0
M  V30 3813 H 371.562 -1.77329 1.01857 0
M  V30 3814 H 369.717 -3.86014 -0.327431 0
M  V30 3815 H 370.131 -5.00547 1.56693 0
M  V30 3816 H 371.605 -5.51963 -0.0641473 0
M  V30 3817 H 372.082 -4.23333 -1.16988 0
M  V30 3818 H 372.688 -4.22323 0.50229 0
M  V30 3819 N 371.003 -0.499398 -1.49478 0
M  V30 3820 C 371.933 0.269244 -2.31943 0
M  V30 3821 C 372.914 0.964054 -1.40143 0
M  V30 3822 O 374.099 0.955767 -1.69052 0
M  V30 3823 C 371.229 1.33504 -3.20615 0
M  V30 3824 C 370.183 0.760202 -4.21195 0
M  V30 3825 C 369.509 1.9264 -4.98792 0
M  V30 3826 C 370.809 -0.247661 -5.21712 0
M  V30 3827 H 372.503 -0.419082 -2.96452 0
M  V30 3828 H 370.049 -0.202988 -1.42562 0
M  V30 3829 H 372.002 1.88048 -3.77115 0
M  V30 3830 H 370.726 2.05253 -2.54045 0
M  V30 3831 H 369.385 0.23653 -3.65836 0
M  V30 3832 H 369.033 2.63154 -4.28671 0
M  V30 3833 H 368.733 1.54785 -5.66847 0
M  V30 3834 H 370.257 2.4762 -5.58137 0
M  V30 3835 H 371.671 0.209579 -5.72917 0
M  V30 3836 H 370.068 -0.541962 -5.97648 0
M  V30 3837 H 371.138 -1.16409 -4.7072 0
M  V30 3838 N 372.481 1.55866 -0.233164 0
M  V30 3839 C 373.892 1.847 0.272554 0
M  V30 3840 C 374.243 1.15477 1.58617 0
M  V30 3841 O 373.368 0.42841 2.12117 0
M  V30 3842 C 373.963 3.35071 0.501299 0
M  V30 3843 C 372.522 3.6418 0.951304 0
M  V30 3844 C 371.669 2.77292 0.0208209 0
M  V30 3845 H 374.62 1.52005 -0.456074 0
M  V30 3846 H 374.641 3.55906 1.34577 0
M  V30 3847 H 374.153 3.85424 -0.454936 0
M  V30 3848 H 372.254 3.19293 1.92049 0
M  V30 3849 H 372.367 4.72071 0.817675 0
M  V30 3850 H 370.731 2.49131 0.529723 0
M  V30 3851 H 371.514 3.30448 -0.93054 0
M  V30 3852 N 373.959 -0.0401083 1.57549 0
M  V30 3853 C 375.37 -0.588097 1.77196 0
M  V30 3854 C 375.721 -1.76209 0.862832 0
M  V30 3855 O 374.846 -2.16331 0.0548389 0
M  V30 3856 C 375.441 -1.07363 3.21339 0
M  V30 3857 C 374 -1.56723 3.42221 0
M  V30 3858 C 373.147 -0.50041 2.72747 0
M  V30 3859 H 376.098 0.186119 1.57605 0
M  V30 3860 H 376.119 -1.94143 3.27244 0
M  V30 3861 H 375.631 -0.218975 3.87482 0
M  V30 3862 H 373.732 -2.4441 2.81237 0
M  V30 3863 H 373.845 -1.62234 4.50796 0
M  V30 3864 H 372.209 -0.952894 2.36203 0
M  V30 3865 H 372.992 0.344599 3.41566 0
M  V30 3866 N 375.437 -1.54477 -0.31217 0
M  V30 3867 C 376.662 -1.77526 -1.07235 0
M  V30 3868 C 377.087 -0.527775 -1.80544 0
M  V30 3869 O 376.445 0.52121 -1.73646 0
M  V30 3870 C 376.493 -2.97535 -2.03728 0
M  V30 3871 O 375.597 -2.69878 -3.11833 0
M  V30 3872 H 374.938 -0.58792 -0.30862 0
M  V30 3873 H 377.468 -2.01532 -0.352993 0
M  V30 3874 H 377.478 -3.25198 -2.46395 0
M  V30 3875 H 376.153 -3.87996 -1.49774 0
M  V30 3876 H 374.73 -2.53199 -2.7376 0
M  V30 3877 N 376.915 0.57481 -1.46744 0
M  V30 3878 C 378.331 0.898981 -1.31873 0
M  V30 3879 C 378.531 1.99313 -0.29605 0
M  V30 3880 O 377.587 2.50728 0.298621 0
M  V30 3881 C 378.9 1.30886 -2.7072 0
M  V30 3882 C 380.448 1.42127 -2.78871 0
M  V30 3883 C 380.923 1.86478 -4.18318 0
M  V30 3884 N 382.414 1.93658 -4.20774 0
M  V30 3885 C 383.149 2.29267 -5.2557 0
M  V30 3886 N 382.645 2.63612 -6.40688 0
M  V30 3887 N 384.438 2.29889 -5.1294 0
M  V30 3888 H 376.589 -0.147839 -2.11885 0
M  V30 3889 H 378.852 -0.00347013 -0.947994 0
M  V30 3890 H 378.558 0.578853 -3.46904 0
M  V30 3891 H 378.432 2.26874 -3.01343 0
M  V30 3892 H 380.819 2.14213 -2.0297 0
M  V30 3893 H 380.9 0.443705 -2.51922 0
M  V30 3894 H 380.544 1.14968 -4.94717 0
M  V30 3895 H 380.474 2.85207 -4.42679 0
M  V30 3896 H 382.965 1.69574 -3.37718 0
M  V30 3897 H 383.278 2.89759 -7.16421 0
M  V30 3898 H 381.623 2.61232 -6.44036 0
M  V30 3899 H 384.814 2.02485 -4.22039 0
M  V30 3900 H 384.987 2.57312 -5.94722 0
M  V30 3901 N 378.394 1.34581 0.820102 0
M  V30 3902 C 379.304 1.28471 1.96297 0
M  V30 3903 C 380.32 0.191902 1.72939 0
M  V30 3904 O 381.496 0.418879 1.96996 0
M  V30 3905 C 378.561 1.04281 3.30645 0
M  V30 3906 C 377.622 2.22745 3.66992 0
M  V30 3907 C 376.855 1.997 4.9493 0
M  V30 3908 O 377.078 0.956656 5.6232 0
M  V30 3909 O 376.012 2.86723 5.2922 0
M  V30 3910 H 379.838 2.24624 2.04396 0
M  V30 3911 H 377.423 1.14816 0.955913 0
M  V30 3912 H 379.305 0.925841 4.11104 0
M  V30 3913 H 377.98 0.111697 3.23507 0
M  V30 3914 H 376.887 2.40003 2.86966 0
M  V30 3915 H 378.22 3.14257 3.78819 0
M  V30 3916 N 379.872 -1.04064 1.18357 0
M  V30 3917 C 380.782 -2.15569 0.925596 0
M  V30 3918 C 381.798 -1.7365 -0.110295 0
M  V30 3919 O 382.974 -2.01273 0.0716218 0
M  V30 3920 C 380.039 -3.43704 0.454836 0
M  V30 3921 C 379.1 -4.00004 1.55869 0
M  V30 3922 C 378.333 -5.22023 1.1103 0
M  V30 3923 O 378.556 -5.70392 -0.0309756 0
M  V30 3924 O 377.49 -5.70856 1.90805 0
M  V30 3925 H 381.316 -2.40187 1.8586 0
M  V30 3926 H 378.901 -1.1402 0.965394 0
M  V30 3927 H 380.783 -4.20923 0.200382 0
M  V30 3928 H 379.458 -3.20559 -0.449876 0
M  V30 3929 H 378.365 -3.24172 1.86716 0
M  V30 3930 H 379.698 -4.2749 2.43953 0
M  V30 3931 N 381.35 -0.985608 -1.22978 0
M  V30 3932 C 382.283 -0.47487 -2.23204 0
M  V30 3933 C 383.261 0.460865 -1.55932 0
M  V30 3934 O 384.445 0.388105 -1.84461 0
M  V30 3935 C 381.572 0.312427 -3.37256 0
M  V30 3936 C 380.618 -0.568219 -4.22698 0
M  V30 3937 S 381.451 -2.01919 -4.95973 0
M  V30 3938 C 382.607 -1.24118 -6.1347 0
M  V30 3939 H 382.84 -1.32419 -2.66181 0
M  V30 3940 H 380.373 -0.792005 -1.32539 0
M  V30 3941 H 382.331 0.760645 -4.03391 0
M  V30 3942 H 380.992 1.13693 -2.92801 0
M  V30 3943 H 380.185 0.0371657 -5.03986 0
M  V30 3944 H 379.787 -0.952897 -3.61657 0
M  V30 3945 H 382.079 -0.505121 -6.75614 0
M  V30 3946 H 383.022 -2.02907 -6.78406 0
M  V30 3947 H 383.43 -0.757669 -5.59392 0
M  V30 3948 N 382.828 1.3818 -0.7579 0
M  V30 3949 C 384.056 2.04301 -0.326937 0
M  V30 3950 C 384.471 1.57163 1.0462 0
M  V30 3951 O 383.828 0.746626 1.66529 0
M  V30 3952 C 383.879 3.59846 -0.345363 0
M  V30 3953 O 383.6 4.05256 -1.66432 0
M  V30 3954 C 385.101 4.4319 0.098927 0
M  V30 3955 H 382.321 0.656443 -0.139012 0
M  V30 3956 H 384.865 1.76786 -1.02796 0
M  V30 3957 H 383.02 3.86182 0.306955 0
M  V30 3958 H 383.434 4.99709 -1.59345 0
M  V30 3959 H 384.908 5.51989 0.0348745 0
M  V30 3960 H 385.385 4.23947 1.14741 0
M  V30 3961 H 385.991 4.22051 -0.52468 0
M  V30 3962 N 384.306 0.507319 1.49211 0
M  V30 3963 C 385.253 -0.267728 2.29242 0
M  V30 3964 C 386.223 -0.954609 1.35928 0
M  V30 3965 O 387.408 -0.960046 1.64887 0
M  V30 3966 C 384.548 -1.32243 3.18756 0
M  V30 3967 C 383.661 -0.64669 4.27132 0
M  V30 3968 C 382.796 -1.68238 5.03855 0
M  V30 3969 C 381.835 -0.98885 6.0406 0
M  V30 3970 N 380.972 -1.96903 6.73924 0
M  V30 3971 H 385.812 0.420968 2.95012 0
M  V30 3972 H 383.349 0.219443 1.45454 0
M  V30 3973 H 385.307 -1.94599 3.69036 0
M  V30 3974 H 383.937 -1.97981 2.54958 0
M  V30 3975 H 382.989 0.0902926 3.80293 0
M  V30 3976 H 384.301 -0.101058 4.98698 0
M  V30 3977 H 383.455 -2.38081 5.58034 0
M  V30 3978 H 382.194 -2.26187 4.32077 0
M  V30 3979 H 381.199 -0.276222 5.49106 0
M  V30 3980 H 382.424 -0.415767 6.77826 0
M  V30 3981 H 380.37 -2.53803 6.04913 0
M  V30 3982 H 380.287 -1.47423 7.41487 0
M  V30 3983 H 381.555 -2.66015 7.32705 0
M  V30 3984 N 385.784 -1.5574 0.241426 0
M  V30 3985 C 386.732 -2.22538 -0.676718 0
M  V30 3986 C 387.726 -1.21117 -1.18436 0
M  V30 3987 O 388.932 -1.39144 -1.14188 0
M  V30 3988 H 385.307 -0.713776 -0.236701 0
M  V30 3989 H 387.278 -2.98264 -0.0901187 0
M  V30 3990 C 386.027 -2.93439 -1.86518 0
M  V30 3991 H 385.35 -3.7125 -1.4837 0
M  V30 3992 H 386.79 -3.43549 -2.48495 0
M  V30 3993 C 385.249 -1.97008 -2.73294 0
M  V30 3994 O 385.779 -1.49965 -3.72657 0
M  V30 3995 N 383.985 -1.64227 -2.39745 0
M  V30 3996 H 383.532 -2.02677 -1.58996 0
M  V30 3997 H 383.49 -0.999708 -2.98083 0
M  V30 3998 N 387.262 0.0317525 -1.57568 0
M  V30 3999 C 388.194 1.06073 -2.03178 0
M  V30 4000 C 389.207 1.32627 -0.944132 0
M  V30 4001 O 390.396 1.30162 -1.22148 0
M  V30 4002 C 387.496 2.40297 -2.38978 0
M  V30 4003 C 386.669 2.33137 -3.70089 0
M  V30 4004 C 385.728 3.49787 -3.9311 0
M  V30 4005 O 384.754 3.29403 -4.64201 0
M  V30 4006 N 385.956 4.71562 -3.38541 0
M  V30 4007 H 388.721 0.672006 -2.92069 0
M  V30 4008 H 386.282 0.219745 -1.60402 0
M  V30 4009 H 388.274 3.1705 -2.51518 0
M  V30 4010 H 386.844 2.71024 -1.55771 0
M  V30 4011 H 386.064 1.415 -3.67928 0
M  V30 4012 H 387.352 2.25493 -4.56104 0
M  V30 4013 H 386.75 4.91024 -2.80912 0
M  V30 4014 H 385.307 5.45689 -3.56464 0
M  V30 4015 N 388.74 1.54641 0.303973 0
M  V30 4016 C 389.986 1.74038 1.04109 0
M  V30 4017 C 390.319 0.523051 1.87024 0
M  V30 4018 O 389.594 -0.479874 1.88487 0
M  V30 4019 C 389.877 3.02761 1.94955 0
M  V30 4020 C 389.73 4.34787 1.1524 0
M  V30 4021 C 391.049 3.27336 2.94175 0
M  V30 4022 H 388.168 0.63323 0.377079 0
M  V30 4023 H 390.81 1.87354 0.316001 0
M  V30 4024 H 388.96 2.9154 2.56782 0
M  V30 4025 H 390.632 4.57922 0.557236 0
M  V30 4026 H 388.875 4.31407 0.455053 0
M  V30 4027 H 389.546 5.21116 1.8205 0
M  V30 4028 H 392.022 3.38148 2.42477 0
M  V30 4029 H 390.898 4.18726 3.54908 0
M  V30 4030 H 391.159 2.45491 3.67677 0
M  V30 4031 N 390.218 -0.567019 1.47046 0
M  V30 4032 C 391.443 -1.3551 1.57009 0
M  V30 4033 C 391.868 -1.86841 0.217259 0
M  V30 4034 O 391.226 -1.62435 -0.805268 0
M  V30 4035 C 391.274 -2.50777 2.5912 0
M  V30 4036 O 390.378 -3.52706 2.13711 0
M  V30 4037 H 389.719 -0.402919 0.52778 0
M  V30 4038 H 392.249 -0.686241 1.92748 0
M  V30 4039 H 392.259 -2.97481 2.79229 0
M  V30 4040 H 390.934 -2.12771 3.57353 0
M  V30 4041 H 389.511 -3.12374 2.03659 0
M  V30 4042 N 391.696 -1.35014 -0.812953 0
M  V30 4043 C 392.626 -1.30069 -1.93919 0
M  V30 4044 C 393.607 -0.176275 -1.69184 0
M  V30 4045 O 394.792 -0.370227 -1.90638 0
M  V30 4046 C 391.922 -1.06547 -3.30552 0
M  V30 4047 C 390.876 -2.15561 -3.69753 0
M  V30 4048 C 390.202 -1.77214 -5.04479 0
M  V30 4049 C 391.502 -3.57476 -3.808 0
M  V30 4050 H 393.196 -2.24303 -1.98314 0
M  V30 4051 H 390.742 -1.07977 -0.952736 0
M  V30 4052 H 392.695 -1.01729 -4.08937 0
M  V30 4053 H 391.419 -0.0875719 -3.26483 0
M  V30 4054 H 390.078 -2.19466 -2.9365 0
M  V30 4055 H 389.726 -0.780589 -4.96906 0
M  V30 4056 H 389.426 -2.50184 -5.31678 0
M  V30 4057 H 390.95 -1.7391 -5.8531 0
M  V30 4058 H 392.364 -3.55929 -4.4943 0
M  V30 4059 H 390.761 -4.29152 -4.19462 0
M  V30 4060 H 391.831 -3.94091 -2.82525 0
M  V30 4061 N 393.175 1.03435 -1.18907 0
M  V30 4062 C 394.403 1.80381 -1.01342 0
M  V30 4063 C 394.818 1.83649 0.438005 0
M  V30 4064 O 394.175 1.27655 1.30424 0
M  V30 4065 C 394.226 3.25689 -1.56873 0
M  V30 4066 O 393.947 3.22673 -2.96334 0
M  V30 4067 C 395.448 4.19255 -1.44014 0
M  V30 4068 H 392.668 0.56784 -0.35749 0
M  V30 4069 H 395.212 1.30317 -1.576 0
M  V30 4070 H 393.367 3.72962 -1.04777 0
M  V30 4071 H 393.781 4.13748 -3.22355 0
M  V30 4072 H 395.255 5.19123 -1.87657 0
M  V30 4073 H 395.732 4.37467 -0.389815 0
M  V30 4074 H 396.338 3.77851 -1.95214 0
M  V30 4075 N 394.653 0.992116 1.22453 0
M  V30 4076 C 395.893 0.675727 1.92907 0
M  V30 4077 C 396.257 -0.777762 1.75542 0
M  V30 4078 O 397.458 -1.20553 2.40251 0
M  V30 4079 C 395.729 1.0696 3.4102 0
M  V30 4080 S 397.288 0.871456 4.30059 0
M  V30 4081 H 394.106 0.247089 0.666684 0
M  V30 4082 H 396.708 1.27423 1.48269 0
M  V30 4083 H 395.412 2.12383 3.51172 0
M  V30 4084 H 394.943 0.462858 3.90668 0
M  V30 4085 H 396.958 -0.238436 4.95627 0
M  V30 4086 N 396.131 -1.37776 0.765217 0
M  V30 4087 C 397.061 -2.32945 0.160953 0
M  V30 4088 C 398.042 -1.55454 -0.690516 0
M  V30 4089 O 399.227 -1.83721 -0.629318 0
M  V30 4090 C 396.357 -3.39669 -0.724031 0
M  V30 4091 C 395.311 -4.27992 0.0256173 0
M  V30 4092 C 394.637 -5.25673 -0.978383 0
M  V30 4093 C 395.937 -5.08309 1.20082 0
M  V30 4094 H 397.631 -2.83728 0.955969 0
M  V30 4095 H 395.177 -1.36416 0.461149 0
M  V30 4096 H 397.13 -4.05219 -1.15652 0
M  V30 4097 H 395.854 -2.87396 -1.5515 0
M  V30 4098 H 394.513 -3.63964 0.438812 0
M  V30 4099 H 394.161 -4.69682 -1.80022 0
M  V30 4100 H 393.861 -5.85625 -0.481378 0
M  V30 4101 H 395.385 -5.94098 -1.40995 0
M  V30 4102 H 396.799 -5.67034 0.845307 0
M  V30 4103 H 395.196 -5.77554 1.62947 0
M  V30 4104 H 396.266 -4.41365 2.00811 0
M  V30 4105 N 397.609 -0.515225 -1.4894 0
M  V30 4106 C 398.855 0.0242508 -2.02785 0
M  V30 4107 C 399.188 1.35323 -1.39289 0
M  V30 4108 O 398.463 1.87041 -0.533469 0
M  V30 4109 C 398.746 0.16184 -3.59736 0
M  V30 4110 C 398.599 -1.19127 -4.33738 0
M  V30 4111 C 399.918 0.895719 -4.30888 0
M  V30 4112 H 397.037 0.00733914 -0.736963 0
M  V30 4113 H 399.679 -0.669395 -1.77818 0
M  V30 4114 H 397.829 0.752624 -3.8114 0
M  V30 4115 H 399.501 -1.82202 -4.23792 0
M  V30 4116 H 397.744 -1.77695 -3.95736 0
M  V30 4117 H 398.415 -1.04815 -5.41957 0
M  V30 4118 H 400.891 0.394528 -4.14225 0
M  V30 4119 H 399.767 0.960859 -5.40425 0
M  V30 4120 H 400.028 1.9427 -3.97129 0
M  V30 4121 N 399.087 1.5561 -0.249682 0
M  V30 4122 C 400.034 2.21496 0.648694 0
M  V30 4123 C 401.004 1.17977 1.16921 0
M  V30 4124 O 402.189 1.46434 1.22318 0
M  V30 4125 C 399.329 2.92039 1.83868 0
M  V30 4126 C 398.442 4.10219 1.35442 0
M  V30 4127 C 397.577 4.6847 2.50419 0
M  V30 4128 C 396.616 5.78893 1.98869 0
M  V30 4129 N 395.753 6.31315 3.07223 0
M  V30 4130 H 400.593 2.97892 0.0801582 0
M  V30 4131 H 398.13 1.47074 0.0278031 0
M  V30 4132 H 400.088 3.31138 2.53778 0
M  V30 4133 H 398.718 2.18111 2.37965 0
M  V30 4134 H 397.77 3.76413 0.54928 0
M  V30 4135 H 399.082 4.89927 0.936649 0
M  V30 4136 H 398.236 5.10158 3.28366 0
M  V30 4137 H 396.975 3.87984 2.95499 0
M  V30 4138 H 395.98 5.3668 1.19393 0
M  V30 4139 H 397.205 6.61232 1.54755 0
M  V30 4140 H 395.151 5.53733 3.51732 0
M  V30 4141 H 395.068 7.06224 2.69784 0
M  V30 4142 H 396.336 6.77662 3.8522 0
M  V30 4143 N 400.565 -0.0233959 1.57583 0
M  V30 4144 C 401.813 -0.711654 1.89156 0
M  V30 4145 C 402.134 -1.75591 0.848096 0
M  V30 4146 O 401.404 -1.95547 -0.117566 0
M  V30 4147 H 399.984 -0.265835 0.698098 0
M  V30 4148 H 402.646 0.0119948 1.94896 0
M  V30 4149 H 401.742 -1.19766 2.88206 0
M  V30 4150 N 402.043 -1.548 -0.295768 0
M  V30 4151 C 403.29 -1.74329 -1.03032 0
M  V30 4152 C 403.618 -0.531915 -1.87085 0
M  V30 4153 O 402.873 0.486052 -1.89568 0
M  V30 4154 C 403.172 -2.98797 -1.961 0
M  V30 4155 C 402.838 -4.32356 -1.2798 0
M  V30 4156 C 401.5 -4.68661 -1.09135 0
M  V30 4157 C 403.852 -5.15128 -0.793243 0
M  V30 4158 C 401.18 -5.85312 -0.403269 0
M  V30 4159 C 403.532 -6.32488 -0.118854 0
M  V30 4160 C 402.196 -6.6745 0.0815043 0
M  V30 4161 H 401.466 -0.637916 -0.37702 0
M  V30 4162 H 404.113 -1.8906 -0.304696 0
M  V30 4163 H 402.418 -2.78869 -2.75207 0
M  V30 4164 H 404.115 -3.11102 -2.53015 0
M  V30 4165 H 400.705 -4.03808 -1.43655 0
M  V30 4166 H 404.889 -4.87575 -0.92653 0
M  V30 4167 H 400.145 -6.1094 -0.237098 0
M  V30 4168 H 404.319 -6.95892 0.266035 0
M  V30 4169 H 401.946 -7.57695 0.616685 0
M  V30 4170 N 403.521 0.559213 -1.47345 0
M  V30 4171 C 404.751 1.33999 -1.57251 0
M  V30 4172 C 405.159 1.87905 -0.220978 0
M  V30 4173 O 404.502 1.65577 0.795617 0
M  V30 4174 C 404.564 2.54798 -2.53611 0
M  V30 4175 C 404.228 2.22192 -3.99349 0
M  V30 4176 C 405.225 1.79607 -4.87891 0
M  V30 4177 C 402.91 2.33613 -4.44669 0
M  V30 4178 C 404.904 1.48868 -6.19772 0
M  V30 4179 C 402.591 2.02487 -5.76578 0
M  V30 4180 C 403.589 1.60183 -6.63951 0
M  V30 4181 O 403.277 1.29451 -7.93409 0
M  V30 4182 H 403.009 0.414858 -0.533731 0
M  V30 4183 H 405.563 0.684465 -1.9366 0
M  V30 4184 H 403.793 3.23235 -2.12265 0
M  V30 4185 H 405.482 3.16873 -2.53666 0
M  V30 4186 H 406.248 1.70278 -4.54126 0
M  V30 4187 H 402.127 2.65501 -3.76869 0
M  V30 4188 H 405.671 1.15775 -6.87926 0
M  V30 4189 H 401.568 2.11448 -6.09885 0
M  V30 4190 H 402.336 1.43098 -8.05894 0
M  V30 4191 N 404.999 1.35443 0.805782 0
M  V30 4192 C 406.41 1.25768 1.37983 0
M  V30 4193 C 406.761 -0.10958 1.95894 0
M  V30 4194 O 405.886 -1.01056 1.91355 0
M  V30 4195 C 406.481 2.27727 2.5085 0
M  V30 4196 C 405.04 2.2179 3.04115 0
M  V30 4197 C 404.187 2.13393 1.77084 0
M  V30 4198 H 407.138 1.4656 0.608752 0
M  V30 4199 H 407.159 1.90422 3.29424 0
M  V30 4200 H 406.671 3.27227 2.08671 0
M  V30 4201 H 404.772 1.25703 3.50756 0
M  V30 4202 H 404.885 3.13788 3.62042 0
M  V30 4203 H 403.249 1.59384 1.98668 0
M  V30 4204 H 404.032 3.14755 1.37056 0
M  V30 4205 N 406.477 -1.02803 1.19454 0
M  V30 4206 C 407.702 -1.80378 1.02364 0
M  V30 4207 C 408.127 -1.83282 -0.423007 0
M  V30 4208 O 407.485 -1.25945 -1.30413 0
M  V30 4209 C 407.533 -3.23248 1.59821 0
M  V30 4210 O 406.637 -4.04 0.828105 0
M  V30 4211 H 405.978 -0.556799 0.361761 0
M  V30 4212 H 408.508 -1.29385 1.58495 0
M  V30 4213 H 408.518 -3.73994 1.63073 0
M  V30 4214 H 407.193 -3.2045 2.65113 0
M  V30 4215 H 405.77 -3.62635 0.86891 0
M  V30 4216 N 407.956 -0.998596 -1.21925 0
M  V30 4217 C 409.233 -0.593401 -1.86382 0
M  V30 4218 C 409.613 0.92916 -1.89552 0
M  V30 4219 O 408.961 1.81347 -1.39017 0
M  V30 4220 C 409.171 -1.22039 -3.26967 0
M  V30 4221 C 410.519 -1.32449 -4.03413 0
M  V30 4222 O 411.543 -1.17522 -3.36254 0
M  V30 4223 O 410.402 -1.56395 -5.23644 0
M  V30 4224 H 407.496 -0.202385 -0.801854 0
M  V30 4225 H 410.042 -1.09484 -1.29659 0
M  V30 4226 H 408.814 -2.26158 -3.19325 0
M  V30 4227 H 408.437 -0.704906 -3.91301 0
M  V30 4228 N 409.434 1.37368 -0.772513 0
M  V30 4229 C 410.683 1.98918 -0.333861 0
M  V30 4230 C 410.996 1.62017 1.09589 0
M  V30 4231 O 412.202 2.16676 1.63596 0
M  V30 4232 C 410.658 3.55735 -0.545971 0
M  V30 4233 C 410.266 4.01573 -1.98603 0
M  V30 4234 C 412.01 4.24156 -0.170979 0
M  V30 4235 C 409.917 5.51102 -2.1457 0
M  V30 4236 H 408.847 0.744214 -0.121085 0
M  V30 4237 H 411.498 1.56888 -0.95175 0
M  V30 4238 H 409.88 3.95748 0.141387 0
M  V30 4239 H 411.054 3.72803 -2.7084 0
M  V30 4240 H 409.369 3.45937 -2.31769 0
M  V30 4241 H 411.966 5.34024 -0.26878 0
M  V30 4242 H 412.309 4.06917 0.878855 0
M  V30 4243 H 412.842 3.89447 -0.810914 0
M  V30 4244 H 409.581 5.73268 -3.17875 0
M  V30 4245 H 409.101 5.81554 -1.46817 0
M  V30 4246 H 410.78 6.17083 -1.94468 0
M  V30 4247 N 410.912 0.523116 1.48665 0
M  V30 4248 C 411.875 -0.232592 2.28017 0
M  V30 4249 C 412.875 -0.874021 1.34972 0
M  V30 4250 O 414.065 -0.735132 1.57929 0
M  V30 4251 C 411.197 -1.33586 3.13636 0
M  V30 4252 H 412.39 0.464008 2.96289 0
M  V30 4253 H 409.943 0.278816 1.53793 0
M  V30 4254 H 410.678 -2.06593 2.4998 0
M  V30 4255 H 410.463 -0.881125 3.82071 0
M  V30 4256 H 411.953 -1.86759 3.73511 0
M  V30 4257 N 412.39 -1.55475 0.257931 0
M  V30 4258 C 413.636 -1.99502 -0.364266 0
M  V30 4259 C 413.969 -1.146 -1.56782 0
M  V30 4260 O 413.244 -0.211968 -1.93342 0
M  V30 4261 C 413.527 -3.51917 -0.763333 0
M  V30 4262 C 413.38 -4.4758 0.446371 0
M  V30 4263 C 414.699 -4.09742 -1.60623 0
M  V30 4264 H 411.818 -0.725277 -0.130929 0
M  V30 4265 H 414.46 -1.8653 0.361446 0
M  V30 4266 H 412.61 -3.63101 -1.38166 0
M  V30 4267 H 414.282 -4.48362 1.08487 0
M  V30 4268 H 412.525 -4.19947 1.08753 0
M  V30 4269 H 413.196 -5.51862 0.123645 0
M  V30 4270 H 415.672 -4.01727 -1.08418 0
M  V30 4271 H 414.548 -5.16631 -1.85429 0
M  V30 4272 H 414.809 -3.58889 -2.58169 0
M  V30 4273 N 413.868 0.0150385 -1.57593 0
M  V30 4274 C 414.778 1.02791 -2.10882 0
M  V30 4275 C 415.794 1.38702 -1.0506 0
M  V30 4276 O 416.97 1.47739 -1.36877 0
M  V30 4277 C 414.035 2.30568 -2.58919 0
M  V30 4278 C 413.096 2.01108 -3.79281 0
M  V30 4279 C 412.329 3.22794 -4.25018 0
M  V30 4280 O 412.552 4.33959 -3.70183 0
M  V30 4281 O 411.486 3.07672 -5.17322 0
M  V30 4282 H 415.312 0.604973 -2.97613 0
M  V30 4283 H 412.897 0.23292 -1.47573 0
M  V30 4284 H 414.779 3.05662 -2.90084 0
M  V30 4285 H 413.454 2.72129 -1.75293 0
M  V30 4286 H 412.361 1.23537 -3.53114 0
M  V30 4287 H 413.694 1.64394 -4.63935 0
M  V30 4288 N 415.346 1.54954 0.287554 0
M  V30 4289 C 416.592 1.76059 1.01856 0
M  V30 4290 C 416.947 0.547056 1.84459 0
M  V30 4291 O 416.24 -0.460442 1.85985 0
M  V30 4292 C 416.434 2.99833 1.94512 0
M  V30 4293 C 416.263 4.33108 1.21026 0
M  V30 4294 C 415.033 4.96632 0.931896 0
M  V30 4295 C 417.231 5.10694 0.607949 0
M  V30 4296 N 415.213 6.13668 0.168716 0
M  V30 4297 C 416.584 6.19996 -0.0217865 0
M  V30 4298 C 418.639 4.95236 0.514338 0
M  V30 4299 C 417.342 7.15524 -0.736092 0
M  V30 4300 C 419.368 5.91106 -0.186343 0
M  V30 4301 C 418.73 6.99786 -0.804875 0
M  V30 4302 H 414.829 0.696679 0.355193 0
M  V30 4303 H 417.413 1.92441 0.295741 0
M  V30 4304 H 415.584 2.84853 2.64033 0
M  V30 4305 H 417.316 3.09405 2.60865 0
M  V30 4306 H 414.071 4.57255 1.23348 0
M  V30 4307 H 414.495 6.76705 -0.199781 0
M  V30 4308 H 419.137 4.11328 0.978234 0
M  V30 4309 H 416.855 7.98964 -1.21172 0
M  V30 4310 H 420.441 5.81224 -0.258897 0
M  V30 4311 H 419.321 7.72694 -1.33843 0
M  V30 4312 N 416.824 -0.551391 1.4764 0
M  V30 4313 C 417.734 -1.68525 1.63207 0
M  V30 4314 C 418.75 -1.6621 0.514815 0
M  V30 4315 O 419.926 -1.85551 0.783113 0
M  V30 4316 C 416.991 -3.05025 1.64805 0
M  V30 4317 C 416.052 -3.18362 2.88 0
M  V30 4318 C 415.285 -4.4835 2.89513 0
M  V30 4319 O 415.508 -5.34163 2.00065 0
M  V30 4320 O 414.442 -4.65602 3.81443 0
M  V30 4321 H 418.268 -1.58333 2.59161 0
M  V30 4322 H 415.853 -0.722063 1.30792 0
M  V30 4323 H 417.735 -3.86245 1.68502 0
M  V30 4324 H 416.41 -3.15587 0.720197 0
M  V30 4325 H 415.317 -2.36518 2.89845 0
M  V30 4326 H 416.65 -3.12707 3.80099 0
M  V30 4327 N 418.302 -1.35869 -0.798587 0
M  V30 4328 C 419.527 -1.32883 -1.59238 0
M  V30 4329 C 419.952 0.0894587 -1.87887 0
M  V30 4330 O 419.31 1.05869 -1.47178 0
M  V30 4331 C 419.358 -2.14892 -2.89575 0
M  V30 4332 O 418.462 -1.53512 -3.82763 0
M  V30 4333 H 417.803 -0.455236 -0.48338 0
M  V30 4334 H 420.333 -1.79024 -0.990539 0
M  V30 4335 H 420.343 -2.27139 -3.38928 0
M  V30 4336 H 419.018 -3.17998 -2.68049 0
M  V30 4337 H 417.595 -1.50153 -3.41334 0
M  V30 4338 N 419.78 1.02168 -1.19998 0
M  V30 4339 C 420.728 2.12717 -0.940967 0
M  V30 4340 C 421.722 1.69069 0.105841 0
M  V30 4341 O 422.928 1.79946 -0.0440583 0
M  V30 4342 H 419.303 0.695108 -0.28693 0
M  V30 4343 H 421.274 2.3175 -1.87975 0
M  V30 4344 C 420.023 3.44027 -0.504049 0
M  V30 4345 H 419.346 3.78036 -1.30112 0
M  V30 4346 H 420.786 4.22452 -0.361991 0
M  V30 4347 C 419.245 3.27678 0.782878 0
M  V30 4348 O 419.775 3.56949 1.84256 0
M  V30 4349 N 417.981 2.80943 0.742921 0
M  V30 4350 H 417.528 2.57322 -0.119687 0
M  V30 4351 H 417.486 2.70385 1.60435 0
M  V30 4352 N 421.258 1.00505 1.21394 0
M  V30 4353 C 422.506 0.686415 1.90086 0
M  V30 4354 C 422.827 -0.785264 1.7849 0
M  V30 4355 O 422.097 -1.56387 1.17983 0
M  V30 4356 H 420.677 0.2509 0.703604 0
M  V30 4357 H 423.339 1.27417 1.47482 0
M  V30 4358 H 422.435 0.959621 2.96981 0
M  V30 4359 N 422.737 -1.36956 0.779787 0
M  V30 4360 C 423.669 -2.28833 0.129639 0
M  V30 4361 C 424.682 -1.4902 -0.655511 0
M  V30 4362 O 425.871 -1.71578 -0.492279 0
M  V30 4363 C 422.971 -3.2833 -0.839792 0
M  V30 4364 C 422.144 -4.3727 -0.10675 0
M  V30 4365 C 421.203 -5.16789 -0.990717 0
M  V30 4366 O 420.229 -5.67406 -0.451516 0
M  V30 4367 N 421.431 -5.32294 -2.3161 0
M  V30 4368 H 424.196 -2.85268 0.918803 0
M  V30 4369 H 421.757 -1.49019 0.632841 0
M  V30 4370 H 423.749 -3.78413 -1.43477 0
M  V30 4371 H 422.319 -2.72605 -1.52988 0
M  V30 4372 H 421.539 -3.88478 0.669216 0
M  V30 4373 H 422.827 -5.07229 0.399464 0
M  V30 4374 H 422.225 -4.92768 -2.77843 0
M  V30 4375 H 420.782 -5.85656 -2.86095 0
M  V30 4376 N 424.215 -0.530993 -1.48385 0
M  V30 4377 C 425.626 -0.0907905 -1.86479 0
M  V30 4378 C 425.977 1.33213 -1.44044 0
M  V30 4379 O 425.102 1.99783 -0.831615 0
M  V30 4380 C 425.697 -0.157987 -3.38431 0
M  V30 4381 C 424.256 0.227026 -3.75715 0
M  V30 4382 C 423.403 -0.5173 -2.72432 0
M  V30 4383 H 426.354 -0.742186 -1.40276 0
M  V30 4384 H 426.375 0.630053 -3.75247 0
M  V30 4385 H 425.887 -1.19372 -3.69286 0
M  V30 4386 H 423.988 1.26486 -3.50474 0
M  V30 4387 H 424.101 -0.113288 -4.78966 0
M  V30 4388 H 422.465 0.0365527 -2.54674 0
M  V30 4389 H 423.248 -1.55368 -3.0613 0
M  V30 4390 N 425.693 1.55336 -0.266172 0
M  V30 4391 C 426.603 2.2583 0.635458 0
M  V30 4392 C 427.619 1.28106 1.17749 0
M  V30 4393 O 428.795 1.61024 1.20968 0
M  V30 4394 C 425.86 2.95879 1.80712 0
M  V30 4395 C 424.921 4.09059 1.30265 0
M  V30 4396 C 424.154 4.75759 2.41846 0
M  V30 4397 O 424.377 4.41622 3.61007 0
M  V30 4398 O 423.311 5.63888 2.1051 0
M  V30 4399 H 427.137 3.03631 0.0646693 0
M  V30 4400 H 424.722 1.49361 -0.0339177 0
M  V30 4401 H 426.604 3.39932 2.49047 0
M  V30 4402 H 425.279 2.21002 2.36516 0
M  V30 4403 H 424.186 3.69482 0.586019 0
M  V30 4404 H 425.519 4.85811 0.790458 0
M  V30 4405 N 427.171 -0.0066808 1.57599 0
M  V30 4406 C 428.119 -1.01851 2.09115 0
M  V30 4407 C 429.113 -1.36021 1.00969 0
M  V30 4408 O 430.319 -1.34663 1.19439 0
M  V30 4409 H 426.694 -0.346083 0.667631 0
M  V30 4410 H 428.665 -0.558394 2.93129 0
M  V30 4411 C 427.414 -2.30374 2.60429 0
M  V30 4412 H 426.737 -2.04947 3.43273 0
M  V30 4413 H 428.177 -2.99466 3.00161 0
M  V30 4414 C 426.636 -3.00893 1.51542 0
M  V30 4415 O 427.166 -3.91614 0.894484 0
M  V30 4416 N 425.372 -2.62603 1.2445 0
M  V30 4417 H 424.919 -1.88911 1.75129 0
M  V30 4418 H 424.877 -3.10101 0.518137 0
M  V30 4419 N 428.649 -1.55105 -0.279332 0
M  V30 4420 C 429.597 -1.88333 -1.36505 0
M  V30 4421 C 430.591 -0.759043 -1.51443 0
M  V30 4422 O 431.797 -0.943312 -1.53302 0
M  V30 4423 H 428.172 -0.59766 -0.456406 0
M  V30 4424 H 430.143 -2.79041 -1.05728 0
M  V30 4425 C 428.892 -2.16628 -2.7197 0
M  V30 4426 H 428.215 -3.02624 -2.61264 0
M  V30 4427 H 429.655 -2.43803 -3.46895 0
M  V30 4428 C 428.114 -0.971807 -3.22579 0
M  V30 4429 O 428.644 -0.203228 -4.01186 0
M  V30 4430 N 426.85 -0.771238 -2.80179 0
M  V30 4431 H 426.397 -1.39792 -2.1637 0
M  V30 4432 H 426.355 0.0263667 -3.14389 0
M  V30 4433 N 430.127 0.543554 -1.4793 0
M  V30 4434 C 431.357 1.32324 -1.58663 0
M  V30 4435 C 431.765 1.8766 -0.240896 0
M  V30 4436 O 431.108 1.66411 0.778011 0
M  V30 4437 C 431.17 2.52094 -2.56299 0
M  V30 4438 C 430.834 2.17944 -4.01683 0
M  V30 4439 C 431.831 1.74422 -4.89768 0
M  V30 4440 C 429.516 2.28884 -4.47121 0
M  V30 4441 C 431.51 1.42287 -6.21316 0
M  V30 4442 C 429.197 1.96361 -5.78693 0
M  V30 4443 C 430.195 1.53132 -6.65612 0
M  V30 4444 O 429.883 1.21029 -7.94737 0
M  V30 4445 H 429.615 0.409174 -0.538101 0
M  V30 4446 H 432.169 0.663887 -1.94375 0
M  V30 4447 H 430.399 3.20965 -2.15681 0
M  V30 4448 H 432.088 3.14165 -2.57012 0
M  V30 4449 H 432.854 1.65452 -4.55907 0
M  V30 4450 H 428.733 2.61488 -3.79664 0
M  V30 4451 H 432.277 1.08472 -6.89115 0
M  V30 4452 H 428.174 2.04967 -6.12094 0
M  V30 4453 H 428.942 1.34543 -8.07366 0
M  V30 4454 N 431.605 1.3629 0.791371 0
M  V30 4455 C 432.552 1.30458 1.90393 0
M  V30 4456 C 433.522 0.173632 1.6519 0
M  V30 4457 O 434.707 0.35983 1.87376 0
M  V30 4458 C 431.847 1.09777 3.27174 0
M  V30 4459 C 430.96 2.31929 3.64462 0
M  V30 4460 C 430.095 2.04276 4.90352 0
M  V30 4461 C 429.134 3.224 5.20312 0
M  V30 4462 N 428.271 2.94424 6.37385 0
M  V30 4463 H 433.111 2.25589 1.94714 0
M  V30 4464 H 430.648 1.12122 0.952216 0
M  V30 4465 H 432.606 0.958133 4.06049 0
M  V30 4466 H 431.236 0.183014 3.22281 0
M  V30 4467 H 430.288 2.56703 2.80727 0
M  V30 4468 H 431.6 3.20085 3.82553 0
M  V30 4469 H 430.754 1.87231 5.77087 0
M  V30 4470 H 429.493 1.13428 4.74326 0
M  V30 4471 H 428.498 3.40005 4.32061 0
M  V30 4472 H 429.723 4.14071 5.38258 0
M  V30 4473 H 427.669 2.06185 6.22755 0
M  V30 4474 H 427.586 3.76118 6.55798 0
M  V30 4475 H 428.854 2.80953 7.27108 0
M  V30 4476 N 433.083 -1.0153 1.20538 0
M  V30 4477 C 434.311 -1.78746 1.04199 0
M  V30 4478 C 434.726 -1.84323 -0.408733 0
M  V30 4479 O 434.083 -1.29714 -1.28377 0
M  V30 4480 C 434.134 -3.23152 1.62035 0
M  V30 4481 O 433.855 -3.17918 3.0143 0
M  V30 4482 C 435.356 -4.16911 1.50666 0
M  V30 4483 H 432.576 -0.56208 0.366479 0
M  V30 4484 H 435.12 -1.27794 1.59653 0
M  V30 4485 H 433.275 -3.71248 1.10697 0
M  V30 4486 H 433.689 -4.08567 3.28897 0
M  V30 4487 H 435.163 -5.16072 1.95892 0
M  V30 4488 H 435.64 -4.36791 0.459363 0
M  V30 4489 H 436.246 -3.74698 2.01201 0
M  V30 4490 N 434.561 -1.01147 -1.20859 0
M  V30 4491 C 435.789 -0.716911 -1.94082 0
M  V30 4492 C 436.204 0.721568 -1.74467 0
M  V30 4493 O 435.561 1.48889 -1.05539 0
M  V30 4494 C 435.612 -1.03662 -3.46318 0
M  V30 4495 O 435.333 -2.4186 -3.65288 0
M  V30 4496 C 436.834 -0.762386 -4.36695 0
M  V30 4497 H 434.054 -0.26367 -0.617024 0
M  V30 4498 H 436.598 -1.35127 -1.53496 0
M  V30 4499 H 434.753 -0.447757 -3.84804 0
M  V30 4500 H 435.167 -2.53224 -4.59323 0
M  V30 4501 H 436.641 -1.03621 -5.42187 0
M  V30 4502 H 437.118 0.303514 -4.3815 0
M  V30 4503 H 437.724 -1.33316 -4.03865 0
M  V30 4504 N 436.039 1.36541 -0.78704 0
M  V30 4505 C 437.45 1.81873 -0.421807 0
M  V30 4506 C 437.801 1.65487 1.05397 0
M  V30 4507 O 436.926 1.17448 1.81755 0
M  V30 4508 C 437.521 3.30192 -0.758841 0
M  V30 4509 C 436.08 3.73743 -0.446468 0
M  V30 4510 C 435.227 2.58844 -0.994728 0
M  V30 4511 H 438.178 1.24796 -0.98039 0
M  V30 4512 H 438.199 3.80468 -0.0490648 0
M  V30 4513 H 437.711 3.42087 -1.83299 0
M  V30 4514 H 435.812 3.6741 0.619739 0
M  V30 4515 H 435.925 4.69272 -0.965415 0
M  V30 4516 H 434.289 2.51245 -0.418087 0
M  V30 4517 H 435.072 2.73525 -2.07458 0
M  V30 4518 N 437.518 0.538854 1.48102 0
M  V30 4519 C 438.929 0.100679 1.86428 0
M  V30 4520 C 439.28 -1.32447 1.44749 0
M  V30 4521 O 438.405 -1.99339 0.842199 0
M  V30 4522 C 439 0.175933 3.38343 0
M  V30 4523 C 437.559 -0.207098 3.7583 0
M  V30 4524 C 436.706 0.531741 2.72154 0
M  V30 4525 H 439.657 0.749614 1.3988 0
M  V30 4526 H 439.678 -0.610144 3.75576 0
M  V30 4527 H 439.19 1.21328 3.68648 0
M  V30 4528 H 437.291 -1.24626 3.5114 0
M  V30 4529 H 437.404 0.138687 4.78899 0
M  V30 4530 H 435.768 -0.0230462 2.5469 0
M  V30 4531 H 436.551 1.56989 3.05302 0
M  V30 4532 N 438.996 -1.55193 0.274407 0
M  V30 4533 C 440.242 -1.99877 -0.343086 0
M  V30 4534 C 440.575 -1.16256 -1.55558 0
M  V30 4535 O 439.85 -0.232462 -1.93106 0
M  V30 4536 C 440.133 -3.52706 -0.725965 0
M  V30 4537 C 439.986 -4.47081 0.493818 0
M  V30 4538 C 441.305 -4.11422 -1.56268 0
M  V30 4539 H 438.424 -0.726625 -0.123229 0
M  V30 4540 H 441.066 -1.86136 0.38121 0
M  V30 4541 H 439.216 -3.64546 -1.34307 0
M  V30 4542 H 440.888 -4.47186 1.13237 0
M  V30 4543 H 439.131 -4.1877 1.13201 0
M  V30 4544 H 439.802 -5.51699 0.18217 0
M  V30 4545 H 442.278 -4.02855 -1.04151 0
M  V30 4546 H 441.154 -5.18568 -1.79939 0
M  V30 4547 H 441.415 -3.61607 -2.54348 0
M  V30 4548 N 440.474 -0.00167713 -1.576 0
M  V30 4549 C 441.404 0.988091 -2.11563 0
M  V30 4550 C 442.385 1.35736 -1.02517 0
M  V30 4551 O 443.57 1.44082 -1.30208 0
M  V30 4552 C 440.7 2.27941 -2.62031 0
M  V30 4553 C 439.654 2.0517 -3.75619 0
M  V30 4554 C 438.98 3.4033 -4.12407 0
M  V30 4555 C 440.28 1.41294 -5.02825 0
M  V30 4556 H 441.974 0.538771 -2.94513 0
M  V30 4557 H 439.52 0.257712 -1.41675 0
M  V30 4558 H 441.473 2.97539 -2.9841 0
M  V30 4559 H 440.197 2.74989 -1.76205 0
M  V30 4560 H 438.856 1.37998 -3.39635 0
M  V30 4561 H 438.504 3.85085 -3.23603 0
M  V30 4562 H 438.204 3.25909 -4.88935 0
M  V30 4563 H 439.728 4.1124 -4.51347 0
M  V30 4564 H 441.142 2.00851 -5.36965 0
M  V30 4565 H 439.539 1.37356 -5.84169 0
M  V30 4566 H 440.609 0.382362 -4.8339 0
M  V30 4567 N 441.952 1.55251 0.271103 0
M  V30 4568 C 443.229 1.66664 1.02384 0
M  V30 4569 C 443.609 0.534363 2.04225 0
M  V30 4570 O 442.957 -0.465337 2.23712 0
M  V30 4571 C 443.167 3.05961 1.67895 0
M  V30 4572 C 444.515 3.63772 2.18986 0
M  V30 4573 O 445.539 3.08606 1.77878 0
M  V30 4574 O 444.398 4.60429 2.94393 0
M  V30 4575 H 441.492 0.676957 0.475035 0
M  V30 4576 H 444.038 1.67589 0.26681 0
M  V30 4577 H 442.81 3.79815 0.941071 0
M  V30 4578 H 442.433 3.08943 2.5028 0
M  V30 4579 N 443.43 -0.535701 1.48216 0
M  V30 4580 C 444.655 -1.32149 1.59848 0
M  V30 4581 C 445.08 -1.86338 0.256842 0
M  V30 4582 O 444.438 -1.64107 -0.770632 0
M  V30 4583 C 444.486 -2.45224 2.64381 0
M  V30 4584 O 443.59 -3.48093 2.21144 0
M  V30 4585 H 442.931 -0.391634 0.536208 0
M  V30 4586 H 445.461 -0.645202 1.94161 0
M  V30 4587 H 445.471 -2.91491 2.85476 0
M  V30 4588 H 444.146 -2.05143 3.61786 0
M  V30 4589 H 442.723 -3.07984 2.10239 0
M  V30 4590 N 444.908 -1.36708 -0.784132 0
M  V30 4591 C 446.185 -1.21776 -1.53069 0
M  V30 4592 C 446.565 0.193876 -2.10208 0
M  V30 4593 O 445.913 1.20012 -1.94446 0
M  V30 4594 C 446.123 -2.30395 -2.62143 0
M  V30 4595 C 447.471 -2.67325 -3.29882 0
M  V30 4596 O 448.495 -2.29478 -2.7243 0
M  V30 4597 O 447.354 -3.32485 -4.33724 0
M  V30 4598 H 444.448 -0.474459 -0.677361 0
M  V30 4599 H 446.994 -1.48454 -0.82216 0
M  V30 4600 H 445.766 -3.2498 -2.17953 0
M  V30 4601 H 445.389 -2.05112 -3.40609 0
M  V30 4602 N 446.386 1.0089 -1.21074 0
M  V30 4603 C 447.634 1.74262 -1.02358 0
M  V30 4604 C 447.955 1.89869 0.444393 0
M  V30 4605 O 447.225 1.44677 1.32081 0
M  V30 4606 H 445.805 0.645615 -0.375754 0
M  V30 4607 H 448.467 1.21596 -1.52317 0
M  V30 4608 H 447.563 2.74328 -1.4883 0
M  V30 4609 N 447.864 1.01787 1.20321 0
M  V30 4610 C 449.089 0.727009 1.9424 0
M  V30 4611 C 449.514 -0.706179 1.74341 0
M  V30 4612 O 448.872 -1.48609 1.03852 0
M  V30 4613 C 448.92 1.06958 3.44372 0
M  V30 4614 O 448.024 0.181983 4.11998 0
M  V30 4615 H 447.365 0.269626 0.606793 0
M  V30 4616 H 449.895 1.36158 1.52716 0
M  V30 4617 H 449.905 1.02182 3.94997 0
M  V30 4618 H 448.58 2.11378 3.58179 0
M  V30 4619 H 447.157 0.287378 3.71791 0
M  V30 4620 N 449.342 -1.36122 0.79427 0
M  V30 4621 C 450.589 -1.99111 0.368905 0
M  V30 4622 C 450.917 -1.63032 -1.0607 0
M  V30 4623 O 450.172 -0.879303 -1.74833 0
M  V30 4624 C 450.471 -3.5409 0.48527 0
M  V30 4625 C 450.137 -4.10003 1.87638 0
M  V30 4626 C 448.799 -4.24986 2.257 0
M  V30 4627 C 451.151 -4.40423 2.78706 0
M  V30 4628 C 448.479 -4.67701 3.54221 0
M  V30 4629 C 450.831 -4.84573 4.0666 0
M  V30 4630 C 449.495 -4.97761 4.44737 0
M  V30 4631 H 448.765 -0.7286 0.134992 0
M  V30 4632 H 451.412 -1.62534 1.01267 0
M  V30 4633 H 449.717 -3.91052 -0.241984 0
M  V30 4634 H 451.414 -4.00766 0.137109 0
M  V30 4635 H 448.004 -3.98784 1.57064 0
M  V30 4636 H 452.188 -4.28412 2.50553 0
M  V30 4637 H 447.444 -4.761 3.83587 0
M  V30 4638 H 451.618 -5.07074 4.77336 0
M  V30 4639 H 449.245 -5.30618 5.44379 0
M  V30 4640 N 450.82 -0.546701 -1.47814 0
M  V30 4641 C 452.067 -0.0187407 -2.02491 0
M  V30 4642 C 452.395 1.32685 -1.42215 0
M  V30 4643 O 451.65 1.87413 -0.563454 0
M  V30 4644 C 451.949 0.134869 -3.57145 0
M  V30 4645 C 451.615 -1.13849 -4.3629 0
M  V30 4646 C 450.277 -1.48743 -4.57634 0
M  V30 4647 C 452.629 -1.98277 -4.82012 0
M  V30 4648 C 449.957 -2.67932 -5.21948 0
M  V30 4649 C 452.309 -3.16659 -5.4764 0
M  V30 4650 C 450.973 -3.51879 -5.67219 0
M  V30 4651 H 450.243 -0.0068577 -0.740968 0
M  V30 4652 H 452.89 -0.716097 -1.77607 0
M  V30 4653 H 451.195 0.915118 -3.80963 0
M  V30 4654 H 452.892 0.558556 -3.97091 0
M  V30 4655 H 449.482 -0.856767 -4.19949 0
M  V30 4656 H 453.666 -1.72628 -4.6531 0
M  V30 4657 H 448.922 -2.95401 -5.35302 0
M  V30 4658 H 453.096 -3.82374 -5.82033 0
M  V30 4659 H 450.723 -4.44331 -6.16825 0
M  V30 4660 N 452.299 1.55045 -0.282633 0
M  V30 4661 C 453.229 2.2579 0.595066 0
M  V30 4662 C 454.21 1.25074 1.15284 0
M  V30 4663 O 455.395 1.5381 1.18559 0
M  V30 4664 C 452.525 2.98472 1.77572 0
M  V30 4665 C 451.479 4.0618 1.34914 0
M  V30 4666 C 450.805 4.66477 2.6135 0
M  V30 4667 C 452.105 5.1996 0.493821 0
M  V30 4668 H 453.799 2.994 0.00505653 0
M  V30 4669 H 451.345 1.44 0.000992001 0
M  V30 4670 H 453.298 3.46677 2.39568 0
M  V30 4671 H 452.022 2.2241 2.39168 0
M  V30 4672 H 450.681 3.58797 0.752338 0
M  V30 4673 H 450.329 3.87074 3.2122 0
M  V30 4674 H 450.029 5.39207 2.33516 0
M  V30 4675 H 451.553 5.17435 3.24181 0
M  V30 4676 H 452.967 5.64172 1.01898 0
M  V30 4677 H 451.364 5.99299 0.310047 0
M  V30 4678 H 452.434 4.82462 -0.485593 0
M  V30 4679 N 453.777 0.010035 1.57597 0
M  V30 4680 C 455.007 -0.682422 1.95004 0
M  V30 4681 C 455.415 -1.67278 0.884014 0
M  V30 4682 O 454.758 -1.83129 -0.144672 0
M  V30 4683 C 454.82 -1.46141 3.28456 0
M  V30 4684 C 454.484 -0.631523 4.52615 0
M  V30 4685 C 455.481 0.0850905 5.1983 0
M  V30 4686 C 453.166 -0.574539 4.99003 0
M  V30 4687 C 455.16 0.847566 6.3174 0
M  V30 4688 C 452.847 0.191655 6.10799 0
M  V30 4689 C 453.845 0.901432 6.77025 0
M  V30 4690 O 453.533 1.65511 7.86677 0
M  V30 4691 H 453.265 -0.194361 0.647456 0
M  V30 4692 H 455.819 0.060312 2.05311 0
M  V30 4693 H 454.049 -2.24885 3.14585 0
M  V30 4694 H 455.738 -2.04016 3.50902 0
M  V30 4695 H 456.504 0.0502812 4.84974 0
M  V30 4696 H 452.383 -1.11654 4.47274 0
M  V30 4697 H 455.927 1.4021 6.83364 0
M  V30 4698 H 451.824 0.228249 6.45096 0
M  V30 4699 H 452.592 1.57287 8.03245 0
M  V30 4700 N 455.255 -1.55392 -0.262866 0
M  V30 4701 C 456.48 -1.80847 -1.01533 0
M  V30 4702 C 456.905 -0.584946 -1.78774 0
M  V30 4703 O 456.263 0.465701 -1.75217 0
M  V30 4704 C 456.311 -3.03866 -1.94159 0
M  V30 4705 O 455.415 -2.79662 -3.03089 0
M  V30 4706 H 454.756 -0.597441 -0.289759 0
M  V30 4707 H 457.286 -2.02553 -0.288698 0
M  V30 4708 H 457.296 -3.32872 -2.35924 0
M  V30 4709 H 455.971 -3.92564 -1.37354 0
M  V30 4710 H 454.548 -2.61781 -2.65566 0
M  V30 4711 N 456.733 0.527833 -1.48498 0
M  V30 4712 C 457.68 1.6322 -1.6318 0
M  V30 4713 C 458.65 1.59199 -0.473815 0
M  V30 4714 O 459.835 1.77591 -0.697563 0
M  V30 4715 C 456.975 3.01474 -1.67951 0
M  V30 4716 C 456.088 3.15713 -2.94871 0
M  V30 4717 C 455.223 4.44539 -2.90789 0
M  V30 4718 C 454.262 4.52315 -4.12404 0
M  V30 4719 N 453.399 5.72533 -4.06387 0
M  V30 4720 H 458.239 1.50011 -2.57489 0
M  V30 4721 H 455.776 0.730298 -1.27691 0
M  V30 4722 H 457.734 3.81572 -1.68698 0
M  V30 4723 H 456.364 3.1345 -0.771306 0
M  V30 4724 H 455.416 2.28854 -3.03859 0
M  V30 4725 H 456.728 3.1732 -3.8485 0
M  V30 4726 H 455.882 5.3293 -2.89949 0
M  V30 4727 H 454.621 4.45457 -1.98542 0
M  V30 4728 H 453.626 3.62331 -4.13517 0
M  V30 4729 H 454.851 4.53134 -5.05812 0
M  V30 4730 H 452.797 5.74344 -3.16962 0
M  V30 4731 H 452.714 5.75643 -4.90073 0
M  V30 4732 H 453.982 6.63204 -4.0961 0
M  V30 4733 N 458.211 1.37122 0.776871 0
M  V30 4734 C 459.141 1.35164 1.90402 0
M  V30 4735 C 460.122 0.221069 1.68657 0
M  V30 4736 O 461.307 0.420642 1.8959 0
M  V30 4737 C 458.437 1.15274 3.27611 0
M  V30 4738 C 457.391 2.25289 3.63908 0
M  V30 4739 C 456.717 1.90527 4.99603 0
M  V30 4740 C 458.017 3.67446 3.71188 0
M  V30 4741 H 459.711 2.29482 1.92297 0
M  V30 4742 H 457.257 1.10465 0.923773 0
M  V30 4743 H 459.21 1.12536 4.06096 0
M  V30 4744 H 457.934 0.174102 3.26136 0
M  V30 4745 H 456.593 2.27174 2.87728 0
M  V30 4746 H 456.241 0.91206 4.94662 0
M  V30 4747 H 455.941 2.64193 5.24858 0
M  V30 4748 H 457.465 1.89367 5.80493 0
M  V30 4749 H 458.879 3.67719 4.39836 0
M  V30 4750 H 457.276 4.40123 4.07936 0
M  V30 4751 H 458.346 4.01443 2.71977 0
M  V30 4752 N 459.689 -1.00246 1.21608 0
M  V30 4753 C 460.917 -1.77631 1.06089 0
M  V30 4754 C 461.332 -1.84746 -0.38916 0
M  V30 4755 O 460.689 -1.31068 -1.26994 0
M  V30 4756 C 460.74 -3.21415 1.65453 0
M  V30 4757 O 460.461 -3.14703 3.04785 0
M  V30 4758 C 461.962 -4.15289 1.55079 0
M  V30 4759 H 459.182 -0.558162 0.37242 0
M  V30 4760 H 461.726 -1.26093 1.60999 0
M  V30 4761 H 459.881 -3.70053 1.14629 0
M  V30 4762 H 460.295 -4.05056 3.33212 0
M  V30 4763 H 461.769 -5.13965 2.01355 0
M  V30 4764 H 462.246 -4.36279 0.505665 0
M  V30 4765 H 462.852 -3.72543 2.05163 0
M  V30 4766 N 461.167 -1.02423 -1.1978 0
M  V30 4767 C 462.413 -0.719051 -1.89625 0
M  V30 4768 C 462.746 0.750083 -1.7913 0
M  V30 4769 O 462.021 1.54574 -1.18056 0
M  V30 4770 C 462.304 -1.16499 -3.40735 0
M  V30 4771 C 462.157 -2.695 -3.60125 0
M  V30 4772 C 463.476 -0.742166 -4.33797 0
M  V30 4773 H 460.595 -0.26269 -0.688595 0
M  V30 4774 H 463.237 -1.27333 -1.41018 0
M  V30 4775 H 461.387 -0.69341 -3.82262 0
M  V30 4776 H 463.059 -3.24569 -3.278 0
M  V30 4777 H 461.302 -3.10113 -3.03336 0
M  V30 4778 H 461.973 -2.95757 -4.66081 0
M  V30 4779 H 464.449 -1.1477 -3.99959 0
M  V30 4780 H 463.325 -1.08213 -5.38127 0
M  V30 4781 H 463.586 0.355747 -4.40666 0
M  V30 4782 N 462.645 1.35699 -0.801477 0
M  V30 4783 C 463.922 1.9324 -0.302937 0
M  V30 4784 C 464.302 1.73209 1.20672 0
M  V30 4785 O 463.65 1.09809 2.00385 0
M  V30 4786 C 463.86 3.41728 -0.708747 0
M  V30 4787 C 465.208 4.18868 -0.695328 0
M  V30 4788 O 466.232 3.5022 -0.649971 0
M  V30 4789 O 465.091 5.41342 -0.749081 0
M  V30 4790 H 462.185 0.82331 -0.0780367 0
M  V30 4791 H 464.731 1.44806 -0.884832 0
M  V30 4792 H 463.503 3.50015 -1.74944 0
M  V30 4793 H 463.126 3.97471 -0.101384 0
M  V30 4794 N 464.123 0.554532 1.47522 0
M  V30 4795 C 465.07 -0.19466 2.29978 0
M  V30 4796 C 466.04 -0.910882 1.38896 0
M  V30 4797 O 467.225 -0.907102 1.67858 0
M  V30 4798 C 464.365 -1.22035 3.22802 0
M  V30 4799 C 463.478 -0.510474 4.28973 0
M  V30 4800 C 462.613 -1.52123 5.08952 0
M  V30 4801 C 461.652 -0.796173 6.069 0
M  V30 4802 N 460.789 -1.75363 6.79847 0
M  V30 4803 H 465.629 0.51461 2.93523 0
M  V30 4804 H 463.166 0.265607 1.44682 0
M  V30 4805 H 465.124 -1.8276 3.7504 0
M  V30 4806 H 463.754 -1.89769 2.61127 0
M  V30 4807 H 462.806 0.211234 3.79813 0
M  V30 4808 H 464.118 0.0576503 4.98767 0
M  V30 4809 H 463.272 -2.20207 5.65326 0
M  V30 4810 H 462.011 -2.12327 4.39054 0
M  V30 4811 H 461.016 -0.101388 5.49707 0
M  V30 4812 H 462.241 -0.199911 6.78806 0
M  V30 4813 H 460.187 -2.3443 6.12682 0
M  V30 4814 H 460.104 -1.23759 7.45801 0
M  V30 4815 H 461.372 -2.4257 7.40797 0
M  V30 4816 N 465.601 -1.54893 0.290851 0
M  V30 4817 C 466.826 -2.04804 -0.32712 0
M  V30 4818 C 467.251 -1.16721 -1.47506 0
M  V30 4819 O 466.609 -0.169107 -1.8051 0
M  V30 4820 C 466.657 -3.52268 -0.770689 0
M  V30 4821 O 465.761 -3.67236 -1.87647 0
M  V30 4822 H 465.102 -0.660789 -0.0652227 0
M  V30 4823 H 467.632 -2.00036 0.429739 0
M  V30 4824 H 467.642 -3.9393 -1.06223 0
M  V30 4825 H 466.317 -4.15843 0.069096 0
M  V30 4826 H 464.894 -3.37479 -1.58626 0
M  V30 4827 N 467.08 -0.0183926 -1.57589 0
M  V30 4828 C 468.496 0.337897 -1.55982 0
M  V30 4829 C 468.696 1.73604 -1.02294 0
M  V30 4830 O 467.752 2.43589 -0.664895 0
M  V30 4831 C 469.065 0.196305 -3.00059 0
M  V30 4832 C 470.613 0.269875 -3.11834 0
M  V30 4833 C 471.088 0.157197 -4.5773 0
M  V30 4834 N 472.579 0.214521 -4.62703 0
M  V30 4835 C 473.314 0.150955 -5.73201 0
M  V30 4836 N 472.81 0.0369212 -6.9279 0
M  V30 4837 N 474.603 0.204162 -5.61729 0
M  V30 4838 H 466.754 -0.93279 -1.90821 0
M  V30 4839 H 469.017 -0.359253 -0.877292 0
M  V30 4840 H 468.723 -0.766383 -3.43248 0
M  V30 4841 H 468.597 0.970908 -3.6449 0
M  V30 4842 H 470.984 1.22302 -2.68563 0
M  V30 4843 H 471.065 -0.534918 -2.50144 0
M  V30 4844 H 470.709 -0.792479 -5.01679 0
M  V30 4845 H 470.639 0.980717 -5.17387 0
M  V30 4846 H 473.13 0.303238 -3.76681 0
M  V30 4847 H 473.443 -0.00518321 -7.728 0
M  V30 4848 H 471.788 0.0022886 -6.95 0
M  V30 4849 H 474.979 0.291575 -4.67191 0
M  V30 4850 H 475.152 0.15116 -6.47824 0
M  V30 4851 N 468.558 1.5553 0.254621 0
M  V30 4852 C 469.804 1.7818 0.980989 0
M  V30 4853 C 470.159 0.586059 1.83257 0
M  V30 4854 O 469.452 -0.420889 1.8692 0
M  V30 4855 C 469.646 3.03891 1.88109 0
M  V30 4856 C 469.475 4.35578 1.11812 0
M  V30 4857 C 468.245 4.98497 0.826343 0
M  V30 4858 C 470.443 5.11869 0.499486 0
M  V30 4859 N 468.425 6.13888 0.0385095 0
M  V30 4860 C 469.796 6.1981 -0.153292 0
M  V30 4861 C 471.851 4.96216 0.409175 0
M  V30 4862 C 470.554 7.13801 -0.8877 0
M  V30 4863 C 472.58 5.90578 -0.311683 0
M  V30 4864 C 471.942 6.97922 -0.953129 0
M  V30 4865 H 468.041 0.704057 0.340335 0
M  V30 4866 H 470.625 1.93025 0.254855 0
M  V30 4867 H 468.796 2.90389 2.57932 0
M  V30 4868 H 470.528 3.14869 2.54244 0
M  V30 4869 H 467.283 4.59769 1.13621 0
M  V30 4870 H 467.707 6.76129 -0.343275 0
M  V30 4871 H 472.349 4.1331 0.890765 0
M  V30 4872 H 470.067 7.96214 -1.38092 0
M  V30 4873 H 473.653 5.80544 -0.382125 0
M  V30 4874 H 472.533 7.69681 -1.50203 0
M  V30 4875 N 470.036 -0.519951 1.48776 0
M  V30 4876 C 470.968 -1.63973 1.60142 0
M  V30 4877 C 471.981 -1.55404 0.485117 0
M  V30 4878 O 473.17 -1.61682 0.756391 0
M  V30 4879 C 470.27 -3.02676 1.52449 0
M  V30 4880 C 469.443 -3.36624 2.79291 0
M  V30 4881 C 468.502 -4.54652 2.64912 0
M  V30 4882 O 467.528 -4.57374 3.38818 0
M  V30 4883 N 468.73 -5.53432 1.75195 0
M  V30 4884 H 471.495 -1.54656 2.56713 0
M  V30 4885 H 469.056 -0.707439 1.45626 0
M  V30 4886 H 471.048 -3.79525 1.4051 0
M  V30 4887 H 469.618 -3.06018 0.638125 0
M  V30 4888 H 468.838 -2.48855 3.0572 0
M  V30 4889 H 470.126 -3.56094 3.6342 0
M  V30 4890 H 469.524 -5.54018 1.14371 0
M  V30 4891 H 468.081 -6.29459 1.69189 0
M  V30 4892 N 471.514 -1.37532 -0.769588 0
M  V30 4893 C 472.446 -1.29347 -1.89214 0
M  V30 4894 C 473.459 -0.208842 -1.61455 0
M  V30 4895 O 474.648 -0.465158 -1.72333 0
M  V30 4896 C 471.748 -0.977649 -3.24492 0
M  V30 4897 C 470.921 -2.16817 -3.7988 0
M  V30 4898 C 469.98 -1.82229 -4.93639 0
M  V30 4899 O 469.006 -2.54548 -5.09111 0
M  V30 4900 N 470.208 -0.767696 -5.75401 0
M  V30 4901 H 472.973 -2.26073 -1.96751 0
M  V30 4902 H 470.534 -1.31185 -0.948795 0
M  V30 4903 H 472.526 -0.727065 -3.98115 0
M  V30 4904 H 471.096 -0.0988777 -3.12444 0
M  V30 4905 H 470.316 -2.58038 -2.9801 0
M  V30 4906 H 471.604 -2.96308 -4.13617 0
M  V30 4907 H 471.002 -0.167626 -5.65452 0
M  V30 4908 H 469.559 -0.576973 -6.49241 0
M  V30 4909 N 472.992 0.995999 -1.22138 0
M  V30 4910 C 474.24 1.73167 -1.042 0
M  V30 4911 C 474.561 1.90329 0.42423 0
M  V30 4912 O 473.831 1.4607 1.30539 0
M  V30 4913 H 472.411 0.641593 -0.38258 0
M  V30 4914 H 475.073 1.19974 -1.53598 0
M  V30 4915 H 474.169 2.72734 -1.51731 0
M  V30 4916 N 474.47 1.03057 1.19235 0
M  V30 4917 C 475.418 0.606391 2.24557 0
M  V30 4918 C 476.412 -0.361826 1.65491 0
M  V30 4919 O 477.618 -0.23022 1.78522 0
M  V30 4920 H 473.993 0.177838 0.730669 0
M  V30 4921 H 475.964 1.50529 2.5765 0
M  V30 4922 C 474.713 -0.0252127 3.47691 0
M  V30 4923 H 474.036 0.710838 3.9343 0
M  V30 4924 H 475.476 -0.284931 4.23042 0
M  V30 4925 C 473.935 -1.27229 3.11953 0
M  V30 4926 O 474.465 -2.36416 3.24762 0
M  V30 4927 N 472.671 -1.16169 2.6637 0
M  V30 4928 H 472.218 -0.273189 2.56147 0
M  V30 4929 H 472.176 -1.99703 2.42829 0
M  V30 4930 N 475.948 -1.35272 0.808662 0
M  V30 4931 C 477.194 -1.99003 0.390581 0
M  V30 4932 C 477.527 -1.63999 -1.0401 0
M  V30 4933 O 476.802 -0.904368 -1.72196 0
M  V30 4934 C 477.085 -3.55454 0.576566 0
M  V30 4935 C 476.938 -4.00249 2.05233 0
M  V30 4936 C 478.257 -4.401 0.00354277 0
M  V30 4937 H 475.376 -0.722917 0.143388 0
M  V30 4938 H 478.018 -1.6039 1.01858 0
M  V30 4939 H 476.168 -3.88477 0.0419766 0
M  V30 4940 H 477.84 -3.77626 2.64946 0
M  V30 4941 H 476.083 -3.51082 2.54801 0
M  V30 4942 H 476.754 -5.0911 2.13333 0
M  V30 4943 H 479.23 -4.13548 0.460117 0
M  V30 4944 H 478.106 -5.48656 0.163575 0
M  V30 4945 H 478.367 -4.28444 -1.09032 0
M  V30 4946 N 477.426 -0.562348 -1.47226 0
M  V30 4947 C 478.673 -0.0402165 -2.0246 0
M  V30 4948 C 479.001 1.31169 -1.43614 0
M  V30 4949 O 478.256 1.86805 -0.5833 0
M  V30 4950 C 478.555 0.0969817 -3.57268 0
M  V30 4951 C 478.221 -1.1847 -4.35058 0
M  V30 4952 C 476.883 -1.53588 -4.56031 0
M  V30 4953 C 479.235 -2.03378 -4.79882 0
M  V30 4954 C 476.563 -2.73452 -5.19077 0
M  V30 4955 C 478.915 -3.2245 -5.44251 0
M  V30 4956 C 477.579 -3.57876 -5.63455 0
M  V30 4957 H 476.849 -0.0147163 -0.740854 0
M  V30 4958 H 479.496 -0.734895 -1.76838 0
M  V30 4959 H 477.801 0.87466 -3.81912 0
M  V30 4960 H 479.498 0.516408 -3.97661 0
M  V30 4961 H 476.088 -0.90126 -4.19017 0
M  V30 4962 H 480.272 -1.77553 -4.63453 0
M  V30 4963 H 475.528 -3.01062 -5.32139 0
M  V30 4964 H 479.702 -3.88526 -5.77945 0
M  V30 4965 H 477.329 -4.50849 -6.12078 0
M  V30 4966 N 478.904 1.54736 -0.299062 0
M  V30 4967 C 480.129 2.04975 0.316254 0
M  V30 4968 C 480.554 1.17501 1.46885 0
M  V30 4969 O 479.912 0.178678 1.80417 0
M  V30 4970 C 479.96 3.52672 0.751997 0
M  V30 4971 O 479.064 3.68226 1.85697 0
M  V30 4972 H 478.405 0.661126 0.0617175 0
M  V30 4973 H 480.935 1.99805 -0.440341 0
M  V30 4974 H 480.945 3.94488 1.04133 0
M  V30 4975 H 479.62 4.158 -0.0911482 0
M  V30 4976 H 478.197 3.38316 1.56834 0
M  V30 4977 N 480.382 0.0267497 1.57577 0
M  V30 4978 C 481.622 -0.65659 1.93567 0
M  V30 4979 C 481.986 -1.69429 0.903213 0
M  V30 4980 O 483.187 -2.42994 1.14923 0
M  V30 4981 C 481.458 -1.25912 3.34486 0
M  V30 4982 S 483.017 -1.96386 3.924 0
M  V30 4983 H 479.835 -0.216237 0.67732 0
M  V30 4984 H 482.437 0.0898475 1.95293 0
M  V30 4985 H 481.141 -0.491405 4.07447 0
M  V30 4986 H 480.672 -2.04291 3.36198 0
M  V30 4987 H 482.687 -3.24202 3.75643 0
M  V30 4988 N 481.861 -1.55662 -0.24637 0
M  V30 4989 C 483.086 -1.81914 -0.996093 0
M  V30 4990 C 483.511 -0.603875 -1.78143 0
M  V30 4991 O 482.869 0.447091 -1.75701 0
M  V30 4992 C 482.917 -3.05908 -1.90925 0
M  V30 4993 O 482.021 -2.82861 -3.00105 0
M  V30 4994 H 481.362 -0.600481 -0.283406 0
M  V30 4995 H 483.892 -2.02848 -0.267199 0
M  V30 4996 H 483.902 -3.35356 -2.3238 0
M  V30 4997 H 482.577 -3.93999 -1.33183 0
M  V30 4998 H 481.154 -2.64583 -2.62775 0
M  V30 4999 N 483.339 0.512053 -1.4905 0
M  V30 5000 C 484.585 1.26874 -1.58212 0
M  V30 5001 C 484.918 1.9241 -0.263073 0
M  V30 5002 O 484.193 1.80181 0.732476 0
M  V30 5003 C 484.476 2.34428 -2.73341 0
M  V30 5004 C 484.329 1.73466 -4.15006 0
M  V30 5005 C 485.648 3.36073 -2.84154 0
M  V30 5006 H 482.767 0.459924 -0.575881 0
M  V30 5007 H 485.409 0.568587 -1.81293 0
M  V30 5008 H 483.559 2.94146 -2.53792 0
M  V30 5009 H 485.231 1.17661 -4.46042 0
M  V30 5010 H 483.474 1.03921 -4.21168 0
M  V30 5011 H 484.145 2.51426 -4.91415 0
M  V30 5012 H 486.621 2.86332 -3.01916 0
M  V30 5013 H 485.497 4.08703 -3.66406 0
M  V30 5014 H 485.758 3.97725 -1.93048 0
M  V30 5015 N 484.817 1.37938 0.762283 0
M  V30 5016 C 485.75 1.2884 1.88349 0
M  V30 5017 C 486.728 0.167084 1.61739 0
M  V30 5018 O 487.912 0.34292 1.85355 0
M  V30 5019 C 485.039 0.994257 3.23778 0
M  V30 5020 C 484.085 2.13376 3.69287 0
M  V30 5021 S 484.918 3.75439 3.81845 0
M  V30 5022 C 486.074 3.48195 5.20107 0
M  V30 5023 H 486.307 2.23736 1.95779 0
M  V30 5024 H 483.84 1.23672 0.924368 0
M  V30 5025 H 485.798 0.83138 4.01993 0
M  V30 5026 H 484.459 0.0626251 3.14038 0
M  V30 5027 H 483.652 1.88319 4.67495 0
M  V30 5028 H 483.254 2.25726 2.98201 0
M  V30 5029 H 485.546 3.0377 6.05583 0
M  V30 5030 H 486.489 4.45765 5.50181 0
M  V30 5031 H 486.897 2.82905 4.88493 0
M  V30 5032 N 486.295 -0.989507 1.22664 0
M  V30 5033 C 487.245 -2.06478 0.967005 0
M  V30 5034 C 488.229 -1.60682 -0.0836374 0
M  V30 5035 O 489.421 -1.76541 0.127322 0
M  V30 5036 C 486.55 -3.38861 0.550313 0
M  V30 5037 C 485.636 -3.9128 1.63587 0
M  V30 5038 N 486.027 -4.16884 2.86429 0
M  V30 5039 C 484.325 -4.1972 1.50834 0
M  V30 5040 C 485.026 -4.5954 3.56648 0
M  V30 5041 N 484.002 -4.63434 2.84131 0
M  V30 5042 H 487.804 -2.24219 1.90008 0
M  V30 5043 H 485.318 -1.17153 1.12467 0
M  V30 5044 H 487.315 -4.15465 0.345612 0
M  V30 5045 H 485.975 -3.22518 -0.375822 0
M  V30 5046 H 486.986 -4.04976 3.22823 0
M  V30 5047 H 483.663 -4.1243 0.648643 0
M  V30 5048 H 485.053 -4.87944 4.61909 0
M  V30 5049 N 487.773 -1.03688 -1.18687 0
M  V30 5050 C 488.683 -0.634908 -2.25845 0
M  V30 5051 C 489.699 0.337065 -1.70704 0
M  V30 5052 O 490.875 0.192943 -2.00474 0
M  V30 5053 C 487.94 -0.000180054 -3.467 0
M  V30 5054 C 487.001 -1.02067 -4.1699 0
M  V30 5055 C 486.234 -0.41614 -5.32075 0
M  V30 5056 O 486.457 0.778712 -5.65059 0
M  V30 5057 O 485.391 -1.14296 -5.90948 0
M  V30 5058 H 489.217 -1.52757 -2.62486 0
M  V30 5059 H 486.802 -0.807533 -1.25695 0
M  V30 5060 H 488.684 0.353342 -4.19916 0
M  V30 5061 H 487.359 0.866367 -3.11891 0
M  V30 5062 H 486.266 -1.42592 -3.45859 0
M  V30 5063 H 487.599 -1.85786 -4.5579 0
M  V30 5064 N 489.251 1.34841 -0.815825 0
M  V30 5065 C 490.214 2.27959 -0.238185 0
M  V30 5066 C 491.214 1.49983 0.579816 0
M  V30 5067 O 492.404 1.69617 0.396953 0
M  V30 5068 C 489.536 3.34314 0.666876 0
M  V30 5069 H 490.729 2.80558 -1.05958 0
M  V30 5070 H 488.282 1.44852 -0.587156 0
M  V30 5071 H 489.017 2.86916 1.5116 0
M  V30 5072 H 488.802 3.92014 0.0819106 0
M  V30 5073 H 490.292 4.0379 1.06506 0
M  V30 5074 N 490.729 0.570148 1.46925 0
M  V30 5075 C 491.659 -0.158274 2.32963 0
M  V30 5076 C 492.64 -0.896093 1.44583 0
M  V30 5077 O 493.825 -0.874022 1.7342 0
M  V30 5078 C 490.955 -1.18055 3.26619 0
M  V30 5079 C 489.909 -0.558379 4.24342 0
M  V30 5080 C 489.235 -1.68623 5.07415 0
M  V30 5081 C 490.535 0.496295 5.19937 0
M  V30 5082 H 492.229 0.560046 2.94115 0
M  V30 5083 H 489.775 0.270775 1.41431 0
M  V30 5084 H 491.728 -1.69841 3.85658 0
M  V30 5085 H 490.452 -1.92899 2.63548 0
M  V30 5086 H 489.111 -0.0617157 3.66548 0
M  V30 5087 H 488.759 -2.42402 4.40738 0
M  V30 5088 H 488.459 -1.27564 5.73586 0
M  V30 5089 H 489.983 -2.20709 5.69315 0
M  V30 5090 H 491.397 0.0640052 5.73264 0
M  V30 5091 H 489.794 0.82649 5.94381 0
M  V30 5092 H 490.864 1.38735 4.6463 0
M  V30 5093 N 492.207 -1.54576 0.307264 0
M  V30 5094 C 493.157 -2.20467 -0.581249 0
M  V30 5095 C 494.141 -1.17972 -1.09414 0
M  V30 5096 O 495.333 -1.43667 -1.03387 0
M  V30 5097 C 492.462 -2.95369 -1.74963 0
M  V30 5098 C 491.548 -4.05186 -1.25241 0
M  V30 5099 N 491.939 -5.03577 -0.47364 0
M  V30 5100 C 490.237 -4.18841 -1.53259 0
M  V30 5101 C 490.938 -5.81328 -0.208083 0
M  V30 5102 N 489.914 -5.37834 -0.789651 0
M  V30 5103 H 493.716 -2.93892 0.0212221 0
M  V30 5104 H 491.23 -1.62011 0.112325 0
M  V30 5105 H 493.227 -3.41046 -2.39777 0
M  V30 5106 H 491.887 -2.23461 -2.35574 0
M  V30 5107 H 492.898 -5.17766 -0.117963 0
M  V30 5108 H 489.575 -3.58141 -2.14573 0
M  V30 5109 H 490.965 -6.706 0.417793 0
M  V30 5110 N 493.685 -0.035106 -1.57561 0
M  V30 5111 C 494.633 0.962707 -2.11742 0
M  V30 5112 C 495.627 1.33296 -1.0454 0
M  V30 5113 O 496.833 1.31449 -1.22968 0
M  V30 5114 H 493.208 0.32826 -0.676572 0
M  V30 5115 H 495.179 0.48048 -2.94506 0
M  V30 5116 C 493.928 2.23388 -2.66445 0
M  V30 5117 H 493.251 1.95774 -3.48587 0
M  V30 5118 H 494.691 2.91402 -3.07995 0
M  V30 5119 C 493.15 2.96769 -1.59467 0
M  V30 5120 O 493.68 3.89105 -0.998 0
M  V30 5121 N 491.886 2.59212 -1.31369 0
M  V30 5122 H 491.433 1.84202 -1.80076 0
M  V30 5123 H 491.391 3.08618 -0.600173 0
M  V30 5124 N 495.163 1.55791 0.238111 0
M  V30 5125 C 496.113 1.87444 1.29803 0
M  V30 5126 C 497.097 0.736043 1.43078 0
M  V30 5127 O 498.289 0.998146 1.46171 0
M  V30 5128 C 495.418 2.18028 2.65177 0
M  V30 5129 C 494.504 3.38217 2.55871 0
M  V30 5130 N 494.895 4.57264 2.16202 0
M  V30 5131 C 493.193 3.41502 2.86866 0
M  V30 5132 C 493.894 5.3941 2.17744 0
M  V30 5133 N 492.87 4.78695 2.57589 0
M  V30 5134 H 496.672 2.7701 0.981965 0
M  V30 5135 H 494.186 1.56135 0.44672 0
M  V30 5136 H 496.183 2.38873 3.4168 0
M  V30 5137 H 494.843 1.29765 2.97643 0
M  V30 5138 H 495.854 4.82727 1.87602 0
M  V30 5139 H 492.531 2.63536 3.23813 0
M  V30 5140 H 493.921 6.44671 1.89339 0
M  V30 5141 N 496.642 -0.504142 1.49319 0
M  V30 5142 C 497.872 -1.28071 1.62116 0
M  V30 5143 C 498.28 -1.86955 0.290566 0
M  V30 5144 O 497.623 -1.68415 -0.733616 0
M  V30 5145 C 497.685 -2.4521 2.62893 0
M  V30 5146 C 497.349 -2.07218 4.0732 0
M  V30 5147 C 498.346 -1.61375 4.94221 0
M  V30 5148 C 496.031 -2.16949 4.53033 0
M  V30 5149 C 498.025 -1.25763 6.2487 0
M  V30 5150 C 495.712 -1.80949 5.83696 0
M  V30 5151 C 496.71 -1.3543 6.69438 0
M  V30 5152 O 496.398 -0.99915 7.97667 0
M  V30 5153 H 496.13 -0.394763 0.54876 0
M  V30 5154 H 498.684 -0.612118 1.96067 0
M  V30 5155 H 496.914 -3.15134 2.24115 0
M  V30 5156 H 498.603 -3.0724 2.65252 0
M  V30 5157 H 499.369 -1.53306 4.60133 0
M  V30 5158 H 495.248 -2.5133 3.86463 0
M  V30 5159 H 498.792 -0.901631 6.91749 0
M  V30 5160 H 494.689 -1.88667 6.17313 0
M  V30 5161 H 495.457 -1.13089 8.1065 0
M  V30 5162 N 498.12 -1.38341 -0.754957 0
M  V30 5163 C 499.348 -1.37704 -1.54419 0
M  V30 5164 C 499.763 0.0335243 -1.8877 0
M  V30 5165 O 499.12 0.999773 -1.52679 0
M  V30 5166 C 499.171 -2.23136 -2.84416 0
M  V30 5167 O 498.892 -3.58697 -2.51531 0
M  V30 5168 C 500.393 -2.30664 -3.78562 0
M  V30 5169 H 497.613 -0.471061 -0.477852 0
M  V30 5170 H 500.157 -1.81902 -0.934446 0
M  V30 5171 H 498.312 -1.82403 -3.41772 0
M  V30 5172 H 498.726 -4.03665 -3.34896 0
M  V30 5173 H 500.2 -2.9473 -4.66732 0
M  V30 5174 H 500.677 -1.3199 -4.18898 0
M  V30 5175 H 501.283 -2.71781 -3.27131 0
M  V30 5176 N 499.598 0.982988 -1.23187 0
M  V30 5177 C 500.53 2.07729 -0.968572 0
M  V30 5178 C 501.543 1.62702 0.0564821 0
M  V30 5179 O 502.732 1.77603 -0.178733 0
M  V30 5180 C 499.832 3.36071 -0.436974 0
M  V30 5181 C 499.005 4.10081 -1.52159 0
M  V30 5182 C 498.064 5.16701 -0.99532 0
M  V30 5183 O 497.09 5.43727 -1.68373 0
M  V30 5184 N 498.292 5.80226 0.178192 0
M  V30 5185 H 501.057 2.30894 -1.9107 0
M  V30 5186 H 498.618 1.14949 -1.1401 0
M  V30 5187 H 500.61 4.04639 -0.0700051 0
M  V30 5188 H 499.18 3.09893 0.410509 0
M  V30 5189 H 498.4 3.36004 -2.06144 0
M  V30 5190 H 499.688 4.56295 -2.25105 0
M  V30 5191 H 499.086 5.60651 0.754096 0
M  V30 5192 H 497.643 6.49982 0.486449 0
M  V30 5193 N 501.076 1.04316 1.18135 0
M  V30 5194 C 502.023 0.636398 2.21853 0
M  V30 5195 C 502.993 -0.357039 1.62217 0
M  V30 5196 O 504.178 -0.250453 1.89149 0
M  V30 5197 C 501.318 0.00812779 3.45099 0
M  V30 5198 C 500.431 1.04933 4.19062 0
M  V30 5199 C 499.566 0.389313 5.29771 0
M  V30 5200 C 498.605 1.41544 5.9551 0
M  V30 5201 N 497.742 0.78021 6.97751 0
M  V30 5202 H 502.582 1.52536 2.56002 0
M  V30 5203 H 500.119 0.76304 1.25762 0
M  V30 5204 H 502.077 -0.373497 4.15525 0
M  V30 5205 H 500.707 -0.844336 3.11562 0
M  V30 5206 H 499.759 1.54888 3.47439 0
M  V30 5207 H 501.071 1.82862 4.64072 0
M  V30 5208 H 500.225 -0.0463805 6.06682 0
M  V30 5209 H 498.964 -0.422038 4.8587 0
M  V30 5210 H 497.969 1.86124 5.17337 0
M  V30 5211 H 499.194 2.22854 6.41493 0
M  V30 5212 H 497.14 -0.0107899 6.55999 0
M  V30 5213 H 497.057 1.49716 7.41027 0
M  V30 5214 H 498.325 0.368996 7.78626 0
M  V30 5215 N 502.554 -1.34406 0.822964 0
M  V30 5216 C 503.779 -2.0304 0.423034 0
M  V30 5217 C 504.204 -1.61568 -0.963196 0
M  V30 5218 O 503.562 -0.800339 -1.62678 0
M  V30 5219 C 503.61 -3.56636 0.53321 0
M  V30 5220 O 502.714 -4.09971 -0.446939 0
M  V30 5221 H 502.055 -0.64075 0.174171 0
M  V30 5222 H 504.585 -1.71653 1.11339 0
M  V30 5223 H 504.595 -4.05945 0.408991 0
M  V30 5224 H 503.27 -3.86168 1.54425 0
M  V30 5225 H 501.847 -3.71835 -0.281601 0
M  V30 5226 N 504.032 -0.577932 -1.46621 0
M  V30 5227 C 504.962 0.145917 -2.33044 0
M  V30 5228 C 505.943 0.888412 -1.45056 0
M  V30 5229 O 507.128 0.864812 -1.73881 0
M  V30 5230 C 504.258 1.16322 -3.27241 0
M  V30 5231 C 503.212 0.535868 -4.24632 0
M  V30 5232 C 502.538 1.65929 -5.08303 0
M  V30 5233 C 503.838 -0.523861 -5.19666 0
M  V30 5234 H 505.532 -0.575636 -2.93814 0
M  V30 5235 H 503.078 -0.278272 -1.41286 0
M  V30 5236 H 505.031 1.67793 -3.86553 0
M  V30 5237 H 503.755 1.91498 -2.64567 0
M  V30 5238 H 502.414 0.0422759 -3.66576 0
M  V30 5239 H 502.062 2.40061 -4.42018 0
M  V30 5240 H 501.762 1.2452 -5.74255 0
M  V30 5241 H 503.286 2.17686 -5.70478 0
M  V30 5242 H 504.7 -0.0944059 -5.73222 0
M  V30 5243 H 503.097 -0.858 -5.93935 0
M  V30 5244 H 504.167 -1.41197 -4.63887 0
M  V30 5245 N 505.51 1.54411 -0.315457 0
M  V30 5246 C 506.735 2.05299 0.294496 0
M  V30 5247 C 507.16 1.19052 1.4563 0
M  V30 5248 O 506.518 0.197804 1.80218 0
M  V30 5249 C 506.566 3.5345 0.714549 0
M  V30 5250 O 505.67 3.70175 1.81781 0
M  V30 5251 H 505.011 0.661743 0.0547019 0
M  V30 5252 H 507.541 1.99327 -0.461508 0
M  V30 5253 H 507.551 3.9557 0.999426 0
M  V30 5254 H 506.226 4.1568 -0.135244 0
M  V30 5255 H 504.803 3.3996 1.53236 0
M  V30 5256 N 506.988 0.0434614 1.5754 0
M  V30 5257 C 507.918 -0.931651 2.14109 0
M  V30 5258 C 508.899 -1.32971 1.06079 0
M  V30 5259 O 510.084 -1.40579 1.33982 0
M  V30 5260 C 507.214 -2.20914 2.67982 0
M  V30 5261 C 506.168 -1.95139 3.80926 0
M  V30 5262 C 505.494 -3.29276 4.21285 0
M  V30 5263 C 506.794 -1.27913 5.06395 0
M  V30 5264 H 508.488 -0.460497 2.95837 0
M  V30 5265 H 506.034 -0.220058 1.42309 0
M  V30 5266 H 507.987 -2.89522 3.06194 0
M  V30 5267 H 506.711 -2.70221 1.83434 0
M  V30 5268 H 505.37 -1.28945 3.43175 0
M  V30 5269 H 505.018 -3.76369 3.33699 0
M  V30 5270 H 504.718 -3.12831 4.97404 0
M  V30 5271 H 506.242 -3.99129 4.62091 0
M  V30 5272 H 507.656 -1.86544 5.42102 0
M  V30 5273 H 506.053 -1.2182 5.87605 0
M  V30 5274 H 507.123 -0.254066 4.84234 0
M  V30 5275 N 508.466 -1.55915 -0.229846 0
M  V30 5276 C 509.691 -1.8296 -0.976743 0
M  V30 5277 C 510.116 -0.622735 -1.77493 0
M  V30 5278 O 509.474 0.428431 -1.76165 0
M  V30 5279 C 509.522 -3.07916 -1.8767 0
M  V30 5280 O 508.626 -2.86028 -2.97088 0
M  V30 5281 H 507.967 -0.603453 -0.277021 0
M  V30 5282 H 510.497 -2.0312 -0.245669 0
M  V30 5283 H 510.507 -3.37802 -2.2881 0
M  V30 5284 H 509.182 -3.95389 -1.28996 0
M  V30 5285 H 507.759 -2.67355 -2.59954 0
M  V30 5286 N 509.944 0.496216 -1.49584 0
M  V30 5287 C 511.355 1.07765 -1.52459 0
M  V30 5288 C 511.706 1.93679 -0.31353 0
M  V30 5289 O 510.831 2.08588 0.576186 0
M  V30 5290 C 511.426 1.96111 -2.76271 0
M  V30 5291 C 509.985 2.49409 -2.81908 0
M  V30 5292 C 509.132 1.27142 -2.46435 0
M  V30 5293 H 512.083 0.279914 -1.56212 0
M  V30 5294 H 512.104 2.80862 -2.56704 0
M  V30 5295 H 511.616 1.33555 -3.64396 0
M  V30 5296 H 509.717 3.1559 -1.98074 0
M  V30 5297 H 509.83 2.86234 -3.84196 0
M  V30 5298 H 508.194 1.59818 -1.98319 0
M  V30 5299 H 508.977 0.662866 -3.3684 0
M  V30 5300 N 511.423 1.38739 0.74761 0
M  V30 5301 C 512.671 1.35007 1.50391 0
M  V30 5302 C 512.992 -0.0574274 1.94915 0
M  V30 5303 O 512.262 -1.00628 1.6808 0
M  V30 5304 H 510.842 0.496784 0.557866 0
M  V30 5305 H 513.504 1.73479 0.888319 0
M  V30 5306 H 512.6 2.00474 2.392 0
M  V30 5307 N 512.901 -0.976442 1.23707 0
M  V30 5308 C 513.848 -2.06952 1.02174 0
M  V30 5309 C 514.818 -1.65984 -0.0621034 0
M  V30 5310 O 516.003 -1.90584 0.0907906 0
M  V30 5311 C 513.143 -3.39425 0.62327 0
M  V30 5312 C 512.256 -3.9364 1.77966 0
M  V30 5313 C 511.391 -5.14343 1.3276 0
M  V30 5314 C 510.43 -5.60733 2.45449 0
M  V30 5315 N 509.567 -6.72662 2.01172 0
M  V30 5316 H 514.407 -2.24704 1.95734 0
M  V30 5317 H 511.944 -1.10143 0.975034 0
M  V30 5318 H 513.902 -4.15526 0.37332 0
M  V30 5319 H 512.532 -3.21624 -0.275329 0
M  V30 5320 H 511.584 -3.14258 2.14351 0
M  V30 5321 H 512.896 -4.24035 2.62671 0
M  V30 5322 H 512.05 -5.97789 1.03601 0
M  V30 5323 H 510.789 -4.8561 0.450975 0
M  V30 5324 H 509.794 -4.75865 2.75378 0
M  V30 5325 H 511.019 -5.91483 3.33654 0
M  V30 5326 H 508.965 -6.45681 1.15895 0
M  V30 5327 H 508.882 -7.02462 2.79434 0
M  V30 5328 H 510.15 -7.59572 1.75129 0
M  V30 5329 O 514.418 -1.17461 -1.10838 0
M  V30 5330 H 515.109 -0.912283 -1.70872 0
M  V30 END ATOM
M  V30 BEGIN BOND
M  V30 END BOND
M  V30 END CTAB
M  END
$$$$
