drugbank_target|Q6QNK2 Adhesion G-protein coupled receptor D1 (DB12637)
 OpenBabel12092121023D

  0  0  0     0  0            999 V3000
M  V30 BEGIN CTAB
M  V30 COUNTS 13553 13741 0 0 0
M  V30 BEGIN ATOM
M  V30 1 H -0.908 1.98254 -0.117106 0
M  V30 2 N 0 1.576 0 0
M  V30 3 C 0.933 2.03868 1.02534 0
M  V30 4 C 1.911 0.928543 1.3348 0
M  V30 5 O 3.095 1.19667 1.45644 0
M  V30 6 C 0.222 2.43627 2.35294 0
M  V30 7 C -0.732 3.65373 2.2001 0
M  V30 8 S 0.101 5.13292 1.52614 0
M  V30 9 C 1.257 5.56322 2.86805 0
M  V30 10 H 1.49 2.90518 0.631377 0
M  V30 11 H -0.977 1.52953 0.210867 0
M  V30 12 H 0.981 2.67203 3.11629 0
M  V30 13 H -0.358 1.57376 2.7183 0
M  V30 14 H -1.165 3.90944 3.18086 0
M  V30 15 H -1.563 3.418 1.51819 0
M  V30 16 H 0.729 5.58782 3.83104 0
M  V30 17 H 1.672 6.56266 2.65933 0
M  V30 18 H 2.08 4.83886 2.90714 0
M  V30 19 N 1.4781 -0.272755 1.55222 0
M  V30 20 C 2.3881 -1.35918 1.91216 0
M  V30 21 C 3.4041 -1.54026 0.809436 0
M  V30 22 O 4.5801 -1.68148 1.10852 0
M  V30 23 C 1.6451 -2.69834 2.17693 0
M  V30 24 C 0.7061 -2.6047 3.41253 0
M  V30 25 C -0.0609 -3.88 3.66458 0
M  V30 26 O 0.1621 -4.88693 2.94169 0
M  V30 27 O -0.9039 -3.88189 4.59992 0
M  V30 28 H 2.9221 -1.0839 2.83699 0
M  V30 29 H 0.5071 -0.471301 1.41771 0
M  V30 30 H 2.3891 -3.49017 2.36147 0
M  V30 31 H 1.0641 -2.97148 1.28392 0
M  V30 32 H -0.0289 -1.79663 3.28134 0
M  V30 33 H 1.3041 -2.38106 4.30774 0
M  V30 34 N 2.9562 -1.48159 -0.537278 0
M  V30 35 C 3.9032 -1.62138 -1.64256 0
M  V30 36 C 4.8732 -0.463668 -1.59497 0
M  V30 37 O 6.0582 -0.686241 -1.78032 0
M  V30 38 C 3.1982 -1.66028 -3.02537 0
M  V30 39 C 2.3112 -2.92855 -3.17585 0
M  V30 40 C 1.4462 -2.87952 -4.46382 0
M  V30 41 C 0.4852 -4.09516 -4.54932 0
M  V30 42 N -0.3778 -4.02733 -5.75109 0
M  V30 43 H 4.4622 -2.56529 -1.51647 0
M  V30 44 H 1.9992 -1.27224 -0.738414 0
M  V30 45 H 3.9572 -1.66265 -3.82638 0
M  V30 46 H 2.5872 -0.751331 -3.13934 0
M  V30 47 H 1.6392 -3.02395 -2.30784 0
M  V30 48 H 2.9512 -3.82822 -3.19764 0
M  V30 49 H 2.1052 -2.8655 -5.34765 0
M  V30 50 H 0.8442 -1.95702 -4.46712 0
M  V30 51 H -0.1508 -4.11201 -3.64957 0
M  V30 52 H 1.0742 -5.02917 -4.56346 0
M  V30 53 H -0.9798 -3.13299 -5.76351 0
M  V30 54 H -1.0628 -4.86397 -5.78752 0
M  V30 55 H 0.2052 -4.05379 -6.65799 0
M  V30 56 N 4.4343 0.785586 -1.36625 0
M  V30 57 C 5.3643 1.91259 -1.33949 0
M  V30 58 C 6.3453 1.68795 -0.210325 0
M  V30 59 O 7.5303 1.89854 -0.408561 0
M  V30 60 C 4.6603 3.28339 -1.13186 0
M  V30 61 C 3.6143 3.65335 -2.22967 0
M  V30 62 C 2.9403 5.00806 -1.87342 0
M  V30 63 C 4.2403 3.7352 -3.65075 0
M  V30 64 H 5.9343 1.93755 -2.28253 0
M  V30 65 H 3.4803 0.930788 -1.09874 0
M  V30 66 H 5.4333 4.06804 -1.09948 0
M  V30 67 H 4.1573 3.2624 -0.153332 0
M  V30 68 H 2.8163 2.89169 -2.25337 0
M  V30 69 H 2.4643 4.95233 -0.880545 0
M  V30 70 H 2.1643 5.26529 -2.60846 0
M  V30 71 H 3.6883 5.81687 -1.85667 0
M  V30 72 H 5.1023 4.42168 -3.64911 0
M  V30 73 H 3.4993 4.10731 -4.37516 0
M  V30 74 H 4.5693 2.74527 -3.99703 0
M  V30 75 N 5.9124 1.20967 1.01018 0
M  V30 76 C 6.8424 0.988272 2.11555 0
M  V30 77 C 7.8234 -0.0849778 1.69888 0
M  V30 78 O 9.0084 0.0738202 1.9406 0
M  V30 79 C 6.1384 0.546528 3.42973 0
M  V30 80 C 5.0924 1.56375 3.9841 0
M  V30 81 C 4.4184 0.97842 5.25672 0
M  V30 82 C 5.7184 2.94922 4.31066 0
M  V30 83 H 7.4124 1.91276 2.30334 0
M  V30 84 H 4.9584 0.921073 1.1069 0
M  V30 85 H 6.9114 0.378839 4.19694 0
M  V30 86 H 5.6354 -0.413598 3.23971 0
M  V30 87 H 4.2944 1.71891 3.23804 0
M  V30 88 H 3.9424 0.0101688 5.02999 0
M  V30 89 H 3.6424 1.65784 5.63728 0
M  V30 90 H 5.1664 0.821939 6.05043 0
M  V30 91 H 6.5804 2.8288 4.9865 0
M  V30 92 H 4.9774 3.5983 4.80253 0
M  V30 93 H 6.0474 3.4616 3.39561 0
M  V30 94 N 7.3905 -1.2043 1.01659 0
M  V30 95 C 8.8065 -1.41852 0.731442 0
M  V30 96 C 9.0065 -1.89358 -0.688898 0
M  V30 97 O 8.0625 -2.06247 -1.45666 0
M  V30 98 C 9.3755 -2.44019 1.75714 0
M  V30 99 C 10.9235 -2.57785 1.77527 0
M  V30 100 C 11.3985 -3.63194 2.79023 0
M  V30 101 N 12.8895 -3.70678 2.77763 0
M  V30 102 C 13.6245 -4.51897 3.52954 0
M  V30 103 N 13.1205 -5.36921 4.37821 0
M  V30 104 N 14.9135 -4.4643 3.41551 0
M  V30 105 H 7.0645 -0.879093 1.93354 0
M  V30 106 H 9.3275 -0.448425 0.835236 0
M  V30 107 H 9.0335 -2.1611 2.77469 0
M  V30 108 H 8.9075 -3.43007 1.56927 0
M  V30 109 H 11.2945 -2.85023 0.764569 0
M  V30 110 H 11.3755 -1.58992 2.00387 0
M  V30 111 H 11.0195 -3.36699 3.80258 0
M  V30 112 H 10.9495 -4.61609 2.53425 0
M  V30 113 H 13.4405 -3.09944 2.16201 0
M  V30 114 H 13.7535 -5.95981 4.91962 0
M  V30 115 H 12.0985 -5.36424 4.41899 0
M  V30 116 H 15.2895 -3.79042 2.74672 0
M  V30 117 H 15.4625 -5.09491 4.00404 0
M  V30 118 N 8.8686 -0.792821 -1.36206 0
M  V30 119 C 9.7986 -0.207853 -2.32573 0
M  V30 120 C 10.7796 0.659055 -1.56813 0
M  V30 121 O 11.9646 0.592176 -1.84951 0
M  V30 122 C 9.0946 0.655449 -3.41059 0
M  V30 123 C 8.0486 -0.111842 -4.27854 0
M  V30 124 C 7.3746 0.872274 -5.27537 0
M  V30 125 C 8.6746 -1.30299 -5.05786 0
M  V30 126 H 10.3686 -1.01294 -2.81744 0
M  V30 127 H 7.9146 -0.48854 -1.3546 0
M  V30 128 H 9.8676 1.07464 -4.07467 0
M  V30 129 H 8.5916 1.49328 -2.90463 0
M  V30 130 H 7.2506 -0.512053 -3.63006 0
M  V30 131 H 6.8986 1.70523 -4.73214 0
M  V30 132 H 6.5986 0.363291 -5.86476 0
M  V30 133 H 8.1226 1.28996 -5.96818 0
M  V30 134 H 9.5366 -0.959379 -5.65216 0
M  V30 135 H 7.9336 -1.7455 -5.74154 0
M  V30 136 H 9.0036 -2.09663 -4.37229 0
M  V30 137 N 10.3467 1.47872 -0.545128 0
M  V30 138 C 11.5867 2.04391 -0.0187854 0
M  V30 139 C 11.9507 1.41162 1.30144 0
M  V30 140 O 13.1517 1.88656 1.91474 0
M  V30 141 C 11.4227 3.57299 0.0850867 0
M  V30 142 S 12.9817 4.35221 0.559302 0
M  V30 143 H 9.7997 0.710737 -0.0193301 0
M  V30 144 H 12.4017 1.81395 -0.729125 0
M  V30 145 H 11.1057 4.00847 -0.880351 0
M  V30 146 H 10.6367 3.84773 0.819348 0
M  V30 147 H 12.6517 4.61571 1.82118 0
M  V30 148 N 11.8248 0.280983 1.55075 0
M  V30 149 C 13.0648 -0.335234 2.01632 0
M  V30 150 C 13.4288 -1.5261 1.16508 0
M  V30 151 O 14.6298 -2.21235 1.52672 0
M  V30 152 C 12.9008 -0.702172 3.50434 0
M  V30 153 S 14.4598 -1.30409 4.18974 0
M  V30 154 H 11.2778 -0.103967 0.703358 0
M  V30 155 H 13.8798 0.404187 1.91276 0
M  V30 156 H 12.5838 0.17333 4.10034 0
M  V30 157 H 12.1148 -1.4729 3.64786 0
M  V30 158 H 14.1298 -2.59253 4.23087 0
M  V30 159 N 13.3029 -1.57598 0.00835791 0
M  V30 160 C 14.5489 -1.92046 -0.670055 0
M  V30 161 C 14.9039 -0.88351 -1.70915 0
M  V30 162 O 14.1969 0.103223 -1.91322 0
M  V30 163 C 14.3909 -3.3101 -1.34787 0
M  V30 164 C 14.2199 -4.48126 -0.375945 0
M  V30 165 C 12.9899 -5.05297 0.0166914 0
M  V30 166 C 15.1879 -5.1303 0.361272 0
M  V30 167 N 13.1699 -6.05931 0.985952 0
M  V30 168 C 14.5409 -6.08571 1.18495 0
M  V30 169 C 16.5959 -4.9609 0.42421 0
M  V30 170 C 15.2989 -6.88996 2.06584 0
M  V30 171 C 17.3249 -5.77107 1.29236 0
M  V30 172 C 16.6869 -6.72248 2.10386 0
M  V30 173 H 12.7859 -0.75096 -0.218136 0
M  V30 174 H 15.3699 -1.94572 0.0706669 0
M  V30 175 H 13.5409 -3.29342 -2.05884 0
M  V30 176 H 15.2729 -3.52864 -1.98164 0
M  V30 177 H 12.0279 -4.72279 -0.353435 0
M  V30 178 H 12.4519 -6.60932 1.4662 0
M  V30 179 H 17.0939 -4.22378 -0.188915 0
M  V30 180 H 14.8119 -7.62028 2.6896 0
M  V30 181 H 18.3979 -5.66038 1.34508 0
M  V30 182 H 17.2779 -7.33846 2.76476 0
M  V30 183 N 14.781 0.264519 -1.55364 0
M  V30 184 C 16.011 1.01153 -1.80143 0
M  V30 185 C 16.419 1.80115 -0.579253 0
M  V30 186 O 15.762 1.77813 0.46132 0
M  V30 187 C 15.824 2.01098 -2.97993 0
M  V30 188 C 15.488 1.40995 -4.34706 0
M  V30 189 C 16.485 0.821316 -5.13372 0
M  V30 190 C 14.17 1.43461 -4.81378 0
M  V30 191 C 16.164 0.265339 -6.36847 0
M  V30 192 C 13.851 0.874771 -6.04807 0
M  V30 193 C 14.849 0.291146 -6.82379 0
M  V30 194 O 14.537 -0.260093 -8.03479 0
M  V30 195 H 14.269 0.304125 -0.603725 0
M  V30 196 H 16.823 0.298089 -2.03225 0
M  V30 197 H 15.053 2.76224 -2.70623 0
M  V30 198 H 16.742 2.61997 -3.1002 0
M  V30 199 H 17.508 0.794903 -4.78442 0
M  V30 200 H 13.387 1.87826 -4.21002 0
M  V30 201 H 16.931 -0.190837 -6.97339 0
M  V30 202 H 12.828 0.898452 -6.39217 0
M  V30 203 H 13.596 -0.150265 -8.18362 0
M  V30 204 N 16.2591 1.48442 0.529413 0
M  V30 205 C 17.4841 1.60406 1.31471 0
M  V30 206 C 17.9091 0.264738 1.86228 0
M  V30 207 O 17.2671 -0.763668 1.64432 0
M  V30 208 C 17.3151 2.65419 2.44101 0
M  V30 209 O 16.4191 2.22618 3.47153 0
M  V30 210 H 15.7601 0.537863 0.389357 0
M  V30 211 H 18.2901 1.94432 0.636965 0
M  V30 212 H 18.3001 2.86709 2.90279 0
M  V30 213 H 16.9751 3.62652 2.03608 0
M  V30 214 H 15.5521 2.11543 3.0709 0
M  V30 215 N 17.7372 -0.778329 1.37039 0
M  V30 216 C 18.9832 -1.53817 1.33086 0
M  V30 217 C 19.3382 -1.92208 -0.0860346 0
M  V30 218 O 18.6312 -1.60713 -1.04316 0
M  V30 219 C 18.8252 -2.81845 2.19768 0
M  V30 220 C 18.6542 -2.55967 3.69744 0
M  V30 221 C 17.4242 -2.50428 4.38878 0
M  V30 222 C 19.6222 -2.2441 4.62758 0
M  V30 223 N 17.6042 -2.16564 5.74433 0
M  V30 224 C 18.9752 -2.0063 5.86641 0
M  V30 225 C 21.0302 -2.1051 4.5121 0
M  V30 226 C 19.7332 -1.64354 7.00272 0
M  V30 227 C 21.7592 -1.75634 5.64718 0
M  V30 228 C 21.1212 -1.52709 6.87648 0
M  V30 229 H 17.2202 -0.563434 0.542279 0
M  V30 230 H 19.8042 -0.908617 1.72198 0
M  V30 231 H 17.9752 -3.42649 1.82883 0
M  V30 232 H 19.7072 -3.47682 2.07122 0
M  V30 233 H 16.4622 -2.66056 3.91805 0
M  V30 234 H 16.8862 -2.02348 6.46053 0
M  V30 235 H 21.5282 -2.26919 3.56746 0
M  V30 236 H 19.2462 -1.46683 7.94676 0
M  V30 237 H 22.8322 -1.65546 5.57751 0
M  V30 238 H 21.7122 -1.2612 7.73992 0
M  V30 239 N 19.2153 -1.21501 -1.00376 0
M  V30 240 C 20.1453 -0.999478 -2.11028 0
M  V30 241 C 21.1263 0.0759671 -1.6993 0
M  V30 242 O 22.3113 -0.0841106 -1.94018 0
M  V30 243 C 19.4413 -0.564709 -3.42678 0
M  V30 244 C 18.3953 -1.58486 -3.97576 0
M  V30 245 C 17.7213 -1.00628 -5.25146 0
M  V30 246 C 19.0213 -2.97204 -4.29496 0
M  V30 247 H 20.7153 -1.92495 -2.29317 0
M  V30 248 H 18.2613 -0.92693 -1.102 0
M  V30 249 H 20.2143 -0.401091 -4.19487 0
M  V30 250 H 18.9383 0.396411 -3.24185 0
M  V30 251 H 17.5973 -1.73606 -3.22888 0
M  V30 252 H 17.2453 -0.0368439 -5.02987 0
M  V30 253 H 16.9453 -1.68771 -5.62841 0
M  V30 254 H 18.4693 -0.854015 -6.04598 0
M  V30 255 H 19.8833 -2.8552 -4.97143 0
M  V30 256 H 18.2803 -3.62372 -4.78338 0
M  V30 257 H 19.3503 -3.47956 -3.3772 0
M  V30 258 N 20.6934 1.19889 -1.02296 0
M  V30 259 C 21.6234 2.25141 -0.619174 0
M  V30 260 C 22.6044 1.66051 0.368915 0
M  V30 261 O 23.7894 1.92546 0.252941 0
M  V30 262 C 20.9194 3.4728 0.0368783 0
M  V30 263 C 19.8734 4.19005 -0.872865 0
M  V30 264 C 19.1994 5.34637 -0.0822402 0
M  V30 265 C 20.4994 4.74452 -2.18387 0
M  V30 266 H 22.1934 2.59171 -1.49903 0
M  V30 267 H 19.7394 1.24579 -0.722222 0
M  V30 268 H 21.6924 4.20098 0.330958 0
M  V30 269 H 20.4164 3.12433 0.95149 0
M  V30 270 H 19.0754 3.48061 -1.15105 0
M  V30 271 H 18.7234 4.96034 0.83422 0
M  V30 272 H 18.4234 5.83557 -0.688149 0
M  V30 273 H 19.9474 6.10255 0.205238 0
M  V30 274 H 21.3614 5.39055 -1.95172 0
M  V30 275 H 19.7584 5.33834 -2.74119 0
M  V30 276 H 20.8284 3.92844 -2.84257 0
M  V30 277 N 22.1715 0.800033 1.35784 0
M  V30 278 C 23.1015 0.220184 2.3246 0
M  V30 279 C 24.0825 -0.65073 1.57161 0
M  V30 280 O 25.2675 -0.582359 1.85263 0
M  V30 281 C 22.3975 -0.637353 3.41402 0
M  V30 282 C 21.3515 0.134531 4.27789 0
M  V30 283 C 20.6775 -0.844285 5.27992 0
M  V30 284 C 21.9775 1.32979 5.05088 0
M  V30 285 H 23.6715 1.02787 2.81203 0
M  V30 286 H 21.2175 0.495717 1.35199 0
M  V30 287 H 23.1705 -1.05302 4.08031 0
M  V30 288 H 21.8945 -1.47785 2.91251 0
M  V30 289 H 20.5535 0.531296 3.6273 0
M  V30 290 H 20.2015 -1.68011 4.74111 0
M  V30 291 H 19.9015 -0.332184 5.8666 0
M  V30 292 H 21.4255 -1.2583 5.97494 0
M  V30 293 H 22.8395 0.98934 5.64699 0
M  V30 294 H 21.2365 1.77593 5.7322 0
M  V30 295 H 22.3065 2.11978 4.36111 0
M  V30 296 N 23.6496 -1.47581 0.552962 0
M  V30 297 C 24.8966 -2.02482 0.0273243 0
M  V30 298 C 25.2246 -1.42776 -1.32081 0
M  V30 299 O 24.4796 -0.571393 -1.87173 0
M  V30 300 C 24.7786 -3.57199 -0.119728 0
M  V30 301 C 24.4446 -4.35804 1.15697 0
M  V30 302 C 23.1066 -4.57 1.50681 0
M  V30 303 C 25.4586 -4.81167 2.00319 0
M  V30 304 C 22.7866 -5.20807 2.70142 0
M  V30 305 C 25.1386 -5.46293 3.18978 0
M  V30 306 C 23.8026 -5.65722 3.54281 0
M  V30 307 H 23.0726 -0.740933 0.00999866 0
M  V30 308 H 25.7196 -1.77302 0.72362 0
M  V30 309 H 24.0246 -3.81348 -0.89896 0
M  V30 310 H 25.7216 -3.97324 -0.541718 0
M  V30 311 H 22.3116 -4.19582 0.874561 0
M  V30 312 H 26.4956 -4.64574 1.74599 0
M  V30 313 H 21.7516 -5.34045 2.97668 0
M  V30 314 H 25.9256 -5.80407 3.84838 0
M  V30 315 H 23.5526 -6.14936 4.46942 0
M  V30 316 N 25.1277 -0.289203 -1.54924 0
M  V30 317 C 26.3577 0.325989 -2.04012 0
M  V30 318 C 26.7657 1.48961 -1.1665 0
M  V30 319 O 26.1087 1.82794 -0.1822 0
M  V30 320 C 26.1707 0.856112 -3.49158 0
M  V30 321 C 25.8347 -0.180697 -4.56643 0
M  V30 322 C 26.8317 -1.0051 -5.10092 0
M  V30 323 C 24.5167 -0.318998 -5.01286 0
M  V30 324 C 26.5107 -1.95385 -6.06715 0
M  V30 325 C 24.1977 -1.27121 -5.97732 0
M  V30 326 C 25.1957 -2.08713 -6.50329 0
M  V30 327 O 24.8837 -3.02322 -7.44887 0
M  V30 328 H 24.6157 0.0765276 -0.671654 0
M  V30 329 H 27.1697 -0.423254 -2.00992 0
M  V30 330 H 25.3997 1.65567 -3.49463 0
M  V30 331 H 27.0887 1.38591 -3.81507 0
M  V30 332 H 27.8547 -0.90906 -4.76404 0
M  V30 333 H 23.7337 0.306108 -4.59983 0
M  V30 334 H 27.2777 -2.59111 -6.47694 0
M  V30 335 H 23.1747 -1.36801 -6.30837 0
M  V30 336 H 23.9427 -2.97165 -7.6265 0
M  V30 337 N 26.6058 1.57591 -0.0167156 0
M  V30 338 C 27.8358 1.95292 0.674149 0
M  V30 339 C 28.2438 0.891097 1.66901 0
M  V30 340 O 27.5868 -0.136908 1.83189 0
M  V30 341 C 27.6488 3.29072 1.44747 0
M  V30 342 C 27.3128 4.52879 0.612331 0
M  V30 343 C 28.3098 5.1979 -0.107126 0
M  V30 344 C 25.9948 4.99242 0.553381 0
M  V30 345 C 27.9888 6.31375 -0.874339 0
M  V30 346 C 25.6758 6.10713 -0.217546 0
M  V30 347 C 26.6738 6.76637 -0.930123 0
M  V30 348 O 26.3618 7.85969 -1.68844 0
M  V30 349 H 26.0938 0.648275 0.191615 0
M  V30 350 H 28.6478 2.05284 -0.0690148 0
M  V30 351 H 26.8778 3.15535 2.2355 0
M  V30 352 H 28.5668 3.51764 2.02526 0
M  V30 353 H 29.3328 4.84948 -0.0708392 0
M  V30 354 H 25.2118 4.47744 1.09757 0
M  V30 355 H 28.7558 6.82764 -1.43106 0
M  V30 356 H 24.6528 6.44994 -0.255593 0
M  V30 357 H 25.4208 8.02571 -1.6069 0
M  V30 358 N 28.0839 -0.256276 1.55502 0
M  V30 359 C 29.0319 -1.33694 1.90338 0
M  V30 360 C 30.0259 -1.50299 0.781441 0
M  V30 361 O 31.2319 -1.51885 0.965966 0
M  V30 362 H 27.6069 -0.447483 0.60437 0
M  V30 363 H 29.5779 -1.01574 2.8058 0
M  V30 364 C 28.3269 -2.68724 2.20642 0
M  V30 365 H 27.6499 -2.56743 3.06469 0
M  V30 366 H 29.0899 -3.43237 2.48926 0
M  V30 367 C 27.5489 -3.21101 1.01959 0
M  V30 368 O 28.0789 -4.0084 0.262762 0
M  V30 369 N 26.2849 -2.79003 0.812746 0
M  V30 370 H 25.8319 -2.14271 1.42989 0
M  V30 371 H 25.7899 -3.14393 0.0203076 0
M  V30 372 N 29.562 -1.4872 -0.521534 0
M  V30 373 C 30.809 -1.57168 -1.27689 0
M  V30 374 C 31.137 -0.249275 -1.92896 0
M  V30 375 O 30.392 0.761162 -1.80291 0
M  V30 376 C 30.691 -2.66497 -2.38148 0
M  V30 377 C 30.357 -4.08664 -1.90538 0
M  V30 378 C 29.019 -4.47357 -1.77271 0
M  V30 379 C 31.371 -4.97724 -1.54663 0
M  V30 380 C 28.699 -5.72905 -1.26478 0
M  V30 381 C 31.051 -6.2377 -1.05329 0
M  V30 382 C 29.715 -6.61311 -0.906861 0
M  V30 383 H 28.985 -0.575117 -0.467249 0
M  V30 384 H 31.632 -1.82472 -0.581051 0
M  V30 385 H 29.937 -2.35085 -3.13437 0
M  V30 386 H 31.634 -2.70246 -2.96257 0
M  V30 387 H 28.224 -3.78111 -2.01816 0
M  V30 388 H 32.408 -4.68501 -1.63768 0
M  V30 389 H 27.664 -6.00709 -1.13835 0
M  V30 390 H 31.838 -6.9217 -0.76644 0
M  V30 391 H 29.465 -7.5848 -0.511083 0
M  V30 392 N 31.0401 0.771051 -1.3745 0
M  V30 393 C 31.9721 1.89352 -1.29146 0
M  V30 394 C 32.9851 1.61477 -0.207124 0
M  V30 395 O 34.1741 1.72382 -0.463324 0
M  V30 396 C 31.2741 3.24596 -0.974195 0
M  V30 397 C 30.4471 3.80111 -2.16413 0
M  V30 398 C 29.5061 4.93832 -1.81703 0
M  V30 399 O 28.5321 5.09382 -2.54006 0
M  V30 400 N 29.7341 5.75483 -0.761573 0
M  V30 401 H 32.4991 1.96991 -2.25864 0
M  V30 402 H 30.0601 0.950191 -1.31084 0
M  V30 403 H 32.0521 3.98193 -0.722828 0
M  V30 404 H 30.6221 3.12454 -0.0955527 0
M  V30 405 H 29.8421 2.98284 -2.57721 0
M  V30 406 H 31.1301 4.13932 -2.95867 0
M  V30 407 H 30.5281 5.65469 -0.161609 0
M  V30 408 H 29.0851 6.49302 -0.570064 0
M  V30 409 N 32.5182 1.22032 0.997298 0
M  V30 410 C 33.7642 1.04376 1.73878 0
M  V30 411 C 34.0972 -0.420716 1.89588 0
M  V30 412 O 33.3722 -1.31202 1.43583 0
M  V30 413 C 33.6552 1.75047 3.14691 0
M  V30 414 C 33.5082 3.29062 3.06656 0
M  V30 415 C 34.8272 1.49928 4.13775 0
M  V30 416 H 31.9462 0.380578 0.631133 0
M  V30 417 H 34.5882 1.50312 1.16217 0
M  V30 418 H 32.7382 1.35996 3.63919 0
M  V30 419 H 34.4102 3.7753 2.65083 0
M  V30 420 H 32.6532 3.58967 2.43568 0
M  V30 421 H 33.3242 3.73683 4.06282 0
M  V30 422 H 35.8002 1.83842 3.73285 0
M  V30 423 H 34.6762 2.01878 5.10428 0
M  V30 424 H 34.9372 0.430929 4.39995 0
M  V30 425 N 33.9963 -1.19345 1.0293 0
M  V30 426 C 35.4123 -1.41069 0.746446 0
M  V30 427 C 35.6123 -1.90078 -0.668776 0
M  V30 428 O 34.6683 -2.0778 -1.4347 0
M  V30 429 C 35.9813 -2.42141 1.78292 0
M  V30 430 C 37.5293 -2.55887 1.80252 0
M  V30 431 C 38.0043 -3.60214 2.8286 0
M  V30 432 N 39.4953 -3.67711 2.81679 0
M  V30 433 C 40.2303 -4.48128 3.57727 0
M  V30 434 N 39.7263 -5.32248 4.43491 0
M  V30 435 N 41.5193 -4.42782 3.46267 0
M  V30 436 H 33.6703 -0.858536 1.94275 0
M  V30 437 H 35.9333 -0.439541 0.839945 0
M  V30 438 H 35.6393 -2.13155 2.79746 0
M  V30 439 H 35.5133 -3.41323 1.60557 0
M  V30 440 H 37.9003 -2.84196 0.794757 0
M  V30 441 H 37.9813 -1.56858 2.02062 0
M  V30 442 H 37.6253 -3.32647 3.83807 0
M  V30 443 H 37.5553 -4.58895 2.58307 0
M  V30 444 H 40.0463 -3.07634 2.19476 0
M  V30 445 H 40.3593 -5.90729 4.98256 0
M  V30 446 H 38.7043 -5.31707 4.47564 0
M  V30 447 H 41.8953 -3.76107 2.78677 0
M  V30 448 H 42.0683 -5.05215 4.05785 0
M  V30 449 N 35.4744 -0.807222 -1.35358 0
M  V30 450 C 36.7224 -0.387122 -1.98358 0
M  V30 451 C 37.0434 1.04942 -1.64354 0
M  V30 452 O 36.3134 1.72615 -0.926339 0
M  V30 453 H 34.8934 -0.140154 -0.733734 0
M  V30 454 H 37.5554 -1.0332 -1.6526 0
M  V30 455 H 36.6514 -0.493352 -3.08176 0
M  V30 456 N 36.9525 1.47285 -0.560781 0
M  V30 457 C 38.1985 2.02764 -0.0381184 0
M  V30 458 C 38.5315 1.43384 1.30976 0
M  V30 459 O 37.8065 0.590733 1.85312 0
M  V30 460 C 38.0895 3.60064 0.0511427 0
M  V30 461 C 37.9425 4.2987 -1.32408 0
M  V30 462 C 39.2615 4.33439 0.762795 0
M  V30 463 H 36.3805 0.736841 -0.0153264 0
M  V30 464 H 39.0225 1.75675 -0.723759 0
M  V30 465 H 37.1725 3.83274 0.635065 0
M  V30 466 H 38.8445 4.17989 -1.95148 0
M  V30 467 H 37.0875 3.90085 -1.8978 0
M  V30 468 H 37.7585 5.38478 -1.21431 0
M  V30 469 H 40.2345 4.15243 0.266965 0
M  V30 470 H 39.1105 5.43124 0.794221 0
M  V30 471 H 39.3715 4.02915 1.81966 0
M  V30 472 N 38.4306 0.297415 1.54768 0
M  V30 473 C 39.6606 -0.315165 2.04182 0
M  V30 474 C 40.0686 -1.4834 1.17439 0
M  V30 475 O 39.4116 -1.82695 0.191891 0
M  V30 476 C 39.4736 -0.837583 3.49607 0
M  V30 477 C 39.1376 0.204912 4.5654 0
M  V30 478 C 40.1346 1.03214 5.09552 0
M  V30 479 C 37.8196 0.345578 5.0111 0
M  V30 480 C 39.8136 1.986 6.05671 0
M  V30 481 C 37.5006 1.30289 5.97049 0
M  V30 482 C 38.4986 2.12159 6.49213 0
M  V30 483 O 38.1866 3.06268 7.43273 0
M  V30 484 H 37.9186 -0.0729646 0.672051 0
M  V30 485 H 40.4726 0.433907 2.00765 0
M  V30 486 H 38.7026 -1.63712 3.50336 0
M  V30 487 H 40.3916 -1.36566 3.82236 0
M  V30 488 H 41.1576 0.934312 4.75916 0
M  V30 489 H 37.0366 -0.28171 4.60138 0
M  V30 490 H 40.5806 2.62542 6.46311 0
M  V30 491 H 36.4776 1.40145 6.30103 0
M  V30 492 H 37.2456 3.01205 7.61064 0
M  V30 493 N 39.9087 -1.5758 0.0250728 0
M  V30 494 C 41.1337 -1.96337 -0.668317 0
M  V30 495 C 41.5587 -0.901314 -1.651 0
M  V30 496 O 40.9167 0.138187 -1.80773 0
M  V30 497 C 40.9647 -3.34191 -1.35457 0
M  V30 498 O 40.0687 -3.30269 -2.46974 0
M  V30 499 H 39.4097 -0.640281 -0.175887 0
M  V30 500 H 41.9397 -2.0442 0.0857224 0
M  V30 501 H 41.9497 -3.70331 -1.71228 0
M  V30 502 H 40.6247 -4.11036 -0.634218 0
M  V30 503 H 39.2017 -3.05841 -2.13344 0
M  V30 504 N 41.3868 0.248026 -1.55636 0
M  V30 505 C 42.8028 0.596483 -1.48035 0
M  V30 506 C 43.0028 1.88386 -0.715039 0
M  V30 507 O 42.0588 2.51319 -0.243944 0
M  V30 508 C 43.3718 0.700258 -2.92433 0
M  V30 509 C 44.9198 0.792659 -3.02797 0
M  V30 510 C 45.3948 0.928005 -4.485 0
M  V30 511 N 46.8858 0.992903 -4.52433 0
M  V30 512 C 47.6208 1.11687 -5.62418 0
M  V30 513 N 47.1168 1.20645 -6.82214 0
M  V30 514 N 48.9098 1.14994 -5.50212 0
M  V30 515 H 41.0608 -0.597109 -2.03834 0
M  V30 516 H 43.3238 -0.205925 -0.925364 0
M  V30 517 H 43.0298 -0.175658 -3.51261 0
M  V30 518 H 42.9038 1.57255 -3.42857 0
M  V30 519 H 45.2908 1.65903 -2.4405 0
M  V30 520 H 45.3718 -0.104762 -2.55585 0
M  V30 521 H 45.0158 0.0661971 -5.07857 0
M  V30 522 H 44.9458 1.84045 -4.93391 0
M  V30 523 H 47.4368 0.935064 -3.66149 0
M  V30 524 H 47.7498 1.30008 -7.61786 0
M  V30 525 H 46.0948 1.17605 -6.84977 0
M  V30 526 H 49.2858 1.07643 -4.55555 0
M  V30 527 H 49.4588 1.24311 -6.35965 0
M  V30 528 N 42.8649 1.48995 0.513639 0
M  V30 529 C 44.0899 1.61792 1.29762 0
M  V30 530 C 44.5149 0.284475 1.85936 0
M  V30 531 O 43.8729 -0.746185 1.65232 0
M  V30 532 C 43.9209 2.67993 2.41272 0
M  V30 533 O 43.0249 2.26287 3.44772 0
M  V30 534 H 42.3659 0.541963 0.38363 0
M  V30 535 H 44.8959 1.95097 0.616307 0
M  V30 536 H 44.9059 2.89772 2.87221 0
M  V30 537 H 43.5809 3.64791 1.9975 0
M  V30 538 H 42.1579 2.14788 3.04829 0
M  V30 539 N 44.343 -0.763751 1.37857 0
M  V30 540 C 45.275 -1.88664 1.30148 0
M  V30 541 C 46.288 -1.61365 0.215685 0
M  V30 542 O 47.477 -1.72134 0.472459 0
M  V30 543 C 44.577 -3.24075 0.991396 0
M  V30 544 C 43.75 -3.78958 2.18426 0
M  V30 545 C 42.809 -4.92862 1.8432 0
M  V30 546 O 41.835 -5.08027 2.56704 0
M  V30 547 N 43.037 -5.75071 0.792081 0
M  V30 548 H 45.802 -1.95791 2.26905 0
M  V30 549 H 43.363 -0.943226 1.31586 0
M  V30 550 H 45.355 -3.97804 0.743935 0
M  V30 551 H 43.925 -3.12399 0.112122 0
M  V30 552 H 43.145 -2.96913 2.59299 0
M  V30 553 H 44.433 -4.12357 2.98058 0
M  V30 554 H 43.831 -5.65375 0.191595 0
M  V30 555 H 42.388 -6.48991 0.60449 0
M  V30 556 N 45.8211 -1.22559 -0.990812 0
M  V30 557 C 47.0981 -0.959875 -1.70428 0
M  V30 558 C 47.4781 0.524455 -2.04481 0
M  V30 559 O 46.8261 1.49302 -1.72977 0
M  V30 560 C 47.0361 -1.85955 -2.95333 0
M  V30 561 C 48.3841 -2.11687 -3.68068 0
M  V30 562 O 49.4081 -1.8342 -3.05345 0
M  V30 563 O 48.2671 -2.59572 -4.80921 0
M  V30 564 H 45.3611 -0.361154 -0.743974 0
M  V30 565 H 47.9071 -1.33554 -1.04697 0
M  V30 566 H 46.6791 -2.86346 -2.66687 0
M  V30 567 H 46.3021 -1.4856 -3.68803 0
M  V30 568 N 47.2992 1.18797 -1.03562 0
M  V30 569 C 48.2492 2.20161 -0.592724 0
M  V30 570 C 49.2332 1.56772 0.362133 0
M  V30 571 O 50.4252 1.76062 0.182009 0
M  V30 572 C 47.5542 3.43266 0.0481024 0
M  V30 573 C 46.6402 4.13786 -0.9296 0
M  V30 574 N 47.0312 4.60388 -2.09467 0
M  V30 575 C 45.3292 4.39572 -0.754499 0
M  V30 576 C 46.0302 5.14619 -2.71187 0
M  V30 577 N 45.0062 5.05826 -1.991 0
M  V30 578 H 48.8082 2.53877 -1.48066 0
M  V30 579 H 46.3222 1.34946 -0.903514 0
M  V30 580 H 48.3192 4.15136 0.383058 0
M  V30 581 H 46.9792 3.11048 0.931636 0
M  V30 582 H 47.9902 4.54999 -2.47379 0
M  V30 583 H 44.6672 4.17425 0.0793713 0
M  V30 584 H 46.0572 5.60917 -3.69895 0
M  V30 585 N 48.7773 0.814389 1.34928 0
M  V30 586 C 50.1883 0.458364 1.80986 0
M  V30 587 C 50.5393 -1.02042 1.67577 0
M  V30 588 O 49.6643 -1.79352 1.21086 0
M  V30 589 C 50.2593 0.825212 3.28597 0
M  V30 590 C 48.8183 0.521677 3.72767 0
M  V30 591 C 47.9653 1.04668 2.56788 0
M  V30 592 H 50.9163 1.00533 1.22795 0
M  V30 593 H 50.9373 0.12571 3.80292 0
M  V30 594 H 50.4493 1.90154 3.38324 0
M  V30 595 H 48.5503 -0.545589 3.68584 0
M  V30 596 H 48.6633 1.05977 4.67232 0
M  V30 597 H 47.0273 0.468622 2.50352 0
M  V30 598 H 47.8103 2.12927 2.6929 0
M  V30 599 N 50.2554 -1.46986 0.568584 0
M  V30 600 C 51.5034 -2.02041 0.0487022 0
M  V30 601 C 51.8244 -1.44408 -1.31039 0
M  V30 602 O 51.0944 -0.623477 -1.85714 0
M  V30 603 H 49.6744 -0.746849 0.015014 0
M  V30 604 H 52.3364 -1.80257 0.741168 0
M  V30 605 H 51.4324 -3.12085 -0.0308961 0
M  V30 606 N 51.7335 -0.305618 -1.54608 0
M  V30 607 C 52.9805 0.302298 -2.00231 0
M  V30 608 C 53.3085 1.5354 -1.19398 0
M  V30 609 O 52.5635 1.93973 -0.259423 0
M  V30 610 C 52.8625 0.698983 -3.50498 0
M  V30 611 C 52.5285 -0.432903 -4.48817 0
M  V30 612 C 51.1905 -0.743622 -4.75419 0
M  V30 613 C 53.5425 -1.19409 -5.07337 0
M  V30 614 C 50.8705 -1.81857 -5.57804 0
M  V30 615 C 53.2225 -2.25899 -5.90891 0
M  V30 616 C 51.8865 -2.57572 -6.15803 0
M  V30 617 H 51.1565 0.110619 -0.732697 0
M  V30 618 H 53.8035 -0.425674 -1.86709 0
M  V30 619 H 52.1085 1.50711 -3.61654 0
M  V30 620 H 53.8055 1.1806 -3.83227 0
M  V30 621 H 50.3955 -0.18063 -4.28219 0
M  V30 622 H 54.5795 -0.967295 -4.86782 0
M  V30 623 H 49.8355 -2.06864 -5.75341 0
M  V30 624 H 54.0095 -2.85335 -6.35261 0
M  V30 625 H 51.6365 -3.40998 -6.7943 0
M  V30 626 N 53.2116 1.57565 -0.0334293 0
M  V30 627 C 54.1436 2.0739 0.975811 0
M  V30 628 C 55.1566 0.998166 1.2861 0
M  V30 629 O 56.3456 1.27426 1.25 0
M  V30 630 C 53.4456 2.4871 2.30209 0
M  V30 631 C 52.6186 3.79413 2.17634 0
M  V30 632 C 51.6776 4.07237 3.33233 0
M  V30 633 O 50.7036 4.77425 3.09927 0
M  V30 634 N 51.9056 3.5775 4.5716 0
M  V30 635 H 54.6706 2.94598 0.55066 0
M  V30 636 H 52.2316 1.61173 0.15323 0
M  V30 637 H 54.2236 2.64413 3.06378 0
M  V30 638 H 52.7936 1.66845 2.64351 0
M  V30 639 H 52.0136 3.73465 1.26165 0
M  V30 640 H 53.3016 4.65038 2.0644 0
M  V30 641 H 52.6996 3.00976 4.78989 0
M  V30 642 H 51.2566 3.78724 5.30482 0
M  V30 643 N 54.6897 -0.239769 1.55765 0
M  V30 644 C 55.9357 -0.968234 1.78194 0
M  V30 645 C 56.2687 -1.84701 0.599938 0
M  V30 646 O 55.5437 -1.9031 -0.401524 0
M  V30 647 C 55.8267 -1.8227 3.10564 0
M  V30 648 C 55.6797 -0.971633 4.3918 0
M  V30 649 C 56.9987 -2.80388 3.39221 0
M  V30 650 H 54.1177 -0.350572 0.648281 0
M  V30 651 H 56.7597 -0.238259 1.885 0
M  V30 652 H 54.9097 -2.44507 3.01908 0
M  V30 653 H 56.5817 -0.367408 4.59835 0
M  V30 654 H 54.8247 -0.276276 4.32919 0
M  V30 655 H 55.4957 -1.60346 5.28198 0
M  V30 656 H 57.9717 -2.28287 3.47885 0
M  V30 657 H 56.8477 -3.3729 4.33044 0
M  V30 658 H 57.1087 -3.57212 2.60484 0
M  V30 659 N 56.1678 -1.49265 -0.50573 0
M  V30 660 C 57.0978 -1.68495 -1.61653 0
M  V30 661 C 58.0788 -0.53366 -1.61512 0
M  V30 662 O 59.2638 -0.76897 -1.78327 0
M  V30 663 C 56.3938 -1.74709 -3.00157 0
M  V30 664 C 55.3478 -2.89581 -3.15162 0
M  V30 665 C 54.6738 -2.80903 -4.5497 0
M  V30 666 C 55.9738 -4.30578 -2.95634 0
M  V30 667 H 57.6678 -2.61493 -1.45814 0
M  V30 668 H 55.2138 -1.25838 -0.70005 0
M  V30 669 H 57.1668 -1.86748 -3.77761 0
M  V30 670 H 55.8908 -0.783067 -3.17074 0
M  V30 671 H 54.5498 -2.77136 -2.39982 0
M  V30 672 H 54.1978 -1.82419 -4.68756 0
M  V30 673 H 53.8978 -3.57999 -4.65951 0
M  V30 674 H 55.4218 -2.94944 -5.34641 0
M  V30 675 H 56.8358 -4.4373 -3.63011 0
M  V30 676 H 55.2328 -5.0886 -3.18091 0
M  V30 677 H 56.3028 -4.45352 -1.91806 0
M  V30 678 N 57.6459 0.756429 -1.3826 0
M  V30 679 C 58.6089 1.85176 -1.35065 0
M  V30 680 C 59.6089 1.58818 -0.251703 0
M  V30 681 O 60.7989 1.66615 -0.508433 0
M  V30 682 C 57.9309 3.22596 -1.10201 0
M  V30 683 H 59.1239 1.89417 -2.3251 0
M  V30 684 H 56.6769 0.95783 -1.23512 0
M  V30 685 H 57.4119 3.24025 -0.133504 0
M  V30 686 H 57.1969 3.43122 -1.89762 0
M  V30 687 H 58.6869 4.02673 -1.10654 0
M  V30 688 N 59.124 1.23083 0.984299 0
M  V30 689 C 60.349 1.088 1.76571 0
M  V30 690 C 60.774 -0.356657 1.84688 0
M  V30 691 O 60.132 -1.25788 1.30565 0
M  V30 692 C 60.18 1.71371 3.17277 0
M  V30 693 O 59.284 0.973213 4.00752 0
M  V30 694 H 58.625 0.381599 0.543395 0
M  V30 695 H 61.155 1.63057 1.23587 0
M  V30 696 H 61.165 1.76449 3.67872 0
M  V30 697 H 59.84 2.76493 3.10684 0
M  V30 698 H 58.417 0.999078 3.59267 0
M  V30 699 N 60.6021 -1.18246 1.0419 0
M  V30 700 C 61.5651 -2.20128 0.638452 0
M  V30 701 C 62.5651 -1.57885 -0.304805 0
M  V30 702 O 63.7551 -1.73967 -0.0900369 0
M  V30 703 C 60.8871 -3.4084 -0.0637751 0
M  V30 704 H 62.0801 -2.57336 1.54007 0
M  V30 705 H 59.6331 -1.32152 0.834598 0
M  V30 706 H 60.3681 -3.09166 -0.979136 0
M  V30 707 H 60.1531 -3.8726 0.614198 0
M  V30 708 H 61.6431 -4.16274 -0.332512 0
M  V30 709 N 62.0802 -0.821533 -1.34494 0
M  V30 710 C 63.3052 -0.420873 -2.03085 0
M  V30 711 C 63.7302 0.964915 -1.61465 0
M  V30 712 O 63.0882 1.62763 -0.798607 0
M  V30 713 C 63.1362 -0.529414 -3.56693 0
M  V30 714 O 62.2402 0.451302 -4.09923 0
M  V30 715 H 61.5812 -0.173489 -0.640935 0
M  V30 716 H 64.1112 -1.11157 -1.71771 0
M  V30 717 H 64.1212 -0.404671 -4.05988 0
M  V30 718 H 62.7962 -1.54014 -3.86332 0
M  V30 719 H 61.3732 0.285558 -3.71805 0
M  V30 720 N 63.5583 1.46682 -0.576371 0
M  V30 721 C 64.5083 2.27278 0.181288 0
M  V30 722 C 65.4923 1.35497 0.867721 0
M  V30 723 O 66.6843 1.59717 0.762863 0
M  V30 724 C 63.8133 3.21703 1.19841 0
M  V30 725 C 62.8993 4.20969 0.51442 0
M  V30 726 N 63.2903 5.03999 -0.426407 0
M  V30 727 C 61.5883 4.39373 0.765963 0
M  V30 728 C 62.2893 5.75812 -0.825565 0
M  V30 729 N 61.2653 5.43315 -0.176116 0
M  V30 730 H 65.0673 2.88863 -0.541785 0
M  V30 731 H 62.5813 1.57455 -0.397697 0
M  V30 732 H 64.5783 3.78145 1.75533 0
M  V30 733 H 63.2383 2.61677 1.92238 0
M  V30 734 H 64.2493 5.11659 -0.8016 0
M  V30 735 H 60.9263 3.90502 1.47698 0
M  V30 736 H 62.3163 6.52577 -1.59976 0
M  V30 737 N 65.0364 0.313813 1.54444 0
M  V30 738 C 66.2664 -0.293491 2.04505 0
M  V30 739 C 66.6744 -1.47086 1.19005 0
M  V30 740 O 66.0174 -1.82481 0.211257 0
M  V30 741 C 66.0794 -0.800455 3.50475 0
M  V30 742 C 65.7434 0.253322 4.56297 0
M  V30 743 C 66.7404 1.08612 5.08428 0
M  V30 744 C 64.4254 0.398708 5.00715 0
M  V30 745 C 66.4194 2.05013 6.0353 0
M  V30 746 C 64.1064 1.36614 5.95634 0
M  V30 747 C 65.1044 2.19033 6.46926 0
M  V30 748 O 64.7924 3.14134 7.39983 0
M  V30 749 H 64.5244 -0.0658325 0.672787 0
M  V30 750 H 67.0784 0.455177 2.00293 0
M  V30 751 H 65.3084 -1.59987 3.52053 0
M  V30 752 H 66.9974 -1.32504 3.83663 0
M  V30 753 H 67.7634 0.984736 4.74898 0
M  V30 754 H 63.6424 -0.23289 4.60411 0
M  V30 755 H 67.1864 2.69382 6.4349 0
M  V30 756 H 63.0834 1.4682 6.28581 0
M  V30 757 H 63.8514 3.0926 7.57826 0
M  V30 758 N 66.5145 -1.57545 0.0417849 0
M  V30 759 C 67.7605 -1.93424 -0.629168 0
M  V30 760 C 68.1155 -0.919564 -1.69002 0
M  V30 761 O 67.4085 0.0626178 -1.91498 0
M  V30 762 C 67.6025 -3.33794 -1.27735 0
M  V30 763 C 67.4315 -4.48822 -0.280806 0
M  V30 764 C 66.2015 -5.05148 0.123869 0
M  V30 765 C 68.3995 -5.12148 0.470012 0
M  V30 766 N 66.3815 -6.03703 1.11426 0
M  V30 767 C 67.7525 -6.05921 1.31377 0
M  V30 768 C 69.8075 -4.95078 0.529343 0
M  V30 769 C 68.5105 -6.84459 2.21152 0
M  V30 770 C 70.5365 -5.74235 1.41448 0
M  V30 771 C 69.8985 -6.67634 2.24598 0
M  V30 772 H 65.9975 -0.755418 -0.202158 0
M  V30 773 H 68.5815 -1.94378 0.111923 0
M  V30 774 H 66.7525 -3.33635 -1.98852 0
M  V30 775 H 68.4845 -3.56988 -1.90635 0
M  V30 776 H 65.2395 -4.72923 -0.253178 0
M  V30 777 H 65.6635 -6.57674 1.60607 0
M  V30 778 H 70.3055 -4.22683 -0.0992798 0
M  V30 779 H 68.0235 -7.56151 2.85063 0
M  V30 780 H 71.6095 -5.63057 1.46484 0
M  V30 781 H 70.4895 -7.27817 2.9198 0
M  V30 782 N 67.9926 0.231505 -1.5589 0
M  V30 783 C 69.4036 0.799327 -1.68724 0
M  V30 784 C 69.7546 1.85398 -0.642022 0
M  V30 785 O 68.8796 2.1539 0.208784 0
M  V30 786 C 69.4746 1.45664 -3.05888 0
M  V30 787 C 68.0336 1.97197 -3.20609 0
M  V30 788 C 67.1806 0.828552 -2.64632 0
M  V30 789 H 70.1316 0.00702616 -1.58698 0
M  V30 790 H 70.1526 2.32517 -3.01191 0
M  V30 791 H 69.6646 0.688808 -3.81939 0
M  V30 792 H 67.7656 2.76813 -2.4941 0
M  V30 793 H 67.8786 2.15878 -4.27707 0
M  V30 794 H 66.2426 1.23321 -2.22854 0
M  V30 795 H 67.0256 0.0735544 -3.43221 0
M  V30 796 N 69.4707 1.49531 0.497807 0
M  V30 797 C 70.4007 1.6935 1.60757 0
M  V30 798 C 71.3817 0.542218 1.61227 0
M  V30 799 O 72.5667 0.778417 1.77917 0
M  V30 800 C 69.6967 1.76298 2.99226 0
M  V30 801 C 68.6507 2.91248 3.13622 0
M  V30 802 C 67.9767 2.83312 4.53474 0
M  V30 803 C 69.2767 4.3214 2.93346 0
M  V30 804 H 70.9707 2.62263 1.44425 0
M  V30 805 H 68.5167 1.26208 0.693367 0
M  V30 806 H 70.4697 1.88749 3.76765 0
M  V30 807 H 69.1937 0.799871 3.16654 0
M  V30 808 H 67.8527 2.78404 2.38509 0
M  V30 809 H 67.5007 1.84902 4.67782 0
M  V30 810 H 67.2007 3.60465 4.64046 0
M  V30 811 H 68.7247 2.97775 5.33069 0
M  V30 812 H 70.1387 4.45649 3.60652 0
M  V30 813 H 68.5357 5.1054 3.15387 0
M  V30 814 H 69.6057 4.46363 1.89441 0
M  V30 815 N 70.9488 -0.749086 1.3866 0
M  V30 816 C 71.8588 -1.89358 1.38494 0
M  V30 817 C 72.8748 -1.71708 0.281476 0
M  V30 818 O 74.0508 -1.94554 0.520643 0
M  V30 819 C 71.1158 -3.24782 1.21316 0
M  V30 820 C 70.1768 -3.54926 2.41508 0
M  V30 821 C 69.4098 -4.83888 2.2514 0
M  V30 822 O 69.6328 -5.56592 1.24746 0
M  V30 823 O 68.5668 -5.13612 3.13826 0
M  V30 824 H 72.3928 -1.92452 2.34938 0
M  V30 825 H 69.9778 -0.894981 1.19626 0
M  V30 826 H 71.8598 -4.05739 1.13814 0
M  V30 827 H 70.5348 -3.2249 0.279592 0
M  V30 828 H 69.4418 -2.74112 2.54585 0
M  V30 829 H 70.7748 -3.61983 3.3351 0
M  V30 830 N 72.4269 -1.23603 -0.977757 0
M  V30 831 C 73.3749 -1.01704 -2.09187 0
M  V30 832 C 74.3689 0.0448214 -1.69341 0
M  V30 833 O 75.5749 -0.108902 -1.7967 0
M  V30 834 H 71.9499 -0.311803 -0.684312 0
M  V30 835 H 73.9209 -1.96207 -2.24823 0
M  V30 836 C 72.6699 -0.627746 -3.41986 0
M  V30 837 H 71.9929 -1.43656 -3.73099 0
M  V30 838 H 73.4329 -0.514053 -4.20872 0
M  V30 839 C 71.8919 0.664238 -3.30287 0
M  V30 840 O 72.4219 1.71268 -3.6336 0
M  V30 841 N 70.6279 0.641156 -2.83439 0
M  V30 842 H 70.1749 -0.212376 -2.56723 0
M  V30 843 H 70.1329 1.50583 -2.75993 0
M  V30 844 N 73.905 1.17692 -1.04816 0
M  V30 845 C 75.151 1.88137 -0.75711 0
M  V30 846 C 75.484 1.80604 0.713841 0
M  V30 847 O 74.759 1.21146 1.52164 0
M  V30 848 C 75.042 3.38318 -1.2334 0
M  V30 849 C 74.895 3.54622 -2.76701 0
M  V30 850 C 76.214 4.32214 -0.829415 0
M  V30 851 H 73.333 0.683163 -0.27651 0
M  V30 852 H 75.975 1.38424 -1.30149 0
M  V30 853 H 74.125 3.80787 -0.770286 0
M  V30 854 H 75.797 3.21194 -3.31107 0
M  V30 855 H 74.04 2.97026 -3.16161 0
M  V30 856 H 74.711 4.60028 -3.05088 0
M  V30 857 H 77.187 3.97565 -1.22805 0
M  V30 858 H 76.063 5.35838 -1.19033 0
M  V30 859 H 76.324 4.41294 0.266891 0
M  V30 860 N 75.3831 0.828654 1.34056 0
M  V30 861 C 76.6601 0.341809 1.9259 0
M  V30 862 C 77.0401 -1.17158 1.75605 0
M  V30 863 O 76.3881 -1.98132 1.13824 0
M  V30 864 C 76.5981 0.777453 3.4023 0
M  V30 865 C 77.9461 0.779579 4.17382 0
M  V30 866 O 78.9701 0.7204 3.48839 0
M  V30 867 O 77.8291 0.857996 5.39723 0
M  V30 868 H 74.9231 0.0946085 0.821571 0
M  V30 869 H 77.4691 0.913827 1.42994 0
M  V30 870 H 76.2411 1.8196 3.46419 0
M  V30 871 H 75.8641 0.181444 3.97186 0
M  V30 872 N 76.8612 -1.46375 0.584142 0
M  V30 873 C 78.1092 -2.01978 0.0701287 0
M  V30 874 C 78.4302 -1.4579 -1.295 0
M  V30 875 O 77.7002 -0.64314 -1.85042 0
M  V30 876 H 76.2802 -0.746648 0.0229345 0
M  V30 877 H 78.9422 -1.79461 0.760245 0
M  V30 878 H 78.0382 -3.121 0.0022064 0
M  V30 879 N 78.3393 -0.321999 -1.54275 0
M  V30 880 C 79.5883 0.281931 -1.9972 0
M  V30 881 C 79.9013 1.53369 -1.21397 0
M  V30 882 O 81.1073 2.21352 -1.57211 0
M  V30 883 C 79.5633 0.5529 -3.55628 0
M  V30 884 C 79.1713 -0.681721 -4.42783 0
M  V30 885 C 80.9153 1.11687 -4.09544 0
M  V30 886 C 78.8223 -0.382742 -5.9016 0
M  V30 887 H 77.7523 0.109124 -0.746062 0
M  V30 888 H 80.4033 -0.43398 -1.78294 0
M  V30 889 H 78.7853 1.32896 -3.73035 0
M  V30 890 H 79.9593 -1.45723 -4.37151 0
M  V30 891 H 78.2743 -1.1658 -3.99748 0
M  V30 892 H 80.8713 1.35515 -5.17242 0
M  V30 893 H 81.2143 2.06575 -3.61431 0
M  V30 894 H 81.7473 0.402032 -3.95763 0
M  V30 895 H 78.4863 -1.30076 -6.42464 0
M  V30 896 H 78.0063 0.355094 -5.98748 0
M  V30 897 H 79.6853 0.00800157 -6.47 0
M  V30 898 N 79.8174 1.5752 -0.0501392 0
M  V30 899 C 80.7674 2.07981 0.934231 0
M  V30 900 C 81.7514 0.984745 1.27246 0
M  V30 901 O 82.9434 1.24809 1.25506 0
M  V30 902 C 80.0724 2.62751 2.20945 0
M  V30 903 C 79.1584 3.79225 1.89865 0
M  V30 904 N 79.5494 4.89036 1.29142 0
M  V30 905 C 77.8474 3.88111 2.19741 0
M  V30 906 C 78.5484 5.70084 1.15669 0
M  V30 907 N 77.5244 5.17659 1.65923 0
M  V30 908 H 81.3264 2.90277 0.460053 0
M  V30 909 H 78.8404 1.61665 0.15434 0
M  V30 910 H 80.8374 2.97205 2.9236 0
M  V30 911 H 79.4974 1.81894 2.6897 0
M  V30 912 H 80.5084 5.08854 0.963756 0
M  V30 913 H 77.1854 3.18194 2.70293 0
M  V30 914 H 78.5754 6.68395 0.685356 0
M  V30 915 N 81.2955 -0.223234 1.56011 0
M  V30 916 C 82.2055 -1.29766 1.95443 0
M  V30 917 C 83.2215 -1.51373 0.858028 0
M  V30 918 O 84.3975 -1.64536 1.16146 0
M  V30 919 C 81.4625 -2.62772 2.26167 0
M  V30 920 C 80.5235 -2.49482 3.49367 0
M  V30 921 C 79.7565 -3.76145 3.78616 0
M  V30 922 O 79.9795 -4.79087 3.09568 0
M  V30 923 O 78.9135 -3.73358 4.72109 0
M  V30 924 H 82.7395 -0.99309 2.87004 0
M  V30 925 H 80.3245 -0.425958 1.43199 0
M  V30 926 H 82.2065 -3.41327 2.47131 0
M  V30 927 H 80.8815 -2.92913 1.37781 0
M  V30 928 H 79.7885 -1.69133 3.33684 0
M  V30 929 H 81.1215 -2.2428 4.38131 0
M  V30 930 N 82.7736 -1.49793 -0.48987 0
M  V30 931 C 83.7036 -1.70201 -1.59856 0
M  V30 932 C 84.6846 -0.55076 -1.60937 0
M  V30 933 O 85.8696 -0.787841 -1.77501 0
M  V30 934 C 82.9996 -1.77882 -2.98287 0
M  V30 935 C 81.9536 -2.92907 -3.12073 0
M  V30 936 C 81.2796 -2.85712 -4.51965 0
M  V30 937 C 82.5796 -4.3369 -2.91051 0
M  V30 938 H 84.2736 -2.63025 -1.43032 0
M  V30 939 H 81.8196 -1.26574 -0.686664 0
M  V30 940 H 83.7726 -1.90744 -3.75759 0
M  V30 941 H 82.4966 -0.816653 -3.16225 0
M  V30 942 H 81.1556 -2.79665 -2.37029 0
M  V30 943 H 80.8036 -1.8738 -4.66795 0
M  V30 944 H 80.5036 -3.62921 -4.62128 0
M  V30 945 H 82.0276 -3.00598 -5.31482 0
M  V30 946 H 83.4416 -4.47555 -3.58284 0
M  V30 947 H 81.8386 -5.12205 -3.12675 0
M  V30 948 H 82.9086 -4.47362 -1.87071 0
M  V30 949 N 84.2517 0.741722 -1.39055 0
M  V30 950 C 85.1837 1.8657 -1.33133 0
M  V30 951 C 86.1967 1.61001 -0.241329 0
M  V30 952 O 87.3857 1.7136 -0.499784 0
M  V30 953 C 84.4857 3.22457 -1.04283 0
M  V30 954 C 83.6587 3.75435 -2.24427 0
M  V30 955 C 82.7177 4.89867 -1.92138 0
M  V30 956 O 81.7437 5.03879 -2.64754 0
M  V30 957 N 82.9457 5.73738 -0.88347 0
M  V30 958 H 85.7107 1.92156 -2.29991 0
M  V30 959 H 83.2717 0.922172 -1.3307 0
M  V30 960 H 85.2637 3.9657 -0.807128 0
M  V30 961 H 83.8337 3.12181 -0.161807 0
M  V30 962 H 83.0537 2.92751 -2.6399 0
M  V30 963 H 84.3417 4.07563 -3.04581 0
M  V30 964 H 83.7397 5.64999 -0.281517 0
M  V30 965 H 82.2967 6.47947 -0.707662 0
M  V30 966 N 85.7298 1.2412 0.971189 0
M  V30 967 C 87.0068 0.986867 1.6888 0
M  V30 968 C 87.3868 -0.491857 2.0529 0
M  V30 969 O 86.7348 -1.46531 1.75331 0
M  V30 970 C 86.9448 1.9063 2.92338 0
M  V30 971 C 88.2928 2.17515 3.64654 0
M  V30 972 O 89.3168 1.88254 3.02388 0
M  V30 973 O 88.1758 2.6719 4.7673 0
M  V30 974 H 85.2698 0.372944 0.738134 0
M  V30 975 H 87.8158 1.35203 1.02559 0
M  V30 976 H 86.5878 2.90552 2.62097 0
M  V30 977 H 86.2108 1.54408 3.66393 0
M  V30 978 N 87.2079 -1.17134 1.05439 0
M  V30 979 C 88.4359 -1.91372 0.786414 0
M  V30 980 C 88.8509 -1.76955 -0.658202 0
M  V30 981 O 88.2079 -1.10838 -1.44987 0
M  V30 982 C 88.2589 -3.42356 1.1608 0
M  V30 983 O 87.9799 -3.56332 2.54871 0
M  V30 984 C 89.4809 -4.33663 0.919322 0
M  V30 985 H 86.7009 -0.607118 0.285743 0
M  V30 986 H 89.2449 -1.48525 1.40572 0
M  V30 987 H 87.3999 -3.82939 0.586191 0
M  V30 988 H 87.8139 -4.49896 2.69618 0
M  V30 989 H 89.2879 -5.38099 1.231 0
M  V30 990 H 89.7649 -4.38959 -0.145359 0
M  V30 991 H 90.3709 -3.98796 1.47789 0
M  V30 992 N 88.686 -0.835752 -1.33615 0
M  V30 993 C 89.914 -0.443344 -2.02094 0
M  V30 994 C 90.329 0.954522 -1.62894 0
M  V30 995 O 89.686 1.61982 -0.840723 0
M  V30 996 C 89.737 -0.550775 -3.5728 0
M  V30 997 O 89.458 -1.89356 -3.95065 0
M  V30 998 C 90.959 -0.154919 -4.43029 0
M  V30 999 H 88.179 -0.176359 -0.647409 0
M  V30 1000 H 90.723 -1.12746 -1.70612 0
M  V30 1001 H 88.878 0.0853997 -3.87306 0
M  V30 1002 H 89.292 -1.87687 -4.89769 0
M  V30 1003 H 90.766 -0.281144 -5.51284 0
M  V30 1004 H 91.243 0.902863 -4.2982 0
M  V30 1005 H 91.849 -0.765404 -4.18356 0
M  V30 1006 N 90.1641 1.46063 -0.591896 0
M  V30 1007 C 91.4121 2.01938 -0.0808391 0
M  V30 1008 C 91.7331 1.46475 1.28725 0
M  V30 1009 O 91.0031 0.652944 1.84698 0
M  V30 1010 H 89.5831 0.746516 -0.0268938 0
M  V30 1011 H 92.2451 1.79055 -0.769752 0
M  V30 1012 H 91.3411 3.12094 -0.0187578 0
M  V30 1013 N 91.6422 0.330177 1.54103 0
M  V30 1014 C 92.9192 -0.325007 1.92881 0
M  V30 1015 C 93.2992 -1.6934 1.26045 0
M  V30 1016 O 92.6472 -2.24855 0.406526 0
M  V30 1017 C 92.8572 -0.410634 3.46576 0
M  V30 1018 C 94.2052 -0.667801 4.19316 0
M  V30 1019 O 95.2292 -0.49329 3.52768 0
M  V30 1020 O 94.0882 -1.00491 5.37181 0
M  V30 1021 H 91.1822 -0.186873 0.80561 0
M  V30 1022 H 93.7282 0.380376 1.65382 0
M  V30 1023 H 92.5002 0.550164 3.87413 0
M  V30 1024 H 92.1232 -1.16333 3.802 0
M  V30 1025 N 93.1203 -1.57491 0.0584922 0
M  V30 1026 C 94.3693 -1.92155 -0.613146 0
M  V30 1027 C 94.6823 -0.939334 -1.71569 0
M  V30 1028 O 95.8883 -1.17829 -2.44599 0
M  V30 1029 C 94.3443 -3.41303 -1.14195 0
M  V30 1030 C 93.9523 -4.47944 -0.0711265 0
M  V30 1031 C 95.6963 -3.84988 -1.78841 0
M  V30 1032 C 93.6033 -5.88212 -0.613225 0
M  V30 1033 H 92.5333 -0.717162 -0.232796 0
M  V30 1034 H 95.1843 -1.83049 0.12857 0
M  V30 1035 H 93.5663 -3.45437 -1.93621 0
M  V30 1036 H 94.7403 -4.55408 0.702836 0
M  V30 1037 H 93.0553 -4.13644 0.478313 0
M  V30 1038 H 95.6523 -4.87159 -2.20408 0
M  V30 1039 H 95.9953 -3.21632 -2.64308 0
M  V30 1040 H 96.5283 -3.83401 -1.06059 0
M  V30 1041 H 93.2673 -6.55183 0.203978 0
M  V30 1042 H 92.7873 -5.84294 -1.35501 0
M  V30 1043 H 94.4663 -6.37687 -1.09383 0
M  V30 1044 N 94.5984 0.214957 -1.56127 0
M  V30 1045 C 95.8444 0.939762 -1.79712 0
M  V30 1046 C 96.1774 1.83723 -0.629247 0
M  V30 1047 O 95.4524 1.90925 0.371197 0
M  V30 1048 C 95.7354 1.77306 -3.13424 0
M  V30 1049 C 95.5884 0.90164 -4.40671 0
M  V30 1050 C 96.9074 2.74956 -3.43638 0
M  V30 1051 H 94.0264 0.340214 -0.653776 0
M  V30 1052 H 96.6684 0.20824 -1.88855 0
M  V30 1053 H 94.8184 2.39673 -3.0576 0
M  V30 1054 H 96.4904 0.294206 -4.60361 0
M  V30 1055 H 94.7334 0.207368 -4.33304 0
M  V30 1056 H 95.4044 1.51923 -5.30682 0
M  V30 1057 H 97.8804 2.22724 -3.51473 0
M  V30 1058 H 96.7564 3.30358 -4.38355 0
M  V30 1059 H 97.0174 3.53023 -2.66134 0
M  V30 1060 N 96.0765 1.50051 0.48192 0
M  V30 1061 C 96.9865 1.7089 1.60728 0
M  V30 1062 C 98.0025 0.591788 1.63627 0
M  V30 1063 O 99.1785 0.868817 1.81696 0
M  V30 1064 C 96.2435 1.78855 2.97005 0
M  V30 1065 C 95.3045 3.02537 3.04581 0
M  V30 1066 C 94.5375 3.10112 4.34357 0
M  V30 1067 O 94.7605 2.24765 5.24249 0
M  V30 1068 O 93.6945 4.02747 4.47301 0
M  V30 1069 H 97.5205 2.66264 1.46072 0
M  V30 1070 H 95.1055 1.34018 0.660264 0
M  V30 1071 H 96.9875 1.86336 3.77964 0
M  V30 1072 H 95.6625 0.866628 3.11883 0
M  V30 1073 H 94.5695 3.00563 2.22739 0
M  V30 1074 H 95.9025 3.94272 2.94636 0
M  V30 1075 N 97.5546 -0.734337 1.39446 0
M  V30 1076 C 98.8026 -1.49096 1.36436 0
M  V30 1077 C 99.1236 -1.94961 -0.0388255 0
M  V30 1078 O 98.3936 -1.69033 -0.990191 0
M  V30 1079 H 96.9736 -0.5531 0.502085 0
M  V30 1080 H 99.6356 -0.871725 1.74319 0
M  V30 1081 H 98.7316 -2.37276 2.02747 0
M  V30 1082 N 99.0327 -1.24633 -0.964593 0
M  V30 1083 C 99.9797 -1.04144 -2.05968 0
M  V30 1084 C 100.95 0.046262 -1.66036 0
M  V30 1085 O 102.135 -0.108972 -1.90489 0
M  V30 1086 C 99.2747 -0.65563 -3.38815 0
M  V30 1087 C 98.3877 -1.81714 -3.91923 0
M  V30 1088 C 97.5227 -1.37662 -5.13052 0
M  V30 1089 C 96.5617 -2.50788 -5.58365 0
M  V30 1090 N 95.6987 -2.07582 -6.70712 0
M  V30 1091 H 100.539 -1.9787 -2.22827 0
M  V30 1092 H 98.0757 -0.9855 -1.09208 0
M  V30 1093 H 100.034 -0.412954 -4.15151 0
M  V30 1094 H 98.6637 0.244627 -3.21872 0
M  V30 1095 H 97.7157 -2.1734 -3.12198 0
M  V30 1096 H 99.0277 -2.66705 -4.21509 0
M  V30 1097 H 98.1817 -1.093 -5.96773 0
M  V30 1098 H 96.9207 -0.497293 -4.85158 0
M  V30 1099 H 95.9257 -2.79906 -4.73215 0
M  V30 1100 H 97.1507 -3.39283 -5.88272 0
M  V30 1101 H 95.0967 -1.22051 -6.44546 0
M  V30 1102 H 95.0137 -2.86125 -6.99763 0
M  V30 1103 H 96.2817 -1.82369 -7.57867 0
M  V30 1104 N 100.511 1.16574 -1.06058 0
M  V30 1105 C 101.757 1.87324 -0.777022 0
M  V30 1106 C 102.09 1.81351 0.694645 0
M  V30 1107 O 101.365 1.22753 1.50871 0
M  V30 1108 C 101.648 3.36991 -1.26922 0
M  V30 1109 C 101.501 3.51667 -2.80447 0
M  V30 1110 C 102.82 4.3131 -0.87521 0
M  V30 1111 H 99.9388 0.680191 -0.28374 0
M  V30 1112 H 102.581 1.37036 -1.3161 0
M  V30 1113 H 100.731 3.79949 -0.81063 0
M  V30 1114 H 102.403 3.17664 -3.34495 0
M  V30 1115 H 100.646 2.93656 -3.19294 0
M  V30 1116 H 101.317 4.56766 -3.0995 0
M  V30 1117 H 103.793 3.9624 -1.27014 0
M  V30 1118 H 102.669 5.34545 -1.2471 0
M  V30 1119 H 102.93 4.41552 0.220071 0
M  V30 1120 N 101.989 0.842826 1.3317 0
M  V30 1121 C 102.937 0.267495 2.31057 0
M  V30 1122 C 103.931 -0.602682 1.58316 0
M  V30 1123 O 105.137 -0.491803 1.73151 0
M  V30 1124 H 101.512 0.0677813 0.748939 0
M  V30 1125 H 103.483 1.10754 2.77085 0
M  V30 1126 C 102.232 -0.539331 3.43492 0
M  V30 1127 H 101.555 0.12095 3.99617 0
M  V30 1128 H 102.995 -0.90767 4.14171 0
M  V30 1129 C 101.454 -1.71981 2.89697 0
M  V30 1130 O 101.984 -2.81862 2.86211 0
M  V30 1131 N 100.19 -1.54299 2.46252 0
M  V30 1132 H 99.7369 -0.649143 2.49287 0
M  V30 1133 H 99.6949 -2.33431 2.10612 0
M  V30 1134 N 103.467 -1.45747 0.599634 0
M  V30 1135 C 104.414 -2.30467 -0.123849 0
M  V30 1136 C 105.384 -1.41632 -0.86774 0
M  V30 1137 O 106.569 -1.70568 -0.855056 0
M  V30 1138 C 103.709 -3.26402 -1.12051 0
M  V30 1139 C 102.822 -4.3034 -0.37832 0
M  V30 1140 C 101.957 -5.13389 -1.364 0
M  V30 1141 C 100.996 -6.09061 -0.609171 0
M  V30 1142 N 100.133 -6.84918 -1.54374 0
M  V30 1143 H 104.973 -2.91802 0.604627 0
M  V30 1144 H 102.51 -1.43797 0.309972 0
M  V30 1145 H 104.468 -3.80482 -1.7114 0
M  V30 1146 H 103.098 -2.66839 -1.8165 0
M  V30 1147 H 102.15 -3.78984 0.327929 0
M  V30 1148 H 103.462 -4.98354 0.210997 0
M  V30 1149 H 102.616 -5.7183 -2.02719 0
M  V30 1150 H 101.355 -4.45376 -1.98725 0
M  V30 1151 H 100.36 -5.49758 0.0676979 0
M  V30 1152 H 101.585 -6.79099 0.00891991 0
M  V30 1153 H 99.531 -6.19601 -2.15478 0
M  V30 1154 H 99.448 -7.49254 -1.00766 0
M  V30 1155 H 100.716 -7.47906 -2.19676 0
M  V30 1156 N 104.945 -0.338344 -1.53925 0
M  V30 1157 C 106.193 0.259245 -2.0043 0
M  V30 1158 C 106.514 1.51484 -1.22791 0
M  V30 1159 O 105.784 1.93037 -0.33368 0
M  V30 1160 H 104.364 0.0987845 -0.740439 0
M  V30 1161 H 107.026 -0.458302 -1.89435 0
M  V30 1162 H 106.122 0.505334 -3.07982 0
M  V30 1163 N 106.423 1.57458 -0.0668435 0
M  V30 1164 C 107.672 1.92477 0.602947 0
M  V30 1165 C 107.985 0.948419 1.71068 0
M  V30 1166 O 109.191 1.19124 2.43971 0
M  V30 1167 C 107.647 3.41903 1.12383 0
M  V30 1168 C 107.255 4.47975 0.04737 0
M  V30 1169 C 108.999 3.85931 1.76797 0
M  V30 1170 C 106.906 5.88529 0.582022 0
M  V30 1171 H 105.836 0.718387 0.22899 0
M  V30 1172 H 108.487 1.82978 -0.138276 0
M  V30 1173 H 106.869 3.46459 1.91787 0
M  V30 1174 H 108.043 4.55029 -0.726978 0
M  V30 1175 H 106.358 4.13384 -0.500243 0
M  V30 1176 H 108.955 4.88322 2.17821 0
M  V30 1177 H 109.298 3.23029 2.62599 0
M  V30 1178 H 109.831 3.83958 1.04024 0
M  V30 1179 H 106.57 6.55065 -0.238721 0
M  V30 1180 H 106.09 5.85004 1.324 0
M  V30 1181 H 107.769 6.38258 1.05999 0
M  V30 1182 N 107.901 -0.206675 1.56239 0
M  V30 1183 C 109.131 -0.943975 1.83773 0
M  V30 1184 C 109.539 -1.77841 0.645703 0
M  V30 1185 O 108.882 -1.79403 -0.395008 0
M  V30 1186 C 108.944 -1.899 3.05251 0
M  V30 1187 C 108.608 -1.24764 4.39639 0
M  V30 1188 C 109.605 -0.630216 5.16066 0
M  V30 1189 C 107.29 -1.25496 4.8637 0
M  V30 1190 C 109.284 -0.0287946 6.37393 0
M  V30 1191 C 106.971 -0.649698 6.07637 0
M  V30 1192 C 107.969 -0.0376845 6.8299 0
M  V30 1193 O 107.657 0.55812 8.0196 0
M  V30 1194 H 107.389 -0.281508 0.614597 0
M  V30 1195 H 109.943 -0.222458 2.04192 0
M  V30 1196 H 108.173 -2.6599 2.80689 0
M  V30 1197 H 109.862 -2.5031 3.1953 0
M  V30 1198 H 110.628 -0.616785 4.81062 0
M  V30 1199 H 106.507 -1.72072 4.27683 0
M  V30 1200 H 110.051 0.449518 6.9615 0
M  V30 1201 H 105.948 -0.660592 6.42111 0
M  V30 1202 H 106.716 0.453891 8.17241 0
M  V30 1203 N 109.379 -1.50304 -0.473955 0
M  V30 1204 C 110.309 -1.71886 -1.58042 0
M  V30 1205 C 111.29 -0.567799 -1.60344 0
M  V30 1206 O 112.475 -0.806623 -1.76656 0
M  V30 1207 C 109.605 -1.81036 -2.96384 0
M  V30 1208 C 108.559 -2.962 -3.08949 0
M  V30 1209 C 107.885 -2.9049 -4.48909 0
M  V30 1210 C 109.185 -4.36752 -2.86434 0
M  V30 1211 H 110.879 -2.64527 -1.40234 0
M  V30 1212 H 108.425 -1.27295 -0.673201 0
M  V30 1213 H 110.378 -1.94719 -3.73714 0
M  V30 1214 H 109.102 -0.850147 -3.15341 0
M  V30 1215 H 107.761 -2.82164 -2.3405 0
M  V30 1216 H 107.409 -1.92321 -4.64781 0
M  V30 1217 H 107.109 -3.67802 -4.58253 0
M  V30 1218 H 108.633 -3.06218 -5.28264 0
M  V30 1219 H 110.047 -4.5133 -3.53517 0
M  V30 1220 H 108.444 -5.15493 -3.07225 0
M  V30 1221 H 109.514 -4.49321 -1.82316 0
M  V30 1222 N 110.857 0.726932 -1.39834 0
M  V30 1223 C 111.804 1.841 -1.39197 0
M  V30 1224 C 112.774 1.642 -0.250502 0
M  V30 1225 O 113.959 1.85494 -0.446846 0
M  V30 1226 C 111.099 3.21697 -1.24919 0
M  V30 1227 C 110.212 3.53247 -2.48678 0
M  V30 1228 C 109.347 4.80289 -2.26928 0
M  V30 1229 C 108.386 5.04707 -3.4632 0
M  V30 1230 N 107.523 6.22956 -3.23836 0
M  V30 1231 H 112.363 1.83979 -2.34427 0
M  V30 1232 H 109.9 0.898876 -1.16442 0
M  V30 1233 H 111.858 4.01137 -1.1465 0
M  V30 1234 H 110.488 3.21076 -0.333153 0
M  V30 1235 H 109.54 2.68447 -2.69519 0
M  V30 1236 H 110.852 3.67205 -3.37582 0
M  V30 1237 H 110.006 5.67725 -2.13947 0
M  V30 1238 H 108.745 4.68519 -1.35431 0
M  V30 1239 H 107.75 4.1573 -3.5979 0
M  V30 1240 H 108.975 5.18357 -4.38729 0
M  V30 1241 H 106.921 6.12459 -2.35011 0
M  V30 1242 H 106.838 6.37539 -4.063 0
M  V30 1243 H 108.106 7.1321 -3.14566 0
M  V30 1244 N 112.336 1.25143 0.95797 0
M  V30 1245 C 113.246 1.06968 2.08794 0
M  V30 1246 C 114.262 0.00773911 1.73998 0
M  V30 1247 O 115.438 0.207972 2.00323 0
M  V30 1248 C 112.503 0.68691 3.39827 0
M  V30 1249 C 111.564 1.82641 3.88511 0
M  V30 1250 C 110.797 1.46181 5.1329 0
M  V30 1251 O 111.02 0.355971 5.69288 0
M  V30 1252 O 109.954 2.29085 5.566 0
M  V30 1253 H 113.78 2.01723 2.27027 0
M  V30 1254 H 111.365 1.04051 1.07209 0
M  V30 1255 H 113.247 0.485417 4.18595 0
M  V30 1256 H 111.922 -0.231417 3.22872 0
M  V30 1257 H 110.829 2.08274 3.10762 0
M  V30 1258 H 112.162 2.72386 4.09959 0
M  V30 1259 N 113.814 -1.1601 1.06675 0
M  V30 1260 C 114.724 -2.24156 0.692179 0
M  V30 1261 C 115.74 -1.71507 -0.293513 0
M  V30 1262 O 116.916 -2.009 -0.141861 0
M  V30 1263 C 113.981 -3.46587 0.0884131 0
M  V30 1264 C 113.042 -4.14257 1.12646 0
M  V30 1265 C 112.275 -5.30844 0.551416 0
M  V30 1266 O 112.498 -5.66858 -0.634656 0
M  V30 1267 O 111.432 -5.87848 1.29298 0
M  V30 1268 H 115.258 -2.58513 1.59388 0
M  V30 1269 H 112.843 -1.23599 0.83926 0
M  V30 1270 H 114.725 -4.20679 -0.246361 0
M  V30 1271 H 113.4 -3.13994 -0.786712 0
M  V30 1272 H 112.307 -3.42118 1.51348 0
M  V30 1273 H 113.64 -4.50914 1.97325 0
M  V30 1274 N 115.292 -0.849877 -1.32721 0
M  V30 1275 C 116.239 -0.289033 -2.28983 0
M  V30 1276 C 117.209 0.601324 -1.54833 0
M  V30 1277 O 118.394 0.537253 -1.8308 0
M  V30 1278 C 115.534 0.520623 -3.4115 0
M  V30 1279 C 114.647 -0.394989 -4.3019 0
M  V30 1280 C 113.782 0.426834 -5.29482 0
M  V30 1281 C 112.821 -0.486476 -6.10164 0
M  V30 1282 N 111.958 0.297879 -7.01468 0
M  V30 1283 H 116.798 -1.11519 -2.76347 0
M  V30 1284 H 114.335 -0.56138 -1.35967 0
M  V30 1285 H 116.293 1.00563 -4.04899 0
M  V30 1286 H 114.923 1.31165 -2.9495 0
M  V30 1287 H 113.975 -0.99836 -3.67065 0
M  V30 1288 H 115.287 -1.09612 -4.86607 0
M  V30 1289 H 114.441 0.975205 -5.98811 0
M  V30 1290 H 113.18 1.16136 -4.73671 0
M  V30 1291 H 112.185 -1.04677 -5.39743 0
M  V30 1292 H 113.41 -1.21953 -6.6806 0
M  V30 1293 H 111.356 1.01558 -6.48091 0
M  V30 1294 H 111.273 -0.344318 -7.55216 0
M  V30 1295 H 112.541 0.828131 -7.75089 0
M  V30 1296 N 116.77 1.45427 -0.607355 0
M  V30 1297 C 118.018 2.01841 -0.102253 0
M  V30 1298 C 118.339 1.47832 1.27164 0
M  V30 1299 O 117.609 0.672497 1.83995 0
M  V30 1300 H 116.189 0.746188 -0.0348101 0
M  V30 1301 H 118.851 1.78229 -0.7887 0
M  V30 1302 H 117.947 3.12057 -0.0518585 0
M  V30 1303 N 118.248 0.346503 1.53744 0
M  V30 1304 C 119.494 -0.249473 2.0126 0
M  V30 1305 C 119.827 -1.49965 1.23386 0
M  V30 1306 O 119.102 -1.91811 0.32229 0
M  V30 1307 C 119.385 -0.560643 3.55709 0
M  V30 1308 C 119.238 0.701836 4.44291 0
M  V30 1309 C 120.557 -1.36905 4.18264 0
M  V30 1310 H 117.676 -0.0891987 0.731582 0
M  V30 1311 H 120.318 0.467624 1.84156 0
M  V30 1312 H 118.468 -1.17156 3.70414 0
M  V30 1313 H 120.14 1.33974 4.41417 0
M  V30 1314 H 118.383 1.32612 4.13033 0
M  V30 1315 H 119.054 0.43933 5.50249 0
M  V30 1316 H 121.53 -0.852448 4.07275 0
M  V30 1317 H 120.406 -1.55553 5.26398 0
M  V30 1318 H 120.667 -2.37203 3.73078 0
M  V30 1319 N 119.726 -1.57421 0.075193 0
M  V30 1320 C 120.954 -1.97946 -0.602076 0
M  V30 1321 C 121.369 -0.953674 -1.62943 0
M  V30 1322 O 120.726 0.0592551 -1.82404 0
M  V30 1323 C 120.777 -3.38546 -1.26762 0
M  V30 1324 O 120.498 -4.37195 -0.281376 0
M  V30 1325 C 121.999 -3.93966 -2.03239 0
M  V30 1326 H 119.219 -0.650918 -0.162931 0
M  V30 1327 H 121.763 -2.03959 0.148601 0
M  V30 1328 H 119.918 -3.33609 -1.96936 0
M  V30 1329 H 120.332 -5.18975 -0.759267 0
M  V30 1330 H 121.806 -4.94555 -2.45193 0
M  V30 1331 H 122.283 -3.30693 -2.8903 0
M  V30 1332 H 122.889 -4.02315 -1.37924 0
M  V30 1333 N 121.204 0.198386 -1.56346 0
M  V30 1334 C 122.134 1.24865 -1.9731 0
M  V30 1335 C 123.115 1.47651 -0.844576 0
M  V30 1336 O 124.3 1.59444 -1.10866 0
M  V30 1337 C 121.43 2.59358 -2.30977 0
M  V30 1338 C 120.384 2.5119 -3.46537 0
M  V30 1339 C 119.71 3.89926 -3.65871 0
M  V30 1340 C 121.01 2.03977 -4.80823 0
M  V30 1341 H 122.704 0.908252 -2.85291 0
M  V30 1342 H 120.25 0.435462 -1.37258 0
M  V30 1343 H 122.203 3.33011 -2.58228 0
M  V30 1344 H 120.927 2.95132 -1.39874 0
M  V30 1345 H 119.586 1.79993 -3.19371 0
M  V30 1346 H 119.234 4.23046 -2.72105 0
M  V30 1347 H 118.934 3.85336 -4.4361 0
M  V30 1348 H 120.458 4.65205 -3.95495 0
M  V30 1349 H 121.872 2.67386 -5.07127 0
M  V30 1350 H 120.269 2.10397 -5.62008 0
M  V30 1351 H 121.339 0.992861 -4.74626 0
M  V30 1352 N 122.682 1.50554 0.465978 0
M  V30 1353 C 123.612 1.72722 1.57128 0
M  V30 1354 C 124.593 0.576294 1.6004 0
M  V30 1355 O 125.778 0.81598 1.76225 0
M  V30 1356 C 122.908 1.82605 2.95419 0
M  V30 1357 C 121.862 2.97835 3.07373 0
M  V30 1358 C 121.188 2.92867 4.47363 0
M  V30 1359 C 122.488 4.38265 2.84114 0
M  V30 1360 H 124.182 2.65267 1.38829 0
M  V30 1361 H 121.728 1.2765 0.666441 0
M  V30 1362 H 123.681 1.96698 3.72677 0
M  V30 1363 H 122.405 0.866858 3.14886 0
M  V30 1364 H 121.064 2.83401 2.3255 0
M  V30 1365 H 120.712 1.94783 4.63755 0
M  V30 1366 H 120.412 3.70227 4.56296 0
M  V30 1367 H 121.936 3.09015 5.26633 0
M  V30 1368 H 123.35 4.53198 3.51118 0
M  V30 1369 H 121.747 5.17115 3.04487 0
M  V30 1370 H 122.817 4.50281 1.7993 0
M  V30 1371 N 124.16 -0.719506 1.40217 0
M  V30 1372 C 125.39 -1.50646 1.41384 0
M  V30 1373 C 125.798 -1.89197 0.0107743 0
M  V30 1374 O 125.141 -1.55709 -0.974708 0
M  V30 1375 C 125.203 -2.81405 2.23722 0
M  V30 1376 C 124.867 -2.65199 3.72181 0
M  V30 1377 C 125.864 -2.32717 4.64907 0
M  V30 1378 C 123.549 -2.81586 4.1595 0
M  V30 1379 C 125.543 -2.16827 5.99387 0
M  V30 1380 C 123.23 -2.65313 5.50502 0
M  V30 1381 C 124.228 -2.32981 6.42035 0
M  V30 1382 O 123.916 -2.16827 7.74107 0
M  V30 1383 H 123.648 -0.471606 0.484318 0
M  V30 1384 H 126.202 -0.895456 1.84853 0
M  V30 1385 H 124.432 -3.44823 1.75026 0
M  V30 1386 H 126.121 -3.43102 2.16878 0
M  V30 1387 H 126.887 -2.19694 4.32388 0
M  V30 1388 H 122.766 -3.0574 3.45027 0
M  V30 1389 H 126.31 -1.91513 6.70797 0
M  V30 1390 H 122.207 -2.7792 5.82607 0
M  V30 1391 H 122.975 -2.31778 7.84998 0
M  V30 1392 N 125.638 -1.25649 -0.95132 0
M  V30 1393 C 126.868 -1.13179 -1.72841 0
M  V30 1394 C 127.276 0.316827 -1.86528 0
M  V30 1395 O 126.619 1.22948 -1.3649 0
M  V30 1396 C 126.681 -1.71644 -3.15878 0
M  V30 1397 C 126.345 -3.20667 -3.25609 0
M  V30 1398 C 127.342 -4.17616 -3.09666 0
M  V30 1399 C 125.027 -3.6094 -3.49324 0
M  V30 1400 C 127.021 -5.52817 -3.17289 0
M  V30 1401 C 124.708 -4.96278 -3.56584 0
M  V30 1402 C 125.706 -5.92025 -3.40581 0
M  V30 1403 O 125.394 -7.24899 -3.47528 0
M  V30 1404 H 125.126 -0.395389 -0.54831 0
M  V30 1405 H 127.68 -1.66566 -1.20187 0
M  V30 1406 H 125.91 -1.12707 -3.69911 0
M  V30 1407 H 127.599 -1.54225 -3.75459 0
M  V30 1408 H 128.365 -3.87842 -2.91211 0
M  V30 1409 H 124.244 -2.86907 -3.6084 0
M  V30 1410 H 127.788 -6.2753 -3.04716 0
M  V30 1411 H 123.685 -5.25716 -3.74556 0
M  V30 1412 H 124.453 -7.33039 -3.64138 0
M  V30 1413 N 127.117 1.15442 -1.07289 0
M  V30 1414 C 128.365 1.85845 -0.794096 0
M  V30 1415 C 128.686 1.82692 0.681809 0
M  V30 1416 O 127.956 1.26741 1.49377 0
M  V30 1417 H 126.536 0.688089 -0.290763 0
M  V30 1418 H 129.198 1.39947 -1.3565 0
M  V30 1419 H 128.294 2.91001 -1.12804 0
M  V30 1420 N 128.595 0.856903 1.32268 0
M  V30 1421 C 130.011 0.547061 1.49931 0
M  V30 1422 C 130.211 -0.921781 1.7918 0
M  V30 1423 O 129.267 -1.70469 1.8627 0
M  V30 1424 C 130.58 1.43599 2.64196 0
M  V30 1425 C 132.128 1.43665 2.78081 0
M  V30 1426 C 132.603 2.31085 3.95428 0
M  V30 1427 N 134.094 2.28893 4.02694 0
M  V30 1428 C 134.829 2.93262 4.92732 0
M  V30 1429 N 134.325 3.66751 5.87763 0
M  V30 1430 N 136.118 2.82638 4.85873 0
M  V30 1431 H 128.269 1.8075 1.11549 0
M  V30 1432 H 130.532 0.772144 0.549997 0
M  V30 1433 H 130.238 2.48058 2.49319 0
M  V30 1434 H 130.112 1.12502 3.60032 0
M  V30 1435 H 132.499 0.399701 2.92381 0
M  V30 1436 H 132.58 1.7878 1.82952 0
M  V30 1437 H 132.224 3.34849 3.81888 0
M  V30 1438 H 132.154 1.93302 4.89839 0
M  V30 1439 H 134.645 1.75466 3.34694 0
M  V30 1440 H 134.958 4.13027 6.53168 0
M  V30 1441 H 133.303 3.70859 5.87783 0
M  V30 1442 H 136.494 2.24774 4.10602 0
M  V30 1443 H 136.667 3.33084 5.55841 0
M  V30 1444 N 130.073 -1.45103 0.615059 0
M  V30 1445 C 131.303 -2.06254 0.119596 0
M  V30 1446 C 131.711 -1.4591 -1.20445 0
M  V30 1447 O 131.054 -0.570384 -1.7462 0
M  V30 1448 C 131.116 -3.59396 -0.0865591 0
M  V30 1449 C 130.78 -4.42116 1.15683 0
M  V30 1450 C 131.777 -4.7662 2.07676 0
M  V30 1451 C 129.462 -4.82749 1.38775 0
M  V30 1452 C 131.456 -5.50622 3.21082 0
M  V30 1453 C 129.143 -5.56504 2.52481 0
M  V30 1454 C 130.141 -5.90358 3.43463 0
M  V30 1455 O 129.829 -6.62615 4.55189 0
M  V30 1456 H 129.561 -0.672423 0.0694512 0
M  V30 1457 H 132.115 -1.87219 0.844885 0
M  V30 1458 H 130.345 -3.76859 -0.866823 0
M  V30 1459 H 132.034 -4.02365 -0.534555 0
M  V30 1460 H 132.8 -4.4578 1.91063 0
M  V30 1461 H 128.679 -4.55829 0.688545 0
M  V30 1462 H 132.223 -5.76965 3.92119 0
M  V30 1463 H 128.12 -5.86759 2.69043 0
M  V30 1464 H 128.888 -6.81071 4.53966 0
M  V30 1465 N 131.551 -0.354651 -1.53558 0
M  V30 1466 C 132.499 0.512195 -2.26891 0
M  V30 1467 C 133.493 1.09263 -1.29452 0
M  V30 1468 O 134.699 1.03709 -1.47121 0
M  V30 1469 H 131.074 0.183878 -0.729173 0
M  V30 1470 H 133.045 -0.128202 -2.98124 0
M  V30 1471 C 131.794 1.64563 -3.06291 0
M  V30 1472 H 131.117 1.20829 -3.81104 0
M  V30 1473 H 132.557 2.22711 -3.60799 0
M  V30 1474 C 131.016 2.58158 -2.16462 0
M  V30 1475 O 131.546 3.60695 -1.76811 0
M  V30 1476 N 129.752 2.27096 -1.81317 0
M  V30 1477 H 129.299 1.43751 -2.1376 0
M  V30 1478 H 129.257 2.89975 -1.21498 0
M  V30 1479 N 133.029 1.57378 -0.0835403 0
M  V30 1480 C 134.254 1.98682 0.594987 0
M  V30 1481 C 134.679 0.961969 1.61641 0
M  V30 1482 O 134.037 -0.0709989 1.81161 0
M  V30 1483 C 134.085 3.38988 1.2296 0
M  V30 1484 O 133.189 3.39208 2.34546 0
M  V30 1485 H 132.53 0.646368 0.152002 0
M  V30 1486 H 135.06 2.03961 -0.161533 0
M  V30 1487 H 135.07 3.76431 1.57366 0
M  V30 1488 H 133.745 4.13107 0.481228 0
M  V30 1489 H 132.322 3.13548 2.01846 0
M  V30 1490 N 134.507 -0.190092 1.56449 0
M  V30 1491 C 135.732 -0.929864 1.85387 0
M  V30 1492 C 136.157 -1.7585 0.667704 0
M  V30 1493 O 135.515 -1.77198 -0.383459 0
M  V30 1494 C 135.563 -1.79773 3.12593 0
M  V30 1495 O 134.667 -2.89713 2.93496 0
M  V30 1496 H 134.008 -0.261574 0.610307 0
M  V30 1497 H 136.538 -0.193896 2.03679 0
M  V30 1498 H 136.548 -2.20139 3.43515 0
M  V30 1499 H 135.223 -1.18892 3.98544 0
M  V30 1500 H 133.8 -2.53065 2.73884 0
M  V30 1501 N 135.985 -1.50799 -0.457987 0
M  V30 1502 C 137.225 -1.64088 -1.21879 0
M  V30 1503 C 137.589 -0.339848 -1.88968 0
M  V30 1504 O 138.79 -0.348301 -2.66534 0
M  V30 1505 C 137.061 -2.79726 -2.2246 0
M  V30 1506 S 138.62 -3.13225 -3.07303 0
M  V30 1507 H 135.438 -0.578314 -0.41361 0
M  V30 1508 H 138.04 -1.88632 -0.513645 0
M  V30 1509 H 136.744 -3.72722 -1.71775 0
M  V30 1510 H 136.275 -2.57308 -2.97584 0
M  V30 1511 H 138.29 -2.58062 -4.23814 0
M  V30 1512 N 137.463 0.71206 -1.40597 0
M  V30 1513 C 138.712 1.46754 -1.38369 0
M  V30 1514 C 139.025 1.95598 0.0097839 0
M  V30 1515 O 140.231 2.71059 0.154677 0
M  V30 1516 C 138.687 2.65289 -2.43207 0
M  V30 1517 C 138.295 2.23301 -3.88382 0
M  V30 1518 C 140.039 3.43008 -2.50091 0
M  V30 1519 C 137.946 3.38696 -4.84808 0
M  V30 1520 H 136.876 0.55118 -0.514506 0
M  V30 1521 H 139.527 0.774616 -1.66349 0
M  V30 1522 H 137.909 3.36769 -2.08332 0
M  V30 1523 H 139.083 1.59218 -4.32419 0
M  V30 1524 H 137.398 1.58618 -3.85006 0
M  V30 1525 H 139.995 4.28881 -3.1932 0
M  V30 1526 H 140.338 3.87065 -1.53253 0
M  V30 1527 H 140.871 2.78574 -2.83974 0
M  V30 1528 H 137.61 2.99668 -5.82992 0
M  V30 1529 H 137.13 4.01683 -4.45433 0
M  V30 1530 H 138.809 4.04712 -5.04794 0
M  V30 1531 N 138.941 1.26152 0.944643 0
M  V30 1532 C 140.166 1.14363 1.7302 0
M  V30 1533 C 140.591 -0.29772 1.85729 0
M  V30 1534 O 139.949 -1.2157 1.34501 0
M  V30 1535 C 139.997 1.81378 3.11664 0
M  V30 1536 O 139.101 1.10022 3.97453 0
M  V30 1537 H 138.442 0.398694 0.53098 0
M  V30 1538 H 140.972 1.66906 1.18337 0
M  V30 1539 H 140.982 1.88064 3.62072 0
M  V30 1540 H 139.657 2.86237 3.0173 0
M  V30 1541 H 138.234 1.11287 3.55907 0
M  V30 1542 N 140.419 -1.14872 1.07899 0
M  V30 1543 C 141.366 -2.19791 0.704319 0
M  V30 1544 C 142.336 -1.63238 -0.306987 0
M  V30 1545 O 143.521 -1.8983 -0.192171 0
M  V30 1546 C 140.661 -3.44911 0.114244 0
M  V30 1547 C 139.774 -4.15637 1.1777 0
M  V30 1548 C 138.909 -5.28324 0.552037 0
M  V30 1549 C 137.948 -5.90875 1.59789 0
M  V30 1550 N 137.085 -6.95022 0.994404 0
M  V30 1551 H 141.925 -2.5119 1.60336 0
M  V30 1552 H 139.462 -1.23356 0.801352 0
M  V30 1553 H 141.42 -4.16477 -0.245544 0
M  V30 1554 H 140.05 -3.14011 -0.74813 0
M  V30 1555 H 139.102 -3.42512 1.65499 0
M  V30 1556 H 140.414 -4.5823 1.97046 0
M  V30 1557 H 139.568 -6.06538 0.1402 0
M  V30 1558 H 138.307 -4.86939 -0.272431 0
M  V30 1559 H 137.312 -5.11369 2.01945 0
M  V30 1560 H 138.537 -6.34337 2.42474 0
M  V30 1561 H 136.483 -6.55722 0.190939 0
M  V30 1562 H 136.4 -7.36073 1.72432 0
M  V30 1563 H 137.668 -7.77123 0.608253 0
M  V30 1564 N 141.898 -0.863906 -1.31812 0
M  V30 1565 C 143.309 -0.52522 -1.7916 0
M  V30 1566 C 143.66 0.957518 -1.71248 0
M  V30 1567 O 142.785 1.74734 -1.27659 0
M  V30 1568 C 143.38 -0.9466 -3.25307 0
M  V30 1569 C 141.939 -0.659668 -3.70574 0
M  V30 1570 C 141.086 -1.14126 -2.52726 0
M  V30 1571 H 144.037 -1.05022 -1.1898 0
M  V30 1572 H 144.058 -0.266766 -3.79564 0
M  V30 1573 H 143.57 -2.02579 -3.31034 0
M  V30 1574 H 141.671 0.408416 -3.70355 0
M  V30 1575 H 141.784 -1.23245 -4.62977 0
M  V30 1576 H 140.148 -0.561216 -2.4844 0
M  V30 1577 H 140.931 -2.22775 -2.61201 0
M  V30 1578 N 143.376 1.44774 -0.622745 0
M  V30 1579 C 144.286 2.34433 0.0886031 0
M  V30 1580 C 145.302 1.52131 0.844529 0
M  V30 1581 O 146.478 1.84886 0.798691 0
M  V30 1582 C 143.543 3.29986 1.0635 0
M  V30 1583 C 142.604 4.28195 0.307873 0
M  V30 1584 C 141.837 5.19183 1.23633 0
M  V30 1585 O 142.06 5.13918 2.47476 0
M  V30 1586 O 140.994 5.97515 0.725189 0
M  V30 1587 H 144.82 2.96693 -0.648599 0
M  V30 1588 H 142.405 1.44408 -0.382957 0
M  V30 1589 H 144.287 3.88825 1.6246 0
M  V30 1590 H 142.962 2.70269 1.78146 0
M  V30 1591 H 141.869 3.72927 -0.296064 0
M  V30 1592 H 143.202 4.90808 -0.3699 0
M  V30 1593 N 144.854 0.36279 1.53368 0
M  V30 1594 C 145.786 -0.519668 2.23231 0
M  V30 1595 C 146.799 -1.04844 1.24546 0
M  V30 1596 O 147.988 -0.955296 1.50786 0
M  V30 1597 C 145.088 -1.72995 2.9142 0
M  V30 1598 C 144.261 -1.33316 4.16588 0
M  V30 1599 C 143.32 -2.40521 4.68013 0
M  V30 1600 O 142.346 -2.03027 5.3176 0
M  V30 1601 N 143.548 -3.72065 4.45587 0
M  V30 1602 H 146.313 0.078751 2.99597 0
M  V30 1603 H 143.874 0.187833 1.60807 0
M  V30 1604 H 145.866 -2.44184 3.22733 0
M  V30 1605 H 144.436 -2.2353 2.18525 0
M  V30 1606 H 143.656 -0.451236 3.91609 0
M  V30 1607 H 144.944 -1.04432 4.97967 0
M  V30 1608 H 144.342 -4.05304 3.94646 0
M  V30 1609 H 142.899 -4.39366 4.81457 0
M  V30 1610 N 146.332 -1.57332 0.0918853 0
M  V30 1611 C 147.572 -1.96117 -0.575988 0
M  V30 1612 C 147.936 -0.972499 -1.65549 0
M  V30 1613 O 149.137 -1.24872 -2.38034 0
M  V30 1614 C 147.408 -3.39407 -1.11973 0
M  V30 1615 S 148.967 -4.00185 -1.79992 0
M  V30 1616 H 145.785 -0.685682 -0.188045 0
M  V30 1617 H 148.387 -1.94755 0.170525 0
M  V30 1618 H 147.091 -4.09131 -0.322504 0
M  V30 1619 H 146.622 -3.44358 -1.90214 0
M  V30 1620 H 148.637 -3.88728 -3.08391 0
M  V30 1621 N 147.81 0.181792 -1.56548 0
M  V30 1622 C 149.058 0.89832 -1.81038 0
M  V30 1623 C 149.379 1.83232 -0.667164 0
M  V30 1624 O 148.649 1.93372 0.313673 0
M  V30 1625 H 147.229 0.33471 -0.667816 0
M  V30 1626 H 149.891 0.184116 -1.94028 0
M  V30 1627 H 148.987 1.4815 -2.74696 0
M  V30 1628 N 149.288 1.51039 0.449983 0
M  V30 1629 C 150.699 1.557 1.03026 0
M  V30 1630 C 151.05 0.372939 1.92623 0
M  V30 1631 O 150.175 -0.511771 2.10261 0
M  V30 1632 C 150.77 2.82171 1.87523 0
M  V30 1633 C 149.329 2.89444 2.40622 0
M  V30 1634 C 148.476 2.50228 1.19504 0
M  V30 1635 H 151.427 1.56999 0.231745 0
M  V30 1636 H 151.448 2.65219 2.72835 0
M  V30 1637 H 150.96 3.68331 1.22286 0
M  V30 1638 H 149.061 2.07685 3.0935 0
M  V30 1639 H 149.174 3.92816 2.74285 0
M  V30 1640 H 147.538 2.03139 1.53644 0
M  V30 1641 H 148.321 3.38719 0.558972 0
M  V30 1642 N 150.766 -0.704594 1.40972 0
M  V30 1643 C 151.676 -1.84856 1.44448 0
M  V30 1644 C 152.692 -1.70726 0.335961 0
M  V30 1645 O 153.868 -1.92799 0.582276 0
M  V30 1646 C 150.933 -3.20758 1.31587 0
M  V30 1647 C 149.994 -3.47063 2.52677 0
M  V30 1648 C 149.227 -4.76481 2.4042 0
M  V30 1649 O 149.45 -5.52341 1.42391 0
M  V30 1650 O 148.384 -5.03367 3.30007 0
M  V30 1651 H 152.21 -1.8488 2.40942 0
M  V30 1652 H 149.795 -0.85647 1.22413 0
M  V30 1653 H 151.677 -4.01913 1.26665 0
M  V30 1654 H 150.352 -3.21438 0.382049 0
M  V30 1655 H 149.259 -2.65873 2.63177 0
M  V30 1656 H 150.592 -3.5119 3.44858 0
M  V30 1657 N 152.244 -1.26651 -0.937939 0
M  V30 1658 C 153.492 -1.12165 -1.68118 0
M  V30 1659 C 153.813 0.334983 -1.92101 0
M  V30 1660 O 153.083 1.23583 -1.52 0
M  V30 1661 H 151.663 -0.412093 -0.623048 0
M  V30 1662 H 154.325 -1.59027 -1.12678 0
M  V30 1663 H 153.421 -1.64289 -2.6536 0
M  V30 1664 N 153.722 1.14298 -1.08507 0
M  V30 1665 C 154.968 1.85633 -0.816581 0
M  V30 1666 C 155.301 1.82784 0.656021 0
M  V30 1667 O 154.576 1.25926 1.48233 0
M  V30 1668 C 154.859 3.34223 -1.34041 0
M  V30 1669 C 154.712 3.45639 -2.87843 0
M  V30 1670 C 156.031 4.29356 -0.9665 0
M  V30 1671 H 153.15 0.67402 -0.298104 0
M  V30 1672 H 155.792 1.34214 -1.34487 0
M  V30 1673 H 153.942 3.78144 -0.89104 0
M  V30 1674 H 155.614 3.10498 -3.41158 0
M  V30 1675 H 153.857 2.86817 -3.25451 0
M  V30 1676 H 154.528 4.50089 -3.19569 0
M  V30 1677 H 157.004 3.93457 -1.35391 0
M  V30 1678 H 155.88 5.3178 -1.3602 0
M  V30 1679 H 156.141 4.41919 0.126362 0
M  V30 1680 N 155.201 0.870884 1.31352 0
M  V30 1681 C 156.429 0.49677 2.00848 0
M  V30 1682 C 156.844 -0.910998 1.65367 0
M  V30 1683 O 156.201 -1.59696 0.883374 0
M  V30 1684 C 156.252 0.645308 3.55694 0
M  V30 1685 O 155.973 1.99764 3.89905 0
M  V30 1686 C 157.474 0.272326 4.42463 0
M  V30 1687 H 154.694 0.193462 0.642506 0
M  V30 1688 H 157.238 1.1723 1.67563 0
M  V30 1689 H 155.393 0.0173176 3.87396 0
M  V30 1690 H 155.807 2.00607 4.84621 0
M  V30 1691 H 157.281 0.427208 5.50344 0
M  V30 1692 H 157.758 -0.788587 4.32062 0
M  V30 1693 H 158.364 0.876054 4.1618 0
M  V30 1694 N 156.679 -1.44442 0.630414 0
M  V30 1695 C 157.926 -2.02052 0.134617 0
M  V30 1696 C 158.254 -1.49576 -1.24327 0
M  V30 1697 O 157.509 -0.669806 -1.83881 0
M  V30 1698 C 157.808 -3.57332 0.0697835 0
M  V30 1699 C 157.474 -4.29058 1.38635 0
M  V30 1700 C 156.136 -4.4837 1.74694 0
M  V30 1701 C 158.488 -4.69872 2.25543 0
M  V30 1702 C 155.816 -5.05756 2.97369 0
M  V30 1703 C 158.168 -5.28616 3.47487 0
M  V30 1704 C 156.832 -5.46147 3.8377 0
M  V30 1705 H 156.102 -0.739361 0.0492598 0
M  V30 1706 H 158.749 -1.73217 0.816586 0
M  V30 1707 H 157.054 -3.85577 -0.695553 0
M  V30 1708 H 158.751 -3.99637 -0.330344 0
M  V30 1709 H 155.341 -4.14357 1.09574 0
M  V30 1710 H 159.525 -4.54666 1.98979 0
M  V30 1711 H 154.781 -5.17515 3.25558 0
M  V30 1712 H 158.955 -5.59192 4.15063 0
M  V30 1713 H 156.582 -5.9038 4.7891 0
M  V30 1714 N 158.157 -0.370918 -1.53173 0
M  V30 1715 C 159.382 0.220293 -2.06227 0
M  V30 1716 C 159.807 1.41243 -1.24225 0
M  V30 1717 O 159.165 1.79387 -0.262645 0
M  V30 1718 C 159.213 0.586663 -3.55796 0
M  V30 1719 O 158.317 1.68317 -3.76488 0
M  V30 1720 H 157.658 0.0308099 -0.663285 0
M  V30 1721 H 160.188 -0.533068 -1.97534 0
M  V30 1722 H 160.198 0.85617 -3.98916 0
M  V30 1723 H 158.873 -0.285013 -4.14922 0
M  V30 1724 H 157.45 1.40881 -3.45264 0
M  V30 1725 N 159.635 1.57281 -0.100228 0
M  V30 1726 C 160.882 1.94537 0.562268 0
M  V30 1727 C 161.21 0.982315 1.67871 0
M  V30 1728 O 160.465 0.00280936 1.957 0
M  V30 1729 C 160.764 3.38305 1.15259 0
M  V30 1730 C 160.43 4.50618 0.159409 0
M  V30 1731 C 159.092 4.81066 -0.113741 0
M  V30 1732 C 161.444 5.18615 -0.518461 0
M  V30 1733 C 158.772 5.76835 -1.07137 0
M  V30 1734 C 161.124 6.15412 -1.46459 0
M  V30 1735 C 159.788 6.44262 -1.74592 0
M  V30 1736 H 159.058 0.711863 0.205748 0
M  V30 1737 H 161.705 1.90679 -0.17715 0
M  V30 1738 H 160.01 3.38766 1.96836 0
M  V30 1739 H 161.707 3.64435 1.67297 0
M  V30 1740 H 158.297 4.2689 0.382491 0
M  V30 1741 H 162.481 4.95264 -0.320581 0
M  V30 1742 H 157.737 5.975 -1.29628 0
M  V30 1743 H 161.911 6.67194 -1.99564 0
M  V30 1744 H 159.538 7.1828 -2.48953 0
M  V30 1745 N 161.113 -0.173488 1.56642 0
M  V30 1746 C 162.36 -0.890465 1.81871 0
M  V30 1747 C 162.688 -1.82339 0.67696 0
M  V30 1748 O 161.943 -1.92795 -0.335926 0
M  V30 1749 C 162.242 -1.72069 3.13252 0
M  V30 1750 C 161.908 -0.936878 4.41059 0
M  V30 1751 C 160.57 -0.720545 4.75775 0
M  V30 1752 C 162.922 -0.386919 5.19762 0
M  V30 1753 C 160.25 0.0568829 5.86672 0
M  V30 1754 C 162.602 0.37741 6.31473 0
M  V30 1755 C 161.266 0.604563 6.64757 0
M  V30 1756 H 160.536 -0.325844 0.665512 0
M  V30 1757 H 163.183 -0.155527 1.90867 0
M  V30 1758 H 161.488 -2.52496 2.99588 0
M  V30 1759 H 163.185 -2.27844 3.29982 0
M  V30 1760 H 159.775 -1.11553 4.13828 0
M  V30 1761 H 163.959 -0.541398 4.93338 0
M  V30 1762 H 159.215 0.242635 6.10918 0
M  V30 1763 H 163.389 0.810825 6.91664 0
M  V30 1764 H 161.016 1.20885 7.50527 0
M  V30 1765 N 162.591 -1.51276 -0.441967 0
M  V30 1766 C 163.837 -1.6492 -1.1905 0
M  V30 1767 C 164.192 -0.358731 -1.89026 0
M  V30 1768 O 163.485 0.645193 -1.8041 0
M  V30 1769 C 163.679 -2.78746 -2.23686 0
M  V30 1770 C 163.508 -4.18737 -1.63979 0
M  V30 1771 C 162.278 -4.84739 -1.42674 0
M  V30 1772 C 164.476 -5.01988 -1.11858 0
M  V30 1773 N 162.458 -6.08858 -0.785159 0
M  V30 1774 C 163.829 -6.17071 -0.601989 0
M  V30 1775 C 165.884 -4.87551 -1.0099 0
M  V30 1776 C 164.587 -7.19299 0.0126012 0
M  V30 1777 C 166.613 -5.89983 -0.409206 0
M  V30 1778 C 165.975 -7.04333 0.0968651 0
M  V30 1779 H 162.074 -0.657416 -0.423471 0
M  V30 1780 H 164.658 -1.8849 -0.48782 0
M  V30 1781 H 162.829 -2.56848 -2.91348 0
M  V30 1782 H 164.561 -2.81595 -2.90666 0
M  V30 1783 H 161.316 -4.42528 -1.68719 0
M  V30 1784 H 161.74 -6.75282 -0.481942 0
M  V30 1785 H 166.382 -3.99401 -1.38703 0
M  V30 1786 H 164.1 -8.071 0.401879 0
M  V30 1787 H 167.686 -5.8088 -0.327079 0
M  V30 1788 H 166.566 -7.82238 0.554373 0
M  V30 1789 N 164.069 0.697108 -1.41344 0
M  V30 1790 C 165.016 1.81106 -1.43071 0
M  V30 1791 C 165.986 1.63632 -0.285275 0
M  V30 1792 O 167.171 1.84504 -0.486091 0
M  V30 1793 C 164.311 3.18975 -1.31715 0
M  V30 1794 C 163.424 3.47892 -2.56115 0
M  V30 1795 C 162.559 4.75367 -2.37064 0
M  V30 1796 C 161.598 4.97247 -3.56948 0
M  V30 1797 N 160.735 6.15947 -3.36977 0
M  V30 1798 H 165.575 1.78965 -2.38276 0
M  V30 1799 H 163.112 0.873975 -1.18322 0
M  V30 1800 H 165.07 3.98615 -1.23133 0
M  V30 1801 H 163.7 3.20297 -0.401183 0
M  V30 1802 H 162.752 2.62669 -2.75153 0
M  V30 1803 H 164.064 3.59962 -3.45295 0
M  V30 1804 H 163.218 5.63059 -2.25941 0
M  V30 1805 H 161.957 4.65541 -1.45338 0
M  V30 1806 H 160.962 4.08004 -3.68527 0
M  V30 1807 H 162.187 5.08934 -4.49626 0
M  V30 1808 H 160.133 6.07336 -2.47949 0
M  V30 1809 H 160.05 6.28777 -4.19732 0
M  V30 1810 H 161.318 7.06377 -3.29623 0
M  V30 1811 N 165.547 1.27147 0.931209 0
M  V30 1812 C 166.775 1.16082 1.71267 0
M  V30 1813 C 167.19 -0.282772 1.8667 0
M  V30 1814 O 166.547 -1.19283 1.38122 0
M  V30 1815 C 166.598 1.8358 3.11417 0
M  V30 1816 O 166.319 3.22299 2.96741 0
M  V30 1817 C 167.82 1.78597 4.05732 0
M  V30 1818 H 165.04 0.403758 0.535929 0
M  V30 1819 H 167.584 1.67953 1.16671 0
M  V30 1820 H 165.739 1.35623 3.62885 0
M  V30 1821 H 166.153 3.55851 3.85319 0
M  V30 1822 H 167.627 2.30444 5.01597 0
M  V30 1823 H 168.104 0.754564 4.3267 0
M  V30 1824 H 168.71 2.26152 3.60188 0
M  V30 1825 N 167.025 -1.13721 1.09112 0
M  V30 1826 C 167.957 -2.1871 0.685467 0
M  V30 1827 C 168.97 -1.60527 -0.271068 0
M  V30 1828 O 170.159 -1.78407 -0.0576148 0
M  V30 1829 C 167.259 -3.38898 -0.0111255 0
M  V30 1830 C 166.432 -4.26597 0.966131 0
M  V30 1831 C 165.491 -5.25324 0.303539 0
M  V30 1832 O 164.517 -5.61213 0.950177 0
M  V30 1833 N 165.719 -5.72779 -0.943651 0
M  V30 1834 H 168.484 -2.54126 1.58871 0
M  V30 1835 H 166.045 -1.29012 0.978143 0
M  V30 1836 H 168.037 -4.02014 -0.465517 0
M  V30 1837 H 166.607 -3.01747 -0.816565 0
M  V30 1838 H 165.827 -3.60306 1.59917 0
M  V30 1839 H 167.115 -4.82048 1.6281 0
M  V30 1840 H 166.513 -5.45762 -1.48862 0
M  V30 1841 H 165.07 -6.37847 -1.34142 0
M  V30 1842 N 168.503 -0.877838 -1.30888 0
M  V30 1843 C 169.751 -0.491723 -1.96027 0
M  V30 1844 C 170.072 0.960827 -1.69685 0
M  V30 1845 O 169.342 1.67462 -1.01654 0
M  V30 1846 H 167.922 -0.17885 -0.725273 0
M  V30 1847 H 170.584 -1.11935 -1.59551 0
M  V30 1848 H 169.68 -0.656016 -3.05128 0
M  V30 1849 N 169.982 1.44106 -0.638065 0
M  V30 1850 C 170.892 2.34513 0.0637334 0
M  V30 1851 C 171.908 1.53018 0.828346 0
M  V30 1852 O 173.084 1.85723 0.779036 0
M  V30 1853 C 170.149 3.31095 1.02844 0
M  V30 1854 C 169.21 4.28497 0.26244 0
M  V30 1855 C 168.443 5.20465 1.1812 0
M  V30 1856 O 168.666 5.16514 2.42011 0
M  V30 1857 O 167.6 5.98251 0.661774 0
M  V30 1858 H 171.426 2.95989 -0.68003 0
M  V30 1859 H 169.011 1.43994 -0.398252 0
M  V30 1860 H 170.893 3.90526 1.58327 0
M  V30 1861 H 169.568 2.72144 1.7527 0
M  V30 1862 H 168.475 3.72592 -0.335602 0
M  V30 1863 H 169.808 4.90388 -0.421936 0
M  V30 1864 N 171.46 0.379036 1.52974 0
M  V30 1865 C 172.392 -0.495963 2.2377 0
M  V30 1866 C 173.405 -1.03517 1.25651 0
M  V30 1867 O 174.594 -0.939249 1.51791 0
M  V30 1868 C 171.694 -1.69894 2.93239 0
M  V30 1869 C 170.867 -1.2889 4.17979 0
M  V30 1870 C 169.926 -2.35543 4.70538 0
M  V30 1871 O 168.952 -1.97375 5.33883 0
M  V30 1872 N 170.154 -3.67318 4.49508 0
M  V30 1873 H 172.919 0.110523 2.99496 0
M  V30 1874 H 170.48 0.204878 1.60598 0
M  V30 1875 H 172.472 -2.40747 3.25304 0
M  V30 1876 H 171.042 -2.212 2.20883 0
M  V30 1877 H 170.262 -0.409676 3.92065 0
M  V30 1878 H 171.55 -0.991443 4.99047 0
M  V30 1879 H 170.948 -4.01095 3.98923 0
M  V30 1880 H 169.505 -4.34235 4.8609 0
M  V30 1881 N 172.938 -1.57226 0.108567 0
M  V30 1882 C 174.163 -1.99604 -0.563303 0
M  V30 1883 C 174.588 -0.987563 -1.6009 0
M  V30 1884 O 173.946 0.0421687 -1.81251 0
M  V30 1885 C 173.994 -3.40902 -1.17552 0
M  V30 1886 O 173.098 -3.42896 -2.2912 0
M  V30 1887 H 172.439 -0.648704 -0.1417 0
M  V30 1888 H 174.969 -2.03679 0.193961 0
M  V30 1889 H 174.979 -3.78886 -1.51357 0
M  V30 1890 H 173.654 -4.1382 -0.415445 0
M  V30 1891 H 172.231 -3.1672 -1.96832 0
M  V30 1892 N 174.416 0.165178 -1.56732 0
M  V30 1893 C 175.832 0.517174 -1.50988 0
M  V30 1894 C 176.032 1.84331 -0.813894 0
M  V30 1895 O 175.088 2.49672 -0.37682 0
M  V30 1896 C 176.401 0.544261 -2.95733 0
M  V30 1897 C 177.949 0.631039 -3.06573 0
M  V30 1898 C 178.424 0.68896 -4.52788 0
M  V30 1899 N 179.915 0.751683 -4.5706 0
M  V30 1900 C 180.65 0.817177 -5.67547 0
M  V30 1901 N 180.146 0.843129 -6.8765 0
M  V30 1902 N 181.939 0.856668 -5.55534 0
M  V30 1903 H 174.09 -0.704318 -2.00382 0
M  V30 1904 H 176.353 -0.254687 -0.913148 0
M  V30 1905 H 176.059 -0.361607 -3.49836 0
M  V30 1906 H 175.933 1.3886 -3.5071 0
M  V30 1907 H 178.32 1.52733 -2.52501 0
M  V30 1908 H 178.401 -0.240095 -2.54671 0
M  V30 1909 H 178.045 -0.2031 -5.07494 0
M  V30 1910 H 177.975 1.57633 -5.02454 0
M  V30 1911 H 180.466 0.739661 -3.70591 0
M  V30 1912 H 180.779 0.894448 -7.67606 0
M  V30 1913 H 179.124 0.811304 -6.90248 0
M  V30 1914 H 182.315 0.833437 -4.60621 0
M  V30 1915 H 182.488 0.904247 -6.4166 0
M  V30 1916 N 175.894 1.51508 0.433938 0
M  V30 1917 C 177.305 1.56784 1.01369 0
M  V30 1918 C 177.656 0.393349 1.92217 0
M  V30 1919 O 176.781 -0.489441 2.10792 0
M  V30 1920 C 177.376 2.84144 1.8452 0
M  V30 1921 C 175.935 2.9198 2.37539 0
M  V30 1922 C 175.082 2.51482 1.16843 0
M  V30 1923 H 178.033 1.57236 0.215081 0
M  V30 1924 H 178.054 2.68098 2.70007 0
M  V30 1925 H 177.566 3.69607 1.18373 0
M  V30 1926 H 175.667 2.10955 3.0713 0
M  V30 1927 H 175.78 3.95704 2.70103 0
M  V30 1928 H 174.144 2.04758 1.51481 0
M  V30 1929 H 174.927 3.39293 0.523015 0
M  V30 1930 N 177.372 -0.689602 1.41712 0
M  V30 1931 C 178.621 -1.44534 1.40686 0
M  V30 1932 C 178.934 -1.95588 0.0213352 0
M  V30 1933 O 180.14 -2.71271 -0.111534 0
M  V30 1934 C 178.596 -2.61387 2.47396 0
M  V30 1935 C 178.204 -2.17094 3.91885 0
M  V30 1936 C 179.948 -3.38986 2.55517 0
M  V30 1937 C 177.855 -3.3094 4.90135 0
M  V30 1938 H 176.785 -0.542925 0.52321 0
M  V30 1939 H 179.436 -0.748054 1.6756 0
M  V30 1940 H 177.818 -3.33412 2.13664 0
M  V30 1941 H 178.992 -1.52318 4.34897 0
M  V30 1942 H 177.307 -1.52473 3.8748 0
M  V30 1943 H 179.904 -4.23747 3.26102 0
M  V30 1944 H 180.247 -3.84578 1.59391 0
M  V30 1945 H 180.78 -2.74021 2.8837 0
M  V30 1946 H 177.519 -2.90355 5.87685 0
M  V30 1947 H 177.039 -3.94546 4.51767 0
M  V30 1948 H 178.718 -3.9663 5.11169 0
M  V30 1949 N 178.85 -1.27639 -0.924453 0
M  V30 1950 C 180.261 -1.12834 -1.48746 0
M  V30 1951 C 180.612 0.285505 -1.94112 0
M  V30 1952 O 179.737 1.17874 -1.81479 0
M  V30 1953 C 180.332 -2.04217 -2.70334 0
M  V30 1954 C 178.891 -1.93509 -3.22848 0
M  V30 1955 C 178.038 -1.96583 -1.95577 0
M  V30 1956 H 180.989 -1.40484 -0.738233 0
M  V30 1957 H 181.01 -1.59989 -3.4523 0
M  V30 1958 H 180.522 -3.07111 -2.37285 0
M  V30 1959 H 178.623 -0.936131 -3.60649 0
M  V30 1960 H 178.736 -2.79917 -3.88823 0
M  V30 1961 H 177.1 -1.4085 -2.12211 0
M  V30 1962 H 177.883 -3.01137 -1.64837 0
M  V30 1963 N 180.328 1.1314 -1.09713 0
M  V30 1964 C 181.553 1.88862 -0.857081 0
M  V30 1965 C 181.978 1.78729 0.586304 0
M  V30 1966 O 181.336 1.13692 1.41222 0
M  V30 1967 C 181.384 3.36325 -1.30069 0
M  V30 1968 O 180.488 4.09815 -0.461007 0
M  V30 1969 H 179.829 0.587108 -0.310162 0
M  V30 1970 H 182.359 1.43129 -1.46203 0
M  V30 1971 H 182.369 3.87157 -1.28738 0
M  V30 1972 H 181.044 3.43017 -2.35185 0
M  V30 1973 H 179.621 3.68986 -0.538888 0
M  V30 1974 N 181.806 0.884767 1.30421 0
M  V30 1975 C 182.769 0.356277 2.26414 0
M  V30 1976 C 183.769 -0.501124 1.52792 0
M  V30 1977 O 184.959 -0.30831 1.7145 0
M  V30 1978 C 182.091 -0.492316 3.37326 0
M  V30 1979 H 183.284 1.20389 2.74675 0
M  V30 1980 H 180.837 0.661607 1.41607 0
M  V30 1981 H 181.572 -1.36052 2.94381 0
M  V30 1982 H 181.357 0.121832 3.91911 0
M  V30 1983 H 182.847 -0.853871 4.08777 0
M  V30 1984 N 183.284 -1.43765 0.645699 0
M  V30 1985 C 184.514 -2.05953 0.163318 0
M  V30 1986 C 184.922 -1.48432 -1.17322 0
M  V30 1987 O 184.265 -0.607295 -1.73371 0
M  V30 1988 C 184.327 -3.59499 -0.0103065 0
M  V30 1989 C 183.991 -4.39563 1.25035 0
M  V30 1990 C 184.988 -4.72108 2.17739 0
M  V30 1991 C 182.673 -4.79697 1.48983 0
M  V30 1992 C 184.667 -5.43688 3.3269 0
M  V30 1993 C 182.354 -5.51023 2.64229 0
M  V30 1994 C 183.352 -5.8294 3.55908 0
M  V30 1995 O 183.04 -6.5281 4.69142 0
M  V30 1996 H 182.772 -0.670798 0.0836986 0
M  V30 1997 H 185.326 -1.85384 0.884407 0
M  V30 1998 H 183.556 -3.78613 -0.78669 0
M  V30 1999 H 185.245 -4.03408 -0.449087 0
M  V30 2000 H 186.011 -4.41627 2.00476 0
M  V30 2001 H 181.89 -4.54266 0.785078 0
M  V30 2002 H 185.434 -5.68517 4.04269 0
M  V30 2003 H 181.331 -5.8092 2.81429 0
M  V30 2004 H 182.099 -6.71288 4.6831 0
M  V30 2005 N 184.763 -0.387143 -1.52771 0
M  V30 2006 C 186.011 0.195349 -2.01154 0
M  V30 2007 C 186.332 1.475 -1.27549 0
M  V30 2008 O 185.602 1.91878 -0.394924 0
M  V30 2009 H 184.182 0.075178 -0.743207 0
M  V30 2010 H 186.844 -0.518337 -1.87881 0
M  V30 2011 H 185.94 0.407096 -3.09434 0
M  V30 2012 N 186.241 1.57166 -0.116904 0
M  V30 2013 C 187.489 1.94737 0.540533 0
M  V30 2014 C 187.81 1.00096 1.67349 0
M  V30 2015 O 187.08 0.0568854 1.95817 0
M  V30 2016 H 185.66 0.718981 0.202669 0
M  V30 2017 H 188.322 1.94017 -0.185353 0
M  V30 2018 H 187.418 2.97719 0.936483 0
M  V30 2019 N 187.719 -0.156864 1.56817 0
M  V30 2020 C 188.651 -1.21883 1.94106 0
M  V30 2021 C 189.664 -1.3971 0.835754 0
M  V30 2022 O 190.853 -1.39457 1.11418 0
M  V30 2023 C 187.953 -2.58527 2.19127 0
M  V30 2024 C 187.126 -2.61809 3.50393 0
M  V30 2025 C 186.185 -3.7992 3.64071 0
M  V30 2026 O 185.211 -3.65249 4.36557 0
M  V30 2027 N 186.413 -4.96973 2.99997 0
M  V30 2028 H 189.178 -0.901974 2.85805 0
M  V30 2029 H 186.739 -0.346513 1.58148 0
M  V30 2030 H 188.731 -3.36034 2.25529 0
M  V30 2031 H 187.301 -2.82545 1.33742 0
M  V30 2032 H 186.521 -1.7029 3.5552 0
M  V30 2033 H 187.809 -2.61024 4.36742 0
M  V30 2034 H 187.207 -5.11794 2.41004 0
M  V30 2035 H 185.764 -5.7229 3.11974 0
M  V30 2036 N 189.197 -1.51736 -0.425897 0
M  V30 2037 C 190.443 -1.65214 -1.1761 0
M  V30 2038 C 190.776 -0.372778 -1.90589 0
M  V30 2039 O 190.051 0.628139 -1.84078 0
M  V30 2040 C 190.334 -2.86312 -2.18398 0
M  V30 2041 C 190.187 -4.24254 -1.49426 0
M  V30 2042 C 191.506 -3.02925 -3.19256 0
M  V30 2043 H 188.625 -0.601263 -0.426206 0
M  V30 2044 H 191.267 -1.8425 -0.463882 0
M  V30 2045 H 189.417 -2.70213 -2.79137 0
M  V30 2046 H 191.089 -4.52046 -0.919362 0
M  V30 2047 H 189.332 -4.26426 -0.796432 0
M  V30 2048 H 190.003 -5.05001 -2.22885 0
M  V30 2049 H 192.479 -3.1781 -2.68581 0
M  V30 2050 H 191.355 -3.89199 -3.8706 0
M  V30 2051 H 191.616 -2.15497 -3.86023 0
M  V30 2052 N 190.675 0.682077 -1.42076 0
M  V30 2053 C 191.924 1.43786 -1.41451 0
M  V30 2054 C 192.237 1.95574 -0.0317074 0
M  V30 2055 O 193.443 2.71326 0.0971462 0
M  V30 2056 C 191.899 2.60071 -2.48779 0
M  V30 2057 C 191.507 2.15013 -3.93031 0
M  V30 2058 C 193.251 3.37626 -2.57311 0
M  V30 2059 C 191.158 3.28336 -4.91883 0
M  V30 2060 H 190.088 0.540143 -0.526082 0
M  V30 2061 H 192.739 0.739157 -1.67955 0
M  V30 2062 H 191.121 3.32275 -2.15429 0
M  V30 2063 H 192.295 1.5001 -4.35699 0
M  V30 2064 H 190.61 1.50416 -3.88284 0
M  V30 2065 H 193.207 4.22012 -3.28345 0
M  V30 2066 H 193.55 3.83727 -1.61429 0
M  V30 2067 H 194.083 2.72488 -2.89819 0
M  V30 2068 H 190.822 2.87234 -5.89217 0
M  V30 2069 H 190.342 3.92145 -4.53853 0
M  V30 2070 H 192.021 3.93913 -5.13265 0
M  V30 2071 N 192.153 1.28127 0.917671 0
M  V30 2072 C 193.378 1.18007 1.70555 0
M  V30 2073 C 193.803 -0.258257 1.86319 0
M  V30 2074 O 193.161 -1.1869 1.37049 0
M  V30 2075 C 193.209 1.87948 3.07746 0
M  V30 2076 O 192.313 1.18427 3.9503 0
M  V30 2077 H 191.654 0.409867 0.522403 0
M  V30 2078 H 194.184 1.69379 1.1477 0
M  V30 2079 H 194.194 1.95701 3.58001 0
M  V30 2080 H 192.869 2.92573 2.95591 0
M  V30 2081 H 191.446 1.18811 3.53466 0
M  V30 2082 N 193.631 -1.12557 1.10312 0
M  V30 2083 C 194.579 -2.20325 0.745629 0
M  V30 2084 C 195.573 -1.67429 -0.25763 0
M  V30 2085 O 196.779 -1.79612 -0.118132 0
M  V30 2086 H 193.154 -0.718118 0.223182 0
M  V30 2087 H 195.125 -2.47733 1.66346 0
M  V30 2088 C 193.874 -3.47168 0.192262 0
M  V30 2089 H 193.197 -3.88215 0.955475 0
M  V30 2090 H 194.637 -4.23995 -0.0198274 0
M  V30 2091 C 193.096 -3.19298 -1.07472 0
M  V30 2092 O 193.626 -3.3891 -2.15645 0
M  V30 2093 N 191.832 -2.73113 -0.992847 0
M  V30 2094 H 191.379 -2.57354 -0.112474 0
M  V30 2095 H 191.337 -2.54842 -1.84127 0
M  V30 2096 N 195.109 -0.891671 -1.2995 0
M  V30 2097 C 196.357 -0.512486 -1.95494 0
M  V30 2098 C 196.678 0.942776 -1.70695 0
M  V30 2099 O 195.948 1.66374 -1.03424 0
M  V30 2100 H 194.528 -0.186533 -0.723336 0
M  V30 2101 H 197.19 -1.13621 -1.58355 0
M  V30 2102 H 196.286 -0.688342 -3.04415 0
M  V30 2103 N 196.587 1.43421 -0.653314 0
M  V30 2104 C 197.834 2.01812 -0.166745 0
M  V30 2105 C 198.162 1.51535 1.21931 0
M  V30 2106 O 197.417 0.698975 1.82792 0
M  V30 2107 C 197.716 3.57176 -0.126623 0
M  V30 2108 C 197.382 4.26798 -1.45444 0
M  V30 2109 C 196.044 4.45534 -1.81805 0
M  V30 2110 C 198.396 4.66225 -2.32989 0
M  V30 2111 C 195.724 5.00961 -3.05377 0
M  V30 2112 C 198.076 5.23021 -3.55853 0
M  V30 2113 C 196.74 5.39973 -3.9241 0
M  V30 2114 H 196.01 0.738484 -0.0610162 0
M  V30 2115 H 198.657 1.71896 -0.84404 0
M  V30 2116 H 196.962 3.86634 0.634123 0
M  V30 2117 H 198.659 4.00112 0.266723 0
M  V30 2118 H 195.249 4.12561 -1.16153 0
M  V30 2119 H 199.433 4.51443 -2.06187 0
M  V30 2120 H 194.689 5.12271 -3.3375 0
M  V30 2121 H 198.863 5.52518 -4.23907 0
M  V30 2122 H 196.49 5.82687 -4.88242 0
M  V30 2123 N 198.065 0.39524 1.52563 0
M  V30 2124 C 199.012 -0.437036 2.26624 0
M  V30 2125 C 199.982 -1.05281 1.28472 0
M  V30 2126 O 201.167 -1.07971 1.57311 0
M  V30 2127 C 198.307 -1.55524 3.08069 0
M  V30 2128 C 197.42 -0.961745 4.21158 0
M  V30 2129 C 196.555 -2.05149 4.89987 0
M  V30 2130 C 195.594 -1.4342 5.95061 0
M  V30 2131 N 194.731 -2.46351 6.57462 0
M  V30 2132 H 199.571 0.200976 2.97322 0
M  V30 2133 H 197.108 0.110944 1.46681 0
M  V30 2134 H 199.066 -2.21437 3.53584 0
M  V30 2135 H 197.696 -2.16348 2.3957 0
M  V30 2136 H 196.748 -0.192048 3.79915 0
M  V30 2137 H 198.06 -0.470701 4.96574 0
M  V30 2138 H 197.214 -2.78819 5.38837 0
M  V30 2139 H 195.953 -2.57615 4.14109 0
M  V30 2140 H 194.958 -0.682774 5.45544 0
M  V30 2141 H 196.183 -0.917416 6.72875 0
M  V30 2142 H 194.129 -2.97975 5.8442 0
M  V30 2143 H 194.046 -2.02019 7.28508 0
M  V30 2144 H 195.314 -3.19633 7.10954 0
M  V30 2145 N 199.544 -1.57102 0.125237 0
M  V30 2146 C 200.79 -1.95697 -0.532035 0
M  V30 2147 C 201.123 -1.009 -1.6593 0
M  V30 2148 O 200.398 -0.047347 -1.94442 0
M  V30 2149 C 200.681 -3.44181 -1.05884 0
M  V30 2150 C 200.534 -4.49752 0.0654392 0
M  V30 2151 C 201.853 -3.94655 -1.9477 0
M  V30 2152 H 198.972 -0.711571 -0.191925 0
M  V30 2153 H 201.614 -1.88923 0.20206 0
M  V30 2154 H 199.764 -3.50085 -1.68442 0
M  V30 2155 H 201.436 -4.55943 0.700982 0
M  V30 2156 H 199.679 -4.27653 0.727709 0
M  V30 2157 H 200.35 -5.50924 -0.344505 0
M  V30 2158 H 202.826 -3.91094 -1.42074 0
M  V30 2159 H 201.702 -4.99057 -2.28546 0
M  V30 2160 H 201.963 -3.35718 -2.87656 0
M  V30 2161 N 201.022 0.148545 -1.56898 0
M  V30 2162 C 202.262 0.86765 -1.85071 0
M  V30 2163 C 202.626 1.78417 -0.709317 0
M  V30 2164 O 203.827 2.54261 -0.872049 0
M  V30 2165 C 202.098 1.62306 -3.1842 0
M  V30 2166 S 203.657 2.3878 -3.68143 0
M  V30 2167 H 200.475 0.290174 -0.649092 0
M  V30 2168 H 203.077 0.127755 -1.95082 0
M  V30 2169 H 201.781 0.941192 -3.99462 0
M  V30 2170 H 201.312 2.4039 -3.1141 0
M  V30 2171 H 203.327 3.63942 -3.37285 0
M  V30 2172 N 202.5 1.5196 0.417844 0
M  V30 2173 C 203.725 1.69717 1.1921 0
M  V30 2174 C 204.15 0.402148 1.83751 0
M  V30 2175 O 203.508 -0.639593 1.69643 0
M  V30 2176 C 203.556 2.82794 2.2374 0
M  V30 2177 O 202.66 2.47756 3.29683 0
M  V30 2178 H 202.001 0.565263 0.348387 0
M  V30 2179 H 204.531 1.98621 0.490985 0
M  V30 2180 H 204.541 3.07452 2.68212 0
M  V30 2181 H 203.216 3.76756 1.76146 0
M  V30 2182 H 201.793 2.33739 2.90552 0
M  V30 2183 N 203.978 -0.674533 1.42435 0
M  V30 2184 C 205.203 -1.46784 1.46524 0
M  V30 2185 C 205.628 -1.87938 0.078066 0
M  V30 2186 O 204.986 -1.56014 -0.92354 0
M  V30 2187 C 205.034 -2.69307 2.39805 0
M  V30 2188 O 204.138 -3.67587 1.86959 0
M  V30 2189 H 203.479 -0.440959 0.496439 0
M  V30 2190 H 206.009 -0.827326 1.87127 0
M  V30 2191 H 206.019 -3.17374 2.56393 0
M  V30 2192 H 204.694 -2.38692 3.40586 0
M  V30 2193 H 203.271 -3.2662 1.79927 0
M  V30 2194 N 205.456 -1.28612 -0.910864 0
M  V30 2195 C 206.704 -1.15705 -1.65701 0
M  V30 2196 C 207.025 0.29416 -1.92769 0
M  V30 2197 O 206.295 1.20331 -1.54588 0
M  V30 2198 H 204.875 -0.425216 -0.614167 0
M  V30 2199 H 207.537 -1.61381 -1.0928 0
M  V30 2200 H 206.633 -1.6988 -2.61815 0
M  V30 2201 N 206.934 1.1197 -1.10907 0
M  V30 2202 C 208.182 1.83225 -0.852819 0
M  V30 2203 C 208.503 1.84769 0.623341 0
M  V30 2204 O 207.773 1.3143 1.45269 0
M  V30 2205 H 206.353 0.67849 -0.312507 0
M  V30 2206 H 209.015 1.3556 -1.40033 0
M  V30 2207 H 208.111 2.87265 -1.22005 0
M  V30 2208 N 208.412 0.89855 1.29475 0
M  V30 2209 C 209.828 0.594483 1.48115 0
M  V30 2210 C 210.028 -0.86431 1.82022 0
M  V30 2211 O 209.084 -1.64457 1.91599 0
M  V30 2212 C 210.397 1.51932 2.59494 0
M  V30 2213 C 211.945 1.5244 2.7337 0
M  V30 2214 C 212.42 2.43548 3.87877 0
M  V30 2215 N 213.911 2.41589 3.95208 0
M  V30 2216 C 214.646 3.08789 4.83153 0
M  V30 2217 N 214.142 3.85265 5.75798 0
M  V30 2218 N 215.935 2.97952 4.76635 0
M  V30 2219 H 208.086 1.84207 1.05742 0
M  V30 2220 H 210.349 0.789251 0.525154 0
M  V30 2221 H 210.055 2.55865 2.41301 0
M  V30 2222 H 209.929 1.23899 3.56271 0
M  V30 2223 H 212.316 0.492518 2.90961 0
M  V30 2224 H 212.397 1.8451 1.77172 0
M  V30 2225 H 212.041 3.46829 3.71041 0
M  V30 2226 H 211.971 2.08788 4.83441 0
M  V30 2227 H 214.462 1.86025 3.28943 0
M  V30 2228 H 214.775 4.33598 6.39697 0
M  V30 2229 H 213.12 3.89371 5.75687 0
M  V30 2230 H 216.311 2.37723 4.03244 0
M  V30 2231 H 216.484 3.50599 5.44962 0
M  V30 2232 N 209.89 -1.43072 0.660911 0
M  V30 2233 C 211.138 -2.01323 0.177094 0
M  V30 2234 C 211.459 -1.5245 -1.2159 0
M  V30 2235 O 210.729 -0.740322 -1.81373 0
M  V30 2236 H 209.309 -0.744382 0.0624804 0
M  V30 2237 H 211.971 -1.75179 0.854305 0
M  V30 2238 H 211.067 -3.11649 0.167641 0
M  V30 2239 N 211.368 -0.403325 -1.52352 0
M  V30 2240 C 212.593 0.176499 -2.06648 0
M  V30 2241 C 213.018 1.38577 -1.27193 0
M  V30 2242 O 212.376 1.7879 -0.300637 0
M  V30 2243 C 212.424 0.511061 -3.5696 0
M  V30 2244 O 211.528 1.60294 -3.79973 0
M  V30 2245 H 210.869 0.0167337 -0.663789 0
M  V30 2246 H 213.399 -0.574848 -1.96359 0
M  V30 2247 H 213.409 0.771362 -4.00642 0
M  V30 2248 H 212.084 -0.37296 -4.14224 0
M  V30 2249 H 210.661 1.33526 -3.48174 0
M  V30 2250 N 212.846 1.57033 -0.133567 0
M  V30 2251 C 214.092 1.95976 0.521649 0
M  V30 2252 C 214.425 1.01779 1.65393 0
M  V30 2253 O 213.7 0.0576581 1.94415 0
M  V30 2254 C 213.983 3.44738 1.04057 0
M  V30 2255 C 213.836 4.49711 -0.0892897 0
M  V30 2256 C 215.155 3.95682 1.92675 0
M  V30 2257 H 212.274 0.712579 0.188149 0
M  V30 2258 H 214.916 1.88813 -0.212076 0
M  V30 2259 H 213.066 3.50973 1.66583 0
M  V30 2260 H 214.738 4.55565 -0.725152 0
M  V30 2261 H 212.981 4.27261 -0.750378 0
M  V30 2262 H 213.652 5.51099 0.315284 0
M  V30 2263 H 216.128 3.91841 1.39998 0
M  V30 2264 H 215.004 5.00262 2.25897 0
M  V30 2265 H 215.265 3.37239 2.85872 0
M  V30 2266 N 214.325 -0.140222 1.56975 0
M  V30 2267 C 215.235 -1.19223 2.02047 0
M  V30 2268 C 216.251 -1.46612 0.937062 0
M  V30 2269 O 217.427 -1.58148 1.24704 0
M  V30 2270 C 214.492 -2.50414 2.39778 0
M  V30 2271 C 213.553 -2.30612 3.621 0
M  V30 2272 C 212.786 -3.55547 3.98023 0
M  V30 2273 O 213.009 -4.62004 3.34528 0
M  V30 2274 O 211.943 -3.47808 4.91237 0
M  V30 2275 H 215.769 -0.839559 2.91865 0
M  V30 2276 H 213.354 -0.349453 1.45256 0
M  V30 2277 H 215.236 -3.27747 2.64877 0
M  V30 2278 H 213.911 -2.85198 1.53114 0
M  V30 2279 H 212.818 -1.51207 3.4218 0
M  V30 2280 H 214.151 -2.00741 4.49404 0
M  V30 2281 N 215.803 -1.52179 -0.40978 0
M  V30 2282 C 216.733 -1.78435 -1.5061 0
M  V30 2283 C 217.714 -0.635295 -1.57791 0
M  V30 2284 O 218.899 -0.880823 -1.73076 0
M  V30 2285 C 216.029 -1.93444 -2.88439 0
M  V30 2286 C 214.983 -3.09038 -2.96108 0
M  V30 2287 C 214.309 -3.09268 -4.36185 0
M  V30 2288 C 215.609 -4.48508 -2.67652 0
M  V30 2289 H 217.303 -2.70237 -1.28889 0
M  V30 2290 H 214.849 -1.30036 -0.618605 0
M  V30 2291 H 216.802 -2.10394 -3.65119 0
M  V30 2292 H 215.526 -0.983129 -3.11452 0
M  V30 2293 H 214.185 -2.91837 -2.21872 0
M  V30 2294 H 213.833 -2.11861 -4.56206 0
M  V30 2295 H 213.533 -3.86907 -4.42241 0
M  V30 2296 H 215.057 -3.28348 -5.14801 0
M  V30 2297 H 216.471 -4.65918 -3.34056 0
M  V30 2298 H 214.868 -5.28059 -2.85085 0
M  V30 2299 H 215.938 -4.56649 -1.63095 0
M  V30 2300 N 217.281 0.66697 -1.42791 0
M  V30 2301 C 218.511 1.45294 -1.46878 0
M  V30 2302 C 218.919 1.89027 -0.0809861 0
M  V30 2303 O 218.262 1.59219 0.916246 0
M  V30 2304 C 218.324 2.72908 -2.34012 0
M  V30 2305 C 217.988 2.51203 -3.81767 0
M  V30 2306 C 218.985 2.15302 -4.73224 0
M  V30 2307 C 216.67 2.65954 -4.26115 0
M  V30 2308 C 218.664 1.94431 -6.07022 0
M  V30 2309 C 216.351 2.44699 -5.59969 0
M  V30 2310 C 217.349 2.08992 -6.5024 0
M  V30 2311 O 217.037 1.87948 -7.81621 0
M  V30 2312 H 216.769 0.453306 -0.501487 0
M  V30 2313 H 219.323 0.826232 -1.88049 0
M  V30 2314 H 217.553 3.38089 -1.87703 0
M  V30 2315 H 219.242 3.34816 -2.29462 0
M  V30 2316 H 220.008 2.03495 -4.40244 0
M  V30 2317 H 215.887 2.92724 -3.56137 0
M  V30 2318 H 219.431 1.66484 -6.77443 0
M  V30 2319 H 215.328 2.56105 -5.9252 0
M  V30 2320 H 216.096 2.02483 -7.93059 0
M  V30 2321 N 218.759 1.29093 0.90403 0
M  V30 2322 C 219.987 1.19689 1.68766 0
M  V30 2323 C 220.402 -0.243113 1.87228 0
M  V30 2324 O 219.759 -1.16326 1.40621 0
M  V30 2325 C 219.81 1.90144 3.07453 0
M  V30 2326 O 219.531 3.2852 2.89838 0
M  V30 2327 C 221.032 1.87162 4.01852 0
M  V30 2328 H 218.252 0.415035 0.527244 0
M  V30 2329 H 220.796 1.7039 1.13082 0
M  V30 2330 H 218.951 1.43289 3.59926 0
M  V30 2331 H 219.365 3.63944 3.77684 0
M  V30 2332 H 220.839 2.41032 4.96596 0
M  V30 2333 H 221.316 0.84617 4.30972 0
M  V30 2334 H 221.922 2.33741 3.5531 0
M  V30 2335 N 220.237 -1.11381 1.11499 0
M  V30 2336 C 221.653 -1.35143 0.849031 0
M  V30 2337 C 221.853 -1.94515 -0.525938 0
M  V30 2338 O 220.909 -2.1785 -1.27662 0
M  V30 2339 C 222.222 -2.28249 1.95762 0
M  V30 2340 C 223.77 -2.41812 1.98736 0
M  V30 2341 C 224.245 -3.3824 3.088 0
M  V30 2342 N 225.736 -3.45803 3.08179 0
M  V30 2343 C 226.471 -4.20358 3.89982 0
M  V30 2344 N 225.967 -4.97884 4.8175 0
M  V30 2345 N 227.76 -4.15877 3.78157 0
M  V30 2346 H 219.911 -0.712062 2.00109 0
M  V30 2347 H 222.174 -0.376025 0.870235 0
M  V30 2348 H 221.88 -1.91817 2.94787 0
M  V30 2349 H 221.754 -3.28473 1.85433 0
M  V30 2350 H 224.141 -2.77518 1.00338 0
M  V30 2351 H 224.222 -1.41437 2.13141 0
M  V30 2352 H 223.866 -3.03261 4.07425 0
M  V30 2353 H 223.796 -4.38471 2.91635 0
M  V30 2354 H 226.287 -2.90506 2.41691 0
M  V30 2355 H 226.6 -5.52142 5.40702 0
M  V30 2356 H 224.945 -4.97043 4.85771 0
M  V30 2357 H 228.136 -3.544 3.05808 0
M  V30 2358 H 228.309 -4.73723 4.42143 0
M  V30 2359 N 221.715 -0.905404 -1.28997 0
M  V30 2360 C 222.992 -0.453513 -1.9027 0
M  V30 2361 C 223.372 1.06721 -1.82137 0
M  V30 2362 O 222.72 1.91159 -1.25182 0
M  V30 2363 C 222.93 -0.974494 -3.35119 0
M  V30 2364 C 224.278 -1.0216 -4.12127 0
M  V30 2365 O 225.302 -0.922557 -3.44046 0
M  V30 2366 O 224.161 -1.17121 -5.33802 0
M  V30 2367 H 221.255 -0.142347 -0.814657 0
M  V30 2368 H 223.801 -0.995642 -1.37423 0
M  V30 2369 H 222.573 -2.01848 -3.35221 0
M  V30 2370 H 222.196 -0.412706 -3.95452 0
M  V30 2371 N 223.193 1.4272 -0.668489 0
M  V30 2372 C 224.141 2.32586 0.0254857 0
M  V30 2373 C 225.135 1.49471 0.797176 0
M  V30 2374 O 226.341 1.65583 0.705853 0
M  V30 2375 H 222.716 0.751514 0.0270339 0
M  V30 2376 H 224.687 2.88823 -0.749936 0
M  V30 2377 C 223.436 3.3397 0.967427 0
M  V30 2378 H 222.759 3.97961 0.383048 0
M  V30 2379 H 224.199 3.9945 1.42181 0
M  V30 2380 C 222.658 2.65744 2.0708 0
M  V30 2381 O 223.188 2.48454 3.15648 0
M  V30 2382 N 221.394 2.2487 1.8407 0
M  V30 2383 H 220.941 2.39132 0.95778 0
M  V30 2384 H 220.899 1.79552 2.58086 0
M  V30 2385 N 224.671 0.411399 1.52136 0
M  V30 2386 C 225.896 -0.165538 2.06738 0
M  V30 2387 C 226.321 -1.379 1.27926 0
M  V30 2388 O 225.679 -1.78628 0.310114 0
M  V30 2389 C 225.727 -0.492124 3.57226 0
M  V30 2390 O 224.831 -1.58276 3.80818 0
M  V30 2391 H 224.172 -0.0132132 0.663869 0
M  V30 2392 H 226.702 0.585253 1.96051 0
M  V30 2393 H 226.712 -0.750104 4.01045 0
M  V30 2394 H 225.387 0.394922 4.14021 0
M  V30 2395 H 223.964 -1.31677 3.48877 0
M  V30 2396 N 226.149 -1.5696 0.141893 0
M  V30 2397 C 227.082 -2.12271 -0.837627 0
M  V30 2398 C 228.06 -1.04495 -1.24578 0
M  V30 2399 O 229.244 -1.32293 -1.34278 0
M  V30 2400 C 226.371 -2.63822 -2.12404 0
M  V30 2401 C 225.417 -3.83698 -1.86221 0
M  V30 2402 S 226.25 -5.24948 -1.05781 0
M  V30 2403 C 227.406 -5.79884 -2.35552 0
M  V30 2404 H 227.639 -2.95023 -0.367249 0
M  V30 2405 H 225.172 -1.54231 -0.0723014 0
M  V30 2406 H 227.13 -2.94175 -2.86307 0
M  V30 2407 H 225.791 -1.8121 -2.56557 0
M  V30 2408 H 224.984 -4.17995 -2.81596 0
M  V30 2409 H 224.586 -3.5408 -1.20429 0
M  V30 2410 H 226.878 -5.91005 -3.31239 0
M  V30 2411 H 227.821 -6.77544 -2.05767 0
M  V30 2412 H 228.229 -5.08095 -2.45967 0
M  V30 2413 N 227.627 0.131896 -1.57047 0
M  V30 2414 C 228.855 0.856461 -1.88341 0
M  V30 2415 C 229.27 1.74042 -0.731757 0
M  V30 2416 O 228.627 1.80051 0.297945 0
M  V30 2417 C 228.678 1.70064 -3.18999 0
M  V30 2418 O 228.399 0.852278 -4.2973 0
M  V30 2419 C 229.9 2.53148 -3.63911 0
M  V30 2420 H 227.12 0.246885 -0.62393 0
M  V30 2421 H 229.664 0.120152 -2.04147 0
M  V30 2422 H 227.819 2.38984 -3.04902 0
M  V30 2423 H 228.233 1.43329 -5.04537 0
M  V30 2424 H 229.707 3.07931 -4.58129 0
M  V30 2425 H 230.184 3.29901 -2.89935 0
M  V30 2426 H 230.79 1.89492 -3.80753 0
M  V30 2427 N 229.106 1.52395 0.401703 0
M  V30 2428 C 230.352 1.68019 1.14635 0
M  V30 2429 C 230.707 0.408722 1.88009 0
M  V30 2430 O 230 -0.597133 1.82057 0
M  V30 2431 C 230.194 2.84578 2.16217 0
M  V30 2432 C 230.023 4.22938 1.5282 0
M  V30 2433 C 228.793 4.88352 1.29772 0
M  V30 2434 C 230.991 5.04778 0.985094 0
M  V30 2435 N 228.973 6.10726 0.623455 0
M  V30 2436 C 230.344 6.1845 0.438172 0
M  V30 2437 C 232.399 4.90057 0.880275 0
M  V30 2438 C 231.102 7.19013 -0.203306 0
M  V30 2439 C 233.128 5.9086 0.252639 0
M  V30 2440 C 232.49 7.03829 -0.283573 0
M  V30 2441 H 228.589 0.668413 0.405892 0
M  V30 2442 H 231.173 1.89717 0.437674 0
M  V30 2443 H 229.344 2.64483 2.84435 0
M  V30 2444 H 231.076 2.89202 2.83098 0
M  V30 2445 H 227.831 4.46846 1.56926 0
M  V30 2446 H 228.255 6.76323 0.302733 0
M  V30 2447 H 232.897 4.02938 1.28065 0
M  V30 2448 H 230.615 8.05751 -0.615726 0
M  V30 2449 H 234.201 5.81543 0.172954 0
M  V30 2450 H 233.081 7.80493 -0.761575 0
M  V30 2451 N 230.584 -0.659388 1.43143 0
M  V30 2452 C 231.494 -1.80167 1.50256 0
M  V30 2453 C 232.51 -1.69571 0.390106 0
M  V30 2454 O 233.686 -1.90849 0.643319 0
M  V30 2455 C 230.751 -3.16409 1.41725 0
M  V30 2456 C 229.812 -3.38848 2.63591 0
M  V30 2457 C 229.045 -4.68591 2.55458 0
M  V30 2458 O 229.268 -5.47532 1.59891 0
M  V30 2459 O 228.202 -4.92614 3.45854 0
M  V30 2460 H 232.028 -1.77121 2.46702 0
M  V30 2461 H 229.613 -0.817092 1.25076 0
M  V30 2462 H 231.495 -3.9768 1.39387 0
M  V30 2463 H 230.17 -3.20059 0.484118 0
M  V30 2464 H 229.077 -2.57366 2.71502 0
M  V30 2465 H 230.41 -3.4004 3.55856 0
M  V30 2466 N 232.062 -1.29571 -0.897171 0
M  V30 2467 C 233.025 -1.14913 -1.98312 0
M  V30 2468 C 234.025 -0.0838629 -1.60581 0
M  V30 2469 O 235.215 -0.331006 -1.71026 0
M  V30 2470 C 232.347 -0.757835 -3.3237 0
M  V30 2471 H 233.54 -2.11377 -2.12743 0
M  V30 2472 H 231.093 -1.12793 -1.08201 0
M  V30 2473 H 231.828 0.206837 -3.2364 0
M  V30 2474 H 231.613 -1.52755 -3.61121 0
M  V30 2475 H 233.103 -0.678408 -4.12053 0
M  V30 2476 N 233.54 1.10788 -1.12088 0
M  V30 2477 C 234.765 1.87002 -0.896949 0
M  V30 2478 C 235.19 1.79933 0.548261 0
M  V30 2479 O 234.548 1.16662 1.38779 0
M  V30 2480 C 234.596 3.3349 -1.37174 0
M  V30 2481 O 233.7 4.08745 -0.547831 0
M  V30 2482 H 233.041 0.580397 -0.322545 0
M  V30 2483 H 235.571 1.39996 -1.49206 0
M  V30 2484 H 235.581 3.84339 -1.36922 0
M  V30 2485 H 234.256 3.37951 -2.42408 0
M  V30 2486 H 232.833 3.6776 -0.617034 0
M  V30 2487 N 235.018 0.912232 1.28515 0
M  V30 2488 C 236.265 0.544599 1.95039 0
M  V30 2489 C 236.593 -0.911435 1.71823 0
M  V30 2490 O 235.848 -1.66317 1.03137 0
M  V30 2491 C 236.147 0.798392 3.48368 0
M  V30 2492 C 235.813 2.23374 3.91682 0
M  V30 2493 C 234.475 2.62617 4.03219 0
M  V30 2494 C 236.827 3.16786 4.13879 0
M  V30 2495 C 234.155 3.94429 4.3433 0
M  V30 2496 C 236.507 4.48161 4.46469 0
M  V30 2497 C 235.171 4.8726 4.56217 0
M  V30 2498 H 234.441 0.199283 0.7137 0
M  V30 2499 H 237.088 1.15327 1.52879 0
M  V30 2500 H 235.393 0.106908 3.91654 0
M  V30 2501 H 237.09 0.493141 3.97956 0
M  V30 2502 H 233.68 1.91922 3.83228 0
M  V30 2503 H 237.864 2.87677 4.0442 0
M  V30 2504 H 233.12 4.24426 4.40082 0
M  V30 2505 H 237.294 5.20559 4.62592 0
M  V30 2506 H 234.921 5.89431 4.80078 0
M  V30 2507 N 236.496 -1.42363 0.676048 0
M  V30 2508 C 237.721 -2.06377 0.205705 0
M  V30 2509 C 238.146 -1.50463 -1.12883 0
M  V30 2510 O 237.504 -0.623619 -1.70237 0
M  V30 2511 C 237.552 -3.60277 0.152655 0
M  V30 2512 O 236.656 -4.02935 -0.87845 0
M  V30 2513 H 235.997 -0.655588 0.105359 0
M  V30 2514 H 238.527 -1.82475 0.925412 0
M  V30 2515 H 238.537 -4.07993 -0.0230675 0
M  V30 2516 H 237.212 -4.00346 1.12675 0
M  V30 2517 H 235.789 -3.66764 -0.673668 0
M  V30 2518 N 237.974 -0.419461 -1.51915 0
M  V30 2519 C 239.385 0.0477853 -1.86639 0
M  V30 2520 C 239.736 1.43531 -1.33766 0
M  V30 2521 O 238.861 2.05401 -0.68113 0
M  V30 2522 C 239.456 0.0934885 -3.38671 0
M  V30 2523 C 238.015 0.505097 -3.72996 0
M  V30 2524 C 237.162 -0.313792 -2.75519 0
M  V30 2525 H 240.113 -0.636088 -1.45395 0
M  V30 2526 H 240.134 0.906667 -3.6954 0
M  V30 2527 H 239.646 -0.916501 -3.77123 0
M  V30 2528 H 237.747 1.52135 -3.40126 0
M  V30 2529 H 237.86 0.242309 -4.78487 0
M  V30 2530 H 236.224 0.225363 -2.53701 0
M  V30 2531 H 237.007 -1.32232 -3.16812 0
M  V30 2532 N 239.452 1.56882 -0.150215 0
M  V30 2533 C 240.863 1.82995 0.370076 0
M  V30 2534 C 241.214 1.06907 1.64515 0
M  V30 2535 O 240.339 0.315369 2.1409 0
M  V30 2536 C 240.934 3.31942 0.678208 0
M  V30 2537 C 239.493 3.58625 1.14301 0
M  V30 2538 C 238.64 2.76792 0.167778 0
M  V30 2539 H 241.591 1.54209 -0.374858 0
M  V30 2540 H 241.612 3.48272 1.53254 0
M  V30 2541 H 241.124 3.87294 -0.249991 0
M  V30 2542 H 239.225 3.08664 2.08704 0
M  V30 2543 H 239.338 4.67073 1.06676 0
M  V30 2544 H 237.702 2.45972 0.661037 0
M  V30 2545 H 238.485 3.34916 -0.754069 0
M  V30 2546 N 240.93 -0.123565 1.57115 0
M  V30 2547 C 242.178 -0.83051 1.84247 0
M  V30 2548 C 242.499 -1.80629 0.73471 0
M  V30 2549 O 241.769 -1.94403 -0.241688 0
M  V30 2550 H 240.349 -0.309694 0.679778 0
M  V30 2551 H 243.011 -0.111976 1.94578 0
M  V30 2552 H 242.107 -1.37852 2.80006 0
M  V30 2553 N 242.408 -1.52605 -0.393616 0
M  V30 2554 C 243.819 -1.59417 -0.971761 0
M  V30 2555 C 244.17 -0.444173 -1.91106 0
M  V30 2556 O 243.295 0.433382 -2.12016 0
M  V30 2557 C 243.89 -2.88936 -1.76921 0
M  V30 2558 C 242.449 -2.98175 -2.29714 0
M  V30 2559 C 241.596 -2.54491 -1.10135 0
M  V30 2560 H 244.547 -1.57751 -0.173317 0
M  V30 2561 H 244.568 -2.75163 -2.62804 0
M  V30 2562 H 244.08 -3.72616 -1.08532 0
M  V30 2563 H 242.181 -2.19024 -3.01429 0
M  V30 2564 H 242.294 -4.02726 -2.59517 0
M  V30 2565 H 240.658 -2.08702 -1.45999 0
M  V30 2566 H 241.441 -3.4056 -0.432874 0
M  V30 2567 N 243.887 0.651787 -1.4349 0
M  V30 2568 C 245.117 1.43728 -1.48411 0
M  V30 2569 C 245.525 1.8893 -0.10103 0
M  V30 2570 O 244.868 1.60182 0.899307 0
M  V30 2571 C 244.93 2.70411 -2.36893 0
M  V30 2572 C 244.594 2.4714 -3.8441 0
M  V30 2573 C 245.591 2.10271 -4.75481 0
M  V30 2574 C 243.276 2.6142 -4.28912 0
M  V30 2575 C 245.27 1.87982 -6.0905 0
M  V30 2576 C 242.957 2.38746 -5.62533 0
M  V30 2577 C 243.955 2.02083 -6.5242 0
M  V30 2578 O 243.643 1.79647 -7.8357 0
M  V30 2579 H 243.375 0.447962 -0.506267 0
M  V30 2580 H 245.929 0.80624 -1.88915 0
M  V30 2581 H 244.159 3.36079 -1.91278 0
M  V30 2582 H 245.848 3.32364 -2.33 0
M  V30 2583 H 246.614 1.98814 -4.42378 0
M  V30 2584 H 242.493 2.88931 -3.59222 0
M  V30 2585 H 246.037 1.5929 -6.7917 0
M  V30 2586 H 241.934 2.49806 -5.95203 0
M  V30 2587 H 242.702 1.9406 -7.95162 0
M  V30 2588 N 245.365 1.30045 0.890287 0
M  V30 2589 C 246.611 1.19747 1.64415 0
M  V30 2590 C 246.966 -0.246591 1.90813 0
M  V30 2591 O 246.259 -1.174 1.51419 0
M  V30 2592 C 246.453 1.95409 2.99249 0
M  V30 2593 C 246.282 3.47025 2.86013 0
M  V30 2594 C 245.052 4.1638 2.86279 0
M  V30 2595 C 247.25 4.42353 2.62351 0
M  V30 2596 N 245.232 5.54293 2.63879 0
M  V30 2597 C 246.603 5.67792 2.49022 0
M  V30 2598 C 248.658 4.32009 2.47533 0
M  V30 2599 C 247.361 6.8406 2.22383 0
M  V30 2600 C 249.387 5.48038 2.22279 0
M  V30 2601 C 248.749 6.72455 2.09722 0
M  V30 2602 H 244.848 0.493223 0.60684 0
M  V30 2603 H 247.432 1.6399 1.04954 0
M  V30 2604 H 245.603 1.53565 3.56752 0
M  V30 2605 H 247.335 1.77298 3.63796 0
M  V30 2606 H 244.09 3.68164 2.97913 0
M  V30 2607 H 244.514 6.26852 2.55706 0
M  V30 2608 H 249.156 3.36503 2.55979 0
M  V30 2609 H 246.874 7.79612 2.12675 0
M  V30 2610 H 250.46 5.41939 2.11643 0
M  V30 2611 H 249.34 7.60722 1.90453 0
M  V30 2612 N 246.843 -1.10192 1.12674 0
M  V30 2613 C 248.071 -1.85983 0.906527 0
M  V30 2614 C 248.486 -1.80783 -0.544333 0
M  V30 2615 O 247.843 -1.19834 -1.37645 0
M  V30 2616 C 247.894 -3.34281 1.37618 0
M  V30 2617 O 247.615 -3.39401 2.77017 0
M  V30 2618 C 249.116 -4.26938 1.19325 0
M  V30 2619 H 246.336 -0.587716 0.323775 0
M  V30 2620 H 248.88 -1.39284 1.49734 0
M  V30 2621 H 247.035 -3.78436 0.828539 0
M  V30 2622 H 247.449 -4.31838 2.97684 0
M  V30 2623 H 248.923 -5.29181 1.57071 0
M  V30 2624 H 249.4 -4.38995 0.134097 0
M  V30 2625 H 250.006 -3.8859 1.72852 0
M  V30 2626 N 248.321 -0.919034 -1.28029 0
M  V30 2627 C 249.271 -0.382574 -2.24767 0
M  V30 2628 C 250.255 0.508286 -1.52661 0
M  V30 2629 O 251.447 0.347145 -1.73562 0
M  V30 2630 C 248.576 0.371432 -3.41285 0
M  V30 2631 C 247.662 -0.535449 -4.20706 0
M  V30 2632 N 248.053 -1.65141 -4.78082 0
M  V30 2633 C 246.351 -0.336824 -4.44726 0
M  V30 2634 C 247.052 -2.21475 -5.37888 0
M  V30 2635 N 246.028 -1.50537 -5.22341 0
M  V30 2636 H 249.83 -1.23477 -2.66703 0
M  V30 2637 H 247.344 -0.772299 -1.42861 0
M  V30 2638 H 249.341 0.772638 -4.09678 0
M  V30 2639 H 248.001 1.22066 -3.00882 0
M  V30 2640 H 249.012 -2.03392 -4.7629 0
M  V30 2641 H 245.689 0.47246 -4.14818 0
M  V30 2642 H 247.079 -3.15379 -5.93284 0
M  V30 2643 N 249.799 1.42003 -0.683588 0
M  V30 2644 C 251.045 2.01712 -0.209825 0
M  V30 2645 C 251.378 1.53968 1.18353 0
M  V30 2646 O 250.653 0.745661 1.79639 0
M  V30 2647 C 250.936 3.59202 -0.254197 0
M  V30 2648 C 250.789 4.17102 -1.68363 0
M  V30 2649 C 252.108 4.38344 0.392709 0
M  V30 2650 H 249.227 0.732891 -0.0777189 0
M  V30 2651 H 251.869 1.68909 -0.87004 0
M  V30 2652 H 250.019 3.87278 0.307954 0
M  V30 2653 H 251.691 3.99946 -2.29871 0
M  V30 2654 H 249.934 3.72597 -2.22157 0
M  V30 2655 H 250.605 5.26249 -1.6663 0
M  V30 2656 H 253.081 4.16011 -0.0859162 0
M  V30 2657 H 251.957 5.47901 0.331063 0
M  V30 2658 H 252.218 4.16887 1.47164 0
M  V30 2659 N 251.277 0.427512 1.51691 0
M  V30 2660 C 252.207 -0.3796 2.30394 0
M  V30 2661 C 253.188 -1.02982 1.35384 0
M  V30 2662 O 254.373 -1.03534 1.643 0
M  V30 2663 C 251.503 -1.48649 3.1388 0
M  V30 2664 C 250.457 -0.960294 4.17088 0
M  V30 2665 C 249.783 -2.16219 4.89033 0
M  V30 2666 C 251.083 -0.00153679 5.223 0
M  V30 2667 H 252.777 0.277164 2.98114 0
M  V30 2668 H 250.323 0.134739 1.43368 0
M  V30 2669 H 252.276 -2.05826 3.67714 0
M  V30 2670 H 251 -2.1714 2.43962 0
M  V30 2671 H 249.659 -0.410806 3.64291 0
M  V30 2672 H 249.307 -2.83307 4.15628 0
M  V30 2673 H 249.007 -1.81654 5.58816 0
M  V30 2674 H 250.531 -2.73968 5.45687 0
M  V30 2675 H 251.945 -0.482687 5.71264 0
M  V30 2676 H 250.342 0.256199 5.99553 0
M  V30 2677 H 251.412 0.938174 4.75738 0
M  V30 2678 N 252.755 -1.56801 0.158532 0
M  V30 2679 C 254.002 -1.9649 -0.489679 0
M  V30 2680 C 254.33 -1.04394 -1.6411 0
M  V30 2681 O 253.585 -0.0754401 -1.95555 0
M  V30 2682 C 253.884 -3.4235 -1.02623 0
M  V30 2683 C 253.55 -4.50899 0.00794526 0
M  V30 2684 C 252.212 -4.80312 0.292207 0
M  V30 2685 C 254.564 -5.16333 0.710584 0
M  V30 2686 C 251.892 -5.72461 1.28472 0
M  V30 2687 C 254.244 -6.09553 1.69199 0
M  V30 2688 C 252.908 -6.37339 1.98383 0
M  V30 2689 H 252.178 -0.719009 -0.179186 0
M  V30 2690 H 254.825 -1.8989 0.247798 0
M  V30 2691 H 253.13 -3.45838 -1.84128 0
M  V30 2692 H 254.827 -3.70393 -1.53656 0
M  V30 2693 H 251.417 -4.28015 -0.22379 0
M  V30 2694 H 255.601 -4.93732 0.504174 0
M  V30 2695 H 250.857 -5.92278 1.51714 0
M  V30 2696 H 255.031 -6.59327 2.24189 0
M  V30 2697 H 252.658 -7.08546 2.7544 0
M  V30 2698 N 254.233 0.115231 -1.57178 0
M  V30 2699 C 255.461 0.836437 -1.89239 0
M  V30 2700 C 255.876 1.73256 -0.750175 0
M  V30 2701 O 255.233 1.80357 0.278832 0
M  V30 2702 C 255.284 1.66671 -3.20785 0
M  V30 2703 O 255.005 0.806652 -4.3061 0
M  V30 2704 C 256.506 2.49274 -3.66575 0
M  V30 2705 H 253.726 0.240253 -0.626514 0
M  V30 2706 H 256.27 0.0984932 -2.04263 0
M  V30 2707 H 254.425 2.35737 -3.0742 0
M  V30 2708 H 254.839 1.37969 -5.06028 0
M  V30 2709 H 256.313 3.03055 -4.6137 0
M  V30 2710 H 256.79 3.26807 -2.93417 0
M  V30 2711 H 257.396 1.85443 -3.82741 0
M  V30 2712 N 255.711 1.52812 0.385517 0
M  V30 2713 C 256.957 1.69225 1.12847 0
M  V30 2714 C 257.312 0.42864 1.87564 0
M  V30 2715 O 256.605 -0.57779 1.8268 0
M  V30 2716 C 256.799 2.86856 2.13187 0
M  V30 2717 C 256.628 4.24535 1.48325 0
M  V30 2718 C 255.398 4.89701 1.24585 0
M  V30 2719 C 257.596 5.05794 0.931501 0
M  V30 2720 N 255.578 6.11353 0.558644 0
M  V30 2721 C 256.949 6.1888 0.372552 0
M  V30 2722 C 259.004 4.90963 0.828248 0
M  V30 2723 C 257.707 7.18757 -0.279556 0
M  V30 2724 C 259.733 5.91095 0.189956 0
M  V30 2725 C 259.095 7.03489 -0.358207 0
M  V30 2726 H 255.194 0.67268 0.39878 0
M  V30 2727 H 257.778 1.9017 0.417528 0
M  V30 2728 H 255.949 2.67484 2.81614 0
M  V30 2729 H 257.681 2.92188 2.80014 0
M  V30 2730 H 254.436 4.48485 1.52178 0
M  V30 2731 H 254.86 6.76606 0.230983 0
M  V30 2732 H 259.502 4.04274 1.23784 0
M  V30 2733 H 257.22 8.05052 -0.701152 0
M  V30 2734 H 260.806 5.81694 0.111264 0
M  V30 2735 H 259.686 7.79642 -0.844314 0
M  V30 2736 N 257.189 -0.644168 1.43834 0
M  V30 2737 C 258.136 -1.75671 1.49694 0
M  V30 2738 C 259.106 -1.6246 0.345809 0
M  V30 2739 O 260.291 -1.82573 0.554234 0
M  V30 2740 C 257.431 -3.13867 1.43463 0
M  V30 2741 C 256.544 -3.38147 2.6885 0
M  V30 2742 C 255.679 -4.66241 2.54544 0
M  V30 2743 C 254.718 -4.83657 3.75157 0
M  V30 2744 N 253.855 -6.03016 3.59605 0
M  V30 2745 H 258.695 -1.69998 2.44754 0
M  V30 2746 H 256.232 -0.829458 1.21484 0
M  V30 2747 H 258.19 -3.9377 1.37843 0
M  V30 2748 H 256.82 -3.18588 0.519783 0
M  V30 2749 H 255.872 -2.52276 2.84712 0
M  V30 2750 H 257.184 -3.46899 3.58417 0
M  V30 2751 H 256.338 -5.54285 2.46683 0
M  V30 2752 H 255.077 -4.59826 1.62516 0
M  V30 2753 H 254.082 -3.94046 3.83416 0
M  V30 2754 H 255.307 -4.91896 4.68204 0
M  V30 2755 H 253.253 -5.97715 2.7032 0
M  V30 2756 H 253.17 -6.12766 4.42779 0
M  V30 2757 H 254.438 -6.93657 3.55613 0
M  V30 2758 N 258.668 -1.30515 -0.883378 0
M  V30 2759 C 259.893 -1.22487 -1.67367 0
M  V30 2760 C 260.318 0.208767 -1.86938 0
M  V30 2761 O 259.676 1.15015 -1.40148 0
M  V30 2762 C 259.724 -1.96041 -3.02655 0
M  V30 2763 O 258.828 -1.28859 -3.91751 0
M  V30 2764 H 258.169 -0.423573 -0.511353 0
M  V30 2765 H 260.699 -1.72362 -1.10239 0
M  V30 2766 H 260.709 -2.05124 -3.52687 0
M  V30 2767 H 259.384 -3.00307 -2.8773 0
M  V30 2768 H 257.961 -1.28141 -3.50192 0
M  V30 2769 N 260.146 1.09593 -1.13257 0
M  V30 2770 C 261.093 2.1618 -0.808381 0
M  V30 2771 C 262.063 1.64517 0.228754 0
M  V30 2772 O 263.248 1.9053 0.101381 0
M  V30 2773 C 260.388 3.43973 -0.278675 0
M  V30 2774 C 259.501 4.09545 -1.37466 0
M  V30 2775 C 258.636 5.25088 -0.803479 0
M  V30 2776 C 257.675 5.82579 -1.87799 0
M  V30 2777 N 256.812 6.89486 -1.32488 0
M  V30 2778 H 261.652 2.43254 -1.72138 0
M  V30 2779 H 259.189 1.19392 -0.859294 0
M  V30 2780 H 261.147 4.17174 0.0465583 0
M  V30 2781 H 259.777 3.17223 0.597459 0
M  V30 2782 H 258.829 3.34226 -1.81652 0
M  V30 2783 H 260.141 4.48307 -2.18684 0
M  V30 2784 H 259.295 6.05178 -0.429427 0
M  V30 2785 H 258.034 4.87684 0.0397956 0
M  V30 2786 H 257.039 5.01152 -2.26113 0
M  V30 2787 H 258.264 6.22045 -2.72463 0
M  V30 2788 H 256.21 6.54064 -0.503575 0
M  V30 2789 H 256.127 7.27007 -2.07355 0
M  V30 2790 H 257.395 7.73336 -0.978336 0
M  V30 2791 N 261.624 0.925811 1.2754 0
M  V30 2792 C 262.534 0.428993 2.30644 0
M  V30 2793 C 263.55 -0.489387 1.66976 0
M  V30 2794 O 264.726 -0.372653 1.97922 0
M  V30 2795 C 261.791 -0.311967 3.45294 0
M  V30 2796 C 260.852 0.641098 4.24486 0
M  V30 2797 C 260.085 -0.0645955 5.33661 0
M  V30 2798 O 260.308 -1.28429 5.55754 0
M  V30 2799 O 259.242 0.606265 5.98839 0
M  V30 2800 H 263.068 1.28504 2.75173 0
M  V30 2801 H 260.653 0.691086 1.32455 0
M  V30 2802 H 262.535 -0.729972 4.15029 0
M  V30 2803 H 261.21 -1.14365 3.02824 0
M  V30 2804 H 260.117 1.10874 3.57292 0
M  V30 2805 H 261.45 1.43995 4.70666 0
M  V30 2806 N 263.102 -1.41638 0.69111 0
M  V30 2807 C 264.35 -2.00902 0.219758 0
M  V30 2808 C 264.671 -1.54994 -1.18329 0
M  V30 2809 O 263.941 -0.778628 -1.79762 0
M  V30 2810 H 262.521 -0.74289 0.0782558 0
M  V30 2811 H 265.183 -1.73327 0.891271 0
M  V30 2812 H 264.279 -3.11224 0.233708 0
M  V30 2813 N 264.58 -0.43555 -1.51462 0
M  V30 2814 C 265.51 0.367376 -2.30592 0
M  V30 2815 C 266.491 1.02263 -1.35928 0
M  V30 2816 O 267.676 1.02661 -1.64847 0
M  V30 2817 C 264.806 1.46983 -3.14664 0
M  V30 2818 C 263.76 0.938161 -4.17591 0
M  V30 2819 C 263.086 2.13622 -4.90173 0
M  V30 2820 C 264.386 -0.0261621 -5.22293 0
M  V30 2821 H 266.08 -0.292969 -2.97963 0
M  V30 2822 H 263.626 -0.14234 -1.43295 0
M  V30 2823 H 265.579 2.03873 -3.688 0
M  V30 2824 H 264.303 2.15843 -2.4511 0
M  V30 2825 H 262.962 0.391481 -3.64504 0
M  V30 2826 H 262.61 2.81098 -4.17124 0
M  V30 2827 H 262.31 1.78688 -5.59772 0
M  V30 2828 H 263.834 2.7107 -5.47132 0
M  V30 2829 H 265.248 0.452384 -5.71512 0
M  V30 2830 H 263.645 -0.287992 -5.99409 0
M  V30 2831 H 264.715 -0.963391 -4.75233 0
M  V30 2832 N 266.058 1.56714 -0.166846 0
M  V30 2833 C 267.005 2.17746 0.765193 0
M  V30 2834 C 267.975 1.11614 1.23011 0
M  V30 2835 O 269.16 1.39745 1.29908 0
M  V30 2836 C 266.3 2.81882 1.9909 0
M  V30 2837 C 265.413 4.02462 1.56997 0
M  V30 2838 C 264.548 4.54537 2.749 0
M  V30 2839 C 263.587 5.67538 2.29275 0
M  V30 2840 N 262.724 6.14142 3.40255 0
M  V30 2841 H 267.564 2.97048 0.237952 0
M  V30 2842 H 265.101 1.4672 0.105725 0
M  V30 2843 H 267.059 3.17221 2.70974 0
M  V30 2844 H 265.689 2.05191 2.49192 0
M  V30 2845 H 264.741 3.72973 0.748037 0
M  V30 2846 H 266.053 4.84273 1.19503 0
M  V30 2847 H 265.207 4.92035 3.54946 0
M  V30 2848 H 263.946 3.71774 3.1565 0
M  V30 2849 H 262.951 5.29597 1.47674 0
M  V30 2850 H 264.176 6.52099 1.89588 0
M  V30 2851 H 262.122 5.3431 3.8059 0
M  V30 2852 H 262.039 6.9093 3.06841 0
M  V30 2853 H 263.307 6.56289 4.206 0
M  V30 2854 N 267.536 -0.106894 1.57237 0
M  V30 2855 C 268.782 -0.81373 1.85759 0
M  V30 2856 C 269.115 -1.78952 0.754315 0
M  V30 2857 O 268.39 -1.93029 -0.23879 0
M  V30 2858 C 268.673 -1.55293 3.24894 0
M  V30 2859 C 268.526 -0.595929 4.45835 0
M  V30 2860 C 269.845 -2.5063 3.61763 0
M  V30 2861 H 266.964 -0.294369 0.67566 0
M  V30 2862 H 269.606 -0.0776472 1.89841 0
M  V30 2863 H 267.756 -2.1804 3.21544 0
M  V30 2864 H 269.428 0.0236262 4.61294 0
M  V30 2865 H 267.671 0.0916191 4.33703 0
M  V30 2866 H 268.342 -1.15004 5.39887 0
M  V30 2867 H 270.818 -1.97982 3.65981 0
M  V30 2868 H 269.694 -2.99376 4.60071 0
M  V30 2869 H 269.955 -3.3385 2.89821 0
M  V30 2870 N 269.014 -1.53014 -0.377408 0
M  V30 2871 C 270.244 -1.72265 -1.14054 0
M  V30 2872 C 270.652 -0.44601 -1.83868 0
M  V30 2873 O 269.995 0.590095 -1.73964 0
M  V30 2874 C 270.057 -2.82492 -2.22348 0
M  V30 2875 C 269.721 -4.23233 -1.72402 0
M  V30 2876 C 270.718 -5.05992 -1.19448 0
M  V30 2877 C 268.403 -4.696 -1.78273 0
M  V30 2878 C 270.397 -6.33203 -0.730268 0
M  V30 2879 C 268.084 -5.96792 -1.31464 0
M  V30 2880 C 269.082 -6.78424 -0.789297 0
M  V30 2881 O 268.77 -8.0323 -0.328077 0
M  V30 2882 H 268.502 -0.579873 -0.347453 0
M  V30 2883 H 271.056 -2.00502 -0.445882 0
M  V30 2884 H 269.286 -2.49702 -2.95272 0
M  V30 2885 H 270.975 -2.90034 -2.83963 0
M  V30 2886 H 271.741 -4.71349 -1.14259 0
M  V30 2887 H 267.62 -4.06142 -2.18106 0
M  V30 2888 H 271.164 -6.96868 -0.319542 0
M  V30 2889 H 267.061 -6.30937 -1.36342 0
M  V30 2890 H 267.829 -8.1727 -0.448493 0
M  V30 2891 N 270.492 0.636531 -1.44174 0
M  V30 2892 C 271.738 1.39826 -1.4689 0
M  V30 2893 C 272.071 1.93947 -0.0990585 0
M  V30 2894 O 271.346 1.73325 0.882544 0
M  V30 2895 C 271.629 2.56751 -2.5249 0
M  V30 2896 C 271.482 2.08014 -3.98811 0
M  V30 2897 C 272.801 3.58946 -2.54649 0
M  V30 2898 H 269.92 0.507075 -0.53483 0
M  V30 2899 H 272.562 0.720188 -1.75822 0
M  V30 2900 H 270.712 3.14597 -2.2795 0
M  V30 2901 H 272.384 1.5504 -4.34466 0
M  V30 2902 H 270.627 1.39242 -4.10846 0
M  V30 2903 H 271.298 2.92169 -4.68339 0
M  V30 2904 H 273.774 3.1089 -2.76563 0
M  V30 2905 H 272.65 4.38286 -3.3045 0
M  V30 2906 H 272.911 4.12655 -1.58646 0
M  V30 2907 N 271.97 1.30982 0.876444 0
M  V30 2908 C 272.918 1.18006 2.00443 0
M  V30 2909 C 273.912 0.0898871 1.69161 0
M  V30 2910 O 275.118 0.251333 1.78237 0
M  V30 2911 H 271.493 0.365196 0.65737 0
M  V30 2912 H 273.464 2.13453 2.0852 0
M  V30 2913 C 272.213 0.897521 3.35916 0
M  V30 2914 H 271.536 1.7285 3.60504 0
M  V30 2915 H 272.976 0.846874 4.15456 0
M  V30 2916 C 271.435 -0.399674 3.34521 0
M  V30 2917 O 271.965 -1.41852 3.7582 0
M  V30 2918 N 270.171 -0.413893 2.87637 0
M  V30 2919 H 269.718 0.41571 2.54224 0
M  V30 2920 H 269.676 -1.28175 2.87086 0
M  V30 2921 N 273.449 -1.08991 1.13837 0
M  V30 2922 C 274.697 -1.80899 0.901098 0
M  V30 2923 C 275.018 -1.86356 -0.574134 0
M  V30 2924 O 274.288 -1.35235 -1.41733 0
M  V30 2925 H 272.868 -0.669966 0.330386 0
M  V30 2926 H 275.53 -1.318 1.43578 0
M  V30 2927 H 274.626 -2.83929 1.29578 0
M  V30 2928 N 274.927 -0.932562 -1.27047 0
M  V30 2929 C 276.155 -0.592031 -1.98249 0
M  V30 2930 C 276.57 0.831062 -1.69525 0
M  V30 2931 O 275.927 1.55299 -0.958561 0
M  V30 2932 C 275.978 -0.814279 -3.5221 0
M  V30 2933 O 275.699 -2.18139 -3.7993 0
M  V30 2934 C 277.2 -0.483121 -4.4066 0
M  V30 2935 H 274.42 -0.223896 -0.632544 0
M  V30 2936 H 276.964 -1.25091 -1.61779 0
M  V30 2937 H 275.119 -0.20213 -3.86872 0
M  V30 2938 H 275.533 -2.235 -4.74498 0
M  V30 2939 H 277.007 -0.689298 -5.47679 0
M  V30 2940 H 277.484 0.581546 -4.35333 0
M  V30 2941 H 278.09 -1.07362 -4.11526 0
M  V30 2942 N 276.405 1.4127 -0.698611 0
M  V30 2943 C 277.335 2.33447 -0.049629 0
M  V30 2944 C 278.316 1.51982 0.763898 0
M  V30 2945 O 279.501 1.80509 0.716257 0
M  V30 2946 C 276.631 3.35828 0.885267 0
M  V30 2947 C 275.585 4.27627 0.178613 0
M  V30 2948 C 274.911 5.20406 1.22807 0
M  V30 2949 C 276.211 5.13459 -0.956933 0
M  V30 2950 H 277.905 2.87966 -0.81951 0
M  V30 2951 H 275.451 1.38461 -0.395538 0
M  V30 2952 H 277.404 3.9924 1.34854 0
M  V30 2953 H 276.128 2.79666 1.68685 0
M  V30 2954 H 274.787 3.65643 -0.26466 0
M  V30 2955 H 274.435 4.60558 2.02226 0
M  V30 2956 H 274.135 5.82661 0.760239 0
M  V30 2957 H 275.659 5.86695 1.69179 0
M  V30 2958 H 277.073 5.70421 -0.573805 0
M  V30 2959 H 275.47 5.8467 -1.35205 0
M  V30 2960 H 276.54 4.50443 -1.79524 0
M  V30 2961 N 277.883 0.443576 1.51229 0
M  V30 2962 C 279.108 -0.121648 2.07043 0
M  V30 2963 C 279.533 -1.35156 1.30823 0
M  V30 2964 O 278.891 -1.7793 0.347934 0
M  V30 2965 C 278.939 -0.41624 3.5819 0
M  V30 2966 O 278.043 -1.50163 3.8409 0
M  V30 2967 H 277.384 0.000871367 0.663999 0
M  V30 2968 H 279.914 0.626706 1.94765 0
M  V30 2969 H 279.924 -0.664867 4.02546 0
M  V30 2970 H 278.599 0.482653 4.1309 0
M  V30 2971 H 277.176 -1.24248 3.51592 0
M  V30 2972 N 279.361 -1.56624 0.175154 0
M  V30 2973 C 280.589 -2.01374 -0.474971 0
M  V30 2974 C 281.004 -1.05537 -1.56548 0
M  V30 2975 O 280.361 -0.0568668 -1.82411 0
M  V30 2976 C 280.412 -3.45923 -1.04975 0
M  V30 2977 O 280.133 -4.381 -0.00276605 0
M  V30 2978 C 281.634 -4.06093 -1.77773 0
M  V30 2979 H 278.854 -0.659962 -0.121206 0
M  V30 2980 H 281.398 -2.02601 0.27801 0
M  V30 2981 H 279.553 -3.45458 -1.75321 0
M  V30 2982 H 279.967 -5.22753 -0.427681 0
M  V30 2983 H 281.441 -5.09147 -2.13245 0
M  V30 2984 H 281.918 -3.48405 -2.67414 0
M  V30 2985 H 282.524 -4.10272 -1.12059 0
M  V30 2986 N 280.839 0.0985539 -1.57292 0
M  V30 2987 C 282.064 0.820196 -1.90493 0
M  V30 2988 C 282.489 1.71658 -0.769094 0
M  V30 2989 O 281.847 1.79133 0.279495 0
M  V30 2990 C 281.895 1.61242 -3.22542 0
M  V30 2991 O 280.999 2.72108 -3.09888 0
M  V30 2992 H 280.34 0.225547 -0.62452 0
M  V30 2993 H 282.87 0.0748159 -2.04463 0
M  V30 2994 H 282.88 1.99737 -3.55766 0
M  V30 2995 H 281.555 0.954535 -4.04798 0
M  V30 2996 H 280.132 2.36667 -2.88172 0
M  V30 2997 N 282.317 1.53212 0.369288 0
M  V30 2998 C 283.594 1.59815 1.12776 0
M  V30 2999 C 283.974 0.403402 2.0721 0
M  V30 3000 O 283.322 -0.606667 2.20299 0
M  V30 3001 C 283.532 2.94664 1.87013 0
M  V30 3002 C 284.88 3.49109 2.41677 0
M  V30 3003 O 285.904 2.96669 1.97144 0
M  V30 3004 O 284.763 4.40775 3.23079 0
M  V30 3005 H 281.857 0.645376 0.517125 0
M  V30 3006 H 284.403 1.65553 0.37285 0
M  V30 3007 H 283.175 3.73061 1.18071 0
M  V30 3008 H 282.798 2.92401 2.69421 0
M  V30 3009 N 283.795 -0.628877 1.44509 0
M  V30 3010 C 285.206 -1.21054 1.42137 0
M  V30 3011 C 285.557 -1.95715 0.137881 0
M  V30 3012 O 284.682 -2.02554 -0.761645 0
M  V30 3013 C 285.277 -2.20189 2.57493 0
M  V30 3014 C 283.836 -2.73777 2.58308 0
M  V30 3015 C 282.983 -1.48813 2.33987 0
M  V30 3016 H 285.934 -0.41942 1.53057 0
M  V30 3017 H 285.955 -3.02833 2.30375 0
M  V30 3018 H 285.467 -1.6582 3.50892 0
M  V30 3019 H 283.568 -3.32142 1.68856 0
M  V30 3020 H 283.681 -3.19662 3.56865 0
M  V30 3021 H 282.045 -1.77024 1.83124 0
M  V30 3022 H 282.828 -0.963442 3.29504 0
M  V30 3023 N 285.273 -1.31445 -0.869486 0
M  V30 3024 C 286.498 -1.24256 -1.66058 0
M  V30 3025 C 286.923 0.188928 -1.87149 0
M  V30 3026 O 286.281 1.13522 -1.4136 0
M  V30 3027 C 286.329 -1.9924 -3.00559 0
M  V30 3028 O 285.433 -1.33007 -3.90362 0
M  V30 3029 H 284.774 -0.428973 -0.506831 0
M  V30 3030 H 287.304 -1.73521 -1.08404 0
M  V30 3031 H 287.314 -2.08854 -3.50491 0
M  V30 3032 H 285.989 -3.03342 -2.84528 0
M  V30 3033 H 284.566 -1.31848 -3.48813 0
M  V30 3034 N 286.751 1.08385 -1.14413 0
M  V30 3035 C 287.999 1.80419 -0.910679 0
M  V30 3036 C 288.32 1.86658 0.564243 0
M  V30 3037 O 287.59 1.35985 1.41014 0
M  V30 3038 H 286.17 0.668204 -0.333934 0
M  V30 3039 H 288.832 1.31037 -1.44275 0
M  V30 3040 H 287.928 2.83238 -1.31082 0
M  V30 3041 N 288.23 0.939286 1.26551 0
M  V30 3042 C 289.177 0.446088 2.26448 0
M  V30 3043 C 290.147 -0.493234 1.58608 0
M  V30 3044 O 291.332 -0.409857 1.86346 0
M  V30 3045 C 288.472 -0.284375 3.43926 0
M  V30 3046 C 287.585 0.690399 4.26448 0
M  V30 3047 C 286.72 -0.0610712 5.31165 0
M  V30 3048 C 285.759 0.905649 6.05363 0
M  V30 3049 N 284.896 0.186055 7.01853 0
M  V30 3050 H 289.736 1.30291 2.68008 0
M  V30 3051 H 287.273 0.65371 1.31776 0
M  V30 3052 H 289.231 -0.724313 4.10864 0
M  V30 3053 H 287.861 -1.10535 3.03285 0
M  V30 3054 H 286.913 1.24885 3.59316 0
M  V30 3055 H 288.225 1.42873 4.779 0
M  V30 3056 H 287.379 -0.56038 6.04106 0
M  V30 3057 H 286.118 -0.832297 4.80546 0
M  V30 3058 H 285.123 1.4161 5.3125 0
M  V30 3059 H 286.348 1.67685 6.58072 0
M  V30 3060 H 284.294 -0.566714 6.53548 0
M  V30 3061 H 284.211 0.863752 7.51049 0
M  V30 3062 H 285.479 -0.292221 7.78952 0
M  V30 3063 N 289.708 -1.40897 0.706093 0
M  V30 3064 C 290.954 -2.01352 0.241889 0
M  V30 3065 C 291.287 -1.55832 -1.15888 0
M  V30 3066 O 290.562 -0.774145 -1.7843 0
M  V30 3067 C 290.845 -3.58752 0.311311 0
M  V30 3068 C 290.698 -4.1437 1.74978 0
M  V30 3069 C 292.017 -4.38914 -0.322922 0
M  V30 3070 H 289.136 -0.731562 0.0893687 0
M  V30 3071 H 291.778 -1.67504 0.896802 0
M  V30 3072 H 289.928 -3.87718 -0.246302 0
M  V30 3073 H 291.6 -3.96239 2.36205 0
M  V30 3074 H 289.843 -3.69016 2.28057 0
M  V30 3075 H 290.514 -5.23532 1.74981 0
M  V30 3076 H 292.99 -4.15822 0.152089 0
M  V30 3077 H 291.866 -5.48358 -0.243855 0
M  V30 3078 H 292.127 -4.19176 -1.40513 0
M  V30 3079 N 291.186 -0.45159 -1.50991 0
M  V30 3080 C 292.411 0.110667 -2.07105 0
M  V30 3081 C 292.836 1.3446 -1.31538 0
M  V30 3082 O 292.194 1.77743 -0.357365 0
M  V30 3083 C 292.242 0.397238 -3.58405 0
M  V30 3084 O 291.346 1.48124 -3.84881 0
M  V30 3085 H 290.687 -0.00439271 -0.663985 0
M  V30 3086 H 293.217 -0.637026 -1.9443 0
M  V30 3087 H 293.227 0.64351 -4.02893 0
M  V30 3088 H 291.902 -0.504553 -4.12828 0
M  V30 3089 H 290.479 1.22381 -3.52246 0
M  V30 3090 N 292.664 1.56529 -0.183458 0
M  V30 3091 C 294.08 1.58664 0.172554 0
M  V30 3092 C 294.28 1.19925 1.61926 0
M  V30 3093 O 293.336 0.916534 2.35278 0
M  V30 3094 C 294.649 3.00463 -0.119262 0
M  V30 3095 C 296.197 3.12945 -0.0584396 0
M  V30 3096 C 296.672 4.56857 -0.323408 0
M  V30 3097 N 298.163 4.62403 -0.271612 0
M  V30 3098 C 298.898 5.71626 -0.450639 0
M  V30 3099 N 298.394 6.89362 -0.689384 0
M  V30 3100 N 300.187 5.60775 -0.385701 0
M  V30 3101 H 292.338 1.79994 -1.12765 0
M  V30 3102 H 294.601 0.834808 -0.449222 0
M  V30 3103 H 294.307 3.33326 -1.12192 0
M  V30 3104 H 294.181 3.72659 0.583544 0
M  V30 3105 H 296.568 2.79902 0.934805 0
M  V30 3106 H 296.649 2.4316 -0.794144 0
M  V30 3107 H 296.293 4.9061 -1.31392 0
M  V30 3108 H 296.223 5.24816 0.43305 0
M  V30 3109 H 298.714 3.77785 -0.0932256 0
M  V30 3110 H 299.027 7.68489 -0.815113 0
M  V30 3111 H 297.372 6.91196 -0.726142 0
M  V30 3112 H 300.563 4.67674 -0.199687 0
M  V30 3113 H 300.736 6.4584 -0.528646 0
M  V30 3114 N 294.142 -0.090211 1.57342 0
M  V30 3115 C 295.419 -0.824761 1.77361 0
M  V30 3116 C 295.799 -1.96698 0.76637 0
M  V30 3117 O 295.147 -2.27586 -0.204179 0
M  V30 3118 C 295.357 -1.31481 3.23286 0
M  V30 3119 C 296.705 -1.75563 3.86604 0
M  V30 3120 O 297.729 -1.41093 3.27065 0
M  V30 3121 O 296.588 -2.39317 4.91314 0
M  V30 3122 H 293.682 -0.393776 0.727234 0
M  V30 3123 H 296.228 -0.0717138 1.69548 0
M  V30 3124 H 295 -0.496671 3.88135 0
M  V30 3125 H 294.623 -2.12973 3.35751 0
M  V30 3126 N 295.62 -1.53406 -0.361157 0
M  V30 3127 C 296.85 -1.73465 -1.1222 0
M  V30 3128 C 297.258 -0.465486 -1.83384 0
M  V30 3129 O 296.601 0.571611 -1.7458 0
M  V30 3130 C 296.663 -2.84834 -2.19339 0
M  V30 3131 C 296.327 -4.25038 -1.67903 0
M  V30 3132 C 297.324 -5.07231 -1.14074 0
M  V30 3133 C 295.009 -4.71464 -1.73282 0
M  V30 3134 C 297.003 -6.33942 -0.663068 0
M  V30 3135 C 294.69 -5.98153 -1.25127 0
M  V30 3136 C 295.688 -6.79223 -0.717296 0
M  V30 3137 O 295.376 -8.03533 -0.242865 0
M  V30 3138 H 295.108 -0.583526 -0.341283 0
M  V30 3139 H 297.662 -2.00964 -0.424591 0
M  V30 3140 H 295.892 -2.5282 -2.92607 0
M  V30 3141 H 297.581 -2.9303 -2.80871 0
M  V30 3142 H 298.347 -4.72534 -1.09254 0
M  V30 3143 H 294.226 -4.08432 -2.13786 0
M  V30 3144 H 297.77 -6.97167 -0.245612 0
M  V30 3145 H 293.667 -6.32347 -1.29642 0
M  V30 3146 H 294.435 -8.177 -0.361786 0
M  V30 3147 N 297.098 0.621204 -1.44841 0
M  V30 3148 C 298.346 1.37783 -1.47852 0
M  V30 3149 C 298.667 1.94653 -0.116224 0
M  V30 3150 O 297.937 1.76367 0.852737 0
M  V30 3151 H 296.517 0.511453 -0.544449 0
M  V30 3152 H 299.179 0.730446 -1.80694 0
M  V30 3153 H 298.275 2.20414 -2.20961 0
M  V30 3154 N 298.576 1.31904 0.862503 0
M  V30 3155 C 299.486 1.22161 2.00285 0
M  V30 3156 C 300.502 0.136785 1.73462 0
M  V30 3157 O 301.678 0.355994 1.98229 0
M  V30 3158 C 298.743 0.937093 3.33796 0
M  V30 3159 C 297.804 2.10957 3.73893 0
M  V30 3160 C 297.037 1.83853 5.01033 0
M  V30 3161 O 297.26 0.777274 5.65079 0
M  V30 3162 O 296.194 2.69741 5.38074 0
M  V30 3163 H 300.02 2.18008 2.11439 0
M  V30 3164 H 297.605 1.11716 0.991957 0
M  V30 3165 H 299.487 0.794583 4.13841 0
M  V30 3166 H 298.162 0.00871894 3.23699 0
M  V30 3167 H 297.069 2.30752 2.94456 0
M  V30 3168 H 298.402 3.02046 3.88625 0
M  V30 3169 N 300.054 -1.07777 1.14986 0
M  V30 3170 C 301.279 -1.84558 0.946213 0
M  V30 3171 C 301.704 -1.81323 -0.500362 0
M  V30 3172 O 301.062 -1.20301 -1.35637 0
M  V30 3173 C 301.11 -3.29736 1.45968 0
M  V30 3174 O 300.214 -4.07149 0.65601 0
M  V30 3175 H 299.555 -0.571641 0.33782 0
M  V30 3176 H 302.085 -1.35991 1.52865 0
M  V30 3177 H 302.095 -3.80574 1.47063 0
M  V30 3178 H 300.77 -3.31406 2.51283 0
M  V30 3179 H 299.347 -3.65994 0.714322 0
M  V30 3180 N 301.532 -0.945985 -1.26051 0
M  V30 3181 C 302.48 -0.450259 -2.282 0
M  V30 3182 C 303.474 0.47497 -1.62605 0
M  V30 3183 O 304.68 0.352653 -1.76512 0
M  V30 3184 H 301.055 -0.127081 -0.741184 0
M  V30 3185 H 303.026 -1.32422 -2.67408 0
M  V30 3186 C 301.775 0.26467 -3.46691 0
M  V30 3187 H 301.098 -0.438123 -3.97392 0
M  V30 3188 H 302.538 0.575678 -4.20074 0
M  V30 3189 C 300.997 1.48416 -3.02447 0
M  V30 3190 O 301.527 2.58227 -3.07704 0
M  V30 3191 N 299.733 1.34243 -2.57735 0
M  V30 3192 H 299.28 0.448994 -2.53657 0
M  V30 3193 H 299.238 2.15957 -2.28495 0
M  V30 3194 N 303.011 1.40521 -0.713556 0
M  V30 3195 C 304.257 2.01221 -0.252564 0
M  V30 3196 C 304.59 1.56444 1.1506 0
M  V30 3197 O 303.865 0.783597 1.78017 0
M  V30 3198 C 304.148 3.58582 -0.330332 0
M  V30 3199 C 304.001 4.13437 -1.77173 0
M  V30 3200 C 305.32 4.39079 0.299641 0
M  V30 3201 H 302.439 0.731077 -0.0932471 0
M  V30 3202 H 305.081 1.67026 -0.905673 0
M  V30 3203 H 303.231 3.87844 0.225737 0
M  V30 3204 H 304.903 3.9498 -2.38303 0
M  V30 3205 H 303.146 3.67801 -2.3001 0
M  V30 3206 H 303.817 5.22597 -1.77755 0
M  V30 3207 H 306.293 4.15735 -0.174139 0
M  V30 3208 H 305.169 5.4848 0.214771 0
M  V30 3209 H 305.43 4.19915 1.38288 0
M  V30 3210 N 304.489 0.459591 1.5075 0
M  V30 3211 C 305.437 -0.354678 2.2988 0
M  V30 3212 C 306.431 -1.00086 1.36672 0
M  V30 3213 O 307.637 -0.933277 1.53915 0
M  V30 3214 H 304.012 -0.13321 0.740107 0
M  V30 3215 H 305.983 0.333269 2.96533 0
M  V30 3216 C 304.732 -1.43073 3.169 0
M  V30 3217 H 304.055 -0.942882 3.88523 0
M  V30 3218 H 305.495 -1.97328 3.75284 0
M  V30 3219 C 303.954 -2.42633 2.33732 0
M  V30 3220 O 304.484 -3.47658 2.01238 0
M  V30 3221 N 302.69 -2.14066 1.9653 0
M  V30 3222 H 302.237 -1.28685 2.23155 0
M  V30 3223 H 302.195 -2.80917 1.41185 0
M  V30 3224 N 305.967 -1.56429 0.191757 0
M  V30 3225 C 306.897 -2.21937 -0.725696 0
M  V30 3226 C 307.878 -1.1814 -1.2238 0
M  V30 3227 O 309.063 -1.46636 -1.27325 0
M  V30 3228 C 306.193 -2.87611 -1.94672 0
M  V30 3229 C 305.147 -3.97623 -1.58366 0
M  V30 3230 C 304.473 -4.50446 -2.88102 0
M  V30 3231 C 305.773 -5.16197 -0.796133 0
M  V30 3232 H 307.467 -2.98861 -0.179606 0
M  V30 3233 H 305.013 -1.43749 -0.0849464 0
M  V30 3234 H 306.966 -3.3212 -2.59373 0
M  V30 3235 H 305.69 -2.08087 -2.51728 0
M  V30 3236 H 304.349 -3.53801 -0.960247 0
M  V30 3237 H 303.997 -3.67688 -3.43241 0
M  V30 3238 H 303.697 -5.24675 -2.64556 0
M  V30 3239 H 305.221 -4.97654 -3.53798 0
M  V30 3240 H 306.635 -5.57271 -1.34618 0
M  V30 3241 H 305.032 -5.96471 -0.658928 0
M  V30 3242 H 306.102 -4.84473 0.203478 0
M  V30 3243 N 307.445 0.0818655 -1.57387 0
M  V30 3244 C 308.691 0.784074 -1.8703 0
M  V30 3245 C 309.024 1.77729 -0.782689 0
M  V30 3246 O 308.299 1.93384 0.208051 0
M  V30 3247 C 308.582 1.50105 -3.27323 0
M  V30 3248 C 308.435 0.524925 -4.46727 0
M  V30 3249 C 309.754 2.44843 -3.65705 0
M  V30 3250 H 306.873 0.283582 -0.680257 0
M  V30 3251 H 309.515 0.0474352 -1.89941 0
M  V30 3252 H 307.665 2.12897 -3.24972 0
M  V30 3253 H 309.337 -0.0970111 -4.61198 0
M  V30 3254 H 307.58 -0.160606 -4.33503 0
M  V30 3255 H 308.251 1.064 -5.41648 0
M  V30 3256 H 310.727 1.92135 -3.69085 0
M  V30 3257 H 309.603 2.92018 -4.64776 0
M  V30 3258 H 309.864 3.29197 -2.95096 0
M  V30 3259 N 308.923 1.53595 0.353017 0
M  V30 3260 C 310.172 1.69603 1.09168 0
M  V30 3261 C 310.485 0.460925 1.90092 0
M  V30 3262 O 311.691 0.501774 2.66823 0
M  V30 3263 C 310.147 2.99872 1.9901 0
M  V30 3264 C 309.755 4.30687 1.23339 0
M  V30 3265 C 311.499 3.25246 2.72792 0
M  V30 3266 C 309.406 5.52036 2.12156 0
M  V30 3267 H 308.336 0.631966 0.411261 0
M  V30 3268 H 310.987 1.80096 0.351802 0
M  V30 3269 H 309.369 2.83212 2.7678 0
M  V30 3270 H 310.543 4.58019 0.505456 0
M  V30 3271 H 308.858 4.11853 0.613663 0
M  V30 3272 H 311.455 4.13095 3.39495 0
M  V30 3273 H 311.798 2.41846 3.38846 0
M  V30 3274 H 312.331 3.42638 2.021 0
M  V30 3275 H 309.07 6.37951 1.50659 0
M  V30 3276 H 308.59 5.28966 2.82764 0
M  V30 3277 H 310.269 5.87313 2.71427 0
M  V30 3278 N 310.401 -0.613514 1.45168 0
M  V30 3279 C 311.649 -1.36997 1.48581 0
M  V30 3280 C 311.97 -1.94589 0.126545 0
M  V30 3281 O 311.24 -1.76816 -0.843372 0
M  V30 3282 H 309.82 -0.508558 0.547154 0
M  V30 3283 H 312.482 -0.720853 1.81079 0
M  V30 3284 H 311.578 -2.1924 2.22127 0
M  V30 3285 N 311.879 -1.3236 -0.855495 0
M  V30 3286 C 313.104 -1.2601 -1.64731 0
M  V30 3287 C 313.529 0.169068 -1.87339 0
M  V30 3288 O 312.887 1.12016 -1.42556 0
M  V30 3289 C 312.935 -2.02417 -2.98429 0
M  V30 3290 O 312.039 -1.3714 -3.8893 0
M  V30 3291 H 311.38 -0.434325 -0.502253 0
M  V30 3292 H 313.91 -1.74661 -1.06558 0
M  V30 3293 H 313.92 -2.12559 -3.48257 0
M  V30 3294 H 312.595 -3.06343 -2.81295 0
M  V30 3295 H 311.172 -1.3554 -3.47395 0
M  V30 3296 N 313.357 1.07166 -1.15556 0
M  V30 3297 C 314.267 2.17947 -0.868116 0
M  V30 3298 C 315.283 1.73297 0.156297 0
M  V30 3299 O 316.459 2.01392 -0.0182327 0
M  V30 3300 C 313.524 3.44789 -0.36355 0
M  V30 3301 C 312.585 4.03996 -1.45209 0
M  V30 3302 C 311.818 5.24783 -0.971508 0
M  V30 3303 O 312.041 5.70109 0.182194 0
M  V30 3304 O 310.975 5.75715 -1.75603 0
M  V30 3305 H 314.801 2.4503 -1.79427 0
M  V30 3306 H 312.386 1.16539 -0.934824 0
M  V30 3307 H 314.268 4.21307 -0.0887113 0
M  V30 3308 H 312.943 3.19253 0.534708 0
M  V30 3309 H 311.85 3.29009 -1.78056 0
M  V30 3310 H 313.183 4.33808 -2.32533 0
M  V30 3311 N 314.835 0.952656 1.25548 0
M  V30 3312 C 315.767 0.428609 2.25157 0
M  V30 3313 C 316.78 -0.454428 1.56329 0
M  V30 3314 O 317.969 -0.263023 1.76552 0
M  V30 3315 C 315.069 -0.401972 3.36508 0
M  V30 3316 C 314.242 0.467601 4.34893 0
M  V30 3317 C 313.301 -0.30445 5.25319 0
M  V30 3318 O 312.327 0.296473 5.68427 0
M  V30 3319 N 313.529 -1.59805 5.5807 0
M  V30 3320 H 316.294 1.28497 2.70756 0
M  V30 3321 H 313.855 0.822798 1.39433 0
M  V30 3322 H 315.847 -0.926134 3.9396 0
M  V30 3323 H 314.417 -1.15918 2.90313 0
M  V30 3324 H 313.637 1.17288 3.76347 0
M  V30 3325 H 314.925 1.06119 4.97611 0
M  V30 3326 H 314.323 -2.10823 5.24948 0
M  V30 3327 H 312.88 -2.06822 6.18116 0
M  V30 3328 N 316.313 -1.40141 0.720998 0
M  V30 3329 C 317.59 -1.94677 0.189757 0
M  V30 3330 C 317.97 -1.65879 -1.30566 0
M  V30 3331 O 317.318 -0.979391 -2.06447 0
M  V30 3332 C 317.528 -3.45279 0.508304 0
M  V30 3333 C 318.876 -4.22209 0.449934 0
M  V30 3334 O 319.9 -3.53413 0.444677 0
M  V30 3335 O 318.759 -5.44788 0.432189 0
M  V30 3336 H 315.853 -0.826459 0.0299026 0
M  V30 3337 H 318.399 -1.49719 0.7989 0
M  V30 3338 H 317.171 -3.59619 1.54239 0
M  V30 3339 H 316.794 -3.97386 -0.130525 0
M  V30 3340 N 317.792 -0.46758 -1.50504 0
M  V30 3341 C 318.724 0.364655 -2.26281 0
M  V30 3342 C 319.737 0.960151 -1.31472 0
M  V30 3343 O 320.926 0.849153 -1.57008 0
M  V30 3344 C 318.026 1.52509 -3.02645 0
M  V30 3345 C 317.199 1.04302 -4.24782 0
M  V30 3346 C 316.258 2.07709 -4.8347 0
M  V30 3347 O 315.284 1.65913 -5.44483 0
M  V30 3348 N 316.486 3.40485 -4.70159 0
M  V30 3349 H 319.251 -0.28495 -2.98342 0
M  V30 3350 H 316.812 -0.298163 -1.59131 0
M  V30 3351 H 318.804 2.21371 -3.38787 0
M  V30 3352 H 317.374 2.07945 -2.33404 0
M  V30 3353 H 316.594 0.180393 -3.93787 0
M  V30 3354 H 317.882 0.698798 -5.03978 0
M  V30 3355 H 317.28 3.77155 -4.21629 0
M  V30 3356 H 315.837 4.05156 -5.1058 0
M  V30 3357 N 319.27 1.56325 -0.20005 0
M  V30 3358 C 320.233 2.18084 0.705132 0
M  V30 3359 C 321.233 1.13666 1.1374 0
M  V30 3360 O 322.423 1.39023 1.04968 0
M  V30 3361 C 319.555 2.78689 1.96329 0
M  V30 3362 H 320.748 2.99435 0.167023 0
M  V30 3363 H 318.301 1.56221 0.0495725 0
M  V30 3364 H 319.036 2.0115 2.5438 0
M  V30 3365 H 318.821 3.55133 1.66202 0
M  V30 3366 H 320.311 3.26096 2.60866 0
M  V30 3367 N 320.748 -0.0735177 1.57428 0
M  V30 3368 C 321.695 -1.08756 2.0357 0
M  V30 3369 C 322.665 -1.38559 0.916 0
M  V30 3370 O 323.85 -1.49656 1.18354 0
M  V30 3371 C 320.99 -2.39657 2.48311 0
M  V30 3372 C 320.103 -2.16399 3.73892 0
M  V30 3373 C 319.238 -3.40852 4.07423 0
M  V30 3374 C 318.277 -3.1295 5.2605 0
M  V30 3375 N 317.414 -4.29729 5.55228 0
M  V30 3376 H 322.254 -0.687104 2.8997 0
M  V30 3377 H 319.791 -0.327709 1.43403 0
M  V30 3378 H 321.749 -3.16081 2.72303 0
M  V30 3379 H 320.379 -2.77508 1.64891 0
M  V30 3380 H 319.431 -1.30676 3.57251 0
M  V30 3381 H 320.743 -1.91788 4.60455 0
M  V30 3382 H 319.897 -4.25671 4.32306 0
M  V30 3383 H 318.636 -3.68537 3.19425 0
M  V30 3384 H 317.641 -2.26526 5.00965 0
M  V30 3385 H 318.866 -2.86589 6.15665 0
M  V30 3386 H 316.812 -4.57448 4.70188 0
M  V30 3387 H 316.729 -4.08385 6.36206 0
M  V30 3388 H 317.997 -5.1555 5.84661 0
M  V30 3389 N 322.226 -1.5378 -0.344866 0
M  V30 3390 C 323.466 -1.72677 -1.09371 0
M  V30 3391 C 323.83 -0.479084 -1.85927 0
M  V30 3392 O 325.031 -0.54505 -2.63216 0
M  V30 3393 C 323.302 -2.95457 -2.01097 0
M  V30 3394 S 324.861 -3.35158 -2.83222 0
M  V30 3395 H 321.679 -0.607402 -0.369573 0
M  V30 3396 H 324.281 -1.91922 -0.372307 0
M  V30 3397 H 322.985 -3.84437 -1.43655 0
M  V30 3398 H 322.516 -2.78673 -2.77678 0
M  V30 3399 H 324.531 -2.88789 -4.03504 0
M  V30 3400 N 323.704 0.605807 -1.45491 0
M  V30 3401 C 324.934 1.38934 -1.52908 0
M  V30 3402 C 325.342 1.88513 -0.161086 0
M  V30 3403 O 324.685 1.62962 0.847891 0
M  V30 3404 C 324.747 2.62737 -2.45376 0
M  V30 3405 C 324.411 2.34785 -3.92078 0
M  V30 3406 C 325.408 1.95038 -4.8193 0
M  V30 3407 C 323.093 2.47642 -4.37011 0
M  V30 3408 C 325.087 1.68511 -6.14722 0
M  V30 3409 C 322.774 2.20728 -5.69844 0
M  V30 3410 C 323.772 1.81225 -6.58519 0
M  V30 3411 O 323.46 1.54627 -7.88889 0
M  V30 3412 H 323.192 0.431629 -0.520262 0
M  V30 3413 H 325.746 0.74573 -1.91384 0
M  V30 3414 H 323.976 3.29824 -2.01874 0
M  V30 3415 H 325.665 3.24783 -2.43456 0
M  V30 3416 H 326.431 1.84639 -4.48479 0
M  V30 3417 H 322.31 2.77356 -3.68232 0
M  V30 3418 H 325.854 1.37602 -6.83894 0
M  V30 3419 H 321.751 2.30744 -6.02849 0
M  V30 3420 H 322.519 1.68665 -8.00933 0
M  V30 3421 N 325.182 1.32811 0.848464 0
M  V30 3422 C 326.092 1.24278 1.98978 0
M  V30 3423 C 327.108 0.155176 1.73307 0
M  V30 3424 O 328.284 0.376999 1.9784 0
M  V30 3425 C 325.349 0.972444 3.32783 0
M  V30 3426 C 324.41 2.14911 3.71634 0
M  V30 3427 C 323.643 1.89157 4.99054 0
M  V30 3428 O 323.866 0.837165 5.64223 0
M  V30 3429 O 322.8 2.75433 5.35183 0
M  V30 3430 H 326.626 2.20238 2.09115 0
M  V30 3431 H 324.211 1.12762 0.980052 0
M  V30 3432 H 326.093 0.838432 4.12975 0
M  V30 3433 H 324.768 0.043051 3.23671 0
M  V30 3434 H 323.675 2.33862 2.91992 0
M  V30 3435 H 325.008 3.06151 3.85399 0
M  V30 3436 N 326.66 -1.06551 1.16123 0
M  V30 3437 C 327.608 -2.16063 0.861371 0
M  V30 3438 C 328.602 -1.6856 -0.168517 0
M  V30 3439 O 329.808 -1.79986 -0.0227579 0
M  V30 3440 H 326.183 -0.705278 0.260934 0
M  V30 3441 H 328.154 -2.38567 1.79244 0
M  V30 3442 C 326.903 -3.45661 0.376018 0
M  V30 3443 H 326.226 -3.82604 1.15992 0
M  V30 3444 H 327.666 -4.23504 0.204951 0
M  V30 3445 C 326.125 -3.24546 -0.903954 0
M  V30 3446 O 326.655 -3.49865 -1.97377 0
M  V30 3447 N 324.861 -2.77992 -0.846679 0
M  V30 3448 H 324.408 -2.57589 0.0241017 0
M  V30 3449 H 324.366 -2.64244 -1.70359 0
M  V30 3450 N 328.138 -0.959301 -1.25041 0
M  V30 3451 C 329.386 -0.615393 -1.92503 0
M  V30 3452 C 329.707 0.850969 -1.75452 0
M  V30 3453 O 328.977 1.60658 -1.12098 0
M  V30 3454 H 327.557 -0.224613 -0.712431 0
M  V30 3455 H 330.219 -1.21855 -1.5211 0
M  V30 3456 H 329.315 -0.848738 -3.00338 0
M  V30 3457 N 329.616 1.39756 -0.72842 0
M  V30 3458 C 330.579 2.29012 -0.0927297 0
M  V30 3459 C 331.579 1.45992 0.674025 0
M  V30 3460 O 332.769 1.66749 0.50402 0
M  V30 3461 C 329.901 3.29396 0.878137 0
M  V30 3462 H 331.094 2.86729 -0.879011 0
M  V30 3463 H 328.647 1.48293 -0.493847 0
M  V30 3464 H 329.382 2.76722 1.69101 0
M  V30 3465 H 329.167 3.907 0.331051 0
M  V30 3466 H 330.657 3.96199 1.3197 0
M  V30 3467 N 331.094 0.475555 1.50254 0
M  V30 3468 C 332.341 -0.0778919 2.0235 0
M  V30 3469 C 332.669 -1.39319 1.35722 0
M  V30 3470 O 331.924 -1.89888 0.473395 0
M  V30 3471 C 332.223 -0.305114 3.56095 0
M  V30 3472 C 331.889 0.92903 4.41225 0
M  V30 3473 C 330.551 1.26739 4.6421 0
M  V30 3474 C 332.903 1.75054 4.90923 0
M  V30 3475 C 330.231 2.42724 5.34137 0
M  V30 3476 C 332.583 2.9017 5.62125 0
M  V30 3477 C 331.247 3.24416 5.83362 0
M  V30 3478 H 330.517 -0.0285027 0.740452 0
M  V30 3479 H 333.164 0.630543 1.80821 0
M  V30 3480 H 331.469 -1.09584 3.76163 0
M  V30 3481 H 333.166 -0.747377 3.93974 0
M  V30 3482 H 329.756 0.655428 4.23559 0
M  V30 3483 H 333.94 1.50231 4.73016 0
M  V30 3484 H 329.196 2.69525 5.48786 0
M  V30 3485 H 333.37 3.54169 5.99614 0
M  V30 3486 H 330.997 4.14396 6.37323 0
M  V30 3487 N 332.573 -1.56217 0.208337 0
M  V30 3488 C 333.85 -1.89739 -0.475234 0
M  V30 3489 C 334.23 -1.1238 -1.78701 0
M  V30 3490 O 333.578 -0.228979 -2.2735 0
M  V30 3491 C 333.788 -3.42289 -0.681101 0
M  V30 3492 C 335.136 -4.12789 -0.994507 0
M  V30 3493 O 336.16 -3.47814 -0.768357 0
M  V30 3494 O 335.019 -5.27649 -1.42299 0
M  V30 3495 H 332.113 -0.788478 -0.249461 0
M  V30 3496 H 334.659 -1.67855 0.249538 0
M  V30 3497 H 333.431 -3.90534 0.244722 0
M  V30 3498 H 333.054 -3.69909 -1.45785 0
M  V30 3499 N 334.051 0.0651679 -1.57465 0
M  V30 3500 C 334.961 1.09448 -2.07505 0
M  V30 3501 C 335.977 1.41974 -1.00595 0
M  V30 3502 O 337.153 1.52018 -1.32107 0
M  V30 3503 C 334.218 2.38689 -2.51453 0
M  V30 3504 C 333.279 2.13073 -3.72691 0
M  V30 3505 C 332.512 3.36152 -4.14533 0
M  V30 3506 O 332.735 4.45517 -3.56189 0
M  V30 3507 O 331.669 3.23974 -5.07272 0
M  V30 3508 H 335.495 0.69935 -2.95538 0
M  V30 3509 H 333.08 0.279752 -1.46757 0
M  V30 3510 H 334.962 3.14736 -2.80212 0
M  V30 3511 H 333.637 2.77568 -1.66546 0
M  V30 3512 H 332.544 1.34709 -3.49005 0
M  V30 3513 H 333.877 1.79071 -4.5847 0
M  V30 3514 N 335.529 1.53961 0.336706 0
M  V30 3515 C 336.776 1.71536 1.07618 0
M  V30 3516 C 337.104 0.482125 1.8843 0
M  V30 3517 O 336.359 -0.536142 1.88213 0
M  V30 3518 C 336.658 2.93493 2.03953 0
M  V30 3519 C 336.324 4.28811 1.39399 0
M  V30 3520 C 334.986 4.65602 1.21523 0
M  V30 3521 C 337.338 5.12844 0.929541 0
M  V30 3522 C 334.666 5.84037 0.558312 0
M  V30 3523 C 337.018 6.31951 0.286505 0
M  V30 3524 C 335.682 6.67432 0.0954869 0
M  V30 3525 H 334.952 0.627696 0.393801 0
M  V30 3526 H 337.599 1.88186 0.354715 0
M  V30 3527 H 335.904 2.71475 2.82504 0
M  V30 3528 H 337.601 3.04285 2.61174 0
M  V30 3529 H 334.191 3.99858 1.54311 0
M  V30 3530 H 338.375 4.84947 1.05548 0
M  V30 3531 H 333.631 6.10097 0.398995 0
M  V30 3532 H 337.805 6.96352 -0.0814376 0
M  V30 3533 H 335.432 7.59063 -0.415579 0
M  V30 3534 N 337.007 -0.598083 1.45811 0
M  V30 3535 C 338.256 -1.35295 1.49594 0
M  V30 3536 C 338.569 -1.95057 0.145679 0
M  V30 3537 O 339.775 -2.71431 0.0612099 0
M  V30 3538 C 338.231 -2.45124 2.63519 0
M  V30 3539 C 337.839 -1.91732 4.04899 0
M  V30 3540 C 339.583 -3.2205 2.76558 0
M  V30 3541 C 337.49 -2.991 5.1019 0
M  V30 3542 H 336.42 -0.508552 0.556679 0
M  V30 3543 H 339.071 -0.639977 1.71978 0
M  V30 3544 H 337.453 -3.19149 2.34435 0
M  V30 3545 H 338.627 -1.24352 4.43704 0
M  V30 3546 H 336.942 -1.27522 3.96393 0
M  V30 3547 H 339.539 -4.0215 3.52391 0
M  V30 3548 H 339.882 -3.73663 1.83526 0
M  V30 3549 H 340.415 -2.55127 3.05213 0
M  V30 3550 H 337.154 -2.52393 6.04961 0
M  V30 3551 H 336.674 -3.65017 4.75944 0
M  V30 3552 H 338.353 -3.63318 5.35359 0
M  V30 3553 N 338.485 -1.33259 -0.841409 0
M  V30 3554 C 339.734 -1.23921 -1.59143 0
M  V30 3555 C 340.047 0.1941 -1.94635 0
M  V30 3556 O 341.253 0.409474 -2.68394 0
M  V30 3557 C 339.709 -2.17119 -2.87032 0
M  V30 3558 C 339.317 -3.65606 -2.58914 0
M  V30 3559 C 341.061 -2.16648 -3.65053 0
M  V30 3560 C 338.968 -4.50726 -3.82884 0
M  V30 3561 H 337.898 -0.460264 -0.597221 0
M  V30 3562 H 340.549 -1.58307 -0.927959 0
M  V30 3563 H 338.931 -1.75663 -3.54906 0
M  V30 3564 H 340.105 -4.15487 -1.99267 0
M  V30 3565 H 338.42 -3.68341 -1.942 0
M  V30 3566 H 341.017 -2.77474 -4.57069 0
M  V30 3567 H 341.36 -1.16088 -3.99787 0
M  V30 3568 H 341.893 -2.56453 -3.041 0
M  V30 3569 H 338.632 -5.52151 -3.53283 0
M  V30 3570 H 338.152 -4.0559 -4.41879 0
M  V30 3571 H 339.831 -4.64401 -4.50489 0
M  V30 3572 N 339.963 1.05934 -1.16686 0
M  V30 3573 C 341.209 1.79211 -0.962023 0
M  V30 3574 C 341.564 1.85667 0.504545 0
M  V30 3575 O 340.857 1.33991 1.36956 0
M  V30 3576 C 341.051 3.23105 -1.52767 0
M  V30 3577 C 340.88 3.30673 -3.04771 0
M  V30 3578 C 339.65 3.40395 -3.73442 0
M  V30 3579 C 341.848 3.20234 -4.02436 0
M  V30 3580 N 339.83 3.37015 -5.13122 0
M  V30 3581 C 341.201 3.24138 -5.28521 0
M  V30 3582 C 343.256 3.04143 -3.9421 0
M  V30 3583 C 341.959 3.13607 -6.47336 0
M  V30 3584 C 343.985 2.94951 -5.12599 0
M  V30 3585 C 343.347 2.99481 -6.37566 0
M  V30 3586 H 339.446 0.668442 -0.405844 0
M  V30 3587 H 342.03 1.26341 -1.48142 0
M  V30 3588 H 340.201 3.74364 -1.03471 0
M  V30 3589 H 341.933 3.84579 -1.26021 0
M  V30 3590 H 338.688 3.45344 -3.2409 0
M  V30 3591 H 339.112 3.38815 -5.86117 0
M  V30 3592 H 343.754 2.99484 -2.98445 0
M  V30 3593 H 341.472 3.17022 -7.43319 0
M  V30 3594 H 345.058 2.83583 -5.08008 0
M  V30 3595 H 343.938 2.92431 -7.27636 0
M  V30 3596 N 341.441 0.965919 1.2453 0
M  V30 3597 C 342.351 0.502154 2.29163 0
M  V30 3598 C 343.367 -0.436017 1.68448 0
M  V30 3599 O 344.543 -0.309497 1.99008 0
M  V30 3600 C 341.608 -0.201956 3.46111 0
M  V30 3601 C 340.669 0.775821 4.22232 0
M  V30 3602 C 339.902 0.105217 5.33596 0
M  V30 3603 O 340.125 -1.10683 5.59558 0
M  V30 3604 O 339.059 0.796475 5.96607 0
M  V30 3605 H 342.885 1.37194 2.70946 0
M  V30 3606 H 340.47 0.732875 1.30189 0
M  V30 3607 H 342.352 -0.597564 4.17142 0
M  V30 3608 H 341.027 -1.04673 3.06309 0
M  V30 3609 H 339.934 1.22185 3.53584 0
M  V30 3610 H 341.267 1.58896 4.65846 0
M  V30 3611 N 342.919 -1.39368 0.735821 0
M  V30 3612 C 344.335 -1.54204 0.411492 0
M  V30 3613 C 344.535 -1.70268 -1.07755 0
M  V30 3614 O 343.591 -1.70364 -1.86366 0
M  V30 3615 C 344.904 -2.75925 1.19523 0
M  V30 3616 C 346.452 -2.89761 1.18354 0
M  V30 3617 C 346.927 -4.14421 1.94986 0
M  V30 3618 N 348.418 -4.21462 1.92156 0
M  V30 3619 C 349.153 -5.16871 2.48258 0
M  V30 3620 N 348.649 -6.18063 3.13001 0
M  V30 3621 N 350.442 -5.09093 2.38287 0
M  V30 3622 H 342.593 -1.27189 1.70108 0
M  V30 3623 H 344.856 -0.616517 0.720147 0
M  V30 3624 H 344.562 -2.70401 2.24892 0
M  V30 3625 H 344.436 -3.68614 0.800222 0
M  V30 3626 H 346.823 -2.94777 0.137975 0
M  V30 3627 H 346.904 -1.98133 1.61793 0
M  V30 3628 H 346.548 -4.10166 2.99543 0
M  V30 3629 H 346.478 -5.05095 1.48953 0
M  V30 3630 H 348.969 -3.48979 1.44991 0
M  V30 3631 H 349.282 -6.87326 3.53275 0
M  V30 3632 H 347.627 -6.18448 3.17091 0
M  V30 3633 H 350.818 -4.28973 1.8735 0
M  V30 3634 H 350.991 -5.83272 2.82308 0
M  V30 3635 N 344.397 -0.483516 -1.5 0
M  V30 3636 C 345.36 0.292965 -2.2732 0
M  V30 3637 C 346.36 0.909499 -1.32608 0
M  V30 3638 O 347.55 0.776745 -1.55924 0
M  V30 3639 C 344.682 1.41854 -3.09984 0
M  V30 3640 H 345.875 -0.385289 -2.97415 0
M  V30 3641 H 343.428 -0.237942 -1.54478 0
M  V30 3642 H 344.163 2.13148 -2.44414 0
M  V30 3643 H 343.948 0.982114 -3.79601 0
M  V30 3644 H 345.438 1.96597 -3.68429 0
M  V30 3645 N 345.875 1.56104 -0.216619 0
M  V30 3646 C 346.805 2.23063 0.690296 0
M  V30 3647 C 347.786 1.20072 1.20485 0
M  V30 3648 O 348.971 1.48643 1.24976 0
M  V30 3649 C 346.101 2.90672 1.90072 0
M  V30 3650 C 345.055 4.00092 1.5202 0
M  V30 3651 C 344.381 4.54972 2.80899 0
M  V30 3652 C 345.681 5.17398 0.71391 0
M  V30 3653 H 347.375 2.99109 0.132038 0
M  V30 3654 H 344.921 1.43866 0.0620664 0
M  V30 3655 H 346.874 3.36204 2.54057 0
M  V30 3656 H 345.598 2.12066 2.48386 0
M  V30 3657 H 344.257 3.55283 0.903839 0
M  V30 3658 H 343.905 3.73102 3.37348 0
M  V30 3659 H 343.605 5.28817 2.56176 0
M  V30 3660 H 345.129 5.0322 3.45836 0
M  V30 3661 H 346.543 5.59342 1.25735 0
M  V30 3662 H 344.94 5.97444 0.563951 0
M  V30 3663 H 346.01 4.84088 -0.280527 0
M  V30 3664 N 347.353 -0.0568162 1.57498 0
M  V30 3665 C 348.581 -0.765626 1.92213 0
M  V30 3666 C 348.996 -1.70353 0.813961 0
M  V30 3667 O 348.353 -1.81268 -0.211701 0
M  V30 3668 C 348.404 -1.5465 3.2675 0
M  V30 3669 O 348.125 -0.646278 4.33307 0
M  V30 3670 C 349.626 -2.35497 3.75574 0
M  V30 3671 H 346.846 -0.216835 0.634999 0
M  V30 3672 H 349.39 -0.0226146 2.04487 0
M  V30 3673 H 347.545 -2.24165 3.15957 0
M  V30 3674 H 347.959 -1.19093 5.108 0
M  V30 3675 H 349.433 -2.85722 4.72299 0
M  V30 3676 H 349.91 -3.15692 3.05344 0
M  V30 3677 H 350.516 -1.7111 3.8936 0
M  V30 3678 N 348.832 -1.54138 -0.328536 0
M  V30 3679 C 350.243 -1.63395 -0.903272 0
M  V30 3680 C 350.594 -0.524828 -1.8905 0
M  V30 3681 O 349.719 0.343068 -2.13663 0
M  V30 3682 C 350.314 -2.9618 -1.64507 0
M  V30 3683 C 348.873 -3.0765 -2.1686 0
M  V30 3684 C 348.02 -2.58933 -0.992416 0
M  V30 3685 H 350.971 -1.58344 -0.106253 0
M  V30 3686 H 350.992 -2.86061 -2.50897 0
M  V30 3687 H 350.504 -3.76884 -0.926302 0
M  V30 3688 H 348.605 -2.31611 -2.91868 0
M  V30 3689 H 348.718 -4.1337 -2.42202 0
M  V30 3690 H 347.082 -2.14706 -1.37016 0
M  V30 3691 H 347.865 -3.42089 -0.288041 0
M  V30 3692 N 350.31 0.590341 -1.46126 0
M  V30 3693 C 351.587 1.35029 -1.41515 0
M  V30 3694 C 351.967 2.10888 -0.0946472 0
M  V30 3695 O 351.315 2.08998 0.923693 0
M  V30 3696 C 351.525 2.28269 -2.63997 0
M  V30 3697 C 352.873 2.90338 -3.09821 0
M  V30 3698 O 353.897 2.38585 -2.64492 0
M  V30 3699 O 352.756 3.84321 -3.88535 0
M  V30 3700 H 349.85 0.606317 -0.562413 0
M  V30 3701 H 352.396 0.611994 -1.58281 0
M  V30 3702 H 351.168 1.71591 -3.51671 0
M  V30 3703 H 350.791 3.0945 -2.49652 0
M  V30 3704 N 351.788 1.33704 0.83433 0
M  V30 3705 C 352.698 1.26382 1.97648 0
M  V30 3706 C 353.714 0.173548 1.73132 0
M  V30 3707 O 354.89 0.397962 1.97429 0
M  V30 3708 C 351.955 1.00769 3.31733 0
M  V30 3709 C 351.016 2.1884 3.69334 0
M  V30 3710 C 350.249 1.9444 4.9702 0
M  V30 3711 O 350.472 0.896961 5.63303 0
M  V30 3712 O 349.406 2.81093 5.32231 0
M  V30 3713 H 353.232 2.22444 2.06767 0
M  V30 3714 H 350.817 1.13795 0.968037 0
M  V30 3715 H 352.699 0.882186 4.12062 0
M  V30 3716 H 351.374 0.0773783 3.23608 0
M  V30 3717 H 350.281 2.36946 2.89495 0
M  V30 3718 H 351.614 3.10221 3.82131 0
M  V30 3719 N 353.266 -1.05314 1.17247 0
M  V30 3720 C 354.515 -1.77685 0.954521 0
M  V30 3721 C 354.828 -1.88616 -0.518025 0
M  V30 3722 O 356.034 -2.57714 -0.854144 0
M  V30 3723 C 354.49 -3.19402 1.65863 0
M  V30 3724 C 354.098 -3.16605 3.16963 0
M  V30 3725 C 355.842 -3.96237 1.52303 0
M  V30 3726 C 353.749 -4.53103 3.80068 0
M  V30 3727 H 352.679 -0.666 0.353496 0
M  V30 3728 H 355.33 -1.1805 1.40486 0
M  V30 3729 H 353.712 -3.79355 1.13602 0
M  V30 3730 H 354.886 -2.66176 3.76148 0
M  V30 3731 H 353.201 -2.53268 3.30521 0
M  V30 3732 H 355.798 -4.97157 1.96822 0
M  V30 3733 H 356.141 -4.136 0.473401 0
M  V30 3734 H 356.674 -3.42829 2.01775 0
M  V30 3735 H 353.413 -4.40946 4.85023 0
M  V30 3736 H 352.933 -5.03686 3.2567 0
M  V30 3737 H 354.612 -5.22045 3.82202 0
M  V30 3738 N 354.744 -0.972509 -1.24016 0
M  V30 3739 C 355.707 -0.511403 -2.23422 0
M  V30 3740 C 356.707 0.394679 -1.55881 0
M  V30 3741 O 357.897 0.189469 -1.73167 0
M  V30 3742 C 355.029 0.258769 -3.39916 0
M  V30 3743 H 356.222 -1.39024 -2.6573 0
M  V30 3744 H 353.775 -0.757585 -1.36713 0
M  V30 3745 H 354.51 1.1545 -3.03054 0
M  V30 3746 H 354.295 -0.391522 -3.9014 0
M  V30 3747 H 355.785 0.570244 -4.13688 0
M  V30 3748 N 356.222 1.38976 -0.743202 0
M  V30 3749 C 357.155 2.28128 -0.0572165 0
M  V30 3750 C 358.133 1.44827 0.739182 0
M  V30 3751 O 359.317 1.74207 0.720009 0
M  V30 3752 C 356.444 3.25796 0.926001 0
M  V30 3753 C 355.49 4.25947 0.217099 0
M  V30 3754 S 356.323 5.24604 -1.07477 0
M  V30 3755 C 357.479 6.25829 -0.0943545 0
M  V30 3756 H 357.712 2.85961 -0.813246 0
M  V30 3757 H 355.245 1.44822 -0.535341 0
M  V30 3758 H 357.203 3.82583 1.48797 0
M  V30 3759 H 355.864 2.66966 1.65493 0
M  V30 3760 H 355.057 4.94746 0.961372 0
M  V30 3761 H 354.659 3.73002 -0.273059 0
M  V30 3762 H 356.951 6.73411 0.743239 0
M  V30 3763 H 357.894 7.0412 -0.749713 0
M  V30 3764 H 358.302 5.63797 0.281706 0
M  V30 3765 N 357.7 0.491464 1.49741 0
M  V30 3766 C 358.93 -0.0534375 2.06531 0
M  V30 3767 C 359.338 -1.32233 1.35318 0
M  V30 3768 O 358.681 -1.78781 0.422243 0
M  V30 3769 C 358.743 -0.387034 3.57411 0
M  V30 3770 C 358.407 0.782764 4.50246 0
M  V30 3771 C 359.404 1.67059 4.92329 0
M  V30 3772 C 357.089 0.978866 4.9267 0
M  V30 3773 C 359.083 2.73874 5.75562 0
M  V30 3774 C 356.77 2.05022 5.75682 0
M  V30 3775 C 357.768 2.92851 6.17031 0
M  V30 3776 O 357.456 3.98138 6.98385 0
M  V30 3777 H 357.188 0.0129324 0.675876 0
M  V30 3778 H 359.742 0.685238 1.93633 0
M  V30 3779 H 357.972 -1.17918 3.68283 0
M  V30 3780 H 359.661 -0.869419 3.96479 0
M  V30 3781 H 360.427 1.53086 4.60206 0
M  V30 3782 H 356.306 0.304646 4.59992 0
M  V30 3783 H 359.85 3.42458 6.07757 0
M  V30 3784 H 355.747 2.18993 6.07217 0
M  V30 3785 H 356.515 3.95374 7.16674 0
M  V30 3786 N 359.178 -1.55987 0.224894 0
M  V30 3787 C 360.425 -1.9839 -0.4059 0
M  V30 3788 C 360.753 -1.11261 -1.59535 0
M  V30 3789 O 360.008 -0.158314 -1.95059 0
M  V30 3790 C 360.307 -3.46394 -0.880106 0
M  V30 3791 C 359.973 -4.5046 0.19918 0
M  V30 3792 C 358.635 -4.7864 0.495661 0
M  V30 3793 C 360.987 -5.12855 0.928939 0
M  V30 3794 C 358.315 -5.66497 1.52636 0
M  V30 3795 C 360.667 -6.01828 1.949 0
M  V30 3796 C 359.331 -6.28351 2.25236 0
M  V30 3797 H 358.601 -0.725961 -0.148529 0
M  V30 3798 H 361.248 -1.88668 0.328113 0
M  V30 3799 H 359.553 -3.53337 -1.69294 0
M  V30 3800 H 361.25 -3.76577 -1.37808 0
M  V30 3801 H 357.84 -4.28579 -0.0420526 0
M  V30 3802 H 362.024 -4.9115 0.713129 0
M  V30 3803 H 357.28 -5.8531 1.76698 0
M  V30 3804 H 361.454 -6.49225 2.51951 0
M  V30 3805 H 359.081 -6.96226 3.05244 0
M  V30 3806 N 360.656 0.0484629 -1.57525 0
M  V30 3807 C 361.884 0.755421 -1.92616 0
M  V30 3808 C 362.299 1.69919 -0.822984 0
M  V30 3809 O 361.656 1.81378 0.202085 0
M  V30 3810 C 361.707 1.52915 -3.27566 0
M  V30 3811 O 361.428 0.62329 -4.33644 0
M  V30 3812 C 362.929 2.33502 -3.76818 0
M  V30 3813 H 360.149 0.213465 -0.63614 0
M  V30 3814 H 362.693 0.0117698 -2.04497 0
M  V30 3815 H 360.848 2.22486 -3.17142 0
M  V30 3816 H 361.262 1.16383 -5.11425 0
M  V30 3817 H 362.736 2.83214 -4.73808 0
M  V30 3818 H 363.213 3.14068 -3.07014 0
M  V30 3819 H 363.819 1.69043 -3.90262 0
M  V30 3820 N 362.134 1.5431 0.320358 0
M  V30 3821 C 363.097 1.83195 1.3774 0
M  V30 3822 C 364.097 0.703906 1.44575 0
M  V30 3823 O 365.287 0.972214 1.44546 0
M  V30 3824 C 362.419 1.99487 2.76438 0
M  V30 3825 H 363.612 2.77642 1.1338 0
M  V30 3826 H 361.165 1.46076 0.556012 0
M  V30 3827 H 361.9 1.07262 3.06048 0
M  V30 3828 H 361.685 2.81575 2.7287 0
M  V30 3829 H 363.175 2.23271 3.52902 0
M  V30 3830 N 363.613 -0.582584 1.46437 0
M  V30 3831 C 364.576 -1.67366 1.56592 0
M  V30 3832 C 365.576 -1.54575 0.443072 0
M  V30 3833 O 366.766 -1.59191 0.707381 0
M  V30 3834 C 363.898 -3.06791 1.48634 0
M  V30 3835 H 365.091 -1.5972 2.5383 0
M  V30 3836 H 362.644 -0.800432 1.34249 0
M  V30 3837 H 363.379 -3.19993 0.526763 0
M  V30 3838 H 363.164 -3.17484 2.30101 0
M  V30 3839 H 364.654 -3.86218 1.58826 0
M  V30 3840 N 365.091 -1.34144 -0.827227 0
M  V30 3841 C 366.34 -1.25602 -1.5782 0
M  V30 3842 C 366.653 0.173445 -1.94829 0
M  V30 3843 O 367.859 0.380984 -2.68814 0
M  V30 3844 C 366.315 -2.20151 -2.84713 0
M  V30 3845 C 365.923 -3.68331 -2.55021 0
M  V30 3846 C 367.667 -2.20508 -3.62735 0
M  V30 3847 C 365.574 -4.54762 -3.78082 0
M  V30 3848 H 364.504 -0.466573 -0.592306 0
M  V30 3849 H 367.155 -1.59283 -0.911116 0
M  V30 3850 H 365.537 -1.79417 -3.53023 0
M  V30 3851 H 366.711 -4.17577 -1.94849 0
M  V30 3852 H 365.026 -3.7038 -1.90283 0
M  V30 3853 H 367.623 -2.82306 -4.54101 0
M  V30 3854 H 367.966 -1.20322 -3.98533 0
M  V30 3855 H 368.499 -2.59664 -3.01362 0
M  V30 3856 H 365.238 -5.55867 -3.47407 0
M  V30 3857 H 364.758 -4.10254 -4.37552 0
M  V30 3858 H 366.437 -4.69153 -4.45538 0
M  V30 3859 N 366.569 1.04691 -1.17803 0
M  V30 3860 C 367.817 1.7743 -0.967617 0
M  V30 3861 C 368.138 1.88359 0.504574 0
M  V30 3862 O 367.408 1.40402 1.36617 0
M  V30 3863 H 365.988 0.657242 -0.355024 0
M  V30 3864 H 368.65 1.2638 -1.48371 0
M  V30 3865 H 367.746 2.78924 -1.40027 0
M  V30 3866 N 368.047 0.979072 1.23499 0
M  V30 3867 C 368.994 0.517904 2.24914 0
M  V30 3868 C 369.964 -0.442525 1.60097 0
M  V30 3869 O 371.149 -0.350365 1.87556 0
M  V30 3870 C 368.289 -0.174813 3.44657 0
M  V30 3871 C 367.402 0.825721 4.24035 0
M  V30 3872 C 366.537 0.107946 5.3109 0
M  V30 3873 C 365.576 1.09778 6.02175 0
M  V30 3874 N 364.713 0.40925 7.00906 0
M  V30 3875 H 369.553 1.38751 2.63727 0
M  V30 3876 H 367.09 0.695303 1.2963 0
M  V30 3877 H 369.048 -0.593233 4.12961 0
M  V30 3878 H 367.678 -1.0083 3.06648 0
M  V30 3879 H 366.73 1.36253 3.55161 0
M  V30 3880 H 368.042 1.58005 4.73113 0
M  V30 3881 H 367.196 -0.367904 6.05583 0
M  V30 3882 H 365.935 -0.678994 4.8295 0
M  V30 3883 H 364.94 1.5844 5.26476 0
M  V30 3884 H 366.165 1.88536 6.52404 0
M  V30 3885 H 364.111 -0.358506 6.5502 0
M  V30 3886 H 364.028 1.10226 7.47921 0
M  V30 3887 H 365.296 -0.0442557 7.79487 0
M  V30 3888 N 369.525 -1.3858 0.750561 0
M  V30 3889 C 370.475 -2.27795 0.0965949 0
M  V30 3890 C 371.459 -1.45048 -0.696411 0
M  V30 3891 O 372.651 -1.67812 -0.562863 0
M  V30 3892 C 369.78 -3.33894 -0.798085 0
M  V30 3893 C 368.866 -4.241 0.0016067 0
M  V30 3894 N 369.257 -4.95067 1.03647 0
M  V30 3895 C 367.555 -4.45429 -0.225674 0
M  V30 3896 C 368.256 -5.61489 1.52004 0
M  V30 3897 N 367.232 -5.37135 0.835874 0
M  V30 3898 H 371.034 -2.80125 0.889228 0
M  V30 3899 H 368.548 -1.51446 0.586323 0
M  V30 3900 H 370.545 -3.96693 -1.28219 0
M  V30 3901 H 369.205 -2.83123 -1.5897 0
M  V30 3902 H 370.216 -4.98104 1.41819 0
M  V30 3903 H 366.893 -4.05571 -0.990872 0
M  V30 3904 H 368.283 -6.28264 2.38188 0
M  V30 3905 N 371.003 -0.499398 -1.49478 0
M  V30 3906 C 371.966 0.268838 -2.27618 0
M  V30 3907 C 372.966 0.895383 -1.33565 0
M  V30 3908 O 374.156 0.760164 -1.56739 0
M  V30 3909 C 371.288 1.38559 -3.11471 0
M  V30 3910 H 372.481 -0.416812 -2.96989 0
M  V30 3911 H 370.034 -0.254313 -1.54217 0
M  V30 3912 H 370.769 2.10544 -2.46661 0
M  V30 3913 H 370.554 0.941797 -3.80621 0
M  V30 3914 H 372.044 1.92678 -3.70493 0
M  V30 3915 N 372.481 1.55866 -0.233164 0
M  V30 3916 C 373.411 2.23783 0.666599 0
M  V30 3917 C 374.392 1.21343 1.19205 0
M  V30 3918 O 375.577 1.4996 1.23392 0
M  V30 3919 C 372.707 2.92671 1.86978 0
M  V30 3920 C 371.661 4.01682 1.47768 0
M  V30 3921 C 370.987 4.57926 2.76058 0
M  V30 3922 C 372.287 5.18126 0.658993 0
M  V30 3923 H 373.981 2.99232 0.100306 0
M  V30 3924 H 371.527 1.43924 0.046804 0
M  V30 3925 H 373.48 3.3888 2.50476 0
M  V30 3926 H 372.204 2.14688 2.46123 0
M  V30 3927 H 370.863 3.56222 0.866106 0
M  V30 3928 H 370.511 3.76659 3.33372 0
M  V30 3929 H 370.211 5.31505 2.50552 0
M  V30 3930 H 371.735 5.06859 3.40479 0
M  V30 3931 H 373.149 5.60644 1.19795 0
M  V30 3932 H 371.546 5.98009 0.500552 0
M  V30 3933 H 372.616 4.83763 -0.331856 0
M  V30 3934 N 373.959 -0.0401083 1.57549 0
M  V30 3935 C 374.889 -1.04384 2.08869 0
M  V30 3936 C 375.87 -1.38407 0.988817 0
M  V30 3937 O 377.055 -1.47483 1.26342 0
M  V30 3938 C 374.185 -2.34808 2.55895 0
M  V30 3939 C 373.139 -2.15057 3.70047 0
M  V30 3940 C 372.465 -3.51145 4.03239 0
M  V30 3941 C 373.765 -1.54576 4.98902 0
M  V30 3942 H 375.459 -0.616666 2.92981 0
M  V30 3943 H 373.005 -0.295184 1.40942 0
M  V30 3944 H 374.958 -3.05346 2.90417 0
M  V30 3945 H 373.682 -2.79565 1.68853 0
M  V30 3946 H 372.341 -1.46954 3.35857 0
M  V30 3947 H 371.989 -3.93529 3.13279 0
M  V30 3948 H 371.689 -3.38758 4.80122 0
M  V30 3949 H 373.213 -4.23062 4.40285 0
M  V30 3950 H 374.627 -2.15017 5.31451 0
M  V30 3951 H 373.024 -1.52796 5.80322 0
M  V30 3952 H 374.094 -0.51039 4.82206 0
M  V30 3953 N 375.437 -1.54477 -0.31217 0
M  V30 3954 C 376.662 -1.77526 -1.07235 0
M  V30 3955 C 377.087 -0.527775 -1.80544 0
M  V30 3956 O 376.445 0.52121 -1.73646 0
M  V30 3957 C 376.493 -2.97535 -2.03728 0
M  V30 3958 O 375.597 -2.69878 -3.11833 0
M  V30 3959 H 374.938 -0.58792 -0.30862 0
M  V30 3960 H 377.468 -2.01532 -0.352993 0
M  V30 3961 H 377.478 -3.25198 -2.46395 0
M  V30 3962 H 376.153 -3.87996 -1.49774 0
M  V30 3963 H 374.73 -2.53199 -2.7376 0
M  V30 3964 N 376.915 0.57481 -1.46744 0
M  V30 3965 C 378.14 1.36341 -1.56288 0
M  V30 3966 C 378.565 1.86954 -0.207347 0
M  V30 3967 O 377.923 1.62006 0.813871 0
M  V30 3968 C 377.971 2.52147 -2.57787 0
M  V30 3969 O 377.075 3.53834 -2.11838 0
M  V30 3970 H 376.416 0.405713 -0.525636 0
M  V30 3971 H 378.946 0.696453 -1.92382 0
M  V30 3972 H 378.956 2.98958 -2.77648 0
M  V30 3973 H 377.631 2.14663 -3.5622 0
M  V30 3974 H 376.208 3.1345 -2.01999 0
M  V30 3975 N 378.394 1.34581 0.820102 0
M  V30 3976 C 379.622 1.3018 1.60813 0
M  V30 3977 C 380.037 -0.123551 1.88395 0
M  V30 3978 O 379.394 -1.07148 1.47735 0
M  V30 3979 C 379.445 2.09312 2.94739 0
M  V30 3980 O 379.166 3.46288 2.68358 0
M  V30 3981 C 380.667 2.1234 3.89136 0
M  V30 3982 H 377.887 0.447726 0.499782 0
M  V30 3983 H 380.431 1.77237 1.02017 0
M  V30 3984 H 378.586 1.65889 3.50085 0
M  V30 3985 H 379 3.87227 3.53774 0
M  V30 3986 H 380.474 2.72126 4.80262 0
M  V30 3987 H 380.951 1.11854 4.24718 0
M  V30 3988 H 381.557 2.55864 3.39726 0
M  V30 3989 N 379.872 -1.04064 1.18357 0
M  V30 3990 C 380.802 -2.14001 0.934113 0
M  V30 3991 C 381.783 -1.69616 -0.128186 0
M  V30 3992 O 382.968 -1.94185 0.0244093 0
M  V30 3993 C 380.098 -3.44253 0.459066 0
M  V30 3994 C 379.052 -4.02261 1.46185 0
M  V30 3995 C 378.378 -5.27992 0.844322 0
M  V30 3996 C 379.678 -4.38432 2.83856 0
M  V30 3997 H 381.372 -2.35127 1.85352 0
M  V30 3998 H 378.918 -1.12998 0.892604 0
M  V30 3999 H 380.871 -4.20522 0.271907 0
M  V30 4000 H 379.595 -3.22813 -0.495912 0
M  V30 4001 H 378.254 -3.28074 1.63595 0
M  V30 4002 H 377.902 -5.02862 -0.117845 0
M  V30 4003 H 377.602 -5.67765 1.51384 0
M  V30 4004 H 379.126 -6.06938 0.667693 0
M  V30 4005 H 380.54 -5.05688 2.70098 0
M  V30 4006 H 378.937 -4.89254 3.47491 0
M  V30 4007 H 380.007 -3.4826 3.37406 0
M  V30 4008 N 381.35 -0.985608 -1.22978 0
M  V30 4009 C 382.761 -0.693593 -1.73338 0
M  V30 4010 C 383.112 0.789935 -1.79595 0
M  V30 4011 O 382.237 1.61771 -1.43733 0
M  V30 4012 C 382.832 -1.25235 -3.14804 0
M  V30 4013 C 381.391 -1.00987 -3.626 0
M  V30 4014 C 380.538 -1.37695 -2.40698 0
M  V30 4015 H 383.489 -1.15884 -1.08428 0
M  V30 4016 H 383.51 -0.627329 -3.75293 0
M  V30 4017 H 383.022 -2.33209 -3.10218 0
M  V30 4018 H 381.123 0.0535565 -3.72562 0
M  V30 4019 H 381.236 -1.66812 -4.49122 0
M  V30 4020 H 379.6 -0.795459 -2.4196 0
M  V30 4021 H 380.383 -2.46657 -2.38779 0
M  V30 4022 N 382.828 1.3818 -0.7579 0
M  V30 4023 C 384.053 2.04827 -0.325679 0
M  V30 4024 C 384.478 1.56788 1.03919 0
M  V30 4025 O 383.836 0.721811 1.66312 0
M  V30 4026 C 383.884 3.58774 -0.362447 0
M  V30 4027 O 382.988 4.07372 0.642033 0
M  V30 4028 H 382.329 0.64833 -0.143402 0
M  V30 4029 H 384.859 1.7677 -1.03023 0
M  V30 4030 H 384.869 4.07434 -0.214844 0
M  V30 4031 H 383.544 3.93096 -1.35824 0
M  V30 4032 H 382.121 3.70068 0.458688 0
M  V30 4033 N 384.306 0.507319 1.49211 0
M  V30 4034 C 385.236 -0.256939 2.32082 0
M  V30 4035 C 386.217 -0.956609 1.40652 0
M  V30 4036 O 387.402 -0.946788 1.69557 0
M  V30 4037 C 384.532 -1.31802 3.21318 0
M  V30 4038 C 383.486 -0.737855 4.21592 0
M  V30 4039 C 382.812 -1.89992 4.99807 0
M  V30 4040 C 384.112 0.275325 5.21574 0
M  V30 4041 H 385.806 0.434798 2.96226 0
M  V30 4042 H 383.352 0.210546 1.42452 0
M  V30 4043 H 385.305 -1.86045 3.78107 0
M  V30 4044 H 384.029 -2.03903 2.5513 0
M  V30 4045 H 382.688 -0.217126 3.65956 0
M  V30 4046 H 382.336 -2.60877 4.30061 0
M  V30 4047 H 382.036 -1.51777 5.6766 0
M  V30 4048 H 383.56 -2.44657 5.59442 0
M  V30 4049 H 384.974 -0.179193 5.7302 0
M  V30 4050 H 383.371 0.573649 5.97352 0
M  V30 4051 H 384.441 1.18903 4.70096 0
M  V30 4052 N 385.784 -1.5574 0.241426 0
M  V30 4053 C 387.031 -1.9881 -0.384836 0
M  V30 4054 C 387.359 -1.12947 -1.58346 0
M  V30 4055 O 386.614 -0.178993 -1.9488 0
M  V30 4056 C 386.913 -3.47308 -0.843317 0
M  V30 4057 C 386.579 -4.50223 0.246946 0
M  V30 4058 C 385.241 -4.78088 0.546399 0
M  V30 4059 C 387.593 -5.11841 0.983282 0
M  V30 4060 C 384.921 -5.64846 1.58636 0
M  V30 4061 C 387.273 -5.99727 2.01272 0
M  V30 4062 C 385.937 -6.25927 2.31888 0
M  V30 4063 H 385.207 -0.727496 -0.140821 0
M  V30 4064 H 387.854 -1.8831 0.348106 0
M  V30 4065 H 386.159 -3.55112 -1.65537 0
M  V30 4066 H 387.856 -3.78017 -1.33806 0
M  V30 4067 H 384.446 -4.286 0.00340639 0
M  V30 4068 H 388.63 -4.90366 0.765182 0
M  V30 4069 H 383.886 -5.83403 1.82896 0
M  V30 4070 H 388.06 -6.46517 2.58823 0
M  V30 4071 H 385.687 -6.92949 3.12611 0
M  V30 4072 N 387.262 0.0317525 -1.57568 0
M  V30 4073 C 388.195 1.06621 -2.0176 0
M  V30 4074 C 389.173 1.35323 -0.901462 0
M  V30 4075 O 390.357 1.48025 -1.16708 0
M  V30 4076 C 387.484 2.40155 -2.38837 0
M  V30 4077 C 386.53 2.27327 -3.60867 0
M  V30 4078 S 387.363 1.62925 -5.10113 0
M  V30 4079 C 388.519 2.97955 -5.5043 0
M  V30 4080 H 388.752 0.689781 -2.89187 0
M  V30 4081 H 386.285 0.24164 -1.52497 0
M  V30 4082 H 388.243 3.1695 -2.6087 0
M  V30 4083 H 386.904 2.74946 -1.51867 0
M  V30 4084 H 386.097 3.25898 -3.84456 0
M  V30 4085 H 385.699 1.58675 -3.38671 0
M  V30 4086 H 387.991 3.94285 -5.5095 0
M  V30 4087 H 388.934 2.79102 -6.50775 0
M  V30 4088 H 389.342 3.00404 -4.77931 0
M  V30 4089 N 388.74 1.54641 0.303973 0
M  V30 4090 C 389.968 1.77768 1.05858 0
M  V30 4091 C 390.383 0.535722 1.8104 0
M  V30 4092 O 389.74 -0.494337 1.75677 0
M  V30 4093 C 389.791 2.9834 2.04146 0
M  V30 4094 O 389.512 4.17736 1.32015 0
M  V30 4095 C 391.013 3.33832 2.91669 0
M  V30 4096 H 388.233 0.592961 0.314067 0
M  V30 4097 H 390.777 2.01583 0.344149 0
M  V30 4098 H 388.932 2.76742 2.71096 0
M  V30 4099 H 389.346 4.85693 1.97998 0
M  V30 4100 H 390.82 4.21448 3.56491 0
M  V30 4101 H 391.297 2.51857 3.59812 0
M  V30 4102 H 391.903 3.57579 2.30254 0
M  V30 4103 N 390.218 -0.567019 1.47046 0
M  V30 4104 C 391.443 -1.3551 1.57009 0
M  V30 4105 C 391.868 -1.86841 0.217259 0
M  V30 4106 O 391.226 -1.62435 -0.805268 0
M  V30 4107 C 391.274 -2.50777 2.5912 0
M  V30 4108 O 390.378 -3.52706 2.13711 0
M  V30 4109 H 389.719 -0.402919 0.52778 0
M  V30 4110 H 392.249 -0.686241 1.92748 0
M  V30 4111 H 392.259 -2.97481 2.79229 0
M  V30 4112 H 390.934 -2.12771 3.57353 0
M  V30 4113 H 389.511 -3.12374 2.03659 0
M  V30 4114 N 391.696 -1.35014 -0.812953 0
M  V30 4115 C 392.924 -1.31031 -1.6012 0
M  V30 4116 C 393.339 0.113558 -1.88458 0
M  V30 4117 O 392.696 1.06363 -1.48301 0
M  V30 4118 C 392.747 -2.10872 -2.93624 0
M  V30 4119 O 392.468 -3.47706 -2.66518 0
M  V30 4120 C 393.969 -2.14401 -3.88004 0
M  V30 4121 H 391.189 -0.45037 -0.497401 0
M  V30 4122 H 393.733 -1.77775 -1.01076 0
M  V30 4123 H 391.888 -1.67744 -3.492 0
M  V30 4124 H 392.302 -3.89097 -3.51715 0
M  V30 4125 H 393.776 -2.74669 -4.78812 0
M  V30 4126 H 394.253 -1.14105 -4.24119 0
M  V30 4127 H 394.859 -2.57662 -3.38364 0
M  V30 4128 N 393.175 1.03435 -1.18907 0
M  V30 4129 C 394.138 2.09756 -0.923844 0
M  V30 4130 C 395.138 1.60528 0.093416 0
M  V30 4131 O 396.328 1.73631 -0.140727 0
M  V30 4132 C 393.46 3.38692 -0.387354 0
M  V30 4133 H 394.653 2.34719 -1.86674 0
M  V30 4134 H 392.206 1.19959 -1.00197 0
M  V30 4135 H 392.941 3.19396 0.561845 0
M  V30 4136 H 392.726 3.75742 -1.12074 0
M  V30 4137 H 394.216 4.17016 -0.220694 0
M  V30 4138 N 394.653 0.992116 1.22453 0
M  V30 4139 C 395.878 0.685644 1.95739 0
M  V30 4140 C 396.303 -0.743 1.72804 0
M  V30 4141 O 395.661 -1.50778 1.00676 0
M  V30 4142 C 395.709 0.996293 3.46564 0
M  V30 4143 O 394.813 0.0945512 4.12292 0
M  V30 4144 H 394.154 0.256694 0.612376 0
M  V30 4145 H 396.684 1.32888 1.5557 0
M  V30 4146 H 396.694 0.93781 3.97076 0
M  V30 4147 H 395.369 2.03733 3.62582 0
M  V30 4148 H 393.946 0.208451 3.72317 0
M  V30 4149 N 396.131 -1.37776 0.765217 0
M  V30 4150 C 397.542 -1.82521 0.392819 0
M  V30 4151 C 397.893 -1.63789 -1.08017 0
M  V30 4152 O 397.018 -1.14542 -1.83601 0
M  V30 4153 C 397.613 -3.31358 0.706214 0
M  V30 4154 C 396.172 -3.74406 0.386952 0
M  V30 4155 C 395.319 -2.60394 0.953422 0
M  V30 4156 H 398.27 -1.2634 0.960412 0
M  V30 4157 H 398.291 -3.80498 -0.0114706 0
M  V30 4158 H 397.803 -3.44959 1.77833 0
M  V30 4159 H 395.904 -3.66377 -0.678112 0
M  V30 4160 H 396.017 -4.70749 0.890636 0
M  V30 4161 H 394.381 -2.51878 0.378064 0
M  V30 4162 H 395.164 -2.76791 2.03081 0
M  V30 4163 N 397.609 -0.515225 -1.4894 0
M  V30 4164 C 398.855 0.0242508 -2.02785 0
M  V30 4165 C 399.188 1.35323 -1.39289 0
M  V30 4166 O 398.463 1.87041 -0.533469 0
M  V30 4167 C 398.746 0.16184 -3.59736 0
M  V30 4168 C 398.599 -1.19127 -4.33738 0
M  V30 4169 C 399.918 0.895719 -4.30888 0
M  V30 4170 H 397.037 0.00733914 -0.736963 0
M  V30 4171 H 399.679 -0.669395 -1.77818 0
M  V30 4172 H 397.829 0.752624 -3.8114 0
M  V30 4173 H 399.501 -1.82202 -4.23792 0
M  V30 4174 H 397.744 -1.77695 -3.95736 0
M  V30 4175 H 398.415 -1.04815 -5.41957 0
M  V30 4176 H 400.891 0.394528 -4.14225 0
M  V30 4177 H 399.767 0.960859 -5.40425 0
M  V30 4178 H 400.028 1.9427 -3.97129 0
M  V30 4179 N 399.087 1.5561 -0.249682 0
M  V30 4180 C 400.02 2.17537 0.689408 0
M  V30 4181 C 400.998 1.12829 1.17083 0
M  V30 4182 O 402.182 1.41229 1.24846 0
M  V30 4183 C 399.309 2.77828 1.93725 0
M  V30 4184 C 398.355 3.95615 1.59346 0
M  V30 4185 S 399.188 5.30988 0.69367 0
M  V30 4186 C 400.344 5.94734 1.95046 0
M  V30 4187 H 400.577 2.96852 0.163142 0
M  V30 4188 H 398.11 1.54362 -0.0341166 0
M  V30 4189 H 400.068 3.13199 2.65361 0
M  V30 4190 H 398.729 1.98454 2.43465 0
M  V30 4191 H 397.922 4.364 2.52132 0
M  V30 4192 H 397.524 3.61535 0.957512 0
M  V30 4193 H 399.816 6.12419 2.89739 0
M  V30 4194 H 400.759 6.90109 1.58604 0
M  V30 4195 H 401.167 5.23832 2.10381 0
M  V30 4196 N 400.565 -0.0233959 1.57583 0
M  V30 4197 C 401.976 -0.56927 1.77809 0
M  V30 4198 C 402.327 -1.75284 0.881472 0
M  V30 4199 O 401.452 -2.1626 0.0777805 0
M  V30 4200 C 402.047 -1.03949 3.22459 0
M  V30 4201 C 400.606 -1.53084 3.43864 0
M  V30 4202 C 399.753 -0.471454 2.73263 0
M  V30 4203 H 402.704 0.202825 1.57399 0
M  V30 4204 H 402.725 -1.90661 3.29285 0
M  V30 4205 H 402.237 -0.177865 3.87692 0
M  V30 4206 H 400.338 -2.41414 2.83814 0
M  V30 4207 H 400.451 -1.57443 4.52491 0
M  V30 4208 H 398.815 -0.927788 2.37201 0
M  V30 4209 H 399.598 0.380808 3.41181 0
M  V30 4210 N 402.043 -1.548 -0.295768 0
M  V30 4211 C 403.271 -1.78327 -1.04914 0
M  V30 4212 C 403.686 -0.545316 -1.80753 0
M  V30 4213 O 403.043 0.485013 -1.75937 0
M  V30 4214 C 403.094 -2.99418 -2.02561 0
M  V30 4215 O 402.815 -4.18431 -1.29798 0
M  V30 4216 C 404.316 -3.35375 -2.89895 0
M  V30 4217 H 401.536 -0.594618 -0.310918 0
M  V30 4218 H 404.08 -2.01763 -0.333454 0
M  V30 4219 H 402.235 -2.78175 -2.69624 0
M  V30 4220 H 402.649 -4.86736 -1.95419 0
M  V30 4221 H 404.123 -4.23332 -3.54251 0
M  V30 4222 H 404.6 -2.53761 -3.58472 0
M  V30 4223 H 405.206 -3.58796 -2.28355 0
M  V30 4224 N 403.521 0.559213 -1.47345 0
M  V30 4225 C 404.798 1.31997 -1.44348 0
M  V30 4226 C 405.178 2.1064 -0.139358 0
M  V30 4227 O 404.526 2.1091 0.879153 0
M  V30 4228 C 404.736 2.22618 -2.68779 0
M  V30 4229 C 406.084 2.83701 -3.1591 0
M  V30 4230 O 407.108 2.32921 -2.69493 0
M  V30 4231 O 405.967 3.75993 -3.966 0
M  V30 4232 H 403.061 0.594251 -0.575147 0
M  V30 4233 H 405.607 0.578282 -1.59543 0
M  V30 4234 H 404.379 1.64093 -3.55231 0
M  V30 4235 H 404.002 3.04085 -2.5616 0
M  V30 4236 N 404.999 1.35443 0.805782 0
M  V30 4237 C 405.962 1.28301 1.89925 0
M  V30 4238 C 406.962 0.194285 1.59622 0
M  V30 4239 O 408.152 0.448036 1.6834 0
M  V30 4240 C 405.284 0.984997 3.2636 0
M  V30 4241 H 406.477 2.2553 1.97677 0
M  V30 4242 H 404.03 1.19979 1.00173 0
M  V30 4243 H 404.765 0.016603 3.24296 0
M  V30 4244 H 404.55 1.77269 3.4974 0
M  V30 4245 H 406.04 0.960651 4.064 0
M  V30 4246 N 406.477 -1.02803 1.19454 0
M  V30 4247 C 407.707 -1.79581 1.02149 0
M  V30 4248 C 408.115 -1.84182 -0.432851 0
M  V30 4249 O 407.458 -1.28534 -1.31243 0
M  V30 4250 C 407.52 -3.25993 1.51554 0
M  V30 4251 C 407.184 -3.45025 2.99678 0
M  V30 4252 C 408.181 -3.35175 3.97434 0
M  V30 4253 C 405.866 -3.71212 3.38389 0
M  V30 4254 C 407.86 -3.51238 5.31893 0
M  V30 4255 C 405.547 -3.8692 4.73008 0
M  V30 4256 C 406.545 -3.76936 5.69569 0
M  V30 4257 O 406.233 -3.92179 7.01748 0
M  V30 4258 H 405.965 -0.571962 0.360327 0
M  V30 4259 H 408.519 -1.30367 1.58725 0
M  V30 4260 H 406.749 -3.76235 0.893543 0
M  V30 4261 H 408.438 -3.84368 1.30444 0
M  V30 4262 H 409.204 -3.14895 3.68872 0
M  V30 4263 H 405.083 -3.78075 2.6378 0
M  V30 4264 H 408.627 -3.43362 6.07247 0
M  V30 4265 H 404.524 -4.06699 5.01265 0
M  V30 4266 H 405.292 -4.09265 7.08833 0
M  V30 4267 N 407.956 -0.998596 -1.21925 0
M  V30 4268 C 408.906 -0.524743 -2.21879 0
M  V30 4269 C 409.89 0.41017 -1.55584 0
M  V30 4270 O 411.082 0.236063 -1.75419 0
M  V30 4271 C 408.211 0.153636 -3.42956 0
M  V30 4272 C 407.297 -0.801918 -4.16449 0
M  V30 4273 N 407.688 -1.95211 -4.66611 0
M  V30 4274 C 405.986 -0.618972 -4.41684 0
M  V30 4275 C 406.687 -2.55234 -5.22715 0
M  V30 4276 N 405.663 -1.83451 -5.1171 0
M  V30 4277 H 409.465 -1.40189 -2.58311 0
M  V30 4278 H 406.979 -0.86159 -1.3766 0
M  V30 4279 H 408.976 0.510534 -4.13762 0
M  V30 4280 H 407.636 1.02684 -3.08036 0
M  V30 4281 H 408.647 -2.33271 -4.62391 0
M  V30 4282 H 405.324 0.207694 -4.16983 0
M  V30 4283 H 406.714 -3.52471 -5.72026 0
M  V30 4284 N 409.434 1.37368 -0.772513 0
M  V30 4285 C 410.845 1.8231 -0.402493 0
M  V30 4286 C 411.196 1.6436 1.07146 0
M  V30 4287 O 410.321 1.15514 1.82991 0
M  V30 4288 C 410.916 3.30979 -0.723776 0
M  V30 4289 C 409.475 3.74195 -0.406802 0
M  V30 4290 C 408.622 2.59885 -0.967218 0
M  V30 4291 H 411.573 1.25829 -0.967099 0
M  V30 4292 H 411.594 3.80499 -0.00870832 0
M  V30 4293 H 411.106 3.44011 -1.7966 0
M  V30 4294 H 409.207 3.66732 0.658673 0
M  V30 4295 H 409.32 4.7027 -0.915588 0
M  V30 4296 H 407.684 2.51674 -0.391416 0
M  V30 4297 H 408.467 2.7571 -2.04546 0
M  V30 4298 N 410.912 0.523116 1.48665 0
M  V30 4299 C 412.161 -0.01544 2.01694 0
M  V30 4300 C 412.474 -1.35975 1.40606 0
M  V30 4301 O 413.68 -1.98627 1.85093 0
M  V30 4302 C 412.136 -0.0779303 3.59816 0
M  V30 4303 C 411.744 1.26107 4.29885 0
M  V30 4304 C 413.488 -0.565678 4.20714 0
M  V30 4305 C 411.395 1.15954 5.79921 0
M  V30 4306 H 410.325 -0.00954163 0.75394 0
M  V30 4307 H 412.976 0.665865 1.70993 0
M  V30 4308 H 411.358 -0.824165 3.87329 0
M  V30 4309 H 412.532 2.02233 4.14051 0
M  V30 4310 H 410.847 1.68401 3.80828 0
M  V30 4311 H 413.444 -0.6595 5.30617 0
M  V30 4312 H 413.787 -1.56984 3.85567 0
M  V30 4313 H 414.32 0.12467 3.97605 0
M  V30 4314 H 411.059 2.13864 6.19631 0
M  V30 4315 H 410.579 0.439529 5.98187 0
M  V30 4316 H 412.258 0.847361 6.41427 0
M  V30 4317 N 412.39 -1.55475 0.257931 0
M  V30 4318 C 413.639 -1.98383 -0.364275 0
M  V30 4319 C 413.952 -1.14952 -1.58258 0
M  V30 4320 O 415.158 -1.47924 -2.27664 0
M  V30 4321 C 413.614 -3.53037 -0.699479 0
M  V30 4322 C 413.222 -4.45223 0.498046 0
M  V30 4323 C 414.966 -4.04575 -1.28526 0
M  V30 4324 C 412.873 -5.91238 0.138383 0
M  V30 4325 H 411.803 -0.740911 -0.13988 0
M  V30 4326 H 414.454 -1.79936 0.359883 0
M  V30 4327 H 412.836 -3.6722 -1.48207 0
M  V30 4328 H 414.01 -4.42803 1.27522 0
M  V30 4329 H 412.325 -4.04226 0.999503 0
M  V30 4330 H 414.922 -5.11196 -1.56788 0
M  V30 4331 H 415.265 -3.5258 -2.21344 0
M  V30 4332 H 415.798 -3.93762 -0.565337 0
M  V30 4333 H 412.537 -6.47294 1.03398 0
M  V30 4334 H 412.057 -5.96768 -0.602374 0
M  V30 4335 H 413.736 -6.46413 -0.27553 0
M  V30 4336 N 413.868 0.0150385 -1.57593 0
M  V30 4337 C 415.096 0.714395 -1.94175 0
M  V30 4338 C 415.511 1.68135 -0.858841 0
M  V30 4339 O 414.868 1.81766 0.163567 0
M  V30 4340 C 414.919 1.45933 -3.30735 0
M  V30 4341 O 414.64 0.531167 -4.34868 0
M  V30 4342 C 416.141 2.25456 -3.81686 0
M  V30 4343 H 413.361 0.199923 -0.640525 0
M  V30 4344 H 415.905 -0.0316096 -2.04476 0
M  V30 4345 H 414.06 2.15709 -3.21789 0
M  V30 4346 H 414.474 1.05509 -5.13778 0
M  V30 4347 H 415.948 2.731 -4.79709 0
M  V30 4348 H 416.425 3.07485 -3.13607 0
M  V30 4349 H 417.031 1.60727 -3.9376 0
M  V30 4350 N 415.346 1.54954 0.287554 0
M  V30 4351 C 416.294 1.87606 1.37502 0
M  V30 4352 C 417.288 0.751001 1.51843 0
M  V30 4353 O 418.494 0.935169 1.53801 0
M  V30 4354 H 414.869 0.595231 0.459569 0
M  V30 4355 H 416.84 2.78477 1.07206 0
M  V30 4356 C 415.589 2.15183 2.73115 0
M  V30 4357 H 414.912 3.01234 2.62866 0
M  V30 4358 H 416.352 2.4196 3.48183 0
M  V30 4359 C 414.811 0.954686 3.2309 0
M  V30 4360 O 415.341 0.181949 4.01288 0
M  V30 4361 N 413.547 0.756368 2.80584 0
M  V30 4362 H 413.094 1.38643 2.17108 0
M  V30 4363 H 413.052 -0.0430391 3.14371 0
M  V30 4364 N 416.824 -0.551391 1.4764 0
M  V30 4365 C 417.754 -1.66757 1.63445 0
M  V30 4366 C 418.735 -1.63077 0.483742 0
M  V30 4367 O 419.92 -1.80607 0.71377 0
M  V30 4368 C 417.05 -3.05387 1.65396 0
M  V30 4369 C 416.004 -3.23918 2.79752 0
M  V30 4370 C 415.33 -4.63393 2.66779 0
M  V30 4371 C 416.63 -3.08735 4.21284 0
M  V30 4372 H 418.324 -1.53786 2.56886 0
M  V30 4373 H 415.87 -0.738415 1.23626 0
M  V30 4374 H 417.823 -3.83325 1.75043 0
M  V30 4375 H 416.547 -3.19332 0.685195 0
M  V30 4376 H 415.206 -2.48391 2.69625 0
M  V30 4377 H 414.854 -4.74144 1.67918 0
M  V30 4378 H 414.554 -4.7674 3.43501 0
M  V30 4379 H 416.078 -5.43458 2.78364 0
M  V30 4380 H 417.492 -3.76484 4.32357 0
M  V30 4381 H 415.889 -3.33588 4.98838 0
M  V30 4382 H 416.959 -2.0541 4.39243 0
M  V30 4383 N 418.302 -1.35869 -0.798587 0
M  V30 4384 C 419.53 -1.32722 -1.58722 0
M  V30 4385 C 419.945 0.0935631 -1.88568 0
M  V30 4386 O 419.302 1.04784 -1.49421 0
M  V30 4387 C 419.353 -2.13974 -2.91371 0
M  V30 4388 O 419.074 -3.50514 -2.62815 0
M  V30 4389 C 420.575 -2.18504 -3.85708 0
M  V30 4390 H 417.795 -0.45562 -0.492596 0
M  V30 4391 H 420.339 -1.78837 -0.991843 0
M  V30 4392 H 418.494 -1.71438 -3.47402 0
M  V30 4393 H 418.908 -3.92806 -3.47568 0
M  V30 4394 H 420.382 -2.79732 -4.75872 0
M  V30 4395 H 420.859 -1.18597 -4.22885 0
M  V30 4396 H 421.465 -2.61236 -3.35612 0
M  V30 4397 N 419.78 1.02168 -1.19998 0
M  V30 4398 C 420.69 2.14069 -0.959774 0
M  V30 4399 C 421.706 1.73804 0.082655 0
M  V30 4400 O 422.882 2.01133 -0.103633 0
M  V30 4401 C 419.947 3.42936 -0.509459 0
M  V30 4402 C 419.008 3.97474 -1.62213 0
M  V30 4403 C 418.241 5.2019 -1.19321 0
M  V30 4404 O 418.464 5.70369 -0.0597726 0
M  V30 4405 O 417.398 5.67749 -1.99863 0
M  V30 4406 H 421.224 2.37199 -1.89658 0
M  V30 4407 H 418.809 1.12469 -0.983411 0
M  V30 4408 H 420.691 4.20551 -0.267322 0
M  V30 4409 H 419.366 3.21234 0.398821 0
M  V30 4410 H 418.273 3.21161 -1.9185 0
M  V30 4411 H 419.606 4.23555 -2.50723 0
M  V30 4412 N 421.258 1.00505 1.21394 0
M  V30 4413 C 422.168 0.574806 2.27449 0
M  V30 4414 C 423.184 -0.382206 1.6975 0
M  V30 4415 O 424.36 -0.246027 1.99892 0
M  V30 4416 C 421.425 -0.0917414 3.46579 0
M  V30 4417 C 420.486 0.909758 4.1955 0
M  V30 4418 C 419.719 0.274924 5.32991 0
M  V30 4419 O 419.942 -0.928254 5.62796 0
M  V30 4420 O 418.876 0.985877 5.93771 0
M  V30 4421 H 422.702 1.45744 2.66444 0
M  V30 4422 H 420.287 0.773923 1.27792 0
M  V30 4423 H 422.169 -0.464551 4.18832 0
M  V30 4424 H 420.844 -0.948755 3.09484 0
M  V30 4425 H 419.751 1.33372 3.49518 0
M  V30 4426 H 421.084 1.73636 4.60555 0
M  V30 4427 N 422.737 -1.36956 0.779787 0
M  V30 4428 C 424.153 -1.52817 0.460342 0
M  V30 4429 C 424.353 -1.7361 -1.02283 0
M  V30 4430 O 423.409 -1.76207 -1.80852 0
M  V30 4431 C 424.722 -2.71983 1.28241 0
M  V30 4432 C 426.27 -2.85849 1.27512 0
M  V30 4433 C 426.745 -4.08008 2.08072 0
M  V30 4434 N 428.236 -4.15135 2.05467 0
M  V30 4435 C 428.971 -5.08711 2.64577 0
M  V30 4436 N 428.467 -6.07792 3.32506 0
M  V30 4437 N 430.26 -5.01254 2.54363 0
M  V30 4438 H 422.411 -1.21713 1.74068 0
M  V30 4439 H 424.674 -0.593294 0.739396 0
M  V30 4440 H 424.38 -2.63109 2.33381 0
M  V30 4441 H 424.254 -3.65882 0.917088 0
M  V30 4442 H 426.641 -2.94189 0.231686 0
M  V30 4443 H 426.722 -1.92886 1.68014 0
M  V30 4444 H 426.366 -4.00429 3.12441 0
M  V30 4445 H 426.296 -5.001 1.64947 0
M  V30 4446 H 428.787 -3.44189 1.5602 0
M  V30 4447 H 429.1 -6.75739 3.74963 0
M  V30 4448 H 427.445 -6.08047 3.36606 0
M  V30 4449 H 430.636 -4.22795 2.00902 0
M  V30 4450 H 430.809 -5.73995 3.00722 0
M  V30 4451 N 424.215 -0.530993 -1.48385 0
M  V30 4452 C 425.162 0.231223 -2.29639 0
M  V30 4453 C 426.132 0.932864 -1.37429 0
M  V30 4454 O 427.317 0.933692 -1.66394 0
M  V30 4455 C 424.457 1.27155 -3.2082 0
M  V30 4456 C 423.57 0.578655 -4.28107 0
M  V30 4457 C 422.705 1.602 -5.06467 0
M  V30 4458 C 421.744 0.892625 -6.05556 0
M  V30 4459 N 420.881 1.86157 -6.76971 0
M  V30 4460 H 425.721 -0.467848 -2.94305 0
M  V30 4461 H 423.258 -0.242556 -1.45086 0
M  V30 4462 H 425.216 1.88703 -3.72085 0
M  V30 4463 H 423.846 1.939 -2.58075 0
M  V30 4464 H 422.898 -0.150782 -3.80101 0
M  V30 4465 H 424.21 0.0217065 -4.98795 0
M  V30 4466 H 423.364 2.29173 -5.61751 0
M  V30 4467 H 422.103 2.19285 -4.35621 0
M  V30 4468 H 421.108 0.188829 -5.49476 0
M  V30 4469 H 422.333 0.307878 -6.78402 0
M  V30 4470 H 420.279 2.44147 -6.08875 0
M  V30 4471 H 420.196 1.35608 -7.43738 0
M  V30 4472 H 421.464 2.54325 -7.36844 0
M  V30 4473 N 425.693 1.55336 -0.266172 0
M  V30 4474 C 426.921 2.03801 0.356756 0
M  V30 4475 C 427.336 1.14485 1.50129 0
M  V30 4476 O 426.693 0.163121 1.8177 0
M  V30 4477 C 426.744 3.51455 0.846281 0
M  V30 4478 O 426.465 4.37371 -0.252663 0
M  V30 4479 C 427.966 4.15767 1.53794 0
M  V30 4480 H 425.186 0.665906 0.0825218 0
M  V30 4481 H 427.73 2.00636 -0.39566 0
M  V30 4482 H 425.885 3.55092 1.54881 0
M  V30 4483 H 426.299 5.24358 0.122173 0
M  V30 4484 H 427.773 5.20714 1.83198 0
M  V30 4485 H 428.25 3.63404 2.46646 0
M  V30 4486 H 428.856 4.16107 0.879488 0
M  V30 4487 N 427.171 -0.0066808 1.57599 0
M  V30 4488 C 428.418 -0.69292 1.90276 0
M  V30 4489 C 428.746 -1.74148 0.866192 0
M  V30 4490 O 428.001 -1.95268 -0.129933 0
M  V30 4491 C 428.3 -1.37939 3.29708 0
M  V30 4492 C 427.966 -0.464679 4.48499 0
M  V30 4493 C 426.628 -0.212809 4.80729 0
M  V30 4494 C 428.98 0.16551 5.20937 0
M  V30 4495 C 426.308 0.677653 5.82773 0
M  V30 4496 C 428.66 1.04381 6.23929 0
M  V30 4497 C 427.324 1.30492 6.54621 0
M  V30 4498 H 426.594 -0.253558 0.696268 0
M  V30 4499 H 429.241 0.0474123 1.91441 0
M  V30 4500 H 427.546 -2.1936 3.24636 0
M  V30 4501 H 429.243 -1.9163 3.52249 0
M  V30 4502 H 425.833 -0.671153 4.23313 0
M  V30 4503 H 430.017 -0.0160756 4.96297 0
M  V30 4504 H 425.273 0.88803 6.04917 0
M  V30 4505 H 429.447 1.53851 6.79193 0
M  V30 4506 H 427.074 1.99662 7.33512 0
M  V30 4507 N 428.649 -1.55105 -0.279332 0
M  V30 4508 C 429.581 -1.83952 -1.36727 0
M  V30 4509 C 430.594 -0.723642 -1.45833 0
M  V30 4510 O 431.783 -1.00141 -1.47763 0
M  V30 4511 C 428.883 -1.98183 -2.74912 0
M  V30 4512 C 428.056 -3.28787 -2.88475 0
M  V30 4513 C 427.115 -3.33162 -4.07295 0
M  V30 4514 O 426.141 -4.06576 -3.98353 0
M  V30 4515 N 427.343 -2.60109 -5.18964 0
M  V30 4516 H 430.108 -2.77853 -1.12328 0
M  V30 4517 H 427.669 -1.54945 -0.469442 0
M  V30 4518 H 429.661 -1.98488 -3.52682 0
M  V30 4519 H 428.231 -1.11177 -2.92162 0
M  V30 4520 H 427.451 -3.41075 -1.97641 0
M  V30 4521 H 428.739 -4.14933 -2.94463 0
M  V30 4522 H 428.137 -2.00136 -5.29115 0
M  V30 4523 H 426.694 -2.66143 -5.94988 0
M  V30 4524 N 430.127 0.543554 -1.4793 0
M  V30 4525 C 431.352 1.32995 -1.59145 0
M  V30 4526 C 431.777 1.86472 -0.246956 0
M  V30 4527 O 431.135 1.63696 0.779324 0
M  V30 4528 C 431.183 2.46623 -2.63077 0
M  V30 4529 O 430.287 3.49261 -2.19295 0
M  V30 4530 H 429.628 0.394472 -0.534124 0
M  V30 4531 H 432.158 0.655489 -1.93816 0
M  V30 4532 H 432.168 2.93001 -2.83926 0
M  V30 4533 H 430.843 2.07059 -3.60693 0
M  V30 4534 H 429.42 3.09094 -2.08603 0
M  V30 4535 N 431.605 1.3629 0.791371 0
M  V30 4536 C 433.016 1.27225 1.36641 0
M  V30 4537 C 433.367 -0.0887968 1.95999 0
M  V30 4538 O 432.492 -0.990207 1.92416 0
M  V30 4539 C 433.087 2.30375 2.48421 0
M  V30 4540 C 431.646 2.25004 3.01746 0
M  V30 4541 C 430.793 2.15259 1.7481 0
M  V30 4542 H 433.744 1.47198 0.593173 0
M  V30 4543 H 433.765 1.93905 3.27385 0
M  V30 4544 H 433.277 3.29422 2.05189 0
M  V30 4545 H 431.378 1.29417 3.49403 0
M  V30 4546 H 431.491 3.1761 3.58693 0
M  V30 4547 H 429.855 1.61482 1.96966 0
M  V30 4548 H 430.638 3.16191 1.33709 0
M  V30 4549 N 433.083 -1.0153 1.20538 0
M  V30 4550 C 434.331 -1.74803 1.01432 0
M  V30 4551 C 434.652 -1.8963 -0.454456 0
M  V30 4552 O 433.922 -1.43975 -1.32846 0
M  V30 4553 H 432.502 -0.647598 0.372324 0
M  V30 4554 H 435.164 -1.22402 1.5167 0
M  V30 4555 H 434.26 -2.75114 1.47373 0
M  V30 4556 N 434.561 -1.01147 -1.20859 0
M  V30 4557 C 435.807 -0.698899 -1.90377 0
M  V30 4558 C 436.14 0.76904 -1.78324 0
M  V30 4559 O 435.415 1.55817 -1.16409 0
M  V30 4560 C 435.698 -1.12878 -3.41951 0
M  V30 4561 C 435.551 -2.65665 -3.62963 0
M  V30 4562 C 436.87 -0.696114 -4.3456 0
M  V30 4563 H 433.989 -0.255372 -0.691342 0
M  V30 4564 H 436.631 -1.25831 -1.42361 0
M  V30 4565 H 434.781 -0.652827 -3.82976 0
M  V30 4566 H 436.453 -3.21074 -3.31224 0
M  V30 4567 H 434.696 -3.06878 -3.06608 0
M  V30 4568 H 435.367 -2.90797 -4.69192 0
M  V30 4569 H 437.843 -1.10521 -4.01154 0
M  V30 4570 H 436.719 -1.025 -5.39245 0
M  V30 4571 H 436.98 0.402465 -4.40264 0
M  V30 4572 N 436.039 1.36541 -0.78704 0
M  V30 4573 C 437.288 1.98552 -0.35494 0
M  V30 4574 C 437.601 1.63171 1.07864 0
M  V30 4575 O 438.807 2.18399 1.61289 0
M  V30 4576 C 437.263 3.55136 -0.583671 0
M  V30 4577 C 436.871 3.99444 -2.02851 0
M  V30 4578 C 438.615 4.2395 -0.215957 0
M  V30 4579 C 436.522 5.48796 -2.20403 0
M  V30 4580 H 435.452 0.742888 -0.128972 0
M  V30 4581 H 438.103 1.5587 -0.968337 0
M  V30 4582 H 436.485 3.95875 0.0994046 0
M  V30 4583 H 437.659 3.6991 -2.74779 0
M  V30 4584 H 435.974 3.43459 -2.35425 0
M  V30 4585 H 438.571 5.33709 -0.325405 0
M  V30 4586 H 438.914 4.07827 0.835646 0
M  V30 4587 H 439.447 3.88565 -0.852175 0
M  V30 4588 H 436.186 5.69864 -3.23937 0
M  V30 4589 H 435.706 5.79964 -1.52977 0
M  V30 4590 H 437.385 6.14986 -2.01002 0
M  V30 4591 N 437.518 0.538854 1.48102 0
M  V30 4592 C 438.448 -0.207654 2.32575 0
M  V30 4593 C 439.429 -0.926559 1.4265 0
M  V30 4594 O 440.614 -0.91061 1.71527 0
M  V30 4595 C 437.744 -1.24957 3.24042 0
M  V30 4596 C 436.698 -0.648263 4.23062 0
M  V30 4597 C 436.024 -1.79348 5.03725 0
M  V30 4598 C 437.324 0.385897 5.20872 0
M  V30 4599 H 439.018 0.497534 2.95237 0
M  V30 4600 H 436.564 0.240715 1.41974 0
M  V30 4601 H 438.517 -1.77983 3.81969 0
M  V30 4602 H 437.241 -1.98446 2.59397 0
M  V30 4603 H 435.9 -0.139452 3.66335 0
M  V30 4604 H 435.548 -2.51696 4.35498 0
M  V30 4605 H 435.248 -1.39702 5.70751 0
M  V30 4606 H 436.772 -2.32735 5.64506 0
M  V30 4607 H 438.186 -0.057607 5.73271 0
M  V30 4608 H 436.583 0.700227 5.96001 0
M  V30 4609 H 437.653 1.28848 4.67468 0
M  V30 4610 N 438.996 -1.55193 0.274407 0
M  V30 4611 C 440.221 -2.04446 -0.348824 0
M  V30 4612 C 440.646 -1.15149 -1.48735 0
M  V30 4613 O 440.004 -0.149952 -1.80679 0
M  V30 4614 C 440.052 -3.51431 -0.808009 0
M  V30 4615 O 439.156 -3.65225 -1.91531 0
M  V30 4616 H 438.497 -0.66006 -0.0722276 0
M  V30 4617 H 441.027 -2.00481 0.408498 0
M  V30 4618 H 441.037 -3.92781 -1.10395 0
M  V30 4619 H 439.712 -4.15892 0.0249865 0
M  V30 4620 H 438.289 -3.35778 -1.62196 0
M  V30 4621 N 440.474 -0.00167713 -1.576 0
M  V30 4622 C 441.704 0.692754 -1.94639 0
M  V30 4623 C 442.112 1.67744 -0.87513 0
M  V30 4624 O 441.455 1.8305 0.154382 0
M  V30 4625 C 441.517 1.47881 -3.27676 0
M  V30 4626 C 441.181 0.655518 -4.52274 0
M  V30 4627 C 442.178 -0.0575214 -5.19868 0
M  V30 4628 C 439.863 0.600994 -4.98692 0
M  V30 4629 C 441.857 -0.814052 -6.3218 0
M  V30 4630 C 439.544 -0.15926 -6.10892 0
M  V30 4631 C 440.542 -0.865515 -6.77494 0
M  V30 4632 O 440.23 -1.61336 -7.87544 0
M  V30 4633 H 439.962 0.197792 -0.646417 0
M  V30 4634 H 442.516 -0.049423 -2.05341 0
M  V30 4635 H 440.746 2.2655 -3.13388 0
M  V30 4636 H 442.435 2.05874 -3.49816 0
M  V30 4637 H 443.201 -0.0245611 -4.84994 0
M  V30 4638 H 439.08 1.14025 -4.46676 0
M  V30 4639 H 442.624 -1.36584 -6.84098 0
M  V30 4640 H 438.521 -0.194035 -6.45208 0
M  V30 4641 H 439.289 -1.53025 -8.04068 0
M  V30 4642 N 441.952 1.55251 0.271103 0
M  V30 4643 C 442.882 1.9127 1.33933 0
M  V30 4644 C 443.863 0.77478 1.5143 0
M  V30 4645 O 445.048 1.03307 1.64442 0
M  V30 4646 C 442.178 2.18627 2.69851 0
M  V30 4647 C 441.132 3.34442 2.67081 0
M  V30 4648 C 440.458 3.47284 4.06569 0
M  V30 4649 C 441.758 4.70784 2.26185 0
M  V30 4650 H 443.452 2.80744 1.04035 0
M  V30 4651 H 440.998 1.35077 0.499017 0
M  V30 4652 H 442.951 2.42413 3.44694 0
M  V30 4653 H 441.675 1.25955 3.01335 0
M  V30 4654 H 440.334 3.10627 1.94695 0
M  V30 4655 H 439.982 2.52074 4.35279 0
M  V30 4656 H 439.682 4.25152 4.0561 0
M  V30 4657 H 441.206 3.73363 4.83148 0
M  V30 4658 H 442.62 4.94102 2.90751 0
M  V30 4659 H 441.017 5.51582 2.36384 0
M  V30 4660 H 442.087 4.69478 1.21319 0
M  V30 4661 N 443.43 -0.535701 1.48216 0
M  V30 4662 C 444.362 -1.65662 1.58394 0
M  V30 4663 C 445.375 -1.5591 0.468607 0
M  V30 4664 O 446.564 -1.62475 0.7392 0
M  V30 4665 C 443.664 -3.04276 1.4923 0
M  V30 4666 C 442.837 -3.39567 2.75705 0
M  V30 4667 C 441.896 -4.57436 2.60075 0
M  V30 4668 O 440.922 -4.60942 3.33948 0
M  V30 4669 N 442.124 -5.55259 1.69315 0
M  V30 4670 H 444.889 -1.5737 2.55058 0
M  V30 4671 H 442.45 -0.722845 1.44867 0
M  V30 4672 H 444.442 -3.80994 1.36477 0
M  V30 4673 H 443.012 -3.06677 0.605632 0
M  V30 4674 H 442.232 -2.52083 3.03064 0
M  V30 4675 H 443.52 -3.59929 3.59623 0
M  V30 4676 H 442.918 -5.552 1.08489 0
M  V30 4677 H 441.475 -6.31218 1.62504 0
M  V30 4678 N 444.908 -1.36708 -0.784132 0
M  V30 4679 C 445.856 -1.31533 -1.91838 0
M  V30 4680 C 446.85 -0.206205 -1.6814 0
M  V30 4681 O 448.056 -0.373519 -1.76082 0
M  V30 4682 H 444.431 -0.409613 -0.630651 0
M  V30 4683 H 446.402 -2.2731 -1.9332 0
M  V30 4684 C 445.151 -1.12679 -3.28936 0
M  V30 4685 H 444.474 -1.97274 -3.4774 0
M  V30 4686 H 445.914 -1.13106 -4.08636 0
M  V30 4687 C 444.373 0.168281 -3.36479 0
M  V30 4688 O 444.903 1.15625 -3.84699 0
M  V30 4689 N 443.109 0.214762 -2.89805 0
M  V30 4690 H 442.656 -0.589852 -2.50756 0
M  V30 4691 H 442.614 1.08094 -2.95234 0
M  V30 4692 N 446.386 1.0089 -1.21074 0
M  V30 4693 C 447.632 1.74866 -1.02712 0
M  V30 4694 C 447.965 1.89178 0.438787 0
M  V30 4695 O 447.24 1.42325 1.32567 0
M  V30 4696 C 447.523 3.16347 -1.72036 0
M  V30 4697 C 447.376 3.09782 -3.26121 0
M  V30 4698 C 448.695 4.15187 -1.45973 0
M  V30 4699 H 445.814 0.634736 -0.374539 0
M  V30 4700 H 448.456 1.17646 -1.49196 0
M  V30 4701 H 446.606 3.65201 -1.32517 0
M  V30 4702 H 448.278 2.68673 -3.74983 0
M  V30 4703 H 446.521 2.46982 -3.56626 0
M  V30 4704 H 447.192 4.09829 -3.6979 0
M  V30 4705 H 449.668 3.75022 -1.80272 0
M  V30 4706 H 448.544 5.12331 -1.96999 0
M  V30 4707 H 448.805 4.40386 -0.388924 0
M  V30 4708 N 447.864 1.01787 1.20321 0
M  V30 4709 C 449.089 0.727009 1.9424 0
M  V30 4710 C 449.514 -0.706179 1.74341 0
M  V30 4711 O 448.872 -1.48609 1.03852 0
M  V30 4712 C 448.92 1.06958 3.44372 0
M  V30 4713 O 448.024 0.181983 4.11998 0
M  V30 4714 H 447.365 0.269626 0.606793 0
M  V30 4715 H 449.895 1.36158 1.52716 0
M  V30 4716 H 449.905 1.02182 3.94997 0
M  V30 4717 H 448.58 2.11378 3.58179 0
M  V30 4718 H 447.157 0.287378 3.71791 0
M  V30 4719 N 449.342 -1.36122 0.79427 0
M  V30 4720 C 450.272 -2.32551 0.210328 0
M  V30 4721 C 451.253 -1.56884 -0.657386 0
M  V30 4722 O 452.438 -1.85014 -0.590207 0
M  V30 4723 C 449.568 -3.41128 -0.651819 0
M  V30 4724 C 448.522 -4.27842 0.116395 0
M  V30 4725 C 447.848 -5.2763 -0.86666 0
M  V30 4726 C 449.148 -5.05647 1.30837 0
M  V30 4727 H 450.842 -2.81636 1.01594 0
M  V30 4728 H 448.388 -1.35407 0.489981 0
M  V30 4729 H 450.341 -4.07581 -1.07031 0
M  V30 4730 H 449.065 -2.90622 -1.49019 0
M  V30 4731 H 447.724 -3.62952 0.515915 0
M  V30 4732 H 447.372 -4.73395 -1.70019 0
M  V30 4733 H 447.072 -5.86514 -0.35705 0
M  V30 4734 H 448.596 -5.96955 -1.28361 0
M  V30 4735 H 450.01 -5.65113 0.965393 0
M  V30 4736 H 448.407 -5.73967 1.75161 0
M  V30 4737 H 449.477 -4.37006 2.10128 0
M  V30 4738 N 450.82 -0.546701 -1.47814 0
M  V30 4739 C 452.045 -0.021268 -2.07389 0
M  V30 4740 C 452.47 1.25822 -1.39822 0
M  V30 4741 O 451.828 1.75111 -0.46968 0
M  V30 4742 C 451.876 0.168502 -3.60206 0
M  V30 4743 O 450.98 1.23347 -3.93522 0
M  V30 4744 H 450.321 -0.0466108 -0.662362 0
M  V30 4745 H 452.851 -0.759387 -1.89985 0
M  V30 4746 H 452.861 0.385982 -4.0617 0
M  V30 4747 H 451.536 -0.766075 -4.08784 0
M  V30 4748 H 450.113 0.997319 -3.59316 0
M  V30 4749 N 452.299 1.55045 -0.282633 0
M  V30 4750 C 453.229 2.2579 0.595066 0
M  V30 4751 C 454.21 1.25074 1.15284 0
M  V30 4752 O 455.395 1.5381 1.18559 0
M  V30 4753 C 452.525 2.98472 1.77572 0
M  V30 4754 C 451.479 4.0618 1.34914 0
M  V30 4755 C 450.805 4.66477 2.6135 0
M  V30 4756 C 452.105 5.1996 0.493821 0
M  V30 4757 H 453.799 2.994 0.00505653 0
M  V30 4758 H 451.345 1.44 0.000992001 0
M  V30 4759 H 453.298 3.46677 2.39568 0
M  V30 4760 H 452.022 2.2241 2.39168 0
M  V30 4761 H 450.681 3.58797 0.752338 0
M  V30 4762 H 450.329 3.87074 3.2122 0
M  V30 4763 H 450.029 5.39207 2.33516 0
M  V30 4764 H 451.553 5.17435 3.24181 0
M  V30 4765 H 452.967 5.64172 1.01898 0
M  V30 4766 H 451.364 5.99299 0.310047 0
M  V30 4767 H 452.434 4.82462 -0.485593 0
M  V30 4768 N 453.777 0.010035 1.57597 0
M  V30 4769 C 455.188 -0.531426 1.78977 0
M  V30 4770 C 455.539 -1.73375 0.918454 0
M  V30 4771 O 454.664 -2.16047 0.123635 0
M  V30 4772 C 455.259 -0.97086 3.24592 0
M  V30 4773 C 453.818 -1.45756 3.47033 0
M  V30 4774 C 452.965 -0.413384 2.74201 0
M  V30 4775 H 455.916 0.236166 1.56933 0
M  V30 4776 H 455.937 -1.83633 3.33255 0
M  V30 4777 H 455.449 -0.0955893 3.87982 0
M  V30 4778 H 453.55 -2.35339 2.88871 0
M  V30 4779 H 453.663 -1.4781 4.55729 0
M  V30 4780 H 452.027 -0.877266 2.39115 0
M  V30 4781 H 452.81 0.453092 3.40297 0
M  V30 4782 N 455.255 -1.55392 -0.262866 0
M  V30 4783 C 456.48 -1.80847 -1.01533 0
M  V30 4784 C 456.905 -0.584946 -1.78774 0
M  V30 4785 O 456.263 0.465701 -1.75217 0
M  V30 4786 C 456.311 -3.03866 -1.94159 0
M  V30 4787 O 455.415 -2.79662 -3.03089 0
M  V30 4788 H 454.756 -0.597441 -0.289759 0
M  V30 4789 H 457.286 -2.02553 -0.288698 0
M  V30 4790 H 457.296 -3.32872 -2.35924 0
M  V30 4791 H 455.971 -3.92564 -1.37354 0
M  V30 4792 H 454.548 -2.61781 -2.65566 0
M  V30 4793 N 456.733 0.527833 -1.48498 0
M  V30 4794 C 457.68 1.6322 -1.6318 0
M  V30 4795 C 458.65 1.59199 -0.473815 0
M  V30 4796 O 459.835 1.77591 -0.697563 0
M  V30 4797 C 456.975 3.01474 -1.67951 0
M  V30 4798 C 456.088 3.15713 -2.94871 0
M  V30 4799 C 455.223 4.44539 -2.90789 0
M  V30 4800 C 454.262 4.52315 -4.12404 0
M  V30 4801 N 453.399 5.72533 -4.06387 0
M  V30 4802 H 458.239 1.50011 -2.57489 0
M  V30 4803 H 455.776 0.730298 -1.27691 0
M  V30 4804 H 457.734 3.81572 -1.68698 0
M  V30 4805 H 456.364 3.1345 -0.771306 0
M  V30 4806 H 455.416 2.28854 -3.03859 0
M  V30 4807 H 456.728 3.1732 -3.8485 0
M  V30 4808 H 455.882 5.3293 -2.89949 0
M  V30 4809 H 454.621 4.45457 -1.98542 0
M  V30 4810 H 453.626 3.62331 -4.13517 0
M  V30 4811 H 454.851 4.53134 -5.05812 0
M  V30 4812 H 452.797 5.74344 -3.16962 0
M  V30 4813 H 452.714 5.75643 -4.90073 0
M  V30 4814 H 453.982 6.63204 -4.0961 0
M  V30 4815 N 458.211 1.37122 0.776871 0
M  V30 4816 C 459.436 1.354 1.57104 0
M  V30 4817 C 459.861 -0.0595562 1.88006 0
M  V30 4818 O 459.219 -1.03514 1.48844 0
M  V30 4819 C 459.267 2.19472 2.8612 0
M  V30 4820 O 458.371 1.59582 3.80273 0
M  V30 4821 H 457.712 0.462869 0.476076 0
M  V30 4822 H 460.242 1.80577 0.961932 0
M  V30 4823 H 460.252 2.32502 3.35271 0
M  V30 4824 H 458.927 3.22222 2.62956 0
M  V30 4825 H 457.504 1.55564 3.38902 0
M  V30 4826 N 459.689 -1.00246 1.21608 0
M  V30 4827 C 460.619 -2.10921 1.00172 0
M  V30 4828 C 461.6 -1.69938 -0.0741587 0
M  V30 4829 O 462.785 -1.94009 0.0861753 0
M  V30 4830 C 459.915 -3.42618 0.568355 0
M  V30 4831 C 458.869 -3.97407 1.58909 0
M  V30 4832 C 458.195 -5.25038 1.01187 0
M  V30 4833 C 459.495 -4.2918 2.97661 0
M  V30 4834 H 461.189 -2.29112 1.92739 0
M  V30 4835 H 458.735 -1.10101 0.928102 0
M  V30 4836 H 460.688 -4.19444 0.405555 0
M  V30 4837 H 459.412 -3.24227 -0.392961 0
M  V30 4838 H 458.071 -3.22703 1.73949 0
M  V30 4839 H 457.719 -5.02982 0.0421965 0
M  V30 4840 H 457.419 -5.62661 1.6937 0
M  V30 4841 H 458.943 -6.04507 0.860448 0
M  V30 4842 H 460.357 -4.96839 2.86049 0
M  V30 4843 H 458.754 -4.77952 3.6288 0
M  V30 4844 H 459.824 -3.3735 3.48315 0
M  V30 4845 N 461.167 -1.02423 -1.1978 0
M  V30 4846 C 462.392 -0.7373 -1.93852 0
M  V30 4847 C 462.817 0.696923 -1.74713 0
M  V30 4848 O 462.175 1.48056 -1.04638 0
M  V30 4849 C 462.223 -1.08783 -3.438 0
M  V30 4850 O 461.327 -0.20383 -4.11896 0
M  V30 4851 H 460.668 -0.27284 -0.605355 0
M  V30 4852 H 463.198 -1.36966 -1.51992 0
M  V30 4853 H 463.208 -1.04276 -3.9445 0
M  V30 4854 H 461.883 -2.13274 -3.57053 0
M  V30 4855 H 460.46 -0.307091 -3.71633 0
M  V30 4856 N 462.645 1.35699 -0.801477 0
M  V30 4857 C 463.555 2.33661 -0.209691 0
M  V30 4858 C 464.571 1.6162 0.644591 0
M  V30 4859 O 465.747 1.93529 0.557545 0
M  V30 4860 C 462.812 3.40816 0.636033 0
M  V30 4861 C 461.873 4.28639 -0.238147 0
M  V30 4862 C 461.106 5.30676 0.567307 0
M  V30 4863 O 461.329 5.41174 1.8024 0
M  V30 4864 O 460.263 6.01887 -0.0391336 0
M  V30 4865 H 464.089 2.8606 -1.01996 0
M  V30 4866 H 461.674 1.38379 -0.563164 0
M  V30 4867 H 463.556 4.06301 1.11791 0
M  V30 4868 H 462.231 2.90696 1.42399 0
M  V30 4869 H 461.138 3.66152 -0.767044 0
M  V30 4870 H 462.471 4.82143 -0.989915 0
M  V30 4871 N 464.123 0.554532 1.47522 0
M  V30 4872 C 465.055 -0.232106 2.28022 0
M  V30 4873 C 466.068 -0.881865 1.36847 0
M  V30 4874 O 467.257 -0.756168 1.61692 0
M  V30 4875 C 464.357 -1.34604 3.11022 0
M  V30 4876 C 463.53 -0.793582 4.30141 0
M  V30 4877 C 462.589 -1.79168 4.94758 0
M  V30 4878 O 461.615 -1.33886 5.5323 0
M  V30 4879 N 462.817 -3.12495 4.89211 0
M  V30 4880 H 465.582 0.458407 2.96173 0
M  V30 4881 H 463.143 0.390433 1.57122 0
M  V30 4882 H 465.135 -2.01243 3.51118 0
M  V30 4883 H 463.705 -1.93983 2.45131 0
M  V30 4884 H 462.925 0.0495025 3.94169 0
M  V30 4885 H 464.213 -0.403776 5.07195 0
M  V30 4886 H 463.611 -3.51931 4.42901 0
M  V30 4887 H 462.168 -3.74698 5.33333 0
M  V30 4888 N 465.601 -1.54893 0.290851 0
M  V30 4889 C 466.829 -2.04343 -0.324288 0
M  V30 4890 C 467.244 -1.16859 -1.48289 0
M  V30 4891 O 466.601 -0.192018 -1.81487 0
M  V30 4892 C 466.652 -3.52756 -0.79026 0
M  V30 4893 O 466.373 -4.36913 0.322213 0
M  V30 4894 C 467.874 -4.18161 -1.4716 0
M  V30 4895 H 465.094 -0.667135 -0.0719173 0
M  V30 4896 H 467.638 -1.99981 0.427529 0
M  V30 4897 H 465.793 -3.57511 -1.49213 0
M  V30 4898 H 466.207 -5.24486 -0.0387372 0
M  V30 4899 H 467.681 -5.23562 -1.7489 0
M  V30 4900 H 468.158 -3.67282 -2.40834 0
M  V30 4901 H 468.764 -4.17454 -0.813178 0
M  V30 4902 N 467.08 -0.0183926 -1.57589 0
M  V30 4903 C 468.043 0.951986 -2.08494 0
M  V30 4904 C 469.043 1.26092 -0.997874 0
M  V30 4905 O 470.233 1.20304 -1.25987 0
M  V30 4906 C 467.365 2.27165 -2.54182 0
M  V30 4907 H 468.558 0.511307 -2.95509 0
M  V30 4908 H 466.111 0.229444 -1.54607 0
M  V30 4909 H 466.846 2.75884 -1.70465 0
M  V30 4910 H 466.631 2.06057 -3.33591 0
M  V30 4911 H 468.121 2.9674 -2.93828 0
M  V30 4912 N 468.558 1.5553 0.254621 0
M  V30 4913 C 469.488 1.9268 1.31897 0
M  V30 4914 C 470.469 0.790797 1.506 0
M  V30 4915 O 471.654 1.05045 1.63337 0
M  V30 4916 C 468.784 2.21477 2.67517 0
M  V30 4917 C 467.738 3.37256 2.63519 0
M  V30 4918 C 467.064 3.51576 4.02862 0
M  V30 4919 C 468.364 4.73157 2.21179 0
M  V30 4920 H 470.058 2.81832 1.01051 0
M  V30 4921 H 467.604 1.35599 0.484662 0
M  V30 4922 H 469.557 2.46055 3.42104 0
M  V30 4923 H 468.281 1.29144 2.99982 0
M  V30 4924 H 466.94 3.12675 1.9139 0
M  V30 4925 H 466.588 2.56676 4.32581 0
M  V30 4926 H 466.288 4.2943 4.01078 0
M  V30 4927 H 467.812 3.78467 4.79161 0
M  V30 4928 H 469.226 4.97158 2.85494 0
M  V30 4929 H 467.623 5.54058 2.30521 0
M  V30 4930 H 468.693 4.70739 1.16332 0
M  V30 4931 N 470.036 -0.519951 1.48776 0
M  V30 4932 C 470.984 -1.64443 1.64503 0
M  V30 4933 C 471.978 -1.61501 0.511248 0
M  V30 4934 O 473.184 -1.66238 0.690294 0
M  V30 4935 H 469.559 -0.544776 0.518385 0
M  V30 4936 H 471.53 -1.48325 2.58925 0
M  V30 4937 C 470.279 -3.02673 1.71127 0
M  V30 4938 H 469.602 -3.05635 2.57735 0
M  V30 4939 H 471.042 -3.80941 1.86172 0
M  V30 4940 C 469.501 -3.33854 0.452032 0
M  V30 4941 O 470.031 -3.99385 -0.430678 0
M  V30 4942 N 468.237 -2.88825 0.32069 0
M  V30 4943 H 467.784 -2.35674 1.03998 0
M  V30 4944 H 467.742 -3.10056 -0.520814 0
M  V30 4945 N 471.514 -1.37532 -0.769588 0
M  V30 4946 C 472.444 -1.36172 -1.89682 0
M  V30 4947 C 473.425 -0.23001 -1.68538 0
M  V30 4948 O 474.61 -0.43069 -1.89364 0
M  V30 4949 C 471.74 -1.1701 -3.26995 0
M  V30 4950 C 470.694 -2.27216 -3.62708 0
M  V30 4951 C 470.02 -1.93174 -4.98586 0
M  V30 4952 C 471.32 -3.6941 -3.69234 0
M  V30 4953 H 473.014 -2.30499 -1.91078 0
M  V30 4954 H 470.56 -1.10953 -0.917902 0
M  V30 4955 H 472.513 -1.14688 -4.05493 0
M  V30 4956 H 471.237 -0.191395 -3.26039 0
M  V30 4957 H 469.896 -2.28697 -2.86519 0
M  V30 4958 H 469.544 -0.938281 -4.94171 0
M  V30 4959 H 469.244 -2.66973 -5.23449 0
M  V30 4960 H 470.768 -1.92443 -5.79481 0
M  V30 4961 H 472.182 -3.70047 -4.37879 0
M  V30 4962 H 470.579 -4.4228 -4.05597 0
M  V30 4963 H 471.649 -4.0288 -2.69844 0
M  V30 4964 N 472.992 0.995999 -1.22138 0
M  V30 4965 C 474.22 1.77066 -1.07029 0
M  V30 4966 C 474.635 1.8495 0.379357 0
M  V30 4967 O 473.992 1.3174 1.26297 0
M  V30 4968 C 474.043 3.20533 -1.67155 0
M  V30 4969 O 473.764 3.13082 -3.06449 0
M  V30 4970 C 475.265 4.14461 -1.5728 0
M  V30 4971 H 472.485 0.556179 -0.375374 0
M  V30 4972 H 475.029 1.25238 -1.61666 0
M  V30 4973 H 473.184 3.6944 -1.16589 0
M  V30 4974 H 473.598 4.03283 -3.35355 0
M  V30 4975 H 475.072 5.1289 -2.04078 0
M  V30 4976 H 475.549 4.36005 -0.528795 0
M  V30 4977 H 476.155 3.71449 -2.07136 0
M  V30 4978 N 474.47 1.03057 1.19235 0
M  V30 4979 C 475.417 0.612832 2.22515 0
M  V30 4980 C 476.387 -0.374224 1.61829 0
M  V30 4981 O 477.572 -0.270501 1.88873 0
M  V30 4982 C 474.712 -0.028475 3.45088 0
M  V30 4983 C 473.825 1.00483 4.20151 0
M  V30 4984 C 472.96 0.333102 5.30155 0
M  V30 4985 C 471.999 1.3522 5.96977 0
M  V30 4986 N 471.136 0.70616 6.9854 0
M  V30 4987 H 475.976 1.49812 2.57605 0
M  V30 4988 H 473.513 0.749658 1.26564 0
M  V30 4989 H 475.471 -0.417548 4.15105 0
M  V30 4990 H 474.101 -0.877334 3.10649 0
M  V30 4991 H 473.153 1.51194 3.49062 0
M  V30 4992 H 474.465 1.77929 4.65986 0
M  V30 4993 H 473.619 -0.110725 6.06599 0
M  V30 4994 H 472.358 -0.473547 4.85396 0
M  V30 4995 H 471.363 1.80627 5.19282 0
M  V30 4996 H 472.588 2.16037 6.4382 0
M  V30 4997 H 470.534 -0.0803667 6.55951 0
M  V30 4998 H 470.451 1.41848 7.42573 0
M  V30 4999 H 471.719 0.286391 7.78974 0
M  V30 5000 N 475.948 -1.35272 0.808662 0
M  V30 5001 C 477.176 -2.02946 0.402537 0
M  V30 5002 C 477.591 -1.60937 -0.987147 0
M  V30 5003 O 476.948 -0.807917 -1.63643 0
M  V30 5004 C 476.999 -3.58317 0.47868 0
M  V30 5005 O 476.72 -3.98799 1.81358 0
M  V30 5006 C 478.221 -4.43251 0.0656281 0
M  V30 5007 H 475.441 -0.650831 0.163279 0
M  V30 5008 H 477.985 -1.72849 1.09286 0
M  V30 5009 H 476.14 -3.87055 -0.163415 0
M  V30 5010 H 476.554 -4.93451 1.77781 0
M  V30 5011 H 478.028 -5.51738 0.170017 0
M  V30 5012 H 478.505 -4.27913 -0.989278 0
M  V30 5013 H 479.111 -4.19813 0.68096 0
M  V30 5014 N 477.426 -0.562348 -1.47226 0
M  V30 5015 C 478.673 -0.0402165 -2.0246 0
M  V30 5016 C 479.001 1.31169 -1.43614 0
M  V30 5017 O 478.256 1.86805 -0.5833 0
M  V30 5018 C 478.555 0.0969817 -3.57268 0
M  V30 5019 C 478.221 -1.1847 -4.35058 0
M  V30 5020 C 476.883 -1.53588 -4.56031 0
M  V30 5021 C 479.235 -2.03378 -4.79882 0
M  V30 5022 C 476.563 -2.73452 -5.19077 0
M  V30 5023 C 478.915 -3.2245 -5.44251 0
M  V30 5024 C 477.579 -3.57876 -5.63455 0
M  V30 5025 H 476.849 -0.0147163 -0.740854 0
M  V30 5026 H 479.496 -0.734895 -1.76838 0
M  V30 5027 H 477.801 0.87466 -3.81912 0
M  V30 5028 H 479.498 0.516408 -3.97661 0
M  V30 5029 H 476.088 -0.90126 -4.19017 0
M  V30 5030 H 480.272 -1.77553 -4.63453 0
M  V30 5031 H 475.528 -3.01062 -5.32139 0
M  V30 5032 H 479.702 -3.88526 -5.77945 0
M  V30 5033 H 477.329 -4.50849 -6.12078 0
M  V30 5034 N 478.904 1.54736 -0.299062 0
M  V30 5035 C 479.834 2.26409 0.571085 0
M  V30 5036 C 480.815 1.2629 1.13951 0
M  V30 5037 O 482 1.55059 1.16921 0
M  V30 5038 C 479.13 3.00338 1.74396 0
M  V30 5039 C 478.084 4.07588 1.30599 0
M  V30 5040 C 477.41 4.69222 2.56387 0
M  V30 5041 C 478.71 5.20455 0.438645 0
M  V30 5042 H 480.404 2.99388 -0.0266991 0
M  V30 5043 H 477.95 1.43993 -0.0142812 0
M  V30 5044 H 479.903 3.49198 2.35878 0
M  V30 5045 H 478.627 2.24934 2.36796 0
M  V30 5046 H 477.286 3.59575 0.71424 0
M  V30 5047 H 476.934 3.9046 3.17097 0
M  V30 5048 H 476.634 5.41653 2.27784 0
M  V30 5049 H 478.158 5.20844 3.18675 0
M  V30 5050 H 479.572 5.65221 0.959085 0
M  V30 5051 H 477.969 5.99594 0.246466 0
M  V30 5052 H 479.039 4.8192 -0.536738 0
M  V30 5053 N 480.382 0.0267497 1.57577 0
M  V30 5054 C 481.329 -0.955894 2.10075 0
M  V30 5055 C 482.299 -1.32453 1.00226 0
M  V30 5056 O 483.484 -1.41826 1.27632 0
M  V30 5057 C 480.624 -2.2338 2.6305 0
M  V30 5058 C 479.737 -1.92183 3.86898 0
M  V30 5059 C 478.872 -3.14251 4.28275 0
M  V30 5060 C 477.911 -2.78862 5.44888 0
M  V30 5061 N 477.048 -3.93548 5.81433 0
M  V30 5062 H 481.888 -0.501303 2.93753 0
M  V30 5063 H 479.425 -0.235847 1.45197 0
M  V30 5064 H 481.383 -2.98124 2.91853 0
M  V30 5065 H 480.013 -2.6646 1.82205 0
M  V30 5066 H 479.065 -1.07692 3.64838 0
M  V30 5067 H 480.377 -1.62117 4.7172 0
M  V30 5068 H 479.531 -3.97317 4.58502 0
M  V30 5069 H 478.27 -3.47476 3.42215 0
M  V30 5070 H 477.275 -1.94208 5.14357 0
M  V30 5071 H 478.5 -2.46855 6.32645 0
M  V30 5072 H 476.446 -4.2662 4.98328 0
M  V30 5073 H 476.363 -3.67098 6.6089 0
M  V30 5074 H 477.631 -4.77325 6.16264 0
M  V30 5075 N 481.861 -1.55662 -0.24637 0
M  V30 5076 C 482.824 -1.89558 -1.28842 0
M  V30 5077 C 483.824 -0.772082 -1.41052 0
M  V30 5078 O 485.014 -1.04007 -1.39743 0
M  V30 5079 C 482.146 -2.12449 -2.66605 0
M  V30 5080 H 483.339 -2.82735 -1.00004 0
M  V30 5081 H 480.892 -1.48562 -0.485684 0
M  V30 5082 H 481.627 -1.21742 -3.00582 0
M  V30 5083 H 481.412 -2.94273 -2.59125 0
M  V30 5084 H 482.902 -2.39854 -3.41847 0
M  V30 5085 N 483.339 0.512053 -1.4905 0
M  V30 5086 C 484.585 1.26874 -1.58212 0
M  V30 5087 C 484.918 1.9241 -0.263073 0
M  V30 5088 O 484.193 1.80181 0.732476 0
M  V30 5089 C 484.476 2.34428 -2.73341 0
M  V30 5090 C 484.329 1.73466 -4.15006 0
M  V30 5091 C 485.648 3.36073 -2.84154 0
M  V30 5092 H 482.767 0.459924 -0.575881 0
M  V30 5093 H 485.409 0.568587 -1.81293 0
M  V30 5094 H 483.559 2.94146 -2.53792 0
M  V30 5095 H 485.231 1.17661 -4.46042 0
M  V30 5096 H 483.474 1.03921 -4.21168 0
M  V30 5097 H 484.145 2.51426 -4.91415 0
M  V30 5098 H 486.621 2.86332 -3.01916 0
M  V30 5099 H 485.497 4.08703 -3.66406 0
M  V30 5100 H 485.758 3.97725 -1.93048 0
M  V30 5101 N 484.817 1.37938 0.762283 0
M  V30 5102 C 486.065 1.33404 1.51815 0
M  V30 5103 C 486.386 -0.0780975 1.94844 0
M  V30 5104 O 485.656 -1.02405 1.67003 0
M  V30 5105 H 484.236 0.490839 0.563104 0
M  V30 5106 H 486.898 1.72527 0.906669 0
M  V30 5107 H 485.994 1.97926 2.41313 0
M  V30 5108 N 486.295 -0.989507 1.22664 0
M  V30 5109 C 487.205 -2.11449 1.01619 0
M  V30 5110 C 488.221 -1.73962 -0.036545 0
M  V30 5111 O 489.397 -2.00788 0.156924 0
M  V30 5112 C 486.462 -3.41465 0.600204 0
M  V30 5113 C 485.523 -3.93033 1.72695 0
M  V30 5114 C 484.756 -5.16844 1.33071 0
M  V30 5115 O 484.979 -5.7001 0.210975 0
M  V30 5116 O 483.913 -5.6225 2.14845 0
M  V30 5117 H 487.739 -2.32088 1.9588 0
M  V30 5118 H 485.324 -1.09823 1.01289 0
M  V30 5119 H 487.206 -4.19695 0.37873 0
M  V30 5120 H 485.881 -3.22178 -0.313511 0
M  V30 5121 H 484.788 -3.15961 2.00298 0
M  V30 5122 H 486.121 -4.16758 2.61865 0
M  V30 5123 N 487.773 -1.03688 -1.18687 0
M  V30 5124 C 489.022 -0.733235 -1.879 0
M  V30 5125 C 489.335 0.741745 -1.8099 0
M  V30 5126 O 490.541 1.15875 -2.4553 0
M  V30 5127 C 488.997 -1.26127 -3.37076 0
M  V30 5128 C 488.605 -2.76461 -3.52524 0
M  V30 5129 C 490.349 -1.03398 -4.11715 0
M  V30 5130 C 488.256 -3.22642 -4.95637 0
M  V30 5131 H 487.186 -0.270584 -0.703776 0
M  V30 5132 H 489.837 -1.25222 -1.34133 0
M  V30 5133 H 488.219 -0.670165 -3.90288 0
M  V30 5134 H 489.393 -3.41296 -3.09602 0
M  V30 5135 H 487.708 -2.97559 -2.91286 0
M  V30 5136 H 490.305 -1.3542 -5.17267 0
M  V30 5137 H 490.648 0.0289246 -4.1629 0
M  V30 5138 H 491.181 -1.5895 -3.64664 0
M  V30 5139 H 487.92 -4.28296 -4.96228 0
M  V30 5140 H 487.44 -2.62539 -5.39289 0
M  V30 5141 H 489.119 -3.16444 -5.64333 0
M  V30 5142 N 489.251 1.34841 -0.815825 0
M  V30 5143 C 490.181 2.32187 -0.247298 0
M  V30 5144 C 491.162 1.5791 0.632344 0
M  V30 5145 O 492.347 1.8593 0.560698 0
M  V30 5146 C 489.477 3.42122 0.597466 0
M  V30 5147 C 488.431 4.27602 -0.184446 0
M  V30 5148 C 487.757 5.28942 0.782609 0
M  V30 5149 C 489.057 5.03502 -1.38865 0
M  V30 5150 H 490.751 2.79985 -1.06061 0
M  V30 5151 H 488.297 1.34611 -0.511461 0
M  V30 5152 H 490.25 4.09232 1.00533 0
M  V30 5153 H 488.974 2.92956 1.44376 0
M  V30 5154 H 487.633 3.62085 -0.573592 0
M  V30 5155 H 487.281 4.7604 1.62466 0
M  V30 5156 H 486.981 5.87008 0.263695 0
M  V30 5157 H 488.505 5.98922 1.18848 0
M  V30 5158 H 489.919 5.63506 -1.05518 0
M  V30 5159 H 488.316 5.71108 -1.8427 0
M  V30 5160 H 489.386 4.33608 -2.17054 0
M  V30 5161 N 490.729 0.570148 1.46925 0
M  V30 5162 C 491.659 -0.158274 2.32963 0
M  V30 5163 C 492.64 -0.896093 1.44583 0
M  V30 5164 O 493.825 -0.874022 1.7342 0
M  V30 5165 C 490.955 -1.18055 3.26619 0
M  V30 5166 C 489.909 -0.558379 4.24342 0
M  V30 5167 C 489.235 -1.68623 5.07415 0
M  V30 5168 C 490.535 0.496295 5.19937 0
M  V30 5169 H 492.229 0.560046 2.94115 0
M  V30 5170 H 489.775 0.270775 1.41431 0
M  V30 5171 H 491.728 -1.69841 3.85658 0
M  V30 5172 H 490.452 -1.92899 2.63548 0
M  V30 5173 H 489.111 -0.0617157 3.66548 0
M  V30 5174 H 488.759 -2.42402 4.40738 0
M  V30 5175 H 488.459 -1.27564 5.73586 0
M  V30 5176 H 489.983 -2.20709 5.69315 0
M  V30 5177 H 491.397 0.0640052 5.73264 0
M  V30 5178 H 489.794 0.82649 5.94381 0
M  V30 5179 H 490.864 1.38735 4.6463 0
M  V30 5180 N 492.207 -1.54576 0.307264 0
M  V30 5181 C 493.137 -2.26708 -0.55907 0
M  V30 5182 C 494.118 -1.26893 -1.1328 0
M  V30 5183 O 495.303 -1.55677 -1.16097 0
M  V30 5184 C 492.433 -3.01259 -1.72801 0
M  V30 5185 C 491.387 -4.08275 -1.28435 0
M  V30 5186 C 490.713 -4.70575 -2.53895 0
M  V30 5187 C 492.013 -5.2068 -0.411038 0
M  V30 5188 H 493.707 -2.9937 0.042576 0
M  V30 5189 H 491.253 -1.43983 0.0219173 0
M  V30 5190 H 493.206 -3.50444 -2.34023 0
M  V30 5191 H 491.93 -2.26187 -2.356 0
M  V30 5192 H 490.589 -3.59949 -0.695161 0
M  V30 5193 H 490.237 -3.92136 -3.15021 0
M  V30 5194 H 489.937 -5.42854 -2.24908 0
M  V30 5195 H 491.461 -5.22527 -3.15908 0
M  V30 5196 H 492.875 -5.65721 -0.929097 0
M  V30 5197 H 491.272 -5.99716 -0.214664 0
M  V30 5198 H 492.342 -4.81629 0.562287 0
M  V30 5199 N 493.685 -0.035106 -1.57561 0
M  V30 5200 C 495.096 0.502885 -1.798 0
M  V30 5201 C 495.447 1.71892 -0.945921 0
M  V30 5202 O 494.572 2.15822 -0.157991 0
M  V30 5203 C 495.167 0.919097 -3.26095 0
M  V30 5204 C 493.726 1.40216 -3.49308 0
M  V30 5205 C 492.873 0.369709 -2.74824 0
M  V30 5206 H 495.824 -0.261102 -1.56537 0
M  V30 5207 H 495.845 1.78308 -3.36135 0
M  V30 5208 H 495.357 0.0338526 -3.88085 0
M  V30 5209 H 493.458 2.30714 -2.92578 0
M  V30 5210 H 493.571 1.40541 -4.58023 0
M  V30 5211 H 491.935 0.839113 -2.40481 0
M  V30 5212 H 492.718 -0.507173 -3.39533 0
M  V30 5213 N 495.163 1.55791 0.238111 0
M  V30 5214 C 496.411 1.77681 0.963001 0
M  V30 5215 C 496.732 0.600674 1.85518 0
M  V30 5216 O 496.002 -0.383182 1.92116 0
M  V30 5217 H 494.582 0.655315 0.358568 0
M  V30 5218 H 497.244 1.93239 0.253945 0
M  V30 5219 H 496.34 2.69177 1.57956 0
M  V30 5220 N 496.642 -0.504142 1.49319 0
M  V30 5221 C 497.888 -1.25767 1.59857 0
M  V30 5222 C 498.243 -1.90348 0.280262 0
M  V30 5223 O 497.536 -1.77588 -0.719241 0
M  V30 5224 C 497.73 -2.35021 2.69258 0
M  V30 5225 C 497.559 -1.81154 4.11598 0
M  V30 5226 C 496.329 -1.62596 4.78425 0
M  V30 5227 C 498.527 -1.3252 4.96934 0
M  V30 5228 N 496.509 -1.03625 6.05091 0
M  V30 5229 C 497.88 -0.856633 6.14054 0
M  V30 5230 C 499.935 -1.21063 4.82958 0
M  V30 5231 C 498.638 -0.284841 7.18736 0
M  V30 5232 C 500.664 -0.652815 5.87786 0
M  V30 5233 C 500.026 -0.194461 7.04132 0
M  V30 5234 H 496.125 -0.450293 0.639343 0
M  V30 5235 H 498.709 -0.565344 1.86311 0
M  V30 5236 H 496.88 -3.01719 2.44581 0
M  V30 5237 H 498.612 -3.02061 2.69335 0
M  V30 5238 H 495.367 -1.86873 4.35173 0
M  V30 5239 H 495.791 -0.76076 6.72712 0
M  V30 5240 H 500.433 -1.551 3.93324 0
M  V30 5241 H 498.151 0.0677979 8.08072 0
M  V30 5242 H 501.737 -0.566994 5.79031 0
M  V30 5243 H 500.617 0.230442 7.83861 0
M  V30 5244 N 498.12 -1.38341 -0.754957 0
M  V30 5245 C 499.369 -1.33791 -1.5094 0
M  V30 5246 C 499.682 0.0699267 -1.95475 0
M  V30 5247 O 500.888 0.237956 -2.70455 0
M  V30 5248 C 499.344 -2.34934 -2.72643 0
M  V30 5249 C 498.952 -3.81332 -2.35138 0
M  V30 5250 C 500.696 -2.39425 -3.50536 0
M  V30 5251 C 498.603 -4.74164 -3.53444 0
M  V30 5252 H 497.533 -0.497314 -0.566741 0
M  V30 5253 H 500.184 -1.63888 -0.825403 0
M  V30 5254 H 498.566 -1.97878 -3.43017 0
M  V30 5255 H 499.74 -4.27319 -1.7244 0
M  V30 5256 H 498.055 -3.79946 -1.70382 0
M  V30 5257 H 500.652 -3.0598 -4.38498 0
M  V30 5258 H 500.995 -1.41278 -3.91594 0
M  V30 5259 H 501.528 -2.75274 -2.87174 0
M  V30 5260 H 498.267 -5.73501 -3.17453 0
M  V30 5261 H 497.787 -4.3287 -4.15191 0
M  V30 5262 H 499.466 -4.92111 -4.20043 0
M  V30 5263 N 499.598 0.982988 -1.23187 0
M  V30 5264 C 500.561 2.05649 -1.01198 0
M  V30 5265 C 501.561 1.6078 0.0252464 0
M  V30 5266 O 502.751 1.72878 -0.214243 0
M  V30 5267 C 499.883 3.36744 -0.530656 0
M  V30 5268 H 501.076 2.2659 -1.96461 0
M  V30 5269 H 498.629 1.15602 -1.05195 0
M  V30 5270 H 499.364 3.21492 0.425873 0
M  V30 5271 H 499.149 3.7065 -1.2791 0
M  V30 5272 H 500.639 4.15705 -0.397366 0
M  V30 5273 N 501.076 1.04316 1.18135 0
M  V30 5274 C 502.006 0.657299 2.24058 0
M  V30 5275 C 502.987 -0.340678 1.66654 0
M  V30 5276 O 504.172 -0.220223 1.92947 0
M  V30 5277 C 501.302 0.0220715 3.47293 0
M  V30 5278 C 500.256 0.943857 4.17463 0
M  V30 5279 C 499.582 0.172973 5.3442 0
M  V30 5280 C 500.882 2.26409 4.70677 0
M  V30 5281 H 502.576 1.5428 2.56589 0
M  V30 5282 H 500.122 0.743263 1.23335 0
M  V30 5283 H 502.075 -0.259607 4.206 0
M  V30 5284 H 500.799 -0.898323 3.14003 0
M  V30 5285 H 499.458 1.20996 3.46057 0
M  V30 5286 H 499.106 -0.749907 4.97379 0
M  V30 5287 H 498.806 0.787098 5.82304 0
M  V30 5288 H 500.33 -0.101628 6.10515 0
M  V30 5289 H 501.744 2.04294 5.35665 0
M  V30 5290 H 500.141 2.8314 5.29105 0
M  V30 5291 H 501.211 2.90883 3.87962 0
M  V30 5292 N 502.554 -1.34406 0.822964 0
M  V30 5293 C 503.779 -2.0304 0.423034 0
M  V30 5294 C 504.204 -1.61568 -0.963196 0
M  V30 5295 O 503.562 -0.800339 -1.62678 0
M  V30 5296 C 503.61 -3.56636 0.53321 0
M  V30 5297 O 502.714 -4.09971 -0.446939 0
M  V30 5298 H 502.055 -0.64075 0.174171 0
M  V30 5299 H 504.585 -1.71653 1.11339 0
M  V30 5300 H 504.595 -4.05945 0.408991 0
M  V30 5301 H 503.27 -3.86168 1.54425 0
M  V30 5302 H 501.847 -3.71835 -0.281601 0
M  V30 5303 N 504.032 -0.577932 -1.46621 0
M  V30 5304 C 504.942 0.160651 -2.34049 0
M  V30 5305 C 505.958 0.890911 -1.49462 0
M  V30 5306 O 507.134 0.855166 -1.82343 0
M  V30 5307 C 504.199 1.16447 -3.26559 0
M  V30 5308 C 503.26 0.4394 -4.27045 0
M  V30 5309 C 502.493 1.3954 -5.15135 0
M  V30 5310 O 502.716 2.63162 -5.06065 0
M  V30 5311 O 501.65 0.908585 -5.95003 0
M  V30 5312 H 505.476 -0.557057 -2.98547 0
M  V30 5313 H 503.061 -0.338369 -1.45518 0
M  V30 5314 H 504.943 1.7434 -3.83645 0
M  V30 5315 H 503.618 1.86373 -2.64663 0
M  V30 5316 H 502.525 -0.181247 -3.73661 0
M  V30 5317 H 503.858 -0.218799 -4.91713 0
M  V30 5318 N 505.51 1.54411 -0.315457 0
M  V30 5319 C 506.787 1.92562 0.343398 0
M  V30 5320 C 507.167 1.24423 1.70535 0
M  V30 5321 O 506.515 0.385051 2.25232 0
M  V30 5322 C 506.725 3.46168 0.443687 0
M  V30 5323 C 508.073 4.18659 0.707783 0
M  V30 5324 O 509.097 3.52281 0.52693 0
M  V30 5325 O 507.956 5.36198 1.05612 0
M  V30 5326 H 505.05 0.80379 0.194552 0
M  V30 5327 H 507.596 1.65738 -0.364577 0
M  V30 5328 H 506.368 3.8792 -0.513172 0
M  V30 5329 H 505.991 3.79073 1.19956 0
M  V30 5330 N 506.988 0.0434614 1.5754 0
M  V30 5331 C 508.213 -0.645358 1.97104 0
M  V30 5332 C 508.638 -1.64037 0.920521 0
M  V30 5333 O 507.996 -1.80922 -0.11708 0
M  V30 5334 C 508.044 -1.31547 3.35749 0
M  V30 5335 O 507.148 -2.43103 3.33129 0
M  V30 5336 H 506.489 -0.168403 0.64229 0
M  V30 5337 H 509.019 0.109573 2.04306 0
M  V30 5338 H 509.029 -1.66895 3.72304 0
M  V30 5339 H 507.704 -0.586205 4.11748 0
M  V30 5340 H 506.281 -2.0976 3.0831 0
M  V30 5341 N 508.466 -1.55915 -0.229846 0
M  V30 5342 C 509.429 -1.90914 -1.26824 0
M  V30 5343 C 510.429 -0.786999 -1.40225 0
M  V30 5344 O 511.619 -1.05484 -1.38632 0
M  V30 5345 C 508.751 -2.15264 -2.64337 0
M  V30 5346 H 509.944 -2.8378 -0.969998 0
M  V30 5347 H 507.497 -1.49069 -0.4699 0
M  V30 5348 H 508.232 -1.24923 -2.99274 0
M  V30 5349 H 508.017 -2.97005 -2.55989 0
M  V30 5350 H 509.507 -2.43467 -3.39284 0
M  V30 5351 N 509.944 0.496216 -1.49584 0
M  V30 5352 C 511.19 1.25189 -1.59548 0
M  V30 5353 C 511.523 1.9212 -0.283466 0
M  V30 5354 O 510.798 1.80947 0.713324 0
M  V30 5355 C 511.081 2.31516 -2.75812 0
M  V30 5356 C 510.934 1.69054 -4.16822 0
M  V30 5357 C 512.253 3.3304 -2.87702 0
M  V30 5358 H 509.372 0.45379 -0.580727 0
M  V30 5359 H 512.014 0.549327 -1.81886 0
M  V30 5360 H 510.164 2.91438 -2.56897 0
M  V30 5361 H 511.836 1.12923 -4.47265 0
M  V30 5362 H 510.079 0.994485 -4.22247 0
M  V30 5363 H 510.75 2.462 -4.94054 0
M  V30 5364 H 513.226 2.83114 -3.04936 0
M  V30 5365 H 512.102 4.04794 -3.7072 0
M  V30 5366 H 512.363 3.95655 -1.97255 0
M  V30 5367 N 511.423 1.38739 0.74761 0
M  V30 5368 C 512.669 1.35475 1.50912 0
M  V30 5369 C 513.002 -0.0533093 1.94127 0
M  V30 5370 O 512.277 -1.01572 1.65871 0
M  V30 5371 C 512.56 2.31582 2.75757 0
M  V30 5372 C 512.413 3.81274 2.38642 0
M  V30 5373 C 513.732 2.25722 3.77806 0
M  V30 5374 H 510.851 0.493427 0.547447 0
M  V30 5375 H 513.493 1.69634 0.855823 0
M  V30 5376 H 511.643 2.02582 3.31501 0
M  V30 5377 H 513.315 4.20972 1.88626 0
M  V30 5378 H 511.558 3.98664 1.71025 0
M  V30 5379 H 512.229 4.4399 3.27989 0
M  V30 5380 H 514.705 2.51336 3.31616 0
M  V30 5381 H 513.581 2.95069 4.62845 0
M  V30 5382 H 513.842 1.25803 4.23823 0
M  V30 5383 N 512.901 -0.976442 1.23707 0
M  V30 5384 C 513.831 -2.08749 1.04624 0
M  V30 5385 C 514.812 -1.70057 -0.0380956 0
M  V30 5386 O 515.997 -1.93782 0.127308 0
M  V30 5387 C 513.127 -3.41335 0.640902 0
M  V30 5388 C 512.081 -3.93947 1.67302 0
M  V30 5389 C 511.407 -5.22774 1.12301 0
M  V30 5390 C 512.707 -4.22769 3.06697 0
M  V30 5391 H 514.401 -2.24972 1.97555 0
M  V30 5392 H 511.947 -1.08108 0.951247 0
M  V30 5393 H 513.9 -4.18489 0.494434 0
M  V30 5394 H 512.624 -3.24988 -0.324099 0
M  V30 5395 H 511.283 -3.18941 1.80755 0
M  V30 5396 H 510.931 -5.0278 0.148877 0
M  V30 5397 H 510.631 -5.58942 1.81267 0
M  V30 5398 H 512.155 -6.02546 0.988479 0
M  V30 5399 H 513.569 -4.90659 2.96524 0
M  V30 5400 H 511.966 -4.70147 3.72937 0
M  V30 5401 H 513.036 -3.29885 3.55392 0
M  V30 5402 N 514.379 -1.04941 -1.1758 0
M  V30 5403 C 515.604 -0.778253 -1.92245 0
M  V30 5404 C 516.029 0.659707 -1.76152 0
M  V30 5405 O 515.387 1.45803 -1.07755 0
M  V30 5406 C 515.435 -1.16051 -3.41416 0
M  V30 5407 O 514.539 -0.291153 -4.11371 0
M  V30 5408 H 513.88 -0.285619 -0.599431 0
M  V30 5409 H 516.41 -1.40159 -1.49052 0
M  V30 5410 H 516.42 -1.12619 -3.92149 0
M  V30 5411 H 515.095 -2.208 -3.52449 0
M  V30 5412 H 513.672 -0.385851 -3.70898 0
M  V30 5413 N 515.857 1.33968 -0.830081 0
M  V30 5414 C 516.787 2.31911 -0.271911 0
M  V30 5415 C 517.768 1.58571 0.61556 0
M  V30 5416 O 518.953 1.86514 0.540946 0
M  V30 5417 C 516.083 3.42737 0.561146 0
M  V30 5418 C 515.037 4.27383 -0.229789 0
M  V30 5419 C 514.363 5.29742 0.726463 0
M  V30 5420 C 515.663 5.02 -1.44197 0
M  V30 5421 H 517.357 2.78844 -1.09025 0
M  V30 5422 H 514.903 1.34061 -0.52571 0
M  V30 5423 H 516.856 4.10276 0.961867 0
M  V30 5424 H 515.58 2.94471 1.41261 0
M  V30 5425 H 514.239 3.61456 -0.611964 0
M  V30 5426 H 513.887 4.77736 1.57408 0
M  V30 5427 H 513.587 5.87255 0.20142 0
M  V30 5428 H 515.111 6.00149 1.12489 0
M  V30 5429 H 516.525 5.62355 -1.11488 0
M  V30 5430 H 514.922 5.69122 -1.90317 0
M  V30 5431 H 515.992 4.31281 -2.2164 0
M  V30 5432 N 517.335 0.585699 1.46312 0
M  V30 5433 C 518.584 0.0701192 2.01578 0
M  V30 5434 C 518.897 -1.29889 1.46247 0
M  V30 5435 O 520.103 -1.90598 1.93351 0
M  V30 5436 C 518.559 0.0747499 3.59822 0
M  V30 5437 C 518.167 1.44226 4.24149 0
M  V30 5438 C 519.911 -0.38673 4.22735 0
M  V30 5439 C 517.818 1.40446 5.74481 0
M  V30 5440 H 516.748 0.0224441 0.753666 0
M  V30 5441 H 519.399 0.737789 1.68015 0
M  V30 5442 H 517.781 -0.659144 3.90476 0
M  V30 5443 H 518.955 2.19612 4.05101 0
M  V30 5444 H 517.27 1.84401 3.73343 0
M  V30 5445 H 519.867 -0.433853 5.32937 0
M  V30 5446 H 520.21 -1.40489 3.91878 0
M  V30 5447 H 520.743 0.293195 3.96718 0
M  V30 5448 H 517.482 2.39952 6.10003 0
M  V30 5449 H 517.002 0.692845 5.95785 0
M  V30 5450 H 518.681 1.11865 6.37256 0
M  V30 5451 N 518.813 -1.54241 0.323641 0
M  V30 5452 C 520.09 -1.92741 -0.333181 0
M  V30 5453 C 520.47 -1.25326 -1.69872 0
M  V30 5454 O 519.818 -0.396991 -2.25025 0
M  V30 5455 C 520.028 -3.46399 -0.425322 0
M  V30 5456 C 521.376 -4.19029 -0.68557 0
M  V30 5457 O 522.4 -3.52555 -0.50824 0
M  V30 5458 O 521.259 -5.36751 -1.02767 0
M  V30 5459 H 518.353 -0.804811 -0.190286 0
M  V30 5460 H 520.899 -1.65542 0.373361 0
M  V30 5461 H 519.671 -3.87643 0.533737 0
M  V30 5462 H 519.294 -3.79704 -1.17944 0
M  V30 5463 N 520.291 -0.0518155 -1.57515 0
M  V30 5464 C 521.519 0.631395 -1.9703 0
M  V30 5465 C 521.934 1.64341 -0.92938 0
M  V30 5466 O 521.291 1.82296 0.0863266 0
M  V30 5467 C 521.342 1.31774 -3.36627 0
M  V30 5468 O 521.063 0.346247 -4.3673 0
M  V30 5469 C 522.564 2.09065 -3.90905 0
M  V30 5470 H 519.784 0.172576 -0.648428 0
M  V30 5471 H 522.328 -0.118306 -2.04158 0
M  V30 5472 H 520.483 2.01867 -3.30649 0
M  V30 5473 H 520.897 0.836226 -5.17791 0
M  V30 5474 H 522.371 2.52508 -4.9086 0
M  V30 5475 H 522.848 2.93908 -3.26366 0
M  V30 5476 H 523.454 1.43882 -4.00223 0
M  V30 5477 N 521.769 1.56035 0.221574 0
M  V30 5478 C 523.018 1.78245 0.944016 0
M  V30 5479 C 523.331 0.620371 1.85501 0
M  V30 5480 O 524.537 0.726103 2.6161 0
M  V30 5481 C 522.993 3.15659 1.7288 0
M  V30 5482 C 522.601 4.39591 0.863942 0
M  V30 5483 C 524.345 3.47195 2.44246 0
M  V30 5484 C 522.252 5.6803 1.64607 0
M  V30 5485 H 521.182 0.664547 0.356222 0
M  V30 5486 H 523.833 1.8243 0.197904 0
M  V30 5487 H 522.215 3.0565 2.51781 0
M  V30 5488 H 523.389 4.60655 0.115464 0
M  V30 5489 H 521.704 4.15572 0.262407 0
M  V30 5490 H 524.301 4.40381 3.03263 0
M  V30 5491 H 524.644 2.69693 3.1713 0
M  V30 5492 H 525.177 3.58533 1.72334 0
M  V30 5493 H 521.916 6.48425 0.960507 0
M  V30 5494 H 521.436 5.51027 2.36917 0
M  V30 5495 H 523.115 6.08203 2.20675 0
M  V30 5496 N 523.247 -0.488276 1.49845 0
M  V30 5497 C 524.524 -1.24959 1.50481 0
M  V30 5498 C 524.904 -2.09735 0.239698 0
M  V30 5499 O 524.252 -2.14865 -0.777524 0
M  V30 5500 C 524.462 -2.0954 2.79095 0
M  V30 5501 C 525.81 -2.68305 3.29086 0
M  V30 5502 O 526.834 -2.19797 2.80299 0
M  V30 5503 O 525.693 -3.56643 4.14087 0
M  V30 5504 H 522.787 -0.566133 0.602845 0
M  V30 5505 H 525.333 -0.501504 1.6212 0
M  V30 5506 H 524.105 -1.46958 3.62656 0
M  V30 5507 H 523.728 -2.91517 2.70377 0
M  V30 5508 N 524.725 -1.39134 -0.740242 0
M  V30 5509 C 525.953 -1.39334 -1.5295 0
M  V30 5510 C 526.368 0.0135008 -1.88795 0
M  V30 5511 O 525.725 0.983524 -1.5373 0
M  V30 5512 C 525.776 -2.2614 -2.82034 0
M  V30 5513 O 525.497 -3.61345 -2.47712 0
M  V30 5514 C 526.998 -2.34666 -3.76094 0
M  V30 5515 H 524.218 -0.476103 -0.472828 0
M  V30 5516 H 526.762 -1.82883 -0.9151 0
M  V30 5517 H 524.917 -1.86018 -3.39818 0
M  V30 5518 H 525.331 -4.07194 -3.30595 0
M  V30 5519 H 526.805 -2.99663 -4.63579 0
M  V30 5520 H 527.282 -1.36426 -4.17474 0
M  V30 5521 H 527.888 -2.75236 -3.2423 0
M  V30 5522 N 526.204 0.969867 -1.24223 0
M  V30 5523 C 527.45 1.7151 -1.08223 0
M  V30 5524 C 527.783 1.90478 0.37838 0
M  V30 5525 O 527.058 1.4647 1.27971 0
M  V30 5526 C 527.341 3.10714 -1.82013 0
M  V30 5527 C 527.194 2.9925 -3.35811 0
M  V30 5528 C 528.513 4.10332 -1.59108 0
M  V30 5529 H 525.632 0.622499 -0.394543 0
M  V30 5530 H 528.274 1.1284 -1.52863 0
M  V30 5531 H 526.424 3.608 -1.44068 0
M  V30 5532 H 528.096 2.56608 -3.83341 0
M  V30 5533 H 526.339 2.35512 -3.64303 0
M  V30 5534 H 527.01 3.97857 -3.82641 0
M  V30 5535 H 529.486 3.69097 -1.92111 0
M  V30 5536 H 528.362 5.05804 -2.13198 0
M  V30 5537 H 528.623 4.38926 -0.528832 0
M  V30 5538 N 527.682 1.05563 1.17022 0
M  V30 5539 C 528.615 0.604197 2.20056 0
M  V30 5540 C 529.593 -0.369169 1.58354 0
M  V30 5541 O 530.777 -0.279898 1.8641 0
M  V30 5542 C 527.904 -0.115265 3.38504 0
M  V30 5543 C 526.95 0.813698 4.18666 0
M  V30 5544 S 527.783 2.30492 4.83357 0
M  V30 5545 C 528.939 1.59674 6.0519 0
M  V30 5546 H 529.172 1.47713 2.58008 0
M  V30 5547 H 526.705 0.867932 1.27696 0
M  V30 5548 H 528.663 -0.524162 4.0714 0
M  V30 5549 H 527.324 -0.964284 2.98932 0
M  V30 5550 H 526.517 0.256736 5.03346 0
M  V30 5551 H 526.119 1.16213 3.55486 0
M  V30 5552 H 528.411 0.898164 6.7152 0
M  V30 5553 H 529.354 2.42115 6.65422 0
M  V30 5554 H 529.762 1.08252 5.54023 0
M  V30 5555 N 529.16 -1.33526 0.837174 0
M  V30 5556 C 530.408 -1.97446 0.431211 0
M  V30 5557 C 530.729 -1.6665 -1.01255 0
M  V30 5558 O 529.999 -0.964559 -1.70508 0
M  V30 5559 H 528.579 -0.73043 0.156463 0
M  V30 5560 H 531.241 -1.62918 1.06976 0
M  V30 5561 H 530.337 -3.07001 0.561877 0
M  V30 5562 N 530.638 -0.59345 -1.46 0
M  V30 5563 C 531.588 0.154751 -2.27474 0
M  V30 5564 C 532.572 0.851849 -1.365 0
M  V30 5565 O 533.764 0.744171 -1.60596 0
M  V30 5566 C 530.893 1.16079 -3.2308 0
M  V30 5567 C 529.979 0.465256 -4.2154 0
M  V30 5568 N 530.37 -0.485197 -5.03467 0
M  V30 5569 C 528.668 0.714634 -4.40237 0
M  V30 5570 C 529.369 -0.892709 -5.74809 0
M  V30 5571 N 528.345 -0.239511 -5.43072 0
M  V30 5572 H 532.147 -0.57546 -2.88211 0
M  V30 5573 H 529.661 -0.416046 -1.5698 0
M  V30 5574 H 531.658 1.71108 -3.80168 0
M  V30 5575 H 530.318 1.89171 -2.63903 0
M  V30 5576 H 531.329 -0.861258 -5.10689 0
M  V30 5577 H 528.006 1.43131 -3.92199 0
M  V30 5578 H 529.396 -1.67581 -6.50666 0
M  V30 5579 N 532.116 1.54067 -0.331816 0
M  V30 5580 C 533.362 2.01012 0.268667 0
M  V30 5581 C 533.695 1.2195 1.51136 0
M  V30 5582 O 532.97 0.303972 1.9211 0
M  V30 5583 C 533.253 3.55158 0.59456 0
M  V30 5584 C 533.106 4.4494 -0.659409 0
M  V30 5585 C 534.425 4.16939 1.4089 0
M  V30 5586 H 531.544 0.730698 0.0961756 0
M  V30 5587 H 534.186 1.84593 -0.450031 0
M  V30 5588 H 532.336 3.6928 1.20685 0
M  V30 5589 H 534.008 4.42675 -1.29756 0
M  V30 5590 H 532.251 4.1428 -1.28665 0
M  V30 5591 H 532.922 5.50643 -0.386804 0
M  V30 5592 H 535.398 4.06443 0.891272 0
M  V30 5593 H 534.274 5.24889 1.60569 0
M  V30 5594 H 534.535 3.70798 2.40752 0
M  V30 5595 N 533.594 0.0601682 1.57485 0
M  V30 5596 C 534.819 -0.624416 1.97777 0
M  V30 5597 C 535.244 -1.63051 0.937867 0
M  V30 5598 O 534.602 -1.81036 -0.0978845 0
M  V30 5599 C 534.65 -1.27979 3.37126 0
M  V30 5600 O 533.754 -2.39556 3.35688 0
M  V30 5601 H 533.095 -0.161581 0.64404 0
M  V30 5602 H 535.625 0.131237 2.04179 0
M  V30 5603 H 535.635 -1.62937 3.74053 0
M  V30 5604 H 534.31 -0.542501 4.12347 0
M  V30 5605 H 532.887 -2.06478 3.10517 0
M  V30 5606 N 535.072 -1.5615 -0.213296 0
M  V30 5607 C 536.297 -1.83986 -0.957282 0
M  V30 5608 C 536.722 -0.641526 -1.76822 0
M  V30 5609 O 536.08 0.409722 -1.7661 0
M  V30 5610 C 536.128 -3.09889 -1.84393 0
M  V30 5611 O 535.232 -2.89163 -2.94038 0
M  V30 5612 H 534.573 -0.606357 -0.270605 0
M  V30 5613 H 537.103 -2.03369 -0.224111 0
M  V30 5614 H 537.113 -3.40209 -2.25215 0
M  V30 5615 H 535.788 -3.96735 -1.24795 0
M  V30 5616 H 534.365 -2.70097 -2.57103 0
M  V30 5617 N 536.55 0.480323 -1.50102 0
M  V30 5618 C 537.498 1.60024 -1.68805 0
M  V30 5619 C 538.492 1.60089 -0.553888 0
M  V30 5620 O 539.698 1.64349 -0.734127 0
M  V30 5621 H 536.073 0.530841 -0.532646 0
M  V30 5622 H 538.044 1.41408 -2.62767 0
M  V30 5623 C 536.793 2.98029 -1.79092 0
M  V30 5624 H 536.116 2.98694 -2.65748 0
M  V30 5625 H 537.556 3.75871 -1.96206 0
M  V30 5626 C 536.015 3.32538 -0.540388 0
M  V30 5627 O 536.545 4.00386 0.324637 0
M  V30 5628 N 534.751 2.87873 -0.397154 0
M  V30 5629 H 534.298 2.32834 -1.1021 0
M  V30 5630 H 534.256 3.11328 0.438425 0
M  V30 5631 N 538.028 1.39524 0.732853 0
M  V30 5632 C 538.958 1.41153 1.86005 0
M  V30 5633 C 539.939 0.274614 1.67869 0
M  V30 5634 O 541.124 0.480745 1.88155 0
M  V30 5635 C 538.254 1.25638 3.23778 0
M  V30 5636 C 537.208 2.36752 3.56556 0
M  V30 5637 C 536.534 2.06326 4.93289 0
M  V30 5638 C 537.834 3.79069 3.5931 0
M  V30 5639 H 539.528 2.35484 1.84899 0
M  V30 5640 H 537.074 1.13348 0.888162 0
M  V30 5641 H 539.027 1.25398 4.0231 0
M  V30 5642 H 537.751 0.277772 3.25417 0
M  V30 5643 H 536.41 2.36213 2.80355 0
M  V30 5644 H 536.058 1.06897 4.9151 0
M  V30 5645 H 535.758 2.80757 5.16187 0
M  V30 5646 H 537.282 2.07739 5.74175 0
M  V30 5647 H 538.696 3.81526 4.27914 0
M  V30 5648 H 537.093 4.52878 3.93728 0
M  V30 5649 H 538.163 4.09893 2.59068 0
M  V30 5650 N 539.506 -0.963266 1.24736 0
M  V30 5651 C 540.456 -2.0438 1.01058 0
M  V30 5652 C 541.44 -1.60824 -0.0495354 0
M  V30 5653 O 542.632 -1.76232 0.164741 0
M  V30 5654 C 539.761 -3.37617 0.622067 0
M  V30 5655 C 538.847 -3.87722 1.7185 0
M  V30 5656 N 539.238 -4.10715 2.95207 0
M  V30 5657 C 537.536 -4.16426 1.59703 0
M  V30 5658 C 538.237 -4.51872 3.66315 0
M  V30 5659 N 537.213 -4.57302 2.93897 0
M  V30 5660 H 541.015 -2.20138 1.94721 0
M  V30 5661 H 538.529 -1.14741 1.14927 0
M  V30 5662 H 540.526 -4.14638 0.43366 0
M  V30 5663 H 539.186 -3.23242 -0.307327 0
M  V30 5664 H 540.197 -3.98037 3.31341 0
M  V30 5665 H 536.874 -4.10962 0.73598 0
M  V30 5666 H 538.264 -4.78037 4.72155 0
M  V30 5667 N 540.985 -1.06182 -1.16461 0
M  V30 5668 C 542.233 -0.776326 -1.86595 0
M  V30 5669 C 542.554 0.69921 -1.82033 0
M  V30 5670 O 541.824 1.50579 -1.2531 0
M  V30 5671 H 540.404 -0.284184 -0.690832 0
M  V30 5672 H 543.066 -1.34308 -1.41235 0
M  V30 5673 H 542.162 -1.10022 -2.92064 0
M  V30 5674 N 542.463 1.3308 -0.844243 0
M  V30 5675 C 543.688 2.02341 -0.455282 0
M  V30 5676 C 544.113 1.6308 0.93737 0
M  V30 5677 O 543.471 0.826118 1.61385 0
M  V30 5678 C 543.519 3.55743 -0.58988 0
M  V30 5679 O 542.623 4.1063 0.38166 0
M  V30 5680 H 541.964 0.637898 -0.184343 0
M  V30 5681 H 544.494 1.6986 -1.14056 0
M  V30 5682 H 544.504 4.05243 -0.473522 0
M  V30 5683 H 543.179 3.83662 -1.60549 0
M  V30 5684 H 541.756 3.72236 0.22241 0
M  V30 5685 N 543.941 0.601185 1.45683 0
M  V30 5686 C 545.169 0.100054 2.06658 0
M  V30 5687 C 545.584 -1.21285 1.44691 0
M  V30 5688 O 544.941 -1.73735 0.558772 0
M  V30 5689 C 544.992 -0.0528579 3.61461 0
M  V30 5690 O 544.713 1.20809 4.21114 0
M  V30 5691 C 546.214 -0.586193 4.39407 0
M  V30 5692 H 543.434 0.065905 0.667756 0
M  V30 5693 H 545.978 0.827101 1.87028 0
M  V30 5694 H 544.133 -0.730203 3.80456 0
M  V30 5695 H 544.547 1.03368 5.14213 0
M  V30 5696 H 546.021 -0.642297 5.4825 0
M  V30 5697 H 546.498 -1.60713 4.0874 0
M  V30 5698 H 547.104 0.0568935 4.25262 0
M  V30 5699 N 545.419 -1.53889 0.339982 0
M  V30 5700 C 546.83 -1.86139 -0.144671 0
M  V30 5701 C 547.181 -1.2613 -1.50285 0
M  V30 5702 O 546.306 -0.573515 -2.08662 0
M  V30 5703 C 546.901 -3.37728 -0.269285 0
M  V30 5704 C 545.46 -3.69868 -0.698168 0
M  V30 5705 C 544.607 -2.76777 0.170249 0
M  V30 5706 H 547.558 -1.48503 0.559704 0
M  V30 5707 H 547.579 -3.64331 -1.0974 0
M  V30 5708 H 547.091 -3.81375 0.719366 0
M  V30 5709 H 545.192 -3.31764 -1.69597 0
M  V30 5710 H 545.305 -4.76582 -0.490533 0
M  V30 5711 H 543.669 -2.52188 -0.356844 0
M  V30 5712 H 544.452 -3.23253 1.15597 0
M  V30 5713 N 546.897 -0.0685191 -1.57451 0
M  V30 5714 C 547.829 0.929372 -2.09512 0
M  V30 5715 C 548.842 1.26354 -1.02657 0
M  V30 5716 O 550.031 1.2213 -1.30179 0
M  V30 5717 C 547.131 2.24612 -2.53777 0
M  V30 5718 C 546.304 2.09128 -3.84167 0
M  V30 5719 C 545.363 3.24079 -4.14559 0
M  V30 5720 O 544.389 2.99215 -4.8421 0
M  V30 5721 N 545.591 4.49077 -3.67845 0
M  V30 5722 H 548.356 0.484901 -2.95751 0
M  V30 5723 H 545.917 0.11729 -1.61475 0
M  V30 5724 H 547.909 3.00412 -2.71172 0
M  V30 5725 H 546.479 2.60569 -1.72692 0
M  V30 5726 H 545.699 1.17815 -3.76182 0
M  V30 5727 H 546.987 1.9603 -4.69521 0
M  V30 5728 H 546.385 4.72165 -3.11571 0
M  V30 5729 H 544.942 5.21915 -3.90446 0
M  V30 5730 N 548.375 1.56261 0.205012 0
M  V30 5731 C 549.621 1.80306 0.9283 0
M  V30 5732 C 549.954 0.640932 1.83319 0
M  V30 5733 O 549.229 -0.359032 1.91158 0
M  V30 5734 C 549.512 3.14547 1.75306 0
M  V30 5735 C 549.365 4.41236 0.873562 0
M  V30 5736 C 550.684 3.45382 2.72762 0
M  V30 5737 H 547.803 0.655929 0.336044 0
M  V30 5738 H 550.445 1.88984 0.196211 0
M  V30 5739 H 548.595 3.0728 2.37721 0
M  V30 5740 H 550.267 4.60539 0.264887 0
M  V30 5741 H 548.51 4.33427 0.179773 0
M  V30 5742 H 549.181 5.31639 1.48541 0
M  V30 5743 H 551.657 3.52884 2.20481 0
M  V30 5744 H 550.533 4.40449 3.2756 0
M  V30 5745 H 550.794 2.68377 3.51321 0
M  V30 5746 N 549.853 -0.472356 1.50355 0
M  V30 5747 C 551.081 -1.24784 1.65035 0
M  V30 5748 C 551.496 -1.85837 0.333176 0
M  V30 5749 O 550.853 -1.69168 -0.68472 0
M  V30 5750 C 550.904 -2.35747 2.74054 0
M  V30 5751 O 550.625 -1.77197 4.00665 0
M  V30 5752 C 552.126 -3.26645 2.99696 0
M  V30 5753 H 549.346 -0.377432 0.554785 0
M  V30 5754 H 551.89 -0.563962 1.9657 0
M  V30 5755 H 550.045 -2.99912 2.45217 0
M  V30 5756 H 550.459 -2.5026 4.60945 0
M  V30 5757 H 551.933 -4.00718 3.79644 0
M  V30 5758 H 552.41 -3.8535 2.10718 0
M  V30 5759 H 553.016 -2.68218 3.3006 0
M  V30 5760 N 551.331 -1.39911 -0.725443 0
M  V30 5761 C 552.577 -1.37858 -1.48738 0
M  V30 5762 C 552.91 0.0224187 -1.94187 0
M  V30 5763 O 552.185 0.989204 -1.67466 0
M  V30 5764 C 552.468 -2.3594 -2.72038 0
M  V30 5765 C 552.321 -3.85023 -2.32546 0
M  V30 5766 C 553.64 -2.31704 -3.74167 0
M  V30 5767 H 550.759 -0.502074 -0.539528 0
M  V30 5768 H 553.401 -1.70974 -0.828728 0
M  V30 5769 H 551.551 -2.0783 -3.28236 0
M  V30 5770 H 553.223 -4.2392 -1.81905 0
M  V30 5771 H 551.466 -4.01334 -1.64661 0
M  V30 5772 H 552.137 -4.49152 -3.20884 0
M  V30 5773 H 554.613 -2.5658 -3.27576 0
M  V30 5774 H 553.489 -3.02395 -4.58092 0
M  V30 5775 H 553.75 -1.3253 -4.21768 0
M  V30 5776 N 552.809 0.956637 -1.25245 0
M  V30 5777 C 553.719 2.0868 -1.0719 0
M  V30 5778 C 554.735 1.73997 -0.00959074 0
M  V30 5779 O 555.911 2.00301 -0.210104 0
M  V30 5780 C 552.976 3.39754 -0.690526 0
M  V30 5781 C 552.037 3.88316 -1.83055 0
M  V30 5782 C 551.27 5.13134 -1.46728 0
M  V30 5783 O 551.493 5.6925 -0.362029 0
M  V30 5784 O 550.427 5.56356 -2.29677 0
M  V30 5785 H 554.253 2.26813 -2.01965 0
M  V30 5786 H 551.838 1.07098 -1.04165 0
M  V30 5787 H 553.72 4.18543 -0.489871 0
M  V30 5788 H 552.395 3.22896 0.227981 0
M  V30 5789 H 551.302 3.1054 -2.08604 0
M  V30 5790 H 552.635 4.09669 -2.72822 0
M  V30 5791 N 554.287 1.06798 1.15896 0
M  V30 5792 C 555.535 0.786211 1.8618 0
M  V30 5793 C 555.856 -0.689547 1.82401 0
M  V30 5794 O 555.126 -1.49913 1.26107 0
M  V30 5795 H 553.706 0.287843 0.689315 0
M  V30 5796 H 556.368 1.35055 1.40521 0
M  V30 5797 H 555.464 1.1157 2.91477 0
M  V30 5798 N 555.766 -1.3263 0.851289 0
M  V30 5799 C 556.991 -2.02097 0.466006 0
M  V30 5800 C 557.416 -1.63574 -0.928709 0
M  V30 5801 O 556.774 -0.834665 -1.60944 0
M  V30 5802 C 556.822 -3.55425 0.608737 0
M  V30 5803 O 555.926 -4.10827 -0.359878 0
M  V30 5804 H 555.267 -0.636911 0.187724 0
M  V30 5805 H 557.797 -1.69253 1.14955 0
M  V30 5806 H 557.807 -4.04986 0.495006 0
M  V30 5807 H 556.482 -3.82806 1.62581 0
M  V30 5808 H 555.059 -3.72349 -0.202666 0
M  V30 5809 N 557.244 -0.608902 -1.45362 0
M  V30 5810 C 558.469 -0.10921 -2.07112 0
M  V30 5811 C 558.894 1.19779 -1.45033 0
M  V30 5812 O 558.252 1.72961 -0.543527 0
M  V30 5813 C 558.3 0.0155745 -3.60597 0
M  V30 5814 O 557.404 1.06546 -3.98399 0
M  V30 5815 H 556.745 -0.0746619 -0.659789 0
M  V30 5816 H 559.275 -0.839283 -1.86594 0
M  V30 5817 H 559.285 0.213364 -4.07442 0
M  V30 5818 H 557.96 -0.938765 -4.05167 0
M  V30 5819 H 556.537 0.844024 -3.63223 0
M  V30 5820 N 558.722 1.53707 -0.348139 0
M  V30 5821 C 559.685 2.23812 0.494058 0
M  V30 5822 C 560.685 1.23989 1.02388 0
M  V30 5823 O 561.875 1.48395 0.912396 0
M  V30 5824 C 559.007 2.96133 1.68872 0
M  V30 5825 H 560.2 2.99663 -0.119141 0
M  V30 5826 H 557.753 1.55983 -0.0995539 0
M  V30 5827 H 558.488 2.24481 2.34049 0
M  V30 5828 H 558.273 3.69357 1.31596 0
M  V30 5829 H 559.763 3.49475 2.28597 0
M  V30 5830 N 560.2 0.0768682 1.57412 0
M  V30 5831 C 561.133 -0.924685 2.08626 0
M  V30 5832 C 562.111 -1.28792 0.992542 0
M  V30 5833 O 563.295 -1.39634 1.26628 0
M  V30 5834 C 560.422 -2.23131 2.54814 0
M  V30 5835 C 559.468 -2.01928 3.75669 0
M  V30 5836 S 560.301 -1.27397 5.20125 0
M  V30 5837 C 561.457 -2.59329 5.69648 0
M  V30 5838 H 561.69 -0.488928 2.93252 0
M  V30 5839 H 559.223 -0.136014 1.538 0
M  V30 5840 H 561.181 -2.98226 2.82084 0
M  V30 5841 H 559.842 -2.63831 1.70447 0
M  V30 5842 H 559.035 -2.98639 4.05993 0
M  V30 5843 H 558.637 -1.34967 3.48798 0
M  V30 5844 H 560.929 -3.55394 5.76803 0
M  V30 5845 H 561.872 -2.33608 6.68456 0
M  V30 5846 H 562.28 -2.66767 4.9749 0
M  V30 5847 N 561.678 -1.56367 -0.196722 0
M  V30 5848 C 562.641 -1.93561 -1.22746 0
M  V30 5849 C 563.641 -0.816566 -1.38524 0
M  V30 5850 O 564.831 -1.084 -1.36363 0
M  V30 5851 C 561.963 -2.20823 -2.59712 0
M  V30 5852 H 563.156 -2.85774 -0.909586 0
M  V30 5853 H 560.709 -1.50032 -0.438174 0
M  V30 5854 H 561.444 -1.31243 -2.96557 0
M  V30 5855 H 561.229 -3.02368 -2.49632 0
M  V30 5856 H 562.719 -2.50608 -3.34044 0
M  V30 5857 N 563.156 0.464375 -1.50603 0
M  V30 5858 C 564.066 1.58723 -1.72754 0
M  V30 5859 C 565.082 1.62925 -0.610844 0
M  V30 5860 O 566.258 1.8067 -0.889963 0
M  V30 5861 C 563.323 2.94897 -1.82309 0
M  V30 5862 C 562.384 3.0103 -3.06071 0
M  V30 5863 C 561.617 4.30708 -3.1516 0
M  V30 5864 O 561.84 5.2159 -2.30868 0
M  V30 5865 O 560.774 4.42571 -4.0794 0
M  V30 5866 H 564.6 1.42954 -2.67951 0
M  V30 5867 H 562.185 0.644579 -1.3478 0
M  V30 5868 H 564.067 3.75764 -1.90735 0
M  V30 5869 H 562.742 3.10851 -0.902967 0
M  V30 5870 H 561.649 2.19217 -3.03142 0
M  V30 5871 H 562.982 2.90014 -3.97684 0
M  V30 5872 N 564.634 1.40294 0.718013 0
M  V30 5873 C 565.881 1.3844 1.47786 0
M  V30 5874 C 566.209 -0.0140838 1.94495 0
M  V30 5875 O 565.464 -0.998165 1.68331 0
M  V30 5876 C 565.763 2.31814 2.72024 0
M  V30 5877 C 565.429 3.79117 2.44093 0
M  V30 5878 C 564.091 4.19249 2.36185 0
M  V30 5879 C 566.443 4.72212 2.20602 0
M  V30 5880 C 563.771 5.50516 2.02851 0
M  V30 5881 C 566.123 6.03775 1.88781 0
M  V30 5882 C 564.787 6.42953 1.79354 0
M  V30 5883 H 564.057 0.506588 0.540786 0
M  V30 5884 H 566.704 1.72929 0.822663 0
M  V30 5885 H 565.009 1.90501 3.42369 0
M  V30 5886 H 566.706 2.27664 3.30106 0
M  V30 5887 H 563.296 3.47318 2.51133 0
M  V30 5888 H 567.48 4.42026 2.25669 0
M  V30 5889 H 562.736 5.79776 1.94088 0
M  V30 5890 H 566.91 6.75428 1.69617 0
M  V30 5891 H 564.537 7.44584 1.53291 0
M  V30 5892 N 566.112 -0.949982 1.2575 0
M  V30 5893 C 567.337 -1.73503 1.13628 0
M  V30 5894 C 567.762 -1.85601 -0.30559 0
M  V30 5895 O 567.12 -1.33984 -1.22139 0
M  V30 5896 C 567.168 -3.1243 1.80055 0
M  V30 5897 O 566.272 -3.97916 1.08336 0
M  V30 5898 H 565.613 -0.532665 0.396439 0
M  V30 5899 H 568.143 -1.19043 1.66403 0
M  V30 5900 H 568.153 -3.62866 1.86527 0
M  V30 5901 H 566.828 -3.02941 2.84956 0
M  V30 5902 H 565.405 -3.56375 1.09777 0
M  V30 5903 N 567.59 -1.07411 -1.15328 0
M  V30 5904 C 568.836 -0.798831 -1.86404 0
M  V30 5905 C 569.169 0.673433 -1.8215 0
M  V30 5906 O 568.444 1.49428 -1.24505 0
M  V30 5907 C 568.727 -1.30846 -3.35487 0
M  V30 5908 C 568.58 -2.84532 -3.4837 0
M  V30 5909 C 569.899 -0.925486 -4.30259 0
M  V30 5910 H 567.018 -0.291659 -0.676834 0
M  V30 5911 H 569.66 -1.332 -1.35491 0
M  V30 5912 H 567.81 -0.854916 -3.78977 0
M  V30 5913 H 569.482 -3.3818 -3.13739 0
M  V30 5914 H 567.725 -3.22699 -2.8991 0
M  V30 5915 H 568.396 -3.15259 -4.53118 0
M  V30 5916 H 570.872 -1.3163 -3.94731 0
M  V30 5917 H 569.748 -1.3094 -5.33053 0
M  V30 5918 H 570.009 0.168525 -4.41779 0
M  V30 5919 N 569.068 1.32177 -0.85831 0
M  V30 5920 C 570.031 2.27086 -0.310588 0
M  V30 5921 C 571.031 1.51751 0.531806 0
M  V30 5922 O 572.221 1.70794 0.34279 0
M  V30 5923 C 569.353 3.36266 0.560179 0
M  V30 5924 H 570.546 2.77045 -1.1483 0
M  V30 5925 H 568.099 1.42911 -0.632942 0
M  V30 5926 H 568.834 2.9158 1.41956 0
M  V30 5927 H 568.619 3.92077 -0.0428473 0
M  V30 5928 H 570.109 4.06974 0.936056 0
M  V30 5929 N 570.547 0.616602 1.45037 0
M  V30 5930 C 571.494 -0.0969439 2.30596 0
M  V30 5931 C 572.464 -0.851151 1.42635 0
M  V30 5932 O 573.649 -0.835092 1.71554 0
M  V30 5933 C 570.789 -1.08234 3.27688 0
M  V30 5934 C 569.902 -0.328072 4.30752 0
M  V30 5935 C 569.037 -1.30399 5.14946 0
M  V30 5936 C 568.076 -0.538049 6.09731 0
M  V30 5937 N 567.213 -1.46371 6.86673 0
M  V30 5938 H 572.053 0.63864 2.91076 0
M  V30 5939 H 569.59 0.326733 1.43425 0
M  V30 5940 H 571.548 -1.66688 3.82454 0
M  V30 5941 H 570.178 -1.78523 2.68941 0
M  V30 5942 H 569.23 0.372136 3.78575 0
M  V30 5943 H 570.542 0.269142 4.98073 0
M  V30 5944 H 569.696 -1.96032 5.74157 0
M  V30 5945 H 568.435 -1.93514 4.47665 0
M  V30 5946 H 567.44 0.131852 5.49642 0
M  V30 5947 H 568.665 0.0881732 6.79043 0
M  V30 5948 H 566.611 -2.08233 6.22073 0
M  V30 5949 H 566.528 -0.920152 7.50379 0
M  V30 5950 H 567.796 -2.10932 7.50418 0
M  V30 5951 N 572.025 -1.5352 0.356285 0
M  V30 5952 C 573.274 -2.00298 -0.237373 0
M  V30 5953 C 573.587 -1.24784 -1.50627 0
M  V30 5954 O 574.793 -1.62103 -2.17795 0
M  V30 5955 C 573.249 -3.56771 -0.473545 0
M  V30 5956 C 572.857 -4.41154 0.780183 0
M  V30 5957 C 574.601 -4.1193 -1.02537 0
M  V30 5958 C 572.508 -5.89161 0.514108 0
M  V30 5959 H 571.438 -0.748307 -0.092478 0
M  V30 5960 H 574.089 -1.77283 0.473588 0
M  V30 5961 H 572.471 -3.75902 -1.24553 0
M  V30 5962 H 573.645 -4.33797 1.55425 0
M  V30 5963 H 571.96 -3.97052 1.25455 0
M  V30 5964 H 574.557 -5.20133 -1.2396 0
M  V30 5965 H 574.9 -3.65943 -1.98473 0
M  V30 5966 H 575.433 -3.96561 -0.313775 0
M  V30 5967 H 572.172 -6.39408 1.44355 0
M  V30 5968 H 571.692 -5.9939 -0.221632 0
M  V30 5969 H 573.371 -6.46857 0.136122 0
M  V30 5970 N 573.503 -0.0852151 -1.57369 0
M  V30 5971 C 574.433 0.874556 -2.16503 0
M  V30 5972 C 575.414 1.30111 -1.09568 0
M  V30 5973 O 576.599 1.36977 -1.37662 0
M  V30 5974 C 573.729 2.13731 -2.73745 0
M  V30 5975 C 572.683 1.84971 -3.85966 0
M  V30 5976 C 572.009 3.17991 -4.29867 0
M  V30 5977 C 573.309 1.14442 -5.09608 0
M  V30 5978 H 575.003 0.381899 -2.96954 0
M  V30 5979 H 572.549 0.18225 -1.42842 0
M  V30 5980 H 574.502 2.81302 -3.13763 0
M  V30 5981 H 573.226 2.65263 -1.90534 0
M  V30 5982 H 571.885 1.19801 -3.46473 0
M  V30 5983 H 571.533 3.6739 -3.4356 0
M  V30 5984 H 571.233 2.99534 -5.05523 0
M  V30 5985 H 572.757 3.86737 -4.72511 0
M  V30 5986 H 574.171 1.72105 -5.46857 0
M  V30 5987 H 572.568 1.06197 -5.90629 0
M  V30 5988 H 573.638 0.12559 -4.84737 0
M  V30 5989 N 574.981 1.5647 0.188427 0
M  V30 5990 C 576.392 1.70864 0.752494 0
M  V30 5991 C 576.743 0.692905 1.83557 0
M  V30 5992 O 575.868 -0.149307 2.15884 0
M  V30 5993 C 576.463 3.09789 1.37173 0
M  V30 5994 C 575.022 3.25925 1.88281 0
M  V30 5995 C 574.169 2.66817 0.755259 0
M  V30 5996 H 577.12 1.58657 -0.0367408 0
M  V30 5997 H 577.141 3.07489 2.24122 0
M  V30 5998 H 576.653 3.83693 0.583219 0
M  V30 5999 H 574.754 2.56948 2.6983 0
M  V30 6000 H 574.867 4.33498 2.04001 0
M  V30 6001 H 573.231 2.2617 1.17128 0
M  V30 6002 H 574.014 3.43294 -0.0211237 0
M  V30 6003 N 576.459 -0.456382 1.50847 0
M  V30 6004 C 577.406 -1.55249 1.70782 0
M  V30 6005 C 578.376 -1.56757 0.549231 0
M  V30 6006 O 579.561 -1.74061 0.7815 0
M  V30 6007 C 576.701 -2.93118 1.82143 0
M  V30 6008 C 575.814 -3.01285 3.09598 0
M  V30 6009 C 574.949 -4.30159 3.11667 0
M  V30 6010 C 573.988 -4.32124 4.33515 0
M  V30 6011 N 573.125 -5.52492 4.3324 0
M  V30 6012 H 577.965 -1.37555 2.64353 0
M  V30 6013 H 575.502 -0.668543 1.3103 0
M  V30 6014 H 577.46 -3.73088 1.86711 0
M  V30 6015 H 576.09 -3.09413 0.919978 0
M  V30 6016 H 575.142 -2.14096 3.14431 0
M  V30 6017 H 576.454 -2.98597 3.99551 0
M  V30 6018 H 575.608 -5.18489 3.15046 0
M  V30 6019 H 574.347 -4.35477 2.1957 0
M  V30 6020 H 573.352 -3.42189 4.30333 0
M  V30 6021 H 574.577 -4.28485 5.26856 0
M  V30 6022 H 572.523 -5.58567 3.44004 0
M  V30 6023 H 572.44 -5.51605 5.16979 0
M  V30 6024 H 573.708 -6.42906 4.40786 0
M  V30 6025 N 577.937 -1.40673 -0.710563 0
M  V30 6026 C 579.165 -1.42547 -1.4996 0
M  V30 6027 C 579.58 -0.0265485 -1.88781 0
M  V30 6028 O 578.937 0.950694 -1.55782 0
M  V30 6029 C 578.988 -2.32071 -2.77173 0
M  V30 6030 O 578.709 -3.66518 -2.39992 0
M  V30 6031 C 580.21 -2.42591 -3.71032 0
M  V30 6032 H 577.43 -0.486025 -0.462623 0
M  V30 6033 H 579.974 -1.84783 -0.876102 0
M  V30 6034 H 578.129 -1.93184 -3.35795 0
M  V30 6035 H 578.543 -4.14115 -3.21884 0
M  V30 6036 H 580.017 -3.09429 -4.57119 0
M  V30 6037 H 580.494 -1.4525 -4.14486 0
M  V30 6038 H 581.1 -2.82051 -3.18319 0
M  V30 6039 N 579.415 0.9433 -1.26252 0
M  V30 6040 C 580.661 1.69175 -1.11837 0
M  V30 6041 C 580.994 1.91238 0.337891 0
M  V30 6042 O 580.269 1.49152 1.24836 0
M  V30 6043 C 580.552 3.06783 -1.88563 0
M  V30 6044 C 580.405 2.9206 -3.42083 0
M  V30 6045 C 581.724 4.06865 -1.67776 0
M  V30 6046 H 578.843 0.61399 -0.407658 0
M  V30 6047 H 581.485 1.09572 -1.55222 0
M  V30 6048 H 579.635 3.57663 -1.51689 0
M  V30 6049 H 581.307 2.48419 -3.88698 0
M  V30 6050 H 579.55 2.27731 -3.69217 0
M  V30 6051 H 580.221 3.89651 -3.90994 0
M  V30 6052 H 582.697 3.64939 -1.99897 0
M  V30 6053 H 581.573 5.01168 -2.23879 0
M  V30 6054 H 581.834 4.37705 -0.621816 0
M  V30 6055 N 580.893 1.08022 1.14757 0
M  V30 6056 C 581.841 0.701088 2.21783 0
M  V30 6057 C 582.835 -0.291311 1.66876 0
M  V30 6058 O 584.041 -0.154296 1.79337 0
M  V30 6059 H 580.416 0.208668 0.722469 0
M  V30 6060 H 582.387 1.61321 2.51034 0
M  V30 6061 C 581.136 0.122278 3.47485 0
M  V30 6062 H 580.459 0.877065 3.90061 0
M  V30 6063 H 581.899 -0.105248 4.23869 0
M  V30 6064 C 580.358 -1.13883 3.17068 0
M  V30 6065 O 580.888 -2.22429 3.34497 0
M  V30 6066 N 579.094 -1.04767 2.71058 0
M  V30 6067 H 578.641 -0.164302 2.57075 0
M  V30 6068 H 578.599 -1.89224 2.51081 0
M  V30 6069 N 582.371 -1.3172 0.865308 0
M  V30 6070 C 583.596 -2.01591 0.487415 0
M  V30 6071 C 584.021 -1.6455 -0.911307 0
M  V30 6072 O 583.379 -0.851689 -1.6005 0
M  V30 6073 C 583.427 -3.54759 0.646401 0
M  V30 6074 O 582.531 -4.11185 -0.316284 0
M  V30 6075 H 581.872 -0.634884 0.194468 0
M  V30 6076 H 584.402 -1.68024 1.16744 0
M  V30 6077 H 584.412 -4.04438 0.537932 0
M  V30 6078 H 583.087 -3.8106 1.66632 0
M  V30 6079 H 581.664 -3.72543 -0.163162 0
M  V30 6080 N 583.85 -0.624285 -1.44708 0
M  V30 6081 C 585.075 -0.131171 -2.06985 0
M  V30 6082 C 585.5 1.18234 -1.46295 0
M  V30 6083 O 584.858 1.72375 -0.561842 0
M  V30 6084 C 584.906 -0.0226724 -3.60593 0
M  V30 6085 O 584.01 1.02314 -3.99507 0
M  V30 6086 H 583.351 -0.0816556 -0.65896 0
M  V30 6087 H 585.88 -0.859027 -1.85693 0
M  V30 6088 H 585.891 0.170138 -4.07645 0
M  V30 6089 H 584.566 -0.981685 -4.04148 0
M  V30 6090 H 583.143 0.805452 -3.64097 0
M  V30 6091 N 585.328 1.53329 -0.364422 0
M  V30 6092 C 586.278 2.22472 0.499024 0
M  V30 6093 C 587.262 1.21952 1.0496 0
M  V30 6094 O 588.454 1.47405 0.979836 0
M  V30 6095 C 585.583 3.01659 1.6388 0
M  V30 6096 C 584.669 4.09555 1.10116 0
M  V30 6097 N 585.06 5.04988 0.286414 0
M  V30 6098 C 583.358 4.2424 1.37608 0
M  V30 6099 C 584.059 5.81699 -0.00781682 0
M  V30 6100 N 583.035 5.40394 0.589494 0
M  V30 6101 H 586.837 2.93611 -0.130284 0
M  V30 6102 H 584.351 1.61483 -0.172377 0
M  V30 6103 H 586.348 3.4971 2.26954 0
M  V30 6104 H 585.008 2.32051 2.27118 0
M  V30 6105 H 586.019 5.17847 -0.0742839 0
M  V30 6106 H 582.696 3.65858 2.01133 0
M  V30 6107 H 584.086 6.68587 -0.666394 0
M  V30 6108 N 586.806 0.0935595 1.57322 0
M  V30 6109 C 588.036 -0.578095 1.98347 0
M  V30 6110 C 588.444 -1.62357 0.971441 0
M  V30 6111 O 587.787 -1.83639 -0.0473959 0
M  V30 6112 C 587.849 -1.28525 3.3574 0
M  V30 6113 C 587.513 -0.390714 4.55327 0
M  V30 6114 C 588.51 0.360522 5.18648 0
M  V30 6115 C 586.195 -0.309221 5.01347 0
M  V30 6116 C 588.189 1.18125 6.26359 0
M  V30 6117 C 585.876 0.515157 6.08925 0
M  V30 6118 C 586.874 1.25904 6.71295 0
M  V30 6119 O 586.562 2.06978 7.76798 0
M  V30 6120 H 586.294 -0.159767 0.656849 0
M  V30 6121 H 588.848 0.169058 2.04703 0
M  V30 6122 H 587.078 -2.07894 3.26063 0
M  V30 6123 H 588.767 -1.85128 3.61223 0
M  V30 6124 H 589.533 0.307285 4.84026 0
M  V30 6125 H 585.412 -0.877881 4.52564 0
M  V30 6126 H 588.956 1.76236 6.74971 0
M  V30 6127 H 584.853 0.56988 6.42979 0
M  V30 6128 H 585.621 1.99644 7.93779 0
M  V30 6129 N 588.284 -1.56567 -0.180126 0
M  V30 6130 C 589.7 -1.50488 -0.531559 0
M  V30 6131 C 589.9 -0.796267 -1.851 0
M  V30 6132 O 588.956 -0.352978 -2.50021 0
M  V30 6133 C 590.269 -2.95201 -0.572456 0
M  V30 6134 C 591.817 -3.05957 -0.660264 0
M  V30 6135 C 592.292 -4.5211 -0.732135 0
M  V30 6136 N 593.783 -4.56322 -0.795262 0
M  V30 6137 C 594.518 -5.66742 -0.871296 0
M  V30 6138 N 594.014 -6.86815 -0.908708 0
M  V30 6139 N 595.807 -5.54691 -0.909639 0
M  V30 6140 H 587.958 -2.01045 0.685165 0
M  V30 6141 H 590.221 -0.915536 0.245962 0
M  V30 6142 H 589.927 -3.50165 0.328208 0
M  V30 6143 H 589.801 -3.49369 -1.422 0
M  V30 6144 H 592.188 -2.51032 -1.55136 0
M  V30 6145 H 592.269 -2.54888 0.215783 0
M  V30 6146 H 591.913 -5.07664 0.154664 0
M  V30 6147 H 591.843 -5.00926 -1.6242 0
M  V30 6148 H 594.334 -3.69868 -0.77499 0
M  V30 6149 H 594.647 -7.66718 -0.967654 0
M  V30 6150 H 592.992 -6.89443 -0.877132 0
M  V30 6151 H 596.183 -4.59804 -0.877353 0
M  V30 6152 H 596.356 -6.40768 -0.965434 0
M  V30 6153 N 589.762 0.448376 -1.51087 0
M  V30 6154 C 591.009 1.19872 -1.63209 0
M  V30 6155 C 591.337 1.91451 -0.343062 0
M  V30 6156 O 590.592 1.83789 0.672321 0
M  V30 6157 C 590.891 2.24866 -2.77795 0
M  V30 6158 C 590.557 1.70378 -4.17471 0
M  V30 6159 C 589.219 1.55241 -4.55471 0
M  V30 6160 C 591.571 1.30203 -5.04675 0
M  V30 6161 C 588.899 0.983844 -5.78392 0
M  V30 6162 C 591.251 0.747798 -6.28165 0
M  V30 6163 C 589.915 0.583233 -6.64947 0
M  V30 6164 H 589.185 0.438642 -0.597222 0
M  V30 6165 H 591.832 0.49136 -1.85089 0
M  V30 6166 H 590.137 3.01598 -2.50092 0
M  V30 6167 H 591.834 2.82723 -2.84374 0
M  V30 6168 H 588.424 1.83134 -3.87505 0
M  V30 6169 H 592.608 1.40723 -4.75932 0
M  V30 6170 H 587.864 0.844007 -6.05546 0
M  V30 6171 H 592.038 0.427927 -6.95084 0
M  V30 6172 H 589.665 0.140532 -7.6007 0
M  V30 6173 N 591.24 1.41047 0.703093 0
M  V30 6174 C 592.651 1.35657 1.28274 0
M  V30 6175 C 593.002 0.0360309 1.96167 0
M  V30 6176 O 592.127 -0.865833 1.98324 0
M  V30 6177 C 592.722 2.45707 2.33267 0
M  V30 6178 C 591.281 2.43738 2.86825 0
M  V30 6179 C 590.428 2.25941 1.60767 0
M  V30 6180 H 593.379 1.50672 0.49836 0
M  V30 6181 H 593.4 2.14333 3.14391 0
M  V30 6182 H 592.912 3.41805 1.83824 0
M  V30 6183 H 591.013 1.51375 3.40465 0
M  V30 6184 H 591.126 3.39779 3.37768 0
M  V30 6185 H 589.49 1.73681 1.86298 0
M  V30 6186 H 590.273 3.24054 1.1333 0
M  V30 6187 N 592.718 -0.936591 1.26751 0
M  V30 6188 C 593.681 -2.01752 1.08761 0
M  V30 6189 C 594.681 -1.60763 0.0344435 0
M  V30 6190 O 595.871 -1.71963 0.278258 0
M  V30 6191 C 593.003 -3.34543 0.655271 0
M  V30 6192 H 594.196 -2.19143 2.04735 0
M  V30 6193 H 591.749 -1.11618 1.09413 0
M  V30 6194 H 592.484 -3.22851 -0.30626 0
M  V30 6195 H 592.269 -3.65647 1.41578 0
M  V30 6196 H 593.759 -4.13944 0.551378 0
M  V30 6197 N 594.196 -1.08629 -1.14182 0
M  V30 6198 C 595.146 -0.687882 -2.17376 0
M  V30 6199 C 596.13 0.293632 -1.58198 0
M  V30 6200 O 597.322 0.105292 -1.76687 0
M  V30 6201 C 594.451 -0.101184 -3.43151 0
M  V30 6202 C 593.537 -1.10862 -4.09354 0
M  V30 6203 N 593.928 -2.29285 -4.50846 0
M  V30 6204 C 592.226 -0.944897 -4.35876 0
M  V30 6205 C 592.927 -2.93305 -5.02342 0
M  V30 6206 N 591.903 -2.20903 -4.96692 0
M  V30 6207 H 595.705 -1.58963 -2.472 0
M  V30 6208 H 593.219 -0.961329 -1.3089 0
M  V30 6209 H 595.216 0.202209 -4.16409 0
M  V30 6210 H 593.876 0.795522 -3.14804 0
M  V30 6211 H 594.887 -2.66927 -4.43813 0
M  V30 6212 H 591.564 -0.102186 -4.17375 0
M  V30 6213 H 592.954 -3.93932 -5.44304 0
M  V30 6214 N 595.674 1.31259 -0.872281 0
M  V30 6215 C 596.922 1.96233 -0.483409 0
M  V30 6216 C 597.243 1.69276 0.968012 0
M  V30 6217 O 596.513 1.00943 1.67891 0
M  V30 6218 H 595.093 0.726025 -0.175774 0
M  V30 6219 H 597.755 1.60024 -1.11258 0
M  V30 6220 H 596.851 3.05403 -0.643075 0
M  V30 6221 N 597.152 0.631951 1.44375 0
M  V30 6222 C 598.084 -0.110911 2.28931 0
M  V30 6223 C 599.097 -0.808086 1.41329 0
M  V30 6224 O 600.286 -0.669396 1.65473 0
M  V30 6225 C 597.386 -1.17928 3.1772 0
M  V30 6226 C 596.559 -0.564458 4.33743 0
M  V30 6227 C 595.618 -1.5269 5.0356 0
M  V30 6228 O 594.644 -1.04372 5.59549 0
M  V30 6229 N 595.846 -2.86123 5.05088 0
M  V30 6230 H 598.611 0.614758 2.93327 0
M  V30 6231 H 596.172 0.473171 1.54831 0
M  V30 6232 H 598.164 -1.82348 3.61291 0
M  V30 6233 H 596.734 -1.80717 2.55069 0
M  V30 6234 H 595.954 0.258373 3.93352 0
M  V30 6235 H 597.242 -0.134355 5.08623 0
M  V30 6236 H 596.64 -3.27959 4.60933 0
M  V30 6237 H 595.197 -3.45901 5.52445 0
M  V30 6238 N 598.631 -1.53133 0.372548 0
M  V30 6239 C 599.856 -2.0625 -0.218098 0
M  V30 6240 C 600.281 -1.24375 -1.41111 0
M  V30 6241 O 599.639 -0.264554 -1.79359 0
M  V30 6242 C 599.687 -3.55858 -0.582876 0
M  V30 6243 O 598.791 -3.76667 -1.67917 0
M  V30 6244 H 598.132 -0.663317 -0.030104 0
M  V30 6245 H 600.662 -1.97477 0.535169 0
M  V30 6246 H 600.672 -3.99007 -0.851925 0
M  V30 6247 H 599.347 -4.14892 0.289428 0
M  V30 6248 H 597.924 -3.45413 -1.40513 0
M  V30 6249 N 600.109 -0.101901 -1.5727 0
M  V30 6250 C 601.356 0.560197 -1.94597 0
M  V30 6251 C 601.684 1.67767 -0.984101 0
M  V30 6252 O 600.939 1.95699 -0.00489193 0
M  V30 6253 C 601.238 1.14898 -3.38427 0
M  V30 6254 C 600.904 0.154613 -4.50635 0
M  V30 6255 C 599.566 -0.118861 -4.81053 0
M  V30 6256 C 601.918 -0.523979 -5.18559 0
M  V30 6257 C 599.246 -1.0775 -5.76721 0
M  V30 6258 C 601.598 -1.47114 -6.15256 0
M  V30 6259 C 600.262 -1.75278 -6.44076 0
M  V30 6260 H 599.532 0.204991 -0.712081 0
M  V30 6261 H 602.179 -0.17918 -1.9066 0
M  V30 6262 H 600.484 1.96476 -3.38976 0
M  V30 6263 H 602.181 1.66909 -3.64613 0
M  V30 6264 H 598.771 0.377948 -4.2693 0
M  V30 6265 H 602.955 -0.325851 -4.95229 0
M  V30 6266 H 598.211 -1.30263 -5.97362 0
M  V30 6267 H 602.385 -2.00274 -6.66981 0
M  V30 6268 H 600.012 -2.49717 -7.18015 0
M  V30 6269 N 601.587 1.56661 0.17182 0
M  V30 6270 C 602.836 1.81158 0.886831 0
M  V30 6271 C 603.149 0.679072 1.83434 0
M  V30 6272 O 604.355 0.808964 2.59168 0
M  V30 6273 C 602.811 3.20999 1.6275 0
M  V30 6274 C 602.419 4.42117 0.723652 0
M  V30 6275 C 604.163 3.5479 2.33076 0
M  V30 6276 C 602.07 5.7298 1.46452 0
M  V30 6277 H 601 0.675543 0.334899 0
M  V30 6278 H 603.651 1.82967 0.139765 0
M  V30 6279 H 602.033 3.13506 2.4193 0
M  V30 6280 H 603.207 4.60789 -0.0311485 0
M  V30 6281 H 601.522 4.16197 0.130063 0
M  V30 6282 H 604.119 4.49806 2.89099 0
M  V30 6283 H 604.462 2.79646 3.08389 0
M  V30 6284 H 604.995 3.63834 1.6084 0
M  V30 6285 H 601.734 6.51152 0.753729 0
M  V30 6286 H 601.254 5.58285 2.19266 0
M  V30 6287 H 602.933 6.14916 2.01214 0
M  V30 6288 N 603.065 -0.440357 1.51323 0
M  V30 6289 C 603.997 -1.55254 1.68609 0
M  V30 6290 C 605.01 -1.52614 0.566812 0
M  V30 6291 O 606.199 -1.57445 0.841032 0
M  V30 6292 C 603.299 -2.94169 1.68279 0
M  V30 6293 C 602.472 -3.21346 2.96742 0
M  V30 6294 C 601.531 -4.3997 2.8864 0
M  V30 6295 O 600.557 -4.38771 3.62586 0
M  V30 6296 N 601.759 -5.43367 2.04285 0
M  V30 6297 H 604.524 -1.40831 2.6455 0
M  V30 6298 H 602.085 -0.629251 1.49171 0
M  V30 6299 H 604.077 -3.71543 1.60431 0
M  V30 6300 H 602.647 -3.02205 0.799441 0
M  V30 6301 H 601.867 -2.32299 3.18482 0
M  V30 6302 H 603.155 -3.3633 3.81785 0
M  V30 6303 H 602.553 -5.47176 1.43578 0
M  V30 6304 H 601.11 -6.19605 2.02318 0
M  V30 6305 N 604.543 -1.41418 -0.695603 0
M  V30 6306 C 605.792 -1.40073 -1.4513 0
M  V30 6307 C 606.105 -0.0130439 -1.95596 0
M  V30 6308 O 607.311 0.123032 -2.71221 0
M  V30 6309 C 605.767 -2.46286 -2.62433 0
M  V30 6310 C 605.375 -3.90962 -2.18753 0
M  V30 6311 C 607.119 -2.54077 -3.40066 0
M  V30 6312 C 605.026 -4.88728 -3.33015 0
M  V30 6313 H 603.956 -0.520903 -0.545138 0
M  V30 6314 H 606.607 -1.67242 -0.75515 0
M  V30 6315 H 604.989 -2.12248 -3.34315 0
M  V30 6316 H 606.163 -4.34248 -1.54161 0
M  V30 6317 H 604.478 -3.86831 -1.54114 0
M  V30 6318 H 607.075 -3.24303 -4.25125 0
M  V30 6319 H 607.418 -1.5776 -3.8525 0
M  V30 6320 H 607.951 -2.87206 -2.75241 0
M  V30 6321 H 604.69 -5.86449 -2.92844 0
M  V30 6322 H 604.21 -4.50091 -3.96457 0
M  V30 6323 H 605.889 -5.09483 -3.98793 0
M  V30 6324 N 606.021 0.929856 -1.27246 0
M  V30 6325 C 607.432 1.49223 -1.12203 0
M  V30 6326 C 607.783 1.93989 0.293731 0
M  V30 6327 O 606.908 1.80978 1.18642 0
M  V30 6328 C 607.503 2.71198 -2.0307 0
M  V30 6329 C 606.062 3.23666 -1.92139 0
M  V30 6330 C 605.209 1.96409 -1.95752 0
M  V30 6331 H 608.16 0.744181 -1.4017 0
M  V30 6332 H 608.181 3.45905 -1.58524 0
M  V30 6333 H 607.693 2.38585 -3.06102 0
M  V30 6334 H 605.794 3.61042 -0.920834 0
M  V30 6335 H 605.907 3.90006 -2.78267 0
M  V30 6336 H 604.271 2.12806 -1.39949 0
M  V30 6337 H 605.054 1.66113 -3.00436 0
M  V30 6338 N 607.499 1.09233 1.13605 0
M  V30 6339 C 608.449 0.6994 2.17008 0
M  V30 6340 C 609.433 -0.285238 1.58352 0
M  V30 6341 O 610.625 -0.09592 1.7674 0
M  V30 6342 C 607.754 0.11938 3.43092 0
M  V30 6343 C 606.84 1.13031 4.0876 0
M  V30 6344 N 607.231 2.31673 4.49623 0
M  V30 6345 C 605.529 0.967999 4.35369 0
M  V30 6346 C 606.23 2.95964 5.00779 0
M  V30 6347 N 605.206 2.23534 4.95513 0
M  V30 6348 H 609.008 1.60272 2.46354 0
M  V30 6349 H 606.522 0.968257 1.30378 0
M  V30 6350 H 608.519 -0.180122 4.16511 0
M  V30 6351 H 607.179 -0.778816 3.15221 0
M  V30 6352 H 608.19 2.69277 4.42391 0
M  V30 6353 H 604.867 0.124319 4.17315 0
M  V30 6354 H 606.257 3.96813 5.42208 0
M  V30 6355 N 608.977 -1.30795 0.87923 0
M  V30 6356 C 609.887 -2.32041 0.345565 0
M  V30 6357 C 610.903 -1.65103 -0.549265 0
M  V30 6358 O 612.079 -1.9645 -0.443763 0
M  V30 6359 C 609.144 -3.43944 -0.436245 0
M  V30 6360 C 608.205 -4.26521 0.48765 0
M  V30 6361 C 607.438 -5.33081 -0.256943 0
M  V30 6362 O 607.661 -5.50762 -1.48381 0
M  V30 6363 O 606.595 -6.00635 0.389985 0
M  V30 6364 H 610.421 -2.79627 1.18501 0
M  V30 6365 H 608.006 -1.3486 0.642885 0
M  V30 6366 H 609.888 -4.12128 -0.879119 0
M  V30 6367 H 608.563 -2.98504 -1.25208 0
M  V30 6368 H 607.47 -3.61057 0.979216 0
M  V30 6369 H 608.803 -4.75551 1.26933 0
M  V30 6370 N 610.455 -0.639598 -1.44038 0
M  V30 6371 C 611.418 0.0506628 -2.29144 0
M  V30 6372 C 612.418 0.764001 -1.41491 0
M  V30 6373 O 613.608 0.607309 -1.63271 0
M  V30 6374 C 610.74 1.0824 -3.2326 0
M  V30 6375 H 611.933 -0.697987 -2.91664 0
M  V30 6376 H 609.486 -0.400146 -1.51091 0
M  V30 6377 H 610.221 1.86075 -2.65606 0
M  V30 6378 H 610.006 0.574725 -3.87865 0
M  V30 6379 H 611.496 1.56487 -3.87171 0
M  V30 6380 N 611.933 1.52934 -0.380664 0
M  V30 6381 C 613.18 2.01467 0.204278 0
M  V30 6382 C 613.508 1.26744 1.47533 0
M  V30 6383 O 612.763 0.353723 1.92477 0
M  V30 6384 C 613.062 3.5349 0.527199 0
M  V30 6385 C 612.728 4.46171 -0.651295 0
M  V30 6386 C 611.39 4.71227 -0.974619 0
M  V30 6387 C 613.742 5.00909 -1.44012 0
M  V30 6388 C 611.07 5.4827 -2.08847 0
M  V30 6389 C 613.422 5.7917 -2.5445 0
M  V30 6390 C 612.086 6.02507 -2.87301 0
M  V30 6391 H 611.356 0.73722 0.0747504 0
M  V30 6392 H 614.003 1.84411 -0.516234 0
M  V30 6393 H 612.308 3.68574 1.32892 0
M  V30 6394 H 614.005 3.88529 0.992283 0
M  V30 6395 H 610.595 4.26829 -0.389276 0
M  V30 6396 H 614.779 4.81485 -1.20357 0
M  V30 6397 H 610.035 5.64567 -2.34679 0
M  V30 6398 H 614.209 6.20588 -3.1598 0
M  V30 6399 H 611.836 6.61989 -3.7373 0
M  V30 6400 N 613.412 0.11024 1.57214 0
M  V30 6401 C 614.362 -0.854147 2.11396 0
M  V30 6402 C 615.346 -1.23394 1.03261 0
M  V30 6403 O 616.538 -1.20649 1.2951 0
M  V30 6404 C 613.667 -2.10752 2.70995 0
M  V30 6405 C 612.753 -1.75249 3.86198 0
M  V30 6406 N 613.144 -1.10377 4.9361 0
M  V30 6407 C 611.442 -2.04763 3.96217 0
M  V30 6408 C 612.143 -0.938199 5.74084 0
M  V30 6409 N 611.119 -1.46039 5.23616 0
M  V30 6410 H 614.921 -0.348897 2.91822 0
M  V30 6411 H 612.435 -0.0925071 1.62136 0
M  V30 6412 H 614.432 -2.80801 3.0815 0
M  V30 6413 H 613.092 -2.61829 1.9203 0
M  V30 6414 H 614.103 -0.768785 5.12162 0
M  V30 6415 H 610.78 -2.57948 3.28282 0
M  V30 6416 H 612.17 -0.429678 6.70525 0
M  V30 6417 N 614.89 -1.56749 -0.16351 0
M  V30 6418 C 616.306 -1.51043 -0.515567 0
M  V30 6419 C 616.506 -0.815855 -1.84245 0
M  V30 6420 O 615.562 -0.379477 -2.49632 0
M  V30 6421 C 616.875 -2.95791 -0.541114 0
M  V30 6422 C 618.423 -3.0664 -0.627776 0
M  V30 6423 C 618.898 -4.52861 -0.684141 0
M  V30 6424 N 620.389 -4.5714 -0.746818 0
M  V30 6425 C 621.124 -5.67634 -0.811137 0
M  V30 6426 N 620.62 -6.8774 -0.835811 0
M  V30 6427 N 622.413 -5.55624 -0.850756 0
M  V30 6428 H 614.564 -2.00307 0.70645 0
M  V30 6429 H 616.827 -0.912876 0.255659 0
M  V30 6430 H 616.533 -3.49797 0.365329 0
M  V30 6431 H 616.407 -3.50858 -1.38487 0
M  V30 6432 H 618.794 -2.52663 -1.52464 0
M  V30 6433 H 618.875 -2.54645 0.242805 0
M  V30 6434 H 618.519 -5.07472 0.2085 0
M  V30 6435 H 618.449 -5.02621 -1.57098 0
M  V30 6436 H 620.94 -3.70669 -0.735717 0
M  V30 6437 H 621.253 -7.67701 -0.886279 0
M  V30 6438 H 619.598 -6.90334 -0.803958 0
M  V30 6439 H 622.789 -4.60709 -0.828535 0
M  V30 6440 H 622.962 -6.41756 -0.897418 0
M  V30 6441 N 616.368 0.432326 -1.51554 0
M  V30 6442 C 617.318 1.52366 -1.69614 0
M  V30 6443 C 618.302 1.51205 -0.550083 0
M  V30 6444 O 619.494 1.57573 -0.806206 0
M  V30 6445 C 616.623 2.90513 -1.82913 0
M  V30 6446 C 615.709 2.9641 -3.03318 0
M  V30 6447 N 616.1 2.72043 -4.26411 0
M  V30 6448 C 614.398 3.27572 -3.02675 0
M  V30 6449 C 615.099 2.83912 -5.07709 0
M  V30 6450 N 614.075 3.15798 -4.42462 0
M  V30 6451 H 617.877 1.32285 -2.62446 0
M  V30 6452 H 615.391 0.639708 -1.4927 0
M  V30 6453 H 617.388 3.69032 -1.93962 0
M  V30 6454 H 616.048 3.1161 -0.912655 0
M  V30 6455 H 617.059 2.46876 -4.55272 0
M  V30 6456 H 613.736 3.54411 -2.20678 0
M  V30 6457 H 615.126 2.68984 -6.15709 0
M  V30 6458 N 617.846 1.41785 0.688094 0
M  V30 6459 C 618.809 1.43936 1.78368 0
M  V30 6460 C 619.809 0.328866 1.57401 0
M  V30 6461 O 620.999 0.589093 1.63937 0
M  V30 6462 C 618.131 1.25804 3.16838 0
M  V30 6463 H 619.324 2.41472 1.77852 0
M  V30 6464 H 616.877 1.28037 0.896448 0
M  V30 6465 H 617.612 0.291386 3.22988 0
M  V30 6466 H 617.397 2.06272 3.33458 0
M  V30 6467 H 618.887 1.30162 3.96797 0
M  V30 6468 N 619.324 -0.923095 1.27737 0
M  V30 6469 C 620.57 -1.67409 1.15524 0
M  V30 6470 C 620.925 -1.90124 -0.295072 0
M  V30 6471 O 620.218 -1.48382 -1.21216 0
M  V30 6472 C 620.412 -3.04125 1.8773 0
M  V30 6473 C 620.241 -2.94752 3.39634 0
M  V30 6474 C 619.011 -2.96783 4.0896 0
M  V30 6475 C 621.209 -2.73524 4.35533 0
M  V30 6476 N 619.191 -2.779 5.47398 0
M  V30 6477 C 620.562 -2.63391 5.61271 0
M  V30 6478 C 622.617 -2.58447 4.2557 0
M  V30 6479 C 621.32 -2.3972 6.78179 0
M  V30 6480 C 623.346 -2.36154 5.42204 0
M  V30 6481 C 622.708 -2.26768 6.669 0
M  V30 6482 H 618.807 -0.619196 0.477619 0
M  V30 6483 H 621.391 -1.09094 1.61266 0
M  V30 6484 H 619.562 -3.60545 1.44436 0
M  V30 6485 H 621.294 -3.6819 1.67982 0
M  V30 6486 H 618.049 -3.07186 3.60463 0
M  V30 6487 H 618.473 -2.71576 6.20141 0
M  V30 6488 H 623.115 -2.6446 3.2988 0
M  V30 6489 H 620.833 -2.32447 7.73947 0
M  V30 6490 H 624.419 -2.25367 5.36378 0
M  V30 6491 H 623.299 -2.09751 7.55628 0
M  V30 6492 N 620.802 -1.09834 -1.13024 0
M  V30 6493 C 622.027 -0.85909 -1.88771 0
M  V30 6494 C 622.452 0.584402 -1.78791 0
M  V30 6495 O 621.81 1.41101 -1.13842 0
M  V30 6496 C 621.858 -1.30427 -3.36186 0
M  V30 6497 O 620.962 -0.465368 -4.09766 0
M  V30 6498 H 620.303 -0.310786 -0.586778 0
M  V30 6499 H 622.833 -1.46355 -1.42973 0
M  V30 6500 H 622.843 -1.2915 -3.8702 0
M  V30 6501 H 621.518 -2.3555 -3.42767 0
M  V30 6502 H 620.095 -0.542814 -3.68928 0
M  V30 6503 N 622.28 1.30327 -0.886154 0
M  V30 6504 C 623.508 2.00254 -0.520176 0
M  V30 6505 C 623.923 1.66419 0.891637 0
M  V30 6506 O 623.28 0.901951 1.58654 0
M  V30 6507 C 623.331 3.54916 -0.686775 0
M  V30 6508 O 623.052 3.87547 -2.04301 0
M  V30 6509 C 624.553 4.42115 -0.323945 0
M  V30 6510 H 621.773 0.640204 -0.200947 0
M  V30 6511 H 624.317 1.66183 -1.19178 0
M  V30 6512 H 622.472 3.8735 -0.0625273 0
M  V30 6513 H 622.886 4.82247 -2.06249 0
M  V30 6514 H 624.36 5.49808 -0.491407 0
M  V30 6515 H 624.837 4.32953 0.73811 0
M  V30 6516 H 625.443 4.15129 -0.924565 0
M  V30 6517 N 623.758 0.647228 1.43697 0
M  V30 6518 C 625.004 0.158422 2.0218 0
M  V30 6519 C 625.337 -1.22233 1.50907 0
M  V30 6520 O 624.612 -1.81478 0.699702 0
M  V30 6521 C 624.895 0.1627 3.59732 0
M  V30 6522 C 624.748 1.57694 4.21251 0
M  V30 6523 C 626.067 -0.504138 4.37203 0
M  V30 6524 H 623.186 0.059042 0.734631 0
M  V30 6525 H 625.828 0.826772 1.71069 0
M  V30 6526 H 623.978 -0.406414 3.86368 0
M  V30 6527 H 625.65 2.19618 4.05667 0
M  V30 6528 H 623.893 2.12603 3.7813 0
M  V30 6529 H 624.564 1.53183 5.3032 0
M  V30 6530 H 627.04 -0.0199841 4.16095 0
M  V30 6531 H 625.916 -0.470394 5.46881 0
M  V30 6532 H 626.177 -1.57726 4.13007 0
M  V30 6533 N 625.236 -1.5273 0.388769 0
M  V30 6534 C 626.482 -2.01871 -0.193877 0
M  V30 6535 C 626.815 -1.27475 -1.46505 0
M  V30 6536 O 626.09 -0.375063 -1.90849 0
M  V30 6537 C 626.373 -3.5712 -0.462336 0
M  V30 6538 C 626.226 -4.42186 0.824091 0
M  V30 6539 C 627.545 -4.21881 -1.25319 0
M  V30 6540 H 624.664 -0.733764 -0.0689899 0
M  V30 6541 H 627.306 -1.82796 0.518231 0
M  V30 6542 H 625.456 -3.73504 -1.06896 0
M  V30 6543 H 627.128 -4.37554 1.46096 0
M  V30 6544 H 625.371 -4.09219 1.43952 0
M  V30 6545 H 626.042 -5.48828 0.590905 0
M  V30 6546 H 628.518 -4.0947 -0.73981 0
M  V30 6547 H 627.394 -5.30487 -1.40977 0
M  V30 6548 H 627.655 -3.79478 -2.26824 0
M  V30 6549 N 626.714 -0.118576 -1.57153 0
M  V30 6550 C 627.962 0.538461 -1.94795 0
M  V30 6551 C 628.283 1.67243 -1.00274 0
M  V30 6552 O 627.553 1.95811 -0.0589692 0
M  V30 6553 H 626.133 0.201904 -0.719197 0
M  V30 6554 H 628.795 -0.187418 -1.93997 0
M  V30 6555 H 627.891 0.933315 -2.97818 0
M  V30 6556 N 628.193 1.56834 0.155195 0
M  V30 6557 C 629.123 2.00678 1.19376 0
M  V30 6558 C 630.104 0.884973 1.45266 0
M  V30 6559 O 631.289 1.1522 1.56326 0
M  V30 6560 C 628.419 2.38042 2.5289 0
M  V30 6561 C 627.373 3.53332 2.41538 0
M  V30 6562 C 626.699 3.76485 3.79688 0
M  V30 6563 C 627.999 4.86265 1.9064 0
M  V30 6564 H 629.693 2.87688 0.829232 0
M  V30 6565 H 627.239 1.38407 0.397445 0
M  V30 6566 H 629.192 2.67314 3.25763 0
M  V30 6567 H 627.916 1.4796 2.91162 0
M  V30 6568 H 626.575 3.24213 1.71117 0
M  V30 6569 H 626.223 2.83667 4.15382 0
M  V30 6570 H 625.923 4.54068 3.72956 0
M  V30 6571 H 627.447 4.08174 4.54122 0
M  V30 6572 H 628.861 5.14308 2.53299 0
M  V30 6573 H 627.258 5.67597 1.94818 0
M  V30 6574 H 628.328 4.77184 0.861596 0
M  V30 6575 N 629.671 -0.424282 1.51781 0
M  V30 6576 C 630.601 -1.52305 1.7699 0
M  V30 6577 C 631.582 -1.5839 0.620209 0
M  V30 6578 O 632.767 -1.73908 0.864268 0
M  V30 6579 C 629.897 -2.90271 1.90683 0
M  V30 6580 C 628.851 -2.99043 3.06198 0
M  V30 6581 C 628.177 -4.39116 3.05092 0
M  V30 6582 C 629.477 -2.7192 4.45934 0
M  V30 6583 H 631.171 -1.31461 2.68995 0
M  V30 6584 H 628.717 -0.630985 1.29439 0
M  V30 6585 H 630.67 -3.6711 2.06901 0
M  V30 6586 H 629.394 -3.12376 0.953365 0
M  V30 6587 H 628.053 -2.24646 2.89706 0
M  V30 6588 H 627.701 -4.58207 2.07498 0
M  V30 6589 H 627.401 -4.45912 3.82669 0
M  V30 6590 H 628.925 -5.17911 3.2342 0
M  V30 6591 H 630.339 -3.38487 4.62709 0
M  V30 6592 H 628.736 -2.90111 5.25315 0
M  V30 6593 H 629.806 -1.67445 4.55072 0
M  V30 6594 N 631.149 -1.42148 -0.680565 0
M  V30 6595 C 632.379 -1.45485 -1.46689 0
M  V30 6596 C 632.787 -0.0629451 -1.89095 0
M  V30 6597 O 632.13 0.931397 -1.58337 0
M  V30 6598 C 632.192 -2.31397 -2.75129 0
M  V30 6599 C 631.856 -3.79353 -2.54834 0
M  V30 6600 C 632.853 -4.71148 -2.19808 0
M  V30 6601 C 630.538 -4.23557 -2.70008 0
M  V30 6602 C 632.532 -6.05139 -2.00215 0
M  V30 6603 C 630.219 -5.57609 -2.50031 0
M  V30 6604 C 631.217 -6.48216 -2.15187 0
M  V30 6605 O 630.905 -7.79792 -1.95397 0
M  V30 6606 H 630.637 -0.497139 -0.458071 0
M  V30 6607 H 633.191 -1.87252 -0.844139 0
M  V30 6608 H 631.421 -1.84468 -3.39865 0
M  V30 6609 H 633.11 -2.26257 -3.36991 0
M  V30 6610 H 633.876 -4.38282 -2.07686 0
M  V30 6611 H 629.755 -3.53327 -2.96109 0
M  V30 6612 H 633.299 -6.75823 -1.72941 0
M  V30 6613 H 629.196 -5.9005 -2.61748 0
M  V30 6614 H 629.964 -7.91091 -2.10042 0
M  V30 6615 N 632.627 0.916307 -1.28225 0
M  V30 6616 C 633.577 2.00488 -1.08574 0
M  V30 6617 C 634.561 1.60897 -0.0101874 0
M  V30 6618 O 635.753 1.75499 -0.230034 0
M  V30 6619 C 632.882 3.35076 -0.746943 0
M  V30 6620 C 631.968 3.81077 -1.86121 0
M  V30 6621 N 632.359 3.99475 -3.10247 0
M  V30 6622 C 630.657 4.10212 -1.75048 0
M  V30 6623 C 631.358 4.37965 -3.82834 0
M  V30 6624 N 630.334 4.4608 -3.10667 0
M  V30 6625 H 634.136 2.1276 -2.02757 0
M  V30 6626 H 631.65 1.10397 -1.19107 0
M  V30 6627 H 633.647 4.12743 -0.587252 0
M  V30 6628 H 632.307 3.2416 0.187146 0
M  V30 6629 H 633.318 3.85466 -3.45885 0
M  V30 6630 H 629.995 4.07947 -0.887999 0
M  V30 6631 H 631.385 4.60183 -4.89572 0
M  V30 6632 N 634.105 1.10431 1.1244 0
M  V30 6633 C 635.33 0.869089 1.88313 0
M  V30 6634 C 635.755 -0.574912 1.79099 0
M  V30 6635 O 635.113 -1.40496 1.14589 0
M  V30 6636 C 635.161 1.32208 3.3549 0
M  V30 6637 O 634.265 0.487092 4.09513 0
M  V30 6638 H 633.606 0.313894 0.585121 0
M  V30 6639 H 636.136 1.47111 1.42195 0
M  V30 6640 H 636.146 1.31201 3.86329 0
M  V30 6641 H 634.821 2.37364 3.41513 0
M  V30 6642 H 633.398 0.562372 3.68635 0
M  V30 6643 N 635.583 -1.29855 0.893053 0
M  V30 6644 C 636.516 -2.26079 0.3104 0
M  V30 6645 C 637.494 -1.52145 -0.573644 0
M  V30 6646 O 638.678 -1.8113 -0.521937 0
M  V30 6647 C 635.805 -3.34069 -0.558179 0
M  V30 6648 C 634.851 -4.25721 0.257638 0
M  V30 6649 S 635.684 -5.09409 1.65114 0
M  V30 6650 C 636.84 -6.20903 0.789307 0
M  V30 6651 H 637.073 -2.75151 1.12602 0
M  V30 6652 H 634.606 -1.37975 0.692978 0
M  V30 6653 H 636.564 -3.9675 -1.05355 0
M  V30 6654 H 635.225 -2.83705 -1.34797 0
M  V30 6655 H 634.418 -5.02366 -0.405562 0
M  V30 6656 H 634.02 -3.67656 0.685917 0
M  V30 6657 H 636.312 -6.77499 0.00978451 0
M  V30 6658 H 637.255 -6.91426 1.52762 0
M  V30 6659 H 637.663 -5.63435 0.346634 0
M  V30 6660 N 637.061 -0.65484 -1.43351 0
M  V30 6661 C 638.011 0.0581325 -2.27926 0
M  V30 6662 C 638.995 0.793188 -1.3999 0
M  V30 6663 O 640.187 0.675387 -1.63608 0
M  V30 6664 C 637.316 1.02272 -3.27712 0
M  V30 6665 C 636.402 0.286048 -4.23134 0
M  V30 6666 N 636.793 -0.698298 -5.00957 0
M  V30 6667 C 635.091 0.527272 -4.42872 0
M  V30 6668 C 635.792 -1.1357 -5.70506 0
M  V30 6669 N 634.768 -0.469631 -5.41568 0
M  V30 6670 H 638.57 -0.697182 -2.85511 0
M  V30 6671 H 636.084 -0.482252 -1.55074 0
M  V30 6672 H 638.081 1.5483 -3.87083 0
M  V30 6673 H 636.741 1.77807 -2.71688 0
M  V30 6674 H 637.752 -1.07708 -5.06576 0
M  V30 6675 H 634.429 1.26367 -3.97916 0
M  V30 6676 H 635.819 -1.95027 -6.42973 0
M  V30 6677 N 638.539 1.52521 -0.396863 0
M  V30 6678 C 639.769 2.05792 0.182485 0
M  V30 6679 C 640.177 1.26784 1.40436 0
M  V30 6680 O 639.52 0.309617 1.81072 0
M  V30 6681 C 639.582 3.54291 0.609781 0
M  V30 6682 C 639.246 4.5426 -0.499674 0
M  V30 6683 C 640.243 5.01812 -1.35944 0
M  V30 6684 C 637.928 4.97827 -0.668864 0
M  V30 6685 C 639.922 5.91562 -2.37346 0
M  V30 6686 C 637.609 5.87376 -1.68621 0
M  V30 6687 C 638.607 6.34137 -2.53692 0
M  V30 6688 O 638.295 7.21915 -3.53686 0
M  V30 6689 H 638.027 0.675362 0.0293583 0
M  V30 6690 H 640.581 1.97539 -0.56281 0
M  V30 6691 H 638.811 3.60188 1.40717 0
M  V30 6692 H 640.5 3.90267 1.11565 0
M  V30 6693 H 641.266 4.68879 -1.24008 0
M  V30 6694 H 637.145 4.60997 -0.0163971 0
M  V30 6695 H 640.689 6.27983 -3.03782 0
M  V30 6696 H 636.586 6.19723 -1.80593 0
M  V30 6697 H 637.354 7.39996 -3.49784 0
M  V30 6698 N 640.017 0.126909 1.57088 0
M  V30 6699 C 641.247 -0.535892 1.99529 0
M  V30 6700 C 641.655 -1.60259 1.00566 0
M  V30 6701 O 640.998 -1.83698 -0.00843269 0
M  V30 6702 C 641.06 -1.21374 3.38391 0
M  V30 6703 C 640.724 -0.294044 4.56053 0
M  V30 6704 C 641.721 0.470454 5.17767 0
M  V30 6705 C 639.406 -0.202808 5.0189 0
M  V30 6706 C 641.4 1.31384 6.23712 0
M  V30 6707 C 639.087 0.644203 6.07695 0
M  V30 6708 C 640.085 1.40115 6.68473 0
M  V30 6709 O 639.773 2.23408 7.72233 0
M  V30 6710 H 639.505 -0.145799 0.66009 0
M  V30 6711 H 642.059 0.212441 2.04298 0
M  V30 6712 H 640.289 -2.00931 3.30399 0
M  V30 6713 H 641.978 -1.77424 3.65069 0
M  V30 6714 H 642.744 0.409884 4.83265 0
M  V30 6715 H 638.623 -0.781688 4.54324 0
M  V30 6716 H 642.167 1.90514 6.71081 0
M  V30 6717 H 638.064 0.706137 6.41626 0
M  V30 6718 H 638.832 2.16436 7.89365 0
M  V30 6719 N 641.495 -1.56914 -0.146875 0
M  V30 6720 C 642.425 -2.01308 -1.1831 0
M  V30 6721 C 643.406 -0.892664 -1.44795 0
M  V30 6722 O 644.591 -1.16048 -1.55713 0
M  V30 6723 C 641.721 -2.3938 -2.51624 0
M  V30 6724 C 640.675 -3.54608 -2.3966 0
M  V30 6725 C 640.001 -3.78493 -3.77686 0
M  V30 6726 C 641.301 -4.87269 -1.88058 0
M  V30 6727 H 642.995 -2.88123 -0.813964 0
M  V30 6728 H 640.541 -1.38615 -0.3901 0
M  V30 6729 H 642.494 -2.69037 -3.24341 0
M  V30 6730 H 641.218 -1.49502 -2.90373 0
M  V30 6731 H 639.877 -3.25116 -1.69396 0
M  V30 6732 H 639.525 -2.85866 -4.13871 0
M  V30 6733 H 639.225 -4.56039 -3.70543 0
M  V30 6734 H 640.749 -4.10576 -4.51951 0
M  V30 6735 H 642.163 -5.15644 -2.50568 0
M  V30 6736 H 640.56 -5.68622 -1.91805 0
M  V30 6737 H 641.63 -4.77634 -0.836277 0
M  V30 6738 N 642.974 0.416227 -1.52004 0
M  V30 6739 C 643.922 1.5272 -1.7544 0
M  V30 6740 C 644.916 1.57596 -0.621289 0
M  V30 6741 O 646.122 1.61087 -0.803172 0
M  V30 6742 H 642.497 0.507772 -0.554682 0
M  V30 6743 H 644.468 1.30136 -2.68528 0
M  V30 6744 C 643.217 2.90165 -1.91571 0
M  V30 6745 H 642.54 2.87154 -2.78178 0
M  V30 6746 H 643.98 3.67211 -2.11972 0
M  V30 6747 C 642.439 3.29947 -0.680942 0
M  V30 6748 O 642.969 4.01403 0.154527 0
M  V30 6749 N 641.175 2.8593 -0.518894 0
M  V30 6750 H 640.722 2.2795 -1.19986 0
M  V30 6751 H 640.68 3.12907 0.305985 0
M  V30 6752 N 644.452 1.42507 0.673017 0
M  V30 6753 C 645.4 1.46362 1.80779 0
M  V30 6754 C 646.394 0.339166 1.6597 0
M  V30 6755 O 647.6 0.512262 1.72557 0
M  V30 6756 H 643.975 0.458433 0.596107 0
M  V30 6757 H 645.946 2.41953 1.74646 0
M  V30 6758 C 644.695 1.38462 3.18941 0
M  V30 6759 H 644.018 2.24283 3.30964 0
M  V30 6760 H 645.458 1.45221 3.98355 0
M  V30 6761 C 643.917 0.0996354 3.36753 0
M  V30 6762 O 644.447 -0.846894 3.92671 0
M  V30 6763 N 642.653 0.016211 2.90595 0
M  V30 6764 H 642.2 0.78725 2.45276 0
M  V30 6765 H 642.158 -0.84291 3.0289 0
M  V30 6766 N 645.93 -0.909495 1.28709 0
M  V30 6767 C 647.179 -1.65365 1.15487 0
M  V30 6768 C 647.492 -1.93364 -0.294941 0
M  V30 6769 O 648.698 -2.65905 -0.548338 0
M  V30 6770 C 647.154 -2.97923 2.01916 0
M  V30 6771 C 646.762 -2.77556 3.51663 0
M  V30 6772 C 648.506 -3.75814 1.97393 0
M  V30 6773 C 646.413 -4.0578 4.30229 0
M  V30 6774 H 645.343 -0.620323 0.42862 0
M  V30 6775 H 647.994 -1.00894 1.53273 0
M  V30 6776 H 646.376 -3.63552 1.5699 0
M  V30 6777 H 647.55 -2.2058 4.04575 0
M  V30 6778 H 645.865 -2.13072 3.57756 0
M  V30 6779 H 648.462 -4.70866 2.53357 0
M  V30 6780 H 648.805 -4.05277 0.951643 0
M  V30 6781 H 649.338 -3.1701 2.40311 0
M  V30 6782 H 646.077 -3.81488 5.33055 0
M  V30 6783 H 645.597 -4.62351 3.82089 0
M  V30 6784 H 647.276 -4.74004 4.40374 0
M  V30 6785 N 647.408 -1.11026 -1.11852 0
M  V30 6786 C 648.654 -0.867633 -1.83967 0
M  V30 6787 C 649.009 0.600309 -1.82795 0
M  V30 6788 O 648.302 1.43731 -1.26696 0
M  V30 6789 C 648.496 -1.35777 -3.30604 0
M  V30 6790 C 648.325 -2.87183 -3.46058 0
M  V30 6791 C 647.095 -3.55256 -3.59334 0
M  V30 6792 C 649.293 -3.85258 -3.40706 0
M  V30 6793 N 647.275 -4.94923 -3.63215 0
M  V30 6794 C 648.646 -5.1097 -3.51155 0
M  V30 6795 C 650.701 -3.77879 -3.2421 0
M  V30 6796 C 649.404 -6.30171 -3.46809 0
M  V30 6797 C 651.43 -4.96586 -3.2118 0
M  V30 6798 C 650.792 -6.21149 -3.32196 0
M  V30 6799 H 646.891 -0.370574 -0.688621 0
M  V30 6800 H 649.475 -1.41379 -1.33865 0
M  V30 6801 H 647.646 -0.83885 -3.79233 0
M  V30 6802 H 649.378 -1.05874 -3.90606 0
M  V30 6803 H 646.133 -3.05714 -3.61713 0
M  V30 6804 H 646.557 -5.67726 -3.68804 0
M  V30 6805 H 651.199 -2.82485 -3.14582 0
M  V30 6806 H 648.917 -7.25847 -3.55206 0
M  V30 6807 H 652.503 -4.92591 -3.09589 0
M  V30 6808 H 651.383 -7.11463 -3.29834 0
M  V30 6809 N 648.886 1.2938 -0.899927 0
M  V30 6810 C 650.297 1.77644 -0.574427 0
M  V30 6811 C 650.648 1.73824 0.909928 0
M  V30 6812 O 649.773 1.32429 1.71147 0
M  V30 6813 C 650.368 3.22573 -1.03595 0
M  V30 6814 C 648.927 3.68614 -0.76161 0
M  V30 6815 C 648.074 2.49483 -1.21052 0
M  V30 6816 H 651.025 1.16038 -1.08263 0
M  V30 6817 H 651.046 3.78684 -0.371337 0
M  V30 6818 H 650.558 3.25321 -2.11631 0
M  V30 6819 H 648.659 3.7134 0.306127 0
M  V30 6820 H 648.772 4.59402 -1.35965 0
M  V30 6821 H 647.136 2.46798 -0.629515 0
M  V30 6822 H 647.919 2.54959 -2.29893 0
M  V30 6823 N 650.364 0.662433 1.43002 0
M  V30 6824 C 651.327 -0.0142016 2.29196 0
M  V30 6825 C 652.327 -0.741394 1.42688 0
M  V30 6826 O 653.517 -0.581257 1.64216 0
M  V30 6827 C 650.649 -1.03084 3.24941 0
M  V30 6828 H 651.842 0.7443 2.90517 0
M  V30 6829 H 649.395 0.424133 1.50435 0
M  V30 6830 H 650.13 -1.81826 2.68533 0
M  V30 6831 H 649.915 -0.512946 3.8873 0
M  V30 6832 H 651.405 -1.50308 3.89612 0
M  V30 6833 N 651.842 -1.52309 0.404946 0
M  V30 6834 C 652.792 -2.23717 -0.439864 0
M  V30 6835 C 653.776 -1.24692 -1.0169 0
M  V30 6836 O 654.968 -1.49951 -0.940409 0
M  V30 6837 C 652.097 -3.05898 -1.55825 0
M  V30 6838 C 651.183 -4.12331 -0.992188 0
M  V30 6839 N 651.574 -5.0557 -0.152424 0
M  V30 6840 C 649.872 -4.2774 -1.26312 0
M  V30 6841 C 650.573 -5.81474 0.162041 0
M  V30 6842 N 649.549 -5.41767 -0.44601 0
M  V30 6843 H 653.351 -2.93162 0.208084 0
M  V30 6844 H 650.865 -1.60969 0.215131 0
M  V30 6845 H 652.862 -3.55605 -2.17603 0
M  V30 6846 H 651.522 -2.37991 -2.20886 0
M  V30 6847 H 652.533 -5.17468 0.211556 0
M  V30 6848 H 649.21 -3.71062 -1.91362 0
M  V30 6849 H 650.6 -6.66585 0.843423 0
M  V30 6850 N 653.32 -0.135238 -1.57019 0
M  V30 6851 C 654.548 0.526066 -2.001 0
M  V30 6852 C 654.963 1.59184 -1.01519 0
M  V30 6853 O 654.32 1.82497 -0.0104258 0
M  V30 6854 C 654.371 1.13744 -3.43139 0
M  V30 6855 O 654.092 0.114259 -4.37951 0
M  V30 6856 C 655.593 1.8805 -4.01438 0
M  V30 6857 H 652.813 0.137962 -0.656664 0
M  V30 6858 H 655.357 -0.226359 -2.03243 0
M  V30 6859 H 653.512 1.84056 -3.40885 0
M  V30 6860 H 653.926 0.56058 -5.21496 0
M  V30 6861 H 655.4 2.26133 -5.03555 0
M  V30 6862 H 655.877 2.76194 -3.41487 0
M  V30 6863 H 656.483 1.22464 -4.07287 0
M  V30 6864 N 654.798 1.5699 0.138552 0
M  V30 6865 C 655.745 1.98899 1.17081 0
M  V30 6866 C 656.715 0.857922 1.42228 0
M  V30 6867 O 657.9 1.12065 1.54422 0
M  V30 6868 C 655.04 2.38189 2.4972 0
M  V30 6869 C 654.153 3.64624 2.31674 0
M  V30 6870 C 653.288 3.9298 3.57407 0
M  V30 6871 C 652.327 5.1266 3.34435 0
M  V30 6872 N 651.464 5.36983 4.5232 0
M  V30 6873 H 656.304 2.86881 0.80642 0
M  V30 6874 H 653.841 1.41925 0.386727 0
M  V30 6875 H 655.799 2.59 3.2707 0
M  V30 6876 H 654.429 1.53275 2.84089 0
M  V30 6877 H 653.481 3.51542 1.45337 0
M  V30 6878 H 654.793 4.52131 2.10664 0
M  V30 6879 H 653.947 4.14335 4.43183 0
M  V30 6880 H 652.686 3.03912 3.8143 0
M  V30 6881 H 651.691 4.9117 2.47048 0
M  V30 6882 H 652.916 6.03288 3.11802 0
M  V30 6883 H 650.862 4.50871 4.76499 0
M  V30 6884 H 650.779 6.18775 4.34343 0
M  V30 6885 H 652.047 5.62842 5.39285 0
M  V30 6886 N 656.276 -0.40816 1.52223 0
M  V30 6887 C 657.525 -1.15212 1.65557 0
M  V30 6888 C 657.838 -1.9163 0.392096 0
M  V30 6889 O 659.044 -2.68458 0.405256 0
M  V30 6890 C 657.5 -2.09691 2.92502 0
M  V30 6891 C 657.108 -1.38785 4.25961 0
M  V30 6892 C 658.852 -2.8434 3.152 0
M  V30 6893 C 656.759 -2.31919 5.44029 0
M  V30 6894 H 655.689 -0.433776 0.616729 0
M  V30 6895 H 658.34 -0.4165 1.78711 0
M  V30 6896 H 656.722 -2.8681 2.7305 0
M  V30 6897 H 657.896 -0.670248 4.55899 0
M  V30 6898 H 656.211 -0.761741 4.09373 0
M  V30 6899 H 658.808 -3.54166 4.00587 0
M  V30 6900 H 659.151 -3.47344 2.29473 0
M  V30 6901 H 659.684 -2.14321 3.35129 0
M  V30 6902 H 656.423 -1.7356 6.32105 0
M  V30 6903 H 655.943 -3.0165 5.18428 0
M  V30 6904 H 657.622 -2.92424 5.77146 0
M  V30 6905 N 657.755 -1.42862 -0.66545 0
M  V30 6906 C 658.718 -1.46756 -1.76055 0
M  V30 6907 C 659.718 -0.353866 -1.56858 0
M  V30 6908 O 660.908 -0.615099 -1.62979 0
M  V30 6909 C 658.04 -1.30829 -3.14796 0
M  V30 6910 H 659.233 -2.44271 -1.73987 0
M  V30 6911 H 656.786 -1.29447 -0.875965 0
M  V30 6912 H 657.521 -0.342733 -3.22484 0
M  V30 6913 H 657.306 -2.11551 -3.30134 0
M  V30 6914 H 658.796 -1.36458 -3.94676 0
M  V30 6915 N 659.233 0.902656 -1.29189 0
M  V30 6916 C 660.143 2.03946 -1.15944 0
M  V30 6917 C 661.159 1.738 -0.0833803 0
M  V30 6918 O 662.335 1.9923 -0.29487 0
M  V30 6919 C 659.4 3.36519 -0.834006 0
M  V30 6920 C 658.461 3.80203 -1.9936 0
M  V30 6921 C 657.694 5.06449 -1.68359 0
M  V30 6922 O 657.917 5.67202 -0.603141 0
M  V30 6923 O 656.851 5.46114 -2.53067 0
M  V30 6924 H 660.677 2.18043 -2.11403 0
M  V30 6925 H 658.262 1.02584 -1.08613 0
M  V30 6926 H 660.144 4.16089 -0.666949 0
M  V30 6927 H 658.819 3.23573 0.0908245 0
M  V30 6928 H 657.726 3.01413 -2.21588 0
M  V30 6929 H 659.059 3.97729 -2.89952 0
M  V30 6930 N 660.711 1.11618 1.11262 0
M  V30 6931 C 661.674 0.779447 2.15539 0
M  V30 6932 C 662.674 -0.202081 1.59525 0
M  V30 6933 O 663.864 0.0226356 1.74185 0
M  V30 6934 C 660.996 0.15674 3.40539 0
M  V30 6935 H 662.189 1.70324 2.4684 0
M  V30 6936 H 659.742 0.918298 1.26479 0
M  V30 6937 H 660.477 -0.777186 3.1485 0
M  V30 6938 H 660.262 0.863308 3.82478 0
M  V30 6939 H 661.752 -0.062661 4.17553 0
M  V30 6940 N 662.189 -1.289 0.906776 0
M  V30 6941 C 663.122 -2.25737 0.334362 0
M  V30 6942 C 664.1 -1.52745 -0.557474 0
M  V30 6943 O 665.284 -1.81673 -0.502697 0
M  V30 6944 C 662.411 -3.34642 -0.522716 0
M  V30 6945 C 661.457 -4.25424 0.302777 0
M  V30 6946 S 662.29 -5.07629 1.70508 0
M  V30 6947 C 663.446 -6.20031 0.855118 0
M  V30 6948 H 663.679 -2.73941 1.15514 0
M  V30 6949 H 661.212 -1.37233 0.707573 0
M  V30 6950 H 663.17 -3.97845 -1.01141 0
M  V30 6951 H 661.831 -2.85119 -1.31781 0
M  V30 6952 H 661.024 -5.02767 -0.352257 0
M  V30 6953 H 660.626 -3.66908 0.724873 0
M  V30 6954 H 662.918 -6.77451 0.0816418 0
M  V30 6955 H 663.861 -6.89767 1.60087 0
M  V30 6956 H 664.269 -5.63035 0.406375 0
M  V30 6957 N 663.667 -0.670007 -1.42649 0
M  V30 6958 C 664.617 0.0339546 -2.27975 0
M  V30 6959 C 665.601 0.778295 -1.40824 0
M  V30 6960 O 666.793 0.657997 -1.64315 0
M  V30 6961 C 663.922 0.987899 -3.28779 0
M  V30 6962 C 663.008 0.241153 -4.23414 0
M  V30 6963 N 663.399 -0.751392 -5.00188 0
M  V30 6964 C 661.697 0.480269 -4.43407 0
M  V30 6965 C 662.398 -1.19615 -5.69269 0
M  V30 6966 N 661.374 -0.527045 -5.41039 0
M  V30 6967 H 665.176 -0.727425 -2.84756 0
M  V30 6968 H 662.69 -0.498673 -1.54554 0
M  V30 6969 H 664.687 1.50716 -3.88703 0
M  V30 6970 H 663.347 1.74916 -2.73559 0
M  V30 6971 H 664.358 -1.13075 -5.05405 0
M  V30 6972 H 661.035 1.2214 -3.99234 0
M  V30 6973 H 662.425 -2.01836 -6.40868 0
M  V30 6974 N 665.145 1.52092 -0.413018 0
M  V30 6975 C 666.095 2.23947 0.427993 0
M  V30 6976 C 667.079 1.25229 1.01027 0
M  V30 6977 O 668.271 1.50448 0.932444 0
M  V30 6978 C 665.4 3.0672 1.542 0
M  V30 6979 C 664.486 4.12851 0.970307 0
M  V30 6980 N 664.877 5.05644 0.125611 0
M  V30 6981 C 663.175 4.28404 1.24042 0
M  V30 6982 C 663.876 5.8138 -0.192876 0
M  V30 6983 N 662.852 5.41996 0.417273 0
M  V30 6984 H 666.654 2.93048 -0.223628 0
M  V30 6985 H 664.168 1.60852 -0.223664 0
M  V30 6986 H 666.165 3.56754 2.15714 0
M  V30 6987 H 664.825 2.39159 2.19621 0
M  V30 6988 H 665.836 5.17348 -0.238995 0
M  V30 6989 H 662.513 3.72071 1.89391 0
M  V30 6990 H 663.903 6.66129 -0.878762 0
M  V30 6991 N 666.623 0.143563 1.56945 0
M  V30 6992 C 667.555 -0.828353 2.13708 0
M  V30 6993 C 668.568 -1.21313 1.08568 0
M  V30 6994 O 669.757 -1.1578 1.35857 0
M  V30 6995 C 666.857 -2.12248 2.64204 0
M  V30 6996 C 666.03 -1.90561 3.93707 0
M  V30 6997 C 665.089 -3.03931 4.29549 0
M  V30 6998 O 664.115 -2.75772 4.97934 0
M  V30 6999 N 665.317 -4.31016 3.88852 0
M  V30 7000 H 668.082 -0.343242 2.97728 0
M  V30 7001 H 665.643 -0.0401152 1.6185 0
M  V30 7002 H 667.635 -2.87132 2.85197 0
M  V30 7003 H 666.205 -2.52033 1.84928 0
M  V30 7004 H 665.425 -0.997327 3.81375 0
M  V30 7005 H 666.713 -1.73405 4.78339 0
M  V30 7006 H 666.111 -4.56762 3.33743 0
M  V30 7007 H 664.668 -5.02691 4.14903 0
M  V30 7008 N 668.101 -1.57061 -0.130224 0
M  V30 7009 C 669.378 -1.75205 -0.869631 0
M  V30 7010 C 669.758 -0.716063 -1.98584 0
M  V30 7011 O 669.106 0.262032 -2.26993 0
M  V30 7012 C 669.316 -3.19835 -1.39666 0
M  V30 7013 C 670.664 -3.82011 -1.85345 0
M  V30 7014 O 671.688 -3.23368 -1.49371 0
M  V30 7015 O 670.547 -4.85064 -2.51744 0
M  V30 7016 H 667.641 -0.716977 -0.412157 0
M  V30 7017 H 670.187 -1.69311 -0.11484 0
M  V30 7018 H 668.959 -3.86745 -0.595288 0
M  V30 7019 H 668.582 -3.30222 -2.21448 0
M  V30 7020 N 669.579 0.400081 -1.52437 0
M  V30 7021 C 670.819 1.15526 -1.68622 0
M  V30 7022 C 671.183 1.87533 -0.411744 0
M  V30 7023 O 672.384 2.6501 -0.449804 0
M  V30 7024 C 670.655 2.11618 -2.88015 0
M  V30 7025 S 672.214 2.95121 -3.24729 0
M  V30 7026 H 669.032 0.39123 -0.593683 0
M  V30 7027 H 671.634 0.441255 -1.90455 0
M  V30 7028 H 670.338 1.5742 -3.79008 0
M  V30 7029 H 669.869 2.87544 -2.68481 0
M  V30 7030 H 671.884 4.13653 -2.74055 0
M  V30 7031 N 671.057 1.43213 0.657864 0
M  V30 7032 C 671.987 1.50815 1.78262 0
M  V30 7033 C 672.968 0.363211 1.66177 0
M  V30 7034 O 674.153 0.579806 1.85343 0
M  V30 7035 C 671.283 1.42625 3.16663 0
M  V30 7036 C 670.237 2.5532 3.43505 0
M  V30 7037 C 669.563 2.32184 4.81658 0
M  V30 7038 C 670.863 3.97583 3.38711 0
M  V30 7039 H 672.557 2.44954 1.72157 0
M  V30 7040 H 670.103 1.17896 0.82683 0
M  V30 7041 H 672.056 1.46548 3.95097 0
M  V30 7042 H 670.78 0.449877 3.23487 0
M  V30 7043 H 669.439 2.50742 2.6744 0
M  V30 7044 H 669.087 1.32801 4.85153 0
M  V30 7045 H 668.787 3.07724 5.00579 0
M  V30 7046 H 670.311 2.37883 5.62356 0
M  V30 7047 H 671.725 4.03673 4.07089 0
M  V30 7048 H 670.122 4.73112 3.69168 0
M  V30 7049 H 671.192 4.23049 2.36976 0
M  V30 7050 N 672.536 -0.895792 1.29666 0
M  V30 7051 C 673.466 -2.01673 1.17688 0
M  V30 7052 C 674.447 -1.69955 0.0701317 0
M  V30 7053 O 675.632 -1.9258 0.250289 0
M  V30 7054 C 672.762 -3.36568 0.856681 0
M  V30 7055 C 671.716 -3.82509 1.92017 0
M  V30 7056 C 671.042 -5.14574 1.4532 0
M  V30 7057 C 672.342 -4.02409 3.32963 0
M  V30 7058 H 674.036 -2.11953 2.11463 0
M  V30 7059 H 671.582 -1.01839 1.01807 0
M  V30 7060 H 673.535 -4.14498 0.759577 0
M  V30 7061 H 672.259 -3.26391 -0.116763 0
M  V30 7062 H 670.918 -3.068 2.00673 0
M  V30 7063 H 670.566 -5.00815 0.468325 0
M  V30 7064 H 670.266 -5.46283 2.16447 0
M  V30 7065 H 671.79 -5.9504 1.36968 0
M  V30 7066 H 673.204 -4.70808 3.27127 0
M  V30 7067 H 671.601 -4.45478 4.02082 0
M  V30 7068 H 672.671 -3.06616 3.75652 0
M  V30 7069 N 674.014 -1.12206 -1.10668 0
M  V30 7070 C 675.261 -0.875875 -1.82578 0
M  V30 7071 C 675.589 0.598342 -1.85068 0
M  V30 7072 O 674.844 1.45818 -1.3052 0
M  V30 7073 C 675.143 -1.39276 -3.29146 0
M  V30 7074 C 674.809 -2.8816 -3.46806 0
M  V30 7075 C 673.471 -3.28813 -3.51334 0
M  V30 7076 C 675.823 -3.8401 -3.52399 0
M  V30 7077 C 673.151 -4.64028 -3.59019 0
M  V30 7078 C 675.503 -5.19053 -3.61617 0
M  V30 7079 C 674.167 -5.59252 -3.64408 0
M  V30 7080 H 673.437 -0.320505 -0.6681 0
M  V30 7081 H 676.084 -1.40184 -1.30464 0
M  V30 7082 H 674.389 -0.787207 -3.8381 0
M  V30 7083 H 676.086 -1.17851 -3.83291 0
M  V30 7084 H 672.676 -2.55716 -3.43958 0
M  V30 7085 H 676.86 -3.53698 -3.48154 0
M  V30 7086 H 672.116 -4.94568 -3.59461 0
M  V30 7087 H 676.29 -5.93152 -3.64889 0
M  V30 7088 H 673.917 -6.64017 -3.70116 0
M  V30 7089 N 675.492 1.28418 -0.913599 0
M  V30 7090 C 676.455 2.25564 -0.406624 0
M  V30 7091 C 677.455 1.5387 0.466965 0
M  V30 7092 O 678.645 1.72094 0.270042 0
M  V30 7093 C 675.777 3.38339 0.417053 0
M  V30 7094 H 676.97 2.71926 -1.26477 0
M  V30 7095 H 674.523 1.40098 -0.692986 0
M  V30 7096 H 675.258 2.97339 1.29461 0
M  V30 7097 H 675.043 3.91542 -0.209102 0
M  V30 7098 H 676.533 4.10578 0.762602 0
M  V30 7099 N 676.97 0.677563 1.42291 0
M  V30 7100 C 678.198 0.209459 2.05837 0
M  V30 7101 C 678.613 -1.13444 1.50917 0
M  V30 7102 O 677.97 -1.70529 0.65008 0
M  V30 7103 C 678.021 0.138819 3.61233 0
M  V30 7104 O 677.742 1.42962 4.14118 0
M  V30 7105 C 679.243 -0.352449 4.41897 0
M  V30 7106 H 676.463 0.101209 0.663323 0
M  V30 7107 H 679.007 0.925077 1.8238 0
M  V30 7108 H 677.162 -0.527505 3.83792 0
M  V30 7109 H 677.576 1.3048 5.08011 0
M  V30 7110 H 679.05 -0.350778 5.50884 0
M  V30 7111 H 679.527 -1.3882 4.16684 0
M  V30 7112 H 680.133 0.282236 4.24362 0
M  V30 7113 N 678.448 -1.51871 0.421078 0
M  V30 7114 C 679.673 -2.0684 -0.152371 0
M  V30 7115 C 680.098 -1.28802 -1.37083 0
M  V30 7116 O 679.456 -0.321482 -1.78427 0
M  V30 7117 C 679.504 -3.57532 -0.469368 0
M  V30 7118 O 678.608 -3.81818 -1.55848 0
M  V30 7119 H 677.949 -0.663939 -0.00898586 0
M  V30 7120 H 680.479 -1.95674 0.597724 0
M  V30 7121 H 680.489 -4.01515 -0.724553 0
M  V30 7122 H 679.164 -4.13761 0.421276 0
M  V30 7123 H 677.741 -3.49709 -1.29453 0
M  V30 7124 N 679.926 -0.151884 -1.56866 0
M  V30 7125 C 680.876 0.797799 -2.13586 0
M  V30 7126 C 681.86 1.20613 -1.06496 0
M  V30 7127 O 683.052 1.17173 -1.32663 0
M  V30 7128 C 680.181 2.03493 -2.76488 0
M  V30 7129 C 679.267 1.64948 -3.90708 0
M  V30 7130 N 679.658 0.972513 -4.96363 0
M  V30 7131 C 677.956 1.94186 -4.01507 0
M  V30 7132 C 678.657 0.785661 -5.7637 0
M  V30 7133 N 677.633 1.32105 -5.27304 0
M  V30 7134 H 681.435 0.271403 -2.92644 0
M  V30 7135 H 678.949 0.049487 -1.62325 0
M  V30 7136 H 680.946 2.72532 -3.15487 0
M  V30 7137 H 679.606 2.56646 -1.98904 0
M  V30 7138 H 680.617 0.632724 -5.1402 0
M  V30 7139 H 677.294 2.49154 -3.35005 0
M  V30 7140 H 678.684 0.251749 -6.71428 0
M  V30 7141 N 681.404 1.57128 0.121893 0
M  V30 7142 C 682.334 2.03165 1.15092 0
M  V30 7143 C 683.315 0.915587 1.43356 0
M  V30 7144 O 684.5 1.1851 1.53847 0
M  V30 7145 C 681.63 2.43352 2.47784 0
M  V30 7146 C 680.584 3.58376 2.33989 0
M  V30 7147 C 679.91 3.84454 3.71617 0
M  V30 7148 C 681.21 4.90199 1.80283 0
M  V30 7149 H 682.904 2.89382 0.768023 0
M  V30 7150 H 680.45 1.39218 0.367998 0
M  V30 7151 H 682.403 2.74163 3.20019 0
M  V30 7152 H 681.127 1.54103 2.87958 0
M  V30 7153 H 679.786 3.2777 1.64202 0
M  V30 7154 H 679.434 2.92414 4.09271 0
M  V30 7155 H 679.134 4.61877 3.6324 0
M  V30 7156 H 680.658 4.17714 4.45362 0
M  V30 7157 H 682.072 5.19565 2.42333 0
M  V30 7158 H 680.469 5.71601 1.82735 0
M  V30 7159 H 681.539 4.78904 0.760184 0
M  V30 7160 N 682.882 -0.391992 1.52647 0
M  V30 7161 C 684.131 -1.13449 1.6677 0
M  V30 7162 C 684.444 -1.91203 0.412399 0
M  V30 7163 O 685.65 -2.68013 0.433707 0
M  V30 7164 C 684.106 -2.06577 2.9471 0
M  V30 7165 C 683.714 -1.3426 4.27409 0
M  V30 7166 C 685.458 -2.80981 3.18198 0
M  V30 7167 C 683.365 -2.26136 5.46458 0
M  V30 7168 H 682.295 -0.427211 0.621295 0
M  V30 7169 H 684.946 -0.397522 1.79142 0
M  V30 7170 H 683.328 -2.83898 2.76076 0
M  V30 7171 H 684.502 -0.621856 4.56585 0
M  V30 7172 H 682.817 -0.718279 4.10158 0
M  V30 7173 H 685.414 -3.49898 4.04321 0
M  V30 7174 H 685.757 -3.44891 2.33144 0
M  V30 7175 H 686.29 -2.10754 3.37383 0
M  V30 7176 H 683.029 -1.66846 6.33911 0
M  V30 7177 H 682.549 -2.96134 5.21598 0
M  V30 7178 H 684.228 -2.86286 5.80215 0
M  V30 7179 N 684.36 -1.4356 -0.65026 0
M  V30 7180 C 685.585 -1.48995 -1.44275 0
M  V30 7181 C 686.01 -0.109954 -1.87778 0
M  V30 7182 O 685.368 0.896926 -1.57559 0
M  V30 7183 C 685.416 -2.44341 -2.65198 0
M  V30 7184 O 684.52 -1.93172 -3.6436 0
M  V30 7185 H 683.861 -0.503852 -0.432469 0
M  V30 7186 H 686.391 -1.88504 -0.795446 0
M  V30 7187 H 686.401 -2.61743 -3.12977 0
M  V30 7188 H 685.076 -3.44588 -2.32877 0
M  V30 7189 H 683.653 -1.85445 -3.23519 0
M  V30 7190 N 685.838 0.888903 -1.30139 0
M  V30 7191 C 686.768 2.01046 -1.18755 0
M  V30 7192 C 687.749 1.69916 -0.0791438 0
M  V30 7193 O 688.934 1.92445 -0.260498 0
M  V30 7194 C 686.064 3.36109 -0.874518 0
M  V30 7195 C 685.018 3.81486 -1.94043 0
M  V30 7196 C 684.344 5.13796 -1.48047 0
M  V30 7197 C 685.644 4.00637 -3.35093 0
M  V30 7198 H 687.338 2.10828 -2.12584 0
M  V30 7199 H 684.884 1.01298 -1.02346 0
M  V30 7200 H 686.837 4.14089 -0.781548 0
M  V30 7201 H 685.561 3.26449 0.0994519 0
M  V30 7202 H 684.22 3.05731 -2.02297 0
M  V30 7203 H 683.868 5.0056 -0.494878 0
M  V30 7204 H 683.568 5.45127 -2.19341 0
M  V30 7205 H 685.092 5.94305 -1.40121 0
M  V30 7206 H 686.506 4.69067 -3.2962 0
M  V30 7207 H 684.903 4.43339 -4.04438 0
M  V30 7208 H 685.973 3.0462 -3.77273 0
M  V30 7209 N 687.317 1.12792 1.10072 0
M  V30 7210 C 688.227 0.812369 2.20086 0
M  V30 7211 C 689.243 -0.200349 1.72843 0
M  V30 7212 O 690.419 -0.0330262 2.01373 0
M  V30 7213 C 687.484 0.275685 3.45602 0
M  V30 7214 C 686.545 1.34881 4.07561 0
M  V30 7215 C 685.778 0.837639 5.27086 0
M  V30 7216 O 686.001 -0.327224 5.69461 0
M  V30 7217 O 684.935 1.60894 5.79997 0
M  V30 7218 H 688.761 1.73133 2.49517 0
M  V30 7219 H 686.346 0.904863 1.18881 0
M  V30 7220 H 688.228 -0.0185375 4.21396 0
M  V30 7221 H 686.903 -0.615783 3.17789 0
M  V30 7222 H 685.81 1.69625 3.33434 0
M  V30 7223 H 687.143 2.21418 4.39585 0
M  V30 7224 N 688.795 -1.27931 0.920396 0
M  V30 7225 C 690.041 -1.94977 0.557832 0
M  V30 7226 C 690.374 -1.72224 -0.897365 0
M  V30 7227 O 689.649 -1.04705 -1.63912 0
M  V30 7228 C 689.932 -3.49289 0.875741 0
M  V30 7229 C 689.785 -3.81416 2.38416 0
M  V30 7230 C 691.104 -4.38486 0.376517 0
M  V30 7231 H 688.223 -0.708164 0.20414 0
M  V30 7232 H 690.865 -1.5118 1.15085 0
M  V30 7233 H 689.015 -3.86724 0.371062 0
M  V30 7234 H 690.687 -3.53813 2.95997 0
M  V30 7235 H 688.93 -3.28225 2.83639 0
M  V30 7236 H 689.601 -4.89198 2.55713 0
M  V30 7237 H 692.077 -4.08161 0.808945 0
M  V30 7238 H 690.953 -5.45296 0.627976 0
M  V30 7239 H 691.214 -4.36143 -0.723293 0
M  V30 7240 N 690.273 -0.685099 -1.4193 0
M  V30 7241 C 691.498 -0.218842 -2.06242 0
M  V30 7242 C 691.923 1.11923 -1.51178 0
M  V30 7243 O 691.281 1.69837 -0.634446 0
M  V30 7244 C 691.329 -0.175592 -3.60172 0
M  V30 7245 O 690.433 0.852776 -4.03487 0
M  V30 7246 H 689.774 -0.109531 -0.654904 0
M  V30 7247 H 692.304 -0.937013 -1.81882 0
M  V30 7248 H 692.314 -0.00291151 -4.08 0
M  V30 7249 H 690.989 -1.15222 -3.99621 0
M  V30 7250 H 689.566 0.650301 -3.67186 0
M  V30 7251 N 691.751 1.51645 -0.429126 0
M  V30 7252 C 693.162 1.86665 0.0359003 0
M  V30 7253 C 693.513 1.34677 1.42676 0
M  V30 7254 O 692.638 0.694195 2.04963 0
M  V30 7255 C 693.233 3.38724 0.0719221 0
M  V30 7256 C 691.792 3.7331 0.481336 0
M  V30 7257 C 690.939 2.75313 -0.331329 0
M  V30 7258 H 693.89 1.44987 -0.645333 0
M  V30 7259 H 693.911 3.7011 0.883118 0
M  V30 7260 H 693.423 3.76532 -0.940495 0
M  V30 7261 H 691.524 3.41088 1.49966 0
M  V30 7262 H 691.637 4.78631 0.211837 0
M  V30 7263 H 690.001 2.53839 0.209204 0
M  V30 7264 H 690.784 3.15963 -1.34247 0
M  V30 7265 N 693.229 0.160201 1.56784 0
M  V30 7266 C 694.64 -0.358417 1.83227 0
M  V30 7267 C 694.991 -1.63831 1.07952 0
M  V30 7268 O 694.116 -2.13885 0.328995 0
M  V30 7269 C 694.711 -0.657058 3.32368 0
M  V30 7270 C 693.27 -1.12015 3.59346 0
M  V30 7271 C 692.417 -0.15015 2.76893 0
M  V30 7272 H 695.368 0.384669 1.53967 0
M  V30 7273 H 695.389 -1.51033 3.49241 0
M  V30 7274 H 694.901 0.274647 3.87127 0
M  V30 7275 H 693.002 -2.06734 3.09987 0
M  V30 7276 H 693.115 -1.037 4.67743 0
M  V30 7277 H 691.479 -0.645361 2.46388 0
M  V30 7278 H 692.262 0.775379 3.34429 0
M  V30 7279 N 694.707 -1.5719 -0.113559 0
M  V30 7280 C 696.118 -1.74259 -0.670116 0
M  V30 7281 C 696.469 -0.779694 -1.80042 0
M  V30 7282 O 695.594 0.0461353 -2.16351 0
M  V30 7283 C 696.189 -3.15981 -1.22236 0
M  V30 7284 C 694.748 -3.34537 -1.72516 0
M  V30 7285 C 693.895 -2.70116 -0.627098 0
M  V30 7286 H 696.846 -1.58301 0.112396 0
M  V30 7287 H 696.867 -3.17832 -2.09197 0
M  V30 7288 H 696.379 -3.86038 -0.39949 0
M  V30 7289 H 694.48 -2.6953 -2.57263 0
M  V30 7290 H 694.593 -4.42737 -1.83086 0
M  V30 7291 H 692.957 -2.31501 -1.06204 0
M  V30 7292 H 693.74 -3.42802 0.184889 0
M  V30 7293 N 696.185 0.383891 -1.52853 0
M  V30 7294 C 697.413 1.1495 -1.7203 0
M  V30 7295 C 697.828 1.83578 -0.440957 0
M  V30 7296 O 697.185 1.72872 0.584925 0
M  V30 7297 C 697.236 2.19368 -2.87333 0
M  V30 7298 O 696.957 1.53536 -4.10315 0
M  V30 7299 C 698.458 3.08616 -3.18231 0
M  V30 7300 H 695.678 0.344445 -0.575846 0
M  V30 7301 H 698.222 0.448397 -1.99524 0
M  V30 7302 H 696.377 2.85105 -2.62286 0
M  V30 7303 H 696.791 2.2296 -4.74752 0
M  V30 7304 H 698.265 3.77902 -4.02361 0
M  V30 7305 H 698.742 3.72409 -2.32826 0
M  V30 7306 H 699.348 2.48518 -3.45136 0
M  V30 7307 N 697.663 1.43903 0.642637 0
M  V30 7308 C 698.593 1.52697 1.76652 0
M  V30 7309 C 699.574 0.380816 1.65782 0
M  V30 7310 O 700.759 0.599432 1.84717 0
M  V30 7311 C 697.889 1.45975 3.15133 0
M  V30 7312 C 696.843 2.58949 3.40778 0
M  V30 7313 C 696.169 2.37279 4.79169 0
M  V30 7314 C 697.469 4.01153 3.34475 0
M  V30 7315 H 699.163 2.46766 1.69549 0
M  V30 7316 H 696.709 1.18767 0.814279 0
M  V30 7317 H 698.662 1.5073 3.93521 0
M  V30 7318 H 697.386 0.484162 3.22991 0
M  V30 7319 H 696.045 2.53564 2.64765 0
M  V30 7320 H 695.693 1.37939 4.83717 0
M  V30 7321 H 695.393 3.13016 4.97287 0
M  V30 7322 H 696.917 2.43834 5.59801 0
M  V30 7323 H 698.331 4.07968 4.02784 0
M  V30 7324 H 696.728 4.77001 3.64129 0
M  V30 7325 H 697.798 4.25539 2.32475 0
M  V30 7326 N 699.141 -0.881989 1.30609 0
M  V30 7327 C 700.366 -1.67236 1.22665 0
M  V30 7328 C 700.791 -1.8696 -0.206777 0
M  V30 7329 O 700.149 -1.4027 -1.14865 0
M  V30 7330 C 700.197 -3.02446 1.96363 0
M  V30 7331 O 699.301 -3.91614 1.29276 0
M  V30 7332 H 698.642 -0.510902 0.424117 0
M  V30 7333 H 701.172 -1.10055 1.72479 0
M  V30 7334 H 701.182 -3.52468 2.055 0
M  V30 7335 H 699.857 -2.8741 3.00613 0
M  V30 7336 H 698.434 -3.50055 1.28514 0
M  V30 7337 N 700.619 -1.13374 -1.09472 0
M  V30 7338 C 701.551 -0.768466 -2.15933 0
M  V30 7339 C 702.564 0.209585 -1.61445 0
M  V30 7340 O 703.753 -0.010539 -1.78497 0
M  V30 7341 C 700.853 -0.118266 -3.38694 0
M  V30 7342 C 700.026 -1.12829 -4.22597 0
M  V30 7343 C 699.085 -0.503875 -5.23782 0
M  V30 7344 O 698.111 -1.16374 -5.57177 0
M  V30 7345 N 699.313 0.724288 -5.75964 0
M  V30 7346 H 702.078 -1.68457 -2.47876 0
M  V30 7347 H 699.639 -1.02668 -1.25183 0
M  V30 7348 H 701.631 0.311698 -4.03498 0
M  V30 7349 H 700.201 0.700769 -3.04644 0
M  V30 7350 H 699.421 -1.73556 -3.53938 0
M  V30 7351 H 700.709 -1.81095 -4.75481 0
M  V30 7352 H 700.107 1.27918 -5.51048 0
M  V30 7353 H 698.664 1.09692 -6.42504 0
M  V30 7354 N 702.098 1.27442 -0.927168 0
M  V30 7355 C 703.046 2.28844 -0.416333 0
M  V30 7356 C 704.04 1.61882 0.499057 0
M  V30 7357 O 705.246 1.75969 0.378817 0
M  V30 7358 H 701.621 0.742989 -0.116065 0
M  V30 7359 H 703.592 2.69344 -1.28438 0
M  V30 7360 C 702.341 3.4626 0.316107 0
M  V30 7361 H 701.664 3.97999 -0.379082 0
M  V30 7362 H 703.104 4.19173 0.637975 0
M  V30 7363 C 701.563 3.00211 1.5289 0
M  V30 7364 O 702.093 3.03837 2.62766 0
M  V30 7365 N 700.299 2.55713 1.38054 0
M  V30 7366 H 699.846 2.52962 0.4866 0
M  V30 7367 H 699.804 2.25264 2.19325 0
M  V30 7368 N 703.576 0.692616 1.41565 0
M  V30 7369 C 704.506 0.0397325 2.33466 0
M  V30 7370 C 705.487 -0.770334 1.51657 0
M  V30 7371 O 706.672 -0.723903 1.80203 0
M  V30 7372 C 703.802 -0.899495 3.3545 0
M  V30 7373 C 702.756 -0.196738 4.27548 0
M  V30 7374 C 702.082 -1.25012 5.19881 0
M  V30 7375 C 703.382 0.935158 5.1386 0
M  V30 7376 H 705.076 0.807296 2.88311 0
M  V30 7377 H 702.622 0.389665 1.38628 0
M  V30 7378 H 704.575 -1.36545 3.98665 0
M  V30 7379 H 703.299 -1.69869 2.78948 0
M  V30 7380 H 701.958 0.249158 3.65752 0
M  V30 7381 H 701.606 -2.04177 4.59696 0
M  V30 7382 H 701.306 -0.784931 5.82334 0
M  V30 7383 H 702.83 -1.71665 5.85972 0
M  V30 7384 H 704.244 0.549619 5.70659 0
M  V30 7385 H 702.641 1.32726 5.85238 0
M  V30 7386 H 703.711 1.77613 4.512 0
M  V30 7387 N 705.054 -1.51416 0.437162 0
M  V30 7388 C 706.279 -2.0699 -0.130424 0
M  V30 7389 C 706.704 -1.30249 -1.35709 0
M  V30 7390 O 706.062 -0.340388 -1.78076 0
M  V30 7391 C 706.11 -3.5801 -0.43142 0
M  V30 7392 O 705.214 -3.8345 -1.5179 0
M  V30 7393 H 704.555 -0.663997 -0.00194339 0
M  V30 7394 H 707.085 -1.95029 0.618445 0
M  V30 7395 H 707.095 -4.02261 -0.681926 0
M  V30 7396 H 705.77 -4.13291 0.465137 0
M  V30 7397 H 704.347 -3.51062 -1.25737 0
M  V30 7398 N 706.532 -0.168513 -1.56696 0
M  V30 7399 C 707.78 0.476216 -1.96409 0
M  V30 7400 C 708.101 1.63968 -1.05544 0
M  V30 7401 O 707.371 1.95525 -0.121235 0
M  V30 7402 H 705.951 0.178921 -0.725256 0
M  V30 7403 H 708.613 -0.249042 -1.93302 0
M  V30 7404 H 707.709 0.838094 -3.00637 0
M  V30 7405 N 708.01 1.57248 0.105221 0
M  V30 7406 C 709.235 1.90143 0.828264 0
M  V30 7407 C 709.66 0.761811 1.71983 0
M  V30 7408 O 709.018 -0.287086 1.79013 0
M  V30 7409 C 709.066 3.21856 1.62608 0
M  V30 7410 O 708.17 3.08732 2.7342 0
M  V30 7411 H 707.511 0.623558 0.228192 0
M  V30 7412 H 710.041 2.0443 0.0834826 0
M  V30 7413 H 710.051 3.54916 2.01243 0
M  V30 7414 H 708.726 4.0439 0.971687 0
M  V30 7415 H 707.303 2.87167 2.37886 0
M  V30 7416 N 709.488 -0.375779 1.53054 0
M  V30 7417 C 710.899 -0.95309 1.6054 0
M  V30 7418 C 711.25 -1.90575 0.466446 0
M  V30 7419 O 710.375 -2.12507 -0.408609 0
M  V30 7420 C 710.97 -1.73537 2.90982 0
M  V30 7421 C 709.529 -2.26218 3.00836 0
M  V30 7422 C 708.676 -1.07157 2.55759 0
M  V30 7423 H 711.627 -0.154895 1.57942 0
M  V30 7424 H 711.648 -2.59574 2.78211 0
M  V30 7425 H 711.16 -1.04176 3.73857 0
M  V30 7426 H 709.261 -2.98852 2.22527 0
M  V30 7427 H 709.374 -2.54799 4.05727 0
M  V30 7428 H 707.738 -1.43553 2.10391 0
M  V30 7429 H 708.521 -0.393099 3.41042 0
M  V30 7430 N 710.966 -1.44241 -0.634997 0
M  V30 7431 C 711.896 -1.53632 -1.7584 0
M  V30 7432 C 712.877 -0.389603 -1.65578 0
M  V30 7433 O 714.062 -0.609219 -1.84397 0
M  V30 7434 C 711.192 -1.47644 -3.14354 0
M  V30 7435 C 710.146 -2.60752 -3.394 0
M  V30 7436 C 709.472 -2.39817 -4.77904 0
M  V30 7437 C 710.772 -4.02921 -3.32343 0
M  V30 7438 H 712.466 -2.47662 -1.68238 0
M  V30 7439 H 710.012 -1.19197 -0.807969 0
M  V30 7440 H 711.965 -1.52815 -3.92716 0
M  V30 7441 H 710.689 -0.501284 -3.2273 0
M  V30 7442 H 709.348 -2.54965 -2.63417 0
M  V30 7443 H 708.996 -1.40502 -4.82978 0
M  V30 7444 H 708.696 -3.15649 -4.9562 0
M  V30 7445 H 710.22 -2.46799 -5.585 0
M  V30 7446 H 711.634 -4.10098 -4.00615 0
M  V30 7447 H 710.031 -4.78925 -3.61595 0
M  V30 7448 H 711.101 -4.26766 -2.30215 0
M  V30 7449 N 712.444 0.87505 -1.31075 0
M  V30 7450 C 713.693 1.62245 -1.19831 0
M  V30 7451 C 714.006 1.94078 0.24357 0
M  V30 7452 O 715.212 2.67265 0.477646 0
M  V30 7453 C 713.668 2.92464 -2.09744 0
M  V30 7454 C 713.276 2.68134 -3.58898 0
M  V30 7455 C 715.02 3.70449 -2.07287 0
M  V30 7456 C 712.927 3.9423 -4.40836 0
M  V30 7457 H 711.857 0.608741 -0.444916 0
M  V30 7458 H 714.508 0.967947 -1.55894 0
M  V30 7459 H 712.89 3.59262 -1.66574 0
M  V30 7460 H 714.064 2.09776 -4.10281 0
M  V30 7461 H 712.379 2.03511 -3.6328 0
M  V30 7462 H 714.976 4.63983 -2.65752 0
M  V30 7463 H 715.319 4.02611 -1.05876 0
M  V30 7464 H 715.852 3.10528 -2.48631 0
M  V30 7465 H 712.591 3.67221 -5.42982 0
M  V30 7466 H 712.111 4.52058 -3.94213 0
M  V30 7467 H 713.79 4.62162 -4.52786 0
M  V30 7468 N 713.922 1.13953 1.08869 0
M  V30 7469 C 715.15 0.92817 1.84912 0
M  V30 7470 C 715.565 -0.523197 1.81406 0
M  V30 7471 O 714.922 -1.36237 1.21432 0
M  V30 7472 C 714.973 1.41509 3.32652 0
M  V30 7473 O 714.694 2.80959 3.36145 0
M  V30 7474 C 716.195 1.243 4.25517 0
M  V30 7475 H 713.415 0.330612 0.583898 0
M  V30 7476 H 715.959 1.51349 1.37527 0
M  V30 7477 H 714.114 0.872648 3.77444 0
M  V30 7478 H 714.528 3.02704 4.28335 0
M  V30 7479 H 716.002 1.63237 5.27312 0
M  V30 7480 H 716.479 0.18532 4.38809 0
M  V30 7481 H 717.085 1.77375 3.86546 0
M  V30 7482 N 715.4 -1.26948 0.933913 0
M  V30 7483 C 716.646 -1.94374 0.57848 0
M  V30 7484 C 716.979 -1.73166 -0.879048 0
M  V30 7485 O 716.254 -1.06438 -1.62792 0
M  V30 7486 C 716.537 -3.4834 0.912739 0
M  V30 7487 C 716.39 -3.78866 2.42448 0
M  V30 7488 C 717.709 -4.38062 0.423003 0
M  V30 7489 H 714.828 -0.705959 0.211639 0
M  V30 7490 H 717.47 -1.49951 1.16682 0
M  V30 7491 H 715.62 -3.86309 0.412058 0
M  V30 7492 H 717.292 -3.50654 2.99733 0
M  V30 7493 H 715.535 -3.25198 2.87104 0
M  V30 7494 H 716.206 -4.86458 2.60887 0
M  V30 7495 H 718.682 -4.0728 0.852191 0
M  V30 7496 H 717.558 -5.44599 0.685776 0
M  V30 7497 H 717.819 -4.36886 -0.676994 0
M  V30 7498 N 716.879 -0.700114 -1.41195 0
M  V30 7499 C 717.829 -0.0144098 -2.27995 0
M  V30 7500 C 718.813 0.748249 -1.42443 0
M  V30 7501 O 720.005 0.622995 -1.65674 0
M  V30 7502 C 717.134 0.917938 -3.308 0
M  V30 7503 C 716.22 0.151286 -4.2383 0
M  V30 7504 N 716.611 -0.85732 -4.98481 0
M  V30 7505 C 714.909 0.386108 -4.44326 0
M  V30 7506 C 715.61 -1.31663 -5.66604 0
M  V30 7507 N 714.586 -0.641689 -5.39799 0
M  V30 7508 H 718.388 -0.787662 -2.83149 0
M  V30 7509 H 715.902 -0.531344 -1.53462 0
M  V30 7510 H 717.899 1.42437 -3.91813 0
M  V30 7511 H 716.559 1.69074 -2.77208 0
M  V30 7512 H 717.57 -1.2377 -5.02893 0
M  V30 7513 H 714.247 1.13644 -4.01735 0
M  V30 7514 H 715.637 -2.15384 -6.36443 0
M  V30 7515 N 718.357 1.51182 -0.445186 0
M  V30 7516 C 719.287 2.30821 0.352686 0
M  V30 7517 C 720.268 1.36576 1.01395 0
M  V30 7518 O 721.453 1.65497 1.01609 0
M  V30 7519 C 718.583 3.15593 1.44976 0
M  V30 7520 C 717.537 4.1818 0.911553 0
M  V30 7521 C 716.863 4.91523 2.10497 0
M  V30 7522 C 718.163 5.22266 -0.059418 0
M  V30 7523 H 719.857 2.97771 -0.311936 0
M  V30 7524 H 717.403 1.43201 -0.151461 0
M  V30 7525 H 719.356 3.70091 2.01521 0
M  V30 7526 H 718.08 2.4648 2.14278 0
M  V30 7527 H 716.739 3.64746 0.368264 0
M  V30 7528 H 716.387 4.18906 2.78437 0
M  V30 7529 H 716.087 5.60898 1.7512 0
M  V30 7530 H 717.611 5.48847 2.6758 0
M  V30 7531 H 719.025 5.71789 0.415985 0
M  V30 7532 H 717.422 5.99213 -0.326152 0
M  V30 7533 H 718.492 4.7461 -0.993631 0
M  V30 7534 N 719.835 0.176821 1.56605 0
M  V30 7535 C 720.782 -0.751312 2.18229 0
M  V30 7536 C 721.752 -1.22297 1.12395 0
M  V30 7537 O 722.937 -1.29015 1.40569 0
M  V30 7538 C 720.077 -1.97291 2.83143 0
M  V30 7539 C 719.19 -1.54431 4.03454 0
M  V30 7540 C 718.325 -2.72 4.56278 0
M  V30 7541 C 717.364 -2.25657 5.68986 0
M  V30 7542 N 716.501 -3.36338 6.16296 0
M  V30 7543 H 721.341 -0.219033 2.97194 0
M  V30 7544 H 718.878 -0.0963803 1.46784 0
M  V30 7545 H 720.836 -2.68949 3.1894 0
M  V30 7546 H 719.466 -2.4788 2.06773 0
M  V30 7547 H 718.518 -0.724273 3.73441 0
M  V30 7548 H 719.83 -1.16417 4.85024 0
M  V30 7549 H 718.984 -3.51806 4.94285 0
M  V30 7550 H 717.723 -3.13277 3.73777 0
M  V30 7551 H 716.728 -1.44299 5.30526 0
M  V30 7552 H 717.953 -1.85432 6.53293 0
M  V30 7553 H 715.899 -3.7718 5.36723 0
M  V30 7554 H 715.816 -3.02435 6.9287 0
M  V30 7555 H 717.084 -4.16413 6.58954 0
M  V30 7556 N 721.313 -1.57302 -0.09688 0
M  V30 7557 C 722.263 -1.98369 -1.12399 0
M  V30 7558 C 723.247 -0.861872 -1.3587 0
M  V30 7559 O 724.439 -1.1257 -1.36591 0
M  V30 7560 C 721.568 -2.41017 -2.4447 0
M  V30 7561 C 720.654 -3.59881 -2.24381 0
M  V30 7562 N 721.045 -4.74872 -1.74155 0
M  V30 7563 C 719.343 -3.65943 -2.54954 0
M  V30 7564 C 720.044 -5.56823 -1.68294 0
M  V30 7565 N 719.02 -4.99942 -2.13444 0
M  V30 7566 H 722.822 -2.84726 -0.728575 0
M  V30 7567 H 720.336 -1.59523 -0.304332 0
M  V30 7568 H 722.333 -2.68665 -3.18786 0
M  V30 7569 H 720.993 -1.56036 -2.84751 0
M  V30 7570 H 722.004 -4.97657 -1.43379 0
M  V30 7571 H 718.681 -2.9162 -2.98771 0
M  V30 7572 H 720.071 -6.59099 -1.30528 0
M  V30 7573 N 722.791 0.367657 -1.53252 0
M  V30 7574 C 724.207 0.709191 -1.42978 0
M  V30 7575 C 724.407 1.93352 -0.567193 0
M  V30 7576 O 723.463 2.52453 -0.0488349 0
M  V30 7577 C 724.776 0.924338 -2.86141 0
M  V30 7578 C 726.324 1.02448 -2.95759 0
M  V30 7579 C 726.799 1.27211 -4.39979 0
M  V30 7580 N 728.29 1.33986 -4.43398 0
M  V30 7581 C 729.025 1.54852 -5.52095 0
M  V30 7582 N 728.521 1.73049 -6.7084 0
M  V30 7583 N 730.314 1.57205 -5.39669 0
M  V30 7584 H 722.465 -0.437669 -2.07842 0
M  V30 7585 H 724.728 -0.133737 -0.938519 0
M  V30 7586 H 724.434 0.0965455 -3.51567 0
M  V30 7587 H 724.308 1.83302 -3.29667 0
M  V30 7588 H 726.695 1.84282 -2.30487 0
M  V30 7589 H 726.776 0.0932301 -2.5563 0
M  V30 7590 H 726.42 0.458792 -5.05824 0
M  V30 7591 H 726.35 2.21654 -4.77679 0
M  V30 7592 H 728.841 1.21545 -3.5782 0
M  V30 7593 H 729.154 1.88538 -7.49449 0
M  V30 7594 H 727.499 1.70231 -6.7383 0
M  V30 7595 H 730.69 1.42555 -4.45865 0
M  V30 7596 H 730.863 1.73126 -6.24445 0
M  V30 7597 N 724.269 1.44576 0.627338 0
M  V30 7598 C 725.199 1.54562 1.75022 0
M  V30 7599 C 726.18 0.398378 1.65369 0
M  V30 7600 O 727.365 0.61899 1.84071 0
M  V30 7601 C 724.495 1.49309 3.13567 0
M  V30 7602 C 723.449 2.62549 3.38012 0
M  V30 7603 C 722.775 2.42348 4.76625 0
M  V30 7604 C 724.075 4.04678 3.30202 0
M  V30 7605 H 725.769 2.4855 1.66922 0
M  V30 7606 H 723.315 1.19624 0.801636 0
M  V30 7607 H 725.268 1.54895 3.919 0
M  V30 7608 H 723.992 0.518392 3.2246 0
M  V30 7609 H 722.651 2.56358 2.62061 0
M  V30 7610 H 722.299 1.43062 4.82226 0
M  V30 7611 H 721.999 3.18273 4.93939 0
M  V30 7612 H 723.523 2.49758 5.57183 0
M  V30 7613 H 724.937 4.12217 3.98435 0
M  V30 7614 H 723.334 4.80836 3.5905 0
M  V30 7615 H 724.404 4.2798 2.27949 0
M  V30 7616 N 725.747 -0.868086 1.31537 0
M  V30 7617 C 726.975 -1.65402 1.24298 0
M  V30 7618 C 727.39 -1.87827 -0.191389 0
M  V30 7619 O 726.747 -1.43776 -1.12404 0
M  V30 7620 C 726.798 -3.02093 1.9855 0
M  V30 7621 O 726.519 -2.80668 3.36388 0
M  V30 7622 C 728.02 -3.96538 1.98173 0
M  V30 7623 H 725.24 -0.515598 0.429417 0
M  V30 7624 H 727.784 -1.0834 1.73444 0
M  V30 7625 H 725.939 -3.55838 1.53161 0
M  V30 7626 H 726.353 -3.67504 3.74221 0
M  V30 7627 H 727.827 -4.8976 2.54635 0
M  V30 7628 H 728.304 -4.28474 0.964697 0
M  V30 7629 H 728.91 -3.48729 2.4345 0
M  V30 7630 N 727.225 -1.14528 -1.08264 0
M  V30 7631 C 728.641 -0.885976 -1.3275 0
M  V30 7632 C 728.841 0.472096 -1.95892 0
M  V30 7633 O 727.897 1.21606 -2.21288 0
M  V30 7634 C 729.21 -2.01982 -2.22764 0
M  V30 7635 C 730.758 -2.05329 -2.36239 0
M  V30 7636 C 731.233 -3.1801 -3.29596 0
M  V30 7637 N 732.724 -3.17598 -3.37173 0
M  V30 7638 C 733.459 -4.01426 -4.09444 0
M  V30 7639 N 732.955 -4.95297 -4.8441 0
M  V30 7640 N 734.748 -3.89482 -4.0529 0
M  V30 7641 H 726.899 -2.01996 -0.656607 0
M  V30 7642 H 729.162 -0.880274 -0.351884 0
M  V30 7643 H 728.868 -2.99964 -1.83615 0
M  V30 7644 H 728.742 -1.94421 -3.23234 0
M  V30 7645 H 731.129 -1.07953 -2.74646 0
M  V30 7646 H 731.21 -2.1696 -1.35506 0
M  V30 7647 H 730.854 -4.15633 -2.9191 0
M  V30 7648 H 730.784 -3.03616 -4.30261 0
M  V30 7649 H 733.275 -2.4961 -2.83731 0
M  V30 7650 H 733.588 -5.55723 -5.37021 0
M  V30 7651 H 731.933 -4.99293 -4.83457 0
M  V30 7652 H 735.124 -3.15465 -3.45832 0
M  V30 7653 H 735.297 -4.55039 -4.6135 0
M  V30 7654 N 728.703 1.26451 -0.940633 0
M  V30 7655 C 729.65 2.264 -0.448497 0
M  V30 7656 C 730.62 1.5866 0.491546 0
M  V30 7657 O 731.805 1.86389 0.407874 0
M  V30 7658 C 728.945 3.43956 0.280715 0
M  V30 7659 C 728.058 4.26374 -0.694937 0
M  V30 7660 C 727.193 5.31171 0.0554186 0
M  V30 7661 C 726.232 6.05266 -0.912091 0
M  V30 7662 N 725.369 7.01833 -0.193524 0
M  V30 7663 H 730.209 2.67869 -1.30576 0
M  V30 7664 H 727.746 1.31707 -0.655112 0
M  V30 7665 H 729.704 4.10941 0.71994 0
M  V30 7666 H 728.334 3.03403 1.10212 0
M  V30 7667 H 727.386 3.59183 -1.25267 0
M  V30 7668 H 728.698 4.77748 -1.43382 0
M  V30 7669 H 727.852 6.04166 0.553951 0
M  V30 7670 H 726.591 4.80634 0.827183 0
M  V30 7671 H 725.596 5.31099 -1.42175 0
M  V30 7672 H 726.821 6.57893 -1.68385 0
M  V30 7673 H 724.767 6.53607 0.559758 0
M  V30 7674 H 724.684 7.50957 -0.871744 0
M  V30 7675 H 725.952 7.78983 0.283932 0
M  V30 7676 N 730.181 0.707592 1.40822 0
M  V30 7677 C 731.113 0.0105968 2.29198 0
M  V30 7678 C 732.126 -0.732035 1.45414 0
M  V30 7679 O 733.315 -0.580741 1.68789 0
M  V30 7680 C 730.415 -1.00921 3.23525 0
M  V30 7681 C 729.588 -0.333747 4.36125 0
M  V30 7682 C 728.647 -1.25783 5.10945 0
M  V30 7683 O 727.673 -0.745646 5.64295 0
M  V30 7684 N 728.875 -2.58947 5.19545 0
M  V30 7685 H 731.64 0.76938 2.89656 0
M  V30 7686 H 729.201 0.554579 1.52105 0
M  V30 7687 H 731.193 -1.6294 3.70449 0
M  V30 7688 H 729.763 -1.66942 2.6429 0
M  V30 7689 H 728.983 0.466518 3.9143 0
M  V30 7690 H 730.271 0.135444 5.0862 0
M  V30 7691 H 729.669 -3.03065 4.7767 0
M  V30 7692 H 728.226 -3.16131 5.70004 0
M  V30 7693 N 731.66 -1.50943 0.453197 0
M  V30 7694 C 732.61 -2.25003 -0.368467 0
M  V30 7695 C 733.594 -1.27864 -0.976714 0
M  V30 7696 O 734.786 -1.52867 -0.892228 0
M  V30 7697 C 731.915 -3.10701 -1.46014 0
M  V30 7698 C 731.001 -4.15278 -0.860506 0
M  V30 7699 N 731.392 -5.05799 0.00849611 0
M  V30 7700 C 729.69 -4.31542 -1.1264 0
M  V30 7701 C 730.391 -5.80664 0.346951 0
M  V30 7702 N 729.367 -5.42912 -0.273426 0
M  V30 7703 H 733.169 -2.92352 0.301246 0
M  V30 7704 H 730.683 -1.60203 0.266233 0
M  V30 7705 H 732.68 -3.62348 -2.06179 0
M  V30 7706 H 731.34 -2.44898 -2.13202 0
M  V30 7707 H 732.351 -5.16533 0.376077 0
M  V30 7708 H 729.028 -3.76962 -1.7946 0
M  V30 7709 H 730.418 -6.63565 1.05507 0
M  V30 7710 N 733.138 -0.185124 -1.56509 0
M  V30 7711 C 734.363 0.465278 -2.02114 0
M  V30 7712 C 734.788 1.55083 -1.06447 0
M  V30 7713 O 734.146 1.81241 -0.0462852 0
M  V30 7714 C 734.194 1.00784 -3.46229 0
M  V30 7715 O 733.298 2.12123 -3.53663 0
M  V30 7716 H 732.639 0.109891 -0.654843 0
M  V30 7717 H 735.169 -0.293072 -2.0249 0
M  V30 7718 H 735.179 1.32697 -3.85818 0
M  V30 7719 H 733.854 0.213113 -4.15354 0
M  V30 7720 H 732.431 1.8115 -3.25943 0
M  V30 7721 N 734.616 1.57351 0.0885366 0
M  V30 7722 C 735.526 2.05858 1.12516 0
M  V30 7723 C 736.542 0.984758 1.43452 0
M  V30 7724 O 737.718 1.29836 1.53963 0
M  V30 7725 C 734.783 2.47882 2.42395 0
M  V30 7726 C 733.844 3.69487 2.18582 0
M  V30 7727 C 733.077 4.09497 3.42268 0
M  V30 7728 O 733.3 3.49536 4.50755 0
M  V30 7729 O 732.234 5.02406 3.31469 0
M  V30 7730 H 736.06 2.94467 0.743146 0
M  V30 7731 H 733.645 1.46326 0.301507 0
M  V30 7732 H 735.527 2.75509 3.18862 0
M  V30 7733 H 734.202 1.62408 2.8001 0
M  V30 7734 H 733.109 3.46967 1.39875 0
M  V30 7735 H 734.442 4.55761 1.85857 0
M  V30 7736 N 736.094 -0.359525 1.53444 0
M  V30 7737 C 737.057 -1.42357 1.7963 0
M  V30 7738 C 738.057 -1.46319 0.666884 0
M  V30 7739 O 739.247 -1.46974 0.935113 0
M  V30 7740 C 736.379 -2.81425 1.92387 0
M  V30 7741 H 737.572 -1.20409 2.74666 0
M  V30 7742 H 735.125 -0.593007 1.44614 0
M  V30 7743 H 735.86 -3.08679 0.994384 0
M  V30 7744 H 735.645 -2.79947 2.74539 0
M  V30 7745 H 737.135 -3.5847 2.14218 0
M  V30 7746 N 737.572 -1.44907 -0.619662 0
M  V30 7747 C 738.8 -1.51795 -1.40591 0
M  V30 7748 C 739.215 -0.146553 -1.8823 0
M  V30 7749 O 738.572 0.849698 -1.61513 0
M  V30 7750 C 738.623 -2.49229 -2.61853 0
M  V30 7751 O 738.344 -3.81039 -2.16197 0
M  V30 7752 C 739.845 -2.65696 -3.54853 0
M  V30 7753 H 737.065 -0.514463 -0.430777 0
M  V30 7754 H 739.609 -1.8998 -0.756813 0
M  V30 7755 H 737.764 -2.14149 -3.2283 0
M  V30 7756 H 738.178 -4.33747 -2.94896 0
M  V30 7757 H 739.652 -3.37874 -4.36515 0
M  V30 7758 H 740.129 -1.71316 -4.0441 0
M  V30 7759 H 740.735 -3.01724 -2.99737 0
M  V30 7760 N 739.05 0.861098 -1.31996 0
M  V30 7761 C 739.998 1.99052 -1.20337 0
M  V30 7762 C 740.992 1.69045 -0.109623 0
M  V30 7763 O 742.198 1.77931 -0.272117 0
M  V30 7764 H 738.573 0.653064 -0.372843 0
M  V30 7765 H 740.544 2.06015 -2.15872 0
M  V30 7766 C 739.293 3.34846 -0.936663 0
M  V30 7767 H 738.616 3.58462 -1.77045 0
M  V30 7768 H 740.056 4.1444 -0.895302 0
M  V30 7769 C 738.515 3.34965 0.360607 0
M  V30 7770 O 739.045 3.7745 1.37456 0
M  V30 7771 N 737.251 2.88101 0.380296 0
M  V30 7772 H 736.798 2.53721 -0.445351 0
M  V30 7773 H 736.756 2.88563 1.24816 0
M  V30 7774 N 740.528 1.15101 1.07655 0
M  V30 7775 C 741.753 0.948177 1.84457 0
M  V30 7776 C 742.178 -0.498432 1.81376 0
M  V30 7777 O 741.536 -1.35509 1.20445 0
M  V30 7778 C 741.584 1.46318 3.29581 0
M  V30 7779 O 740.688 0.660342 4.07079 0
M  V30 7780 H 740.029 0.338428 0.571281 0
M  V30 7781 H 742.559 1.5301 1.35828 0
M  V30 7782 H 742.569 1.47468 3.80417 0
M  V30 7783 H 741.244 2.51635 3.31138 0
M  V30 7784 H 739.821 0.718216 3.65918 0
M  V30 7785 N 742.006 -1.2595 0.947325 0
M  V30 7786 C 743.231 -1.98083 0.614633 0
M  V30 7787 C 743.656 -1.70013 -0.804815 0
M  V30 7788 O 743.014 -0.95175 -1.54309 0
M  V30 7789 C 743.062 -3.4993 0.870706 0
M  V30 7790 O 742.166 -4.12364 -0.0541451 0
M  V30 7791 H 741.507 -0.621232 0.234451 0
M  V30 7792 H 744.037 -1.60259 1.27193 0
M  V30 7793 H 744.047 -4.00198 0.794051 0
M  V30 7794 H 742.722 -3.69691 1.90529 0
M  V30 7795 H 741.299 -3.72826 0.0740917 0
M  V30 7796 N 743.484 -0.715051 -1.40445 0
M  V30 7797 C 744.432 -0.0509974 -2.32544 0
M  V30 7798 C 745.426 0.747602 -1.52011 0
M  V30 7799 O 746.632 0.651031 -1.67814 0
M  V30 7800 H 743.007 0.00231113 -0.751996 0
M  V30 7801 H 744.978 -0.84449 -2.86201 0
M  V30 7802 C 743.727 0.857101 -3.3697 0
M  V30 7803 H 743.05 0.252 -3.99005 0
M  V30 7804 H 744.49 1.28971 -4.03909 0
M  V30 7805 C 742.949 1.98231 -2.72408 0
M  V30 7806 O 743.479 3.07309 -2.58697 0
M  V30 7807 N 741.685 1.76577 -2.308 0
M  V30 7808 H 741.232 0.878641 -2.42152 0
M  V30 7809 H 741.19 2.52043 -1.87941 0
M  V30 7810 N 744.962 1.50701 -0.461195 0
M  V30 7811 C 746.378 1.59187 -0.114786 0
M  V30 7812 C 746.578 1.4702 1.37794 0
M  V30 7813 O 745.634 1.32361 2.15027 0
M  V30 7814 C 746.947 2.93453 -0.656167 0
M  V30 7815 C 748.495 3.06824 -0.618715 0
M  V30 7816 C 748.97 4.4365 -1.13747 0
M  V30 7817 N 750.461 4.50035 -1.09646 0
M  V30 7818 C 751.196 5.54278 -1.46846 0
M  V30 7819 N 750.692 6.65822 -1.91448 0
M  V30 7820 N 752.485 5.44767 -1.38512 0
M  V30 7821 H 744.636 1.56853 -1.43216 0
M  V30 7822 H 746.899 0.740712 -0.59165 0
M  V30 7823 H 746.605 3.07802 -1.7015 0
M  V30 7824 H 746.479 3.77082 -0.0942261 0
M  V30 7825 H 748.866 2.92129 0.417685 0
M  V30 7826 H 748.947 2.24976 -1.21734 0
M  V30 7827 H 748.591 4.59093 -2.17245 0
M  V30 7828 H 748.521 5.24074 -0.515153 0
M  V30 7829 H 751.012 3.69988 -0.769217 0
M  V30 7830 H 751.325 7.41413 -2.18007 0
M  V30 7831 H 749.67 6.66968 -1.95393 0
M  V30 7832 H 752.861 4.56511 -1.03516 0
M  V30 7833 H 753.034 6.25889 -1.6783 0
M  V30 7834 N 746.441 0.193421 1.56409 0
M  V30 7835 C 747.687 -0.446449 1.97825 0
M  V30 7836 C 748.02 -1.61386 1.08019 0
M  V30 7837 O 747.295 -1.94053 0.131839 0
M  V30 7838 C 747.578 -0.908199 3.48459 0
M  V30 7839 C 747.431 0.260914 4.49043 0
M  V30 7840 C 748.75 -1.77428 4.0275 0
M  V30 7841 H 745.869 -0.160807 0.719243 0
M  V30 7842 H 748.511 0.284006 1.87865 0
M  V30 7843 H 746.661 -1.53062 3.57077 0
M  V30 7844 H 748.333 0.898548 4.52464 0
M  V30 7845 H 746.576 0.912949 4.24085 0
M  V30 7846 H 747.247 -0.104657 5.51901 0
M  V30 7847 H 749.723 -1.24936 3.96901 0
M  V30 7848 H 748.599 -2.06633 5.08521 0
M  V30 7849 H 748.86 -2.72788 3.47907 0
M  V30 7850 N 747.919 -1.57396 -0.0801906 0
M  V30 7851 C 749.166 -1.86836 -0.780927 0
M  V30 7852 C 749.494 -0.784012 -1.77999 0
M  V30 7853 O 748.749 0.220881 -1.94449 0
M  V30 7854 C 749.048 -3.22915 -1.53169 0
M  V30 7855 C 748.714 -4.45843 -0.67339 0
M  V30 7856 C 747.376 -4.79213 -0.436829 0
M  V30 7857 C 749.728 -5.21142 -0.0776786 0
M  V30 7858 C 747.056 -5.853 0.405062 0
M  V30 7859 C 749.408 -6.28119 0.751619 0
M  V30 7860 C 748.072 -6.59995 0.998131 0
M  V30 7861 H 747.342 -0.683682 -0.285761 0
M  V30 7862 H 749.989 -1.91454 -0.0419435 0
M  V30 7863 H 748.294 -3.14049 -2.34265 0
M  V30 7864 H 749.991 -3.42926 -2.07853 0
M  V30 7865 H 746.581 -4.19721 -0.867891 0
M  V30 7866 H 750.765 -4.95682 -0.247572 0
M  V30 7867 H 746.021 -6.084 0.60488 0
M  V30 7868 H 750.195 -6.8563 1.22 0
M  V30 7869 H 747.822 -7.42027 1.65227 0
M  V30 7870 N 749.397 0.351382 -1.53633 0
M  V30 7871 C 750.643 1.09411 -1.70754 0
M  V30 7872 C 750.976 1.88544 -0.465293 0
M  V30 7873 O 750.251 1.86923 0.537608 0
M  V30 7874 C 750.534 2.04173 -2.96623 0
M  V30 7875 C 750.387 1.28556 -4.31038 0
M  V30 7876 C 751.706 3.04102 -3.18136 0
M  V30 7877 H 748.825 0.396373 -0.621335 0
M  V30 7878 H 751.467 0.373464 -1.86293 0
M  V30 7879 H 749.617 2.65625 -2.83506 0
M  V30 7880 H 751.289 0.697786 -4.55992 0
M  V30 7881 H 749.532 0.587498 -4.29803 0
M  V30 7882 H 750.203 1.97989 -5.15271 0
M  V30 7883 H 752.679 2.5276 -3.30532 0
M  V30 7884 H 751.555 3.67616 -4.07615 0
M  V30 7885 H 751.816 3.75053 -2.34068 0
M  V30 7886 N 750.875 1.45233 0.611969 0
M  V30 7887 C 752.105 1.52318 1.39581 0
M  V30 7888 C 752.513 0.153093 1.8858 0
M  V30 7889 O 751.856 -0.854792 1.62601 0
M  V30 7890 C 751.918 2.4426 2.63775 0
M  V30 7891 C 751.582 3.91079 2.36445 0
M  V30 7892 C 752.579 4.81099 1.97079 0
M  V30 7893 C 750.264 4.35958 2.49492 0
M  V30 7894 C 752.258 6.14002 1.71115 0
M  V30 7895 C 749.945 5.68903 2.23142 0
M  V30 7896 C 750.943 6.57744 1.84015 0
M  V30 7897 O 750.631 7.88226 1.5797 0
M  V30 7898 H 750.363 0.518428 0.43383 0
M  V30 7899 H 752.917 1.91067 0.753837 0
M  V30 7900 H 751.147 2.00474 3.30677 0
M  V30 7901 H 752.836 2.42077 3.25812 0
M  V30 7902 H 753.602 4.47692 1.86539 0
M  V30 7903 H 749.481 3.67053 2.78914 0
M  V30 7904 H 753.025 6.83305 1.405 0
M  V30 7905 H 748.922 6.01866 2.33297 0
M  V30 7906 H 749.69 8.00211 1.72058 0
M  V30 7907 N 752.353 -0.854086 1.3245 0
M  V30 7908 C 753.593 -1.62216 1.2436 0
M  V30 7909 C 753.957 -1.91042 -0.191564 0
M  V30 7910 O 755.158 -2.65864 -0.396211 0
M  V30 7911 C 753.429 -2.9066 2.0797 0
M  V30 7912 S 754.988 -3.81438 2.16911 0
M  V30 7913 H 751.806 -0.556386 0.442669 0
M  V30 7914 H 754.408 -1.01139 1.67305 0
M  V30 7915 H 753.112 -2.6743 3.11302 0
M  V30 7916 H 752.643 -3.56753 1.65805 0
M  V30 7917 H 754.658 -4.78347 1.31903 0
M  V30 7918 N 753.831 -1.1567 -1.07043 0
M  V30 7919 C 754.794 -0.858906 -2.12498 0
M  V30 7920 C 755.794 0.142735 -1.60165 0
M  V30 7921 O 756.984 -0.0872678 -1.73981 0
M  V30 7922 C 754.116 -0.283021 -3.39723 0
M  V30 7923 H 755.309 -1.79368 -2.40348 0
M  V30 7924 H 752.862 -0.964608 -1.22984 0
M  V30 7925 H 753.597 0.659796 -3.17517 0
M  V30 7926 H 753.382 -1.00467 -3.7901 0
M  V30 7927 H 754.872 -0.0923543 -4.17498 0
M  V30 7928 N 755.309 1.25446 -0.953992 0
M  V30 7929 C 756.556 1.93143 -0.608429 0
M  V30 7930 C 756.884 1.74727 0.854451 0
M  V30 7931 O 756.139 1.0855 1.62836 0
M  V30 7932 C 756.438 3.45555 -0.912496 0
M  V30 7933 C 756.104 3.84126 -2.36131 0
M  V30 7934 C 754.766 3.94367 -2.75732 0
M  V30 7935 C 757.118 4.0324 -3.30223 0
M  V30 7936 C 754.446 4.21127 -4.08496 0
M  V30 7937 C 756.798 4.31493 -4.62598 0
M  V30 7938 C 755.462 4.3995 -5.01996 0
M  V30 7939 H 754.732 0.706762 -0.22264 0
M  V30 7940 H 757.379 1.49005 -1.20291 0
M  V30 7941 H 755.684 3.91091 -0.235618 0
M  V30 7942 H 757.381 3.9612 -0.623714 0
M  V30 7943 H 753.971 3.76711 -2.04418 0
M  V30 7944 H 758.155 3.94744 -3.00817 0
M  V30 7945 H 753.411 4.2589 -4.38665 0
M  V30 7946 H 757.585 4.45227 -5.35486 0
M  V30 7947 H 755.212 4.60439 -6.04896 0
M  V30 7948 N 756.787 0.722489 1.40064 0
M  V30 7949 C 757.717 0.0892452 2.33329 0
M  V30 7950 C 758.698 -0.737992 1.53257 0
M  V30 7951 O 759.883 -0.685516 1.81698 0
M  V30 7952 C 757.013 -0.828139 3.37282 0
M  V30 7953 C 755.967 -0.106005 4.27869 0
M  V30 7954 C 755.293 -1.13957 5.22415 0
M  V30 7955 C 756.593 1.04395 5.11761 0
M  V30 7956 H 758.287 0.868269 2.86534 0
M  V30 7957 H 755.833 0.418982 1.3777 0
M  V30 7958 H 757.786 -1.28058 4.01471 0
M  V30 7959 H 756.51 -1.63914 2.82489 0
M  V30 7960 H 755.169 0.326683 3.65142 0
M  V30 7961 H 754.817 -1.9438 4.63924 0
M  V30 7962 H 754.517 -0.661233 5.83868 0
M  V30 7963 H 756.041 -1.59197 5.89482 0
M  V30 7964 H 757.455 0.670541 5.69365 0
M  V30 7965 H 755.852 1.4511 5.82291 0
M  V30 7966 H 756.922 1.87144 4.47331 0
M  V30 7967 N 758.265 -1.50454 0.469181 0
M  V30 7968 C 759.542 -1.9504 -0.147955 0
M  V30 7969 C 759.922 -1.40946 -1.57154 0
M  V30 7970 O 759.27 -0.609663 -2.20217 0
M  V30 7971 C 759.48 -3.48875 -0.0932198 0
M  V30 7972 C 760.828 -4.23655 -0.283056 0
M  V30 7973 O 761.852 -3.55795 -0.169892 0
M  V30 7974 O 760.711 -5.44102 -0.511396 0
M  V30 7975 H 757.805 -0.819283 -0.11271 0
M  V30 7976 H 760.351 -1.6123 0.529446 0
M  V30 7977 H 759.123 -3.80791 0.900784 0
M  V30 7978 H 758.746 -3.89217 -0.812161 0
M  V30 7979 N 759.743 -0.201713 -1.56304 0
M  V30 7980 C 760.99 0.435307 -1.97766 0
M  V30 7981 C 761.318 1.61169 -1.0888 0
M  V30 7982 O 760.573 1.95272 -0.12934 0
M  V30 7983 C 760.872 0.931432 -3.45049 0
M  V30 7984 C 760.538 -0.132287 -4.50706 0
M  V30 7985 C 759.2 -0.424552 -4.79323 0
M  V30 7986 C 761.552 -0.852703 -5.14177 0
M  V30 7987 C 758.88 -1.4421 -5.68701 0
M  V30 7988 C 761.232 -1.85944 -6.04655 0
M  V30 7989 C 759.896 -2.15884 -6.31625 0
M  V30 7990 H 759.166 0.15929 -0.723676 0
M  V30 7991 H 761.813 -0.300069 -1.89134 0
M  V30 7992 H 760.118 1.7452 -3.50785 0
M  V30 7993 H 761.815 1.43383 -3.74489 0
M  V30 7994 H 758.405 0.105671 -4.2847 0
M  V30 7995 H 762.589 -0.640139 -4.92154 0
M  V30 7996 H 757.845 -1.6799 -5.87869 0
M  V30 7997 H 762.019 -2.42286 -6.52894 0
M  V30 7998 H 759.646 -2.94875 -7.0068 0
M  V30 7999 N 761.222 1.57436 0.0718424 0
M  V30 8000 C 762.447 1.91858 0.787745 0
M  V30 8001 C 762.872 0.798119 1.70328 0
M  V30 8002 O 762.23 -0.24905 1.79581 0
M  V30 8003 C 762.278 3.25232 1.55744 0
M  V30 8004 O 761.382 3.14462 2.6681 0
M  V30 8005 H 760.723 0.628258 0.214914 0
M  V30 8006 H 763.253 2.04561 0.0401012 0
M  V30 8007 H 763.263 3.59105 1.9367 0
M  V30 8008 H 761.938 4.0636 0.885691 0
M  V30 8009 H 760.515 2.92148 2.31741 0
M  V30 8010 N 762.7 -0.34323 1.53817 0
M  V30 8011 C 763.925 -1.1079 1.75329 0
M  V30 8012 C 764.35 -1.81571 0.491293 0
M  V30 8013 O 763.708 -1.72561 -0.556089 0
M  V30 8014 C 763.756 -2.09681 2.9337 0
M  V30 8015 O 762.86 -3.17207 2.63541 0
M  V30 8016 H 762.201 -0.320402 0.581583 0
M  V30 8017 H 764.731 -0.393525 2.0078 0
M  V30 8018 H 764.741 -2.52897 3.20168 0
M  V30 8019 H 763.416 -1.5756 3.84899 0
M  V30 8020 H 761.993 -2.78806 2.47632 0
M  V30 8021 N 764.178 -1.45556 -0.604258 0
M  V30 8022 C 765.426 -1.4945 -1.36048 0
M  V30 8023 C 765.747 -0.138933 -1.94504 0
M  V30 8024 O 765.017 0.832097 -1.7735 0
M  V30 8025 H 763.597 -0.550381 -0.505064 0
M  V30 8026 H 766.259 -1.81535 -0.709308 0
M  V30 8027 H 765.355 -2.23519 -2.17821 0
M  V30 8028 N 765.656 0.84705 -1.32902 0
M  V30 8029 C 766.566 1.98845 -1.2449 0
M  V30 8030 C 767.582 1.7329 -0.15702 0
M  V30 8031 O 768.758 1.978 -0.379104 0
M  V30 8032 C 765.823 3.32679 -0.975985 0
M  V30 8033 C 764.884 3.71405 -2.15306 0
M  V30 8034 C 764.117 4.98853 -1.89688 0
M  V30 8035 O 764.34 5.64134 -0.843168 0
M  V30 8036 O 763.274 5.34889 -2.76002 0
M  V30 8037 H 767.1 2.0888 -2.2046 0
M  V30 8038 H 764.685 0.978852 -1.12867 0
M  V30 8039 H 766.567 4.12885 -0.842826 0
M  V30 8040 H 765.242 3.23667 -0.0464954 0
M  V30 8041 H 764.149 2.91743 -2.34172 0
M  V30 8042 H 765.482 3.85073 -3.06561 0
M  V30 8043 N 767.134 1.16236 1.06428 0
M  V30 8044 C 768.382 0.941171 1.78847 0
M  V30 8045 C 768.703 -0.53248 1.87589 0
M  V30 8046 O 767.973 -1.38686 1.38358 0
M  V30 8047 H 766.553 0.345228 0.66244 0
M  V30 8048 H 769.215 1.46479 1.28569 0
M  V30 8049 H 768.311 1.35871 2.80972 0
M  V30 8050 N 768.612 -1.24939 0.960631 0
M  V30 8051 C 769.858 -1.93104 0.61958 0
M  V30 8052 C 770.191 -1.74991 -0.84212 0
M  V30 8053 O 769.466 -1.09867 -1.60498 0
M  V30 8054 C 769.749 -3.46326 0.986422 0
M  V30 8055 C 769.602 -3.73638 2.50429 0
M  V30 8056 C 770.921 -4.37067 0.515827 0
M  V30 8057 H 768.04 -0.701311 0.226566 0
M  V30 8058 H 770.682 -1.47442 1.19836 0
M  V30 8059 H 768.832 -3.85348 0.493907 0
M  V30 8060 H 770.504 -3.44217 3.07103 0
M  V30 8061 H 768.747 -3.19035 2.93937 0
M  V30 8062 H 769.418 -4.80815 2.71147 0
M  V30 8063 H 771.894 -4.05381 0.938389 0
M  V30 8064 H 770.77 -5.43022 0.80114 0
M  V30 8065 H 771.031 -4.38224 -0.584171 0
M  V30 8066 N 770.09 -0.729906 -1.39679 0
M  V30 8067 C 771.336 -0.284905 -2.01395 0
M  V30 8068 C 771.691 1.11394 -1.56873 0
M  V30 8069 O 770.984 1.74765 -0.785342 0
M  V30 8070 C 771.178 -0.319564 -3.55968 0
M  V30 8071 C 771.007 -1.72024 -4.15497 0
M  V30 8072 C 769.777 -2.33128 -4.48307 0
M  V30 8073 C 771.975 -2.67296 -4.39383 0
M  V30 8074 N 769.957 -3.65403 -4.93309 0
M  V30 8075 C 771.328 -3.84298 -4.86534 0
M  V30 8076 C 773.383 -2.65124 -4.21442 0
M  V30 8077 C 772.086 -4.99455 -5.17627 0
M  V30 8078 C 774.112 -3.7942 -4.53646 0
M  V30 8079 C 773.474 -4.95156 -5.00999 0
M  V30 8080 H 769.573 -0.1504 -0.767401 0
M  V30 8081 H 772.157 -0.954783 -1.69682 0
M  V30 8082 H 770.328 0.319938 -3.8708 0
M  V30 8083 H 772.06 0.143504 -4.04445 0
M  V30 8084 H 768.815 -1.85097 -4.35931 0
M  V30 8085 H 769.239 -4.33298 -5.20175 0
M  V30 8086 H 773.881 -1.76842 -3.8404 0
M  V30 8087 H 771.599 -5.88371 -5.53937 0
M  V30 8088 H 775.185 -3.79031 -4.41392 0
M  V30 8089 H 774.065 -5.82131 -5.25446 0
M  V30 8090 N 771.568 1.50203 -0.477153 0
M  V30 8091 C 772.793 2.07263 0.0754986 0
M  V30 8092 C 773.218 1.33801 1.32208 0
M  V30 8093 O 772.576 0.387482 1.77111 0
M  V30 8094 C 772.624 3.59028 0.336348 0
M  V30 8095 O 771.728 3.87339 1.4157 0
M  V30 8096 H 771.069 0.663815 -0.015662 0
M  V30 8097 H 773.599 1.93321 -0.669936 0
M  V30 8098 H 773.609 4.03927 0.575034 0
M  V30 8099 H 772.284 4.11912 -0.574551 0
M  V30 8100 H 770.861 3.54272 1.16385 0
M  V30 8101 N 773.046 0.209999 1.56195 0
M  V30 8102 C 773.994 -0.721416 2.2113 0
M  V30 8103 C 774.988 -1.20852 1.18706 0
M  V30 8104 O 776.194 -1.16968 1.36815 0
M  V30 8105 H 772.569 -0.251033 0.708863 0
M  V30 8106 H 774.54 -0.150193 2.98022 0
M  V30 8107 C 773.289 -1.92392 2.89621 0
M  V30 8108 H 772.612 -1.5582 3.68185 0
M  V30 8109 H 774.052 -2.55367 3.38473 0
M  V30 8110 C 772.511 -2.77208 1.91461 0
M  V30 8111 O 773.041 -3.75603 1.42426 0
M  V30 8112 N 771.247 -2.43006 1.59363 0
M  V30 8113 H 770.794 -1.63047 1.99433 0
M  V30 8114 H 770.752 -3.00036 0.939449 0
M  V30 8115 N 774.524 -1.57472 -0.0634922 0
M  V30 8116 C 775.474 -2.00709 -1.08166 0
M  V30 8117 C 776.458 -0.890498 -1.34011 0
M  V30 8118 O 777.65 -1.15441 -1.34173 0
M  V30 8119 C 774.779 -2.46148 -2.39303 0
M  V30 8120 C 773.865 -3.64559 -2.16697 0
M  V30 8121 N 774.256 -4.78459 -1.64043 0
M  V30 8122 C 772.554 -3.71269 -2.47135 0
M  V30 8123 C 773.255 -5.60268 -1.56445 0
M  V30 8124 N 772.231 -5.04357 -2.02792 0
M  V30 8125 H 776.033 -2.86208 -0.668016 0
M  V30 8126 H 773.547 -1.60133 -0.270426 0
M  V30 8127 H 775.544 -2.75367 -3.13016 0
M  V30 8128 H 774.204 -1.62041 -2.81377 0
M  V30 8129 H 775.215 -5.00587 -1.32791 0
M  V30 8130 H 771.892 -2.97891 -2.92518 0
M  V30 8131 H 773.282 -6.6172 -1.16519 0
M  V30 8132 N 776.003 0.335068 -1.53997 0
M  V30 8133 C 777.251 1.07223 -1.71312 0
M  V30 8134 C 777.572 1.88911 -0.483486 0
M  V30 8135 O 776.842 1.89344 0.50257 0
M  V30 8136 H 775.422 0.398846 -0.63161 0
M  V30 8137 H 778.084 0.374288 -1.91272 0
M  V30 8138 H 777.18 1.7448 -2.58772 0
M  V30 8139 N 777.481 1.45874 0.596531 0
M  V30 8140 C 778.721 1.52015 1.36641 0
M  V30 8141 C 779.085 0.16226 1.91313 0
M  V30 8142 O 780.286 0.0983889 2.6862 0
M  V30 8143 C 778.557 2.57776 2.4756 0
M  V30 8144 S 780.116 2.83223 3.35157 0
M  V30 8145 H 776.934 0.537251 0.465706 0
M  V30 8146 H 779.536 1.83024 0.687205 0
M  V30 8147 H 778.24 3.55091 2.05764 0
M  V30 8148 H 777.771 2.28455 3.20269 0
M  V30 8149 H 779.786 2.17442 4.4602 0
M  V30 8150 N 778.959 -0.83999 1.33349 0
M  V30 8151 C 779.922 -1.93128 1.23426 0
M  V30 8152 C 780.922 -1.60065 0.153599 0
M  V30 8153 O 782.112 -1.69425 0.405049 0
M  V30 8154 C 779.244 -3.28761 0.901622 0
M  V30 8155 H 780.437 -2.03352 2.20427 0
M  V30 8156 H 777.99 -1.03194 1.17391 0
M  V30 8157 H 778.725 -3.24233 -0.0659337 0
M  V30 8158 H 778.51 -3.54138 1.68311 0
M  V30 8159 H 780 -4.08714 0.856913 0
M  V30 8160 N 780.437 -1.16799 -1.0581 0
M  V30 8161 C 781.367 -0.902241 -2.15364 0
M  V30 8162 C 782.348 0.153351 -1.69407 0
M  V30 8163 O 783.533 0.00442032 -1.94199 0
M  V30 8164 C 780.663 -0.407911 -3.44896 0
M  V30 8165 C 779.617 -1.40197 -4.04387 0
M  V30 8166 C 778.943 -0.765848 -5.29187 0
M  V30 8167 C 780.243 -2.77316 -4.42598 0
M  V30 8168 H 781.937 -1.81841 -2.37853 0
M  V30 8169 H 779.483 -0.875731 -1.14311 0
M  V30 8170 H 781.436 -0.20945 -4.20879 0
M  V30 8171 H 780.16 0.54378 -3.22041 0
M  V30 8172 H 778.819 -1.58707 -3.30466 0
M  V30 8173 H 778.467 0.192482 -5.02632 0
M  V30 8174 H 778.167 -1.42939 -5.69949 0
M  V30 8175 H 779.691 -0.577519 -6.07863 0
M  V30 8176 H 781.105 -2.62561 -5.09642 0
M  V30 8177 H 779.502 -3.4019 -4.94359 0
M  V30 8178 H 780.572 -3.32199 -3.53231 0
M  V30 8179 N 781.915 1.24427 -0.967243 0
M  V30 8180 C 783.143 1.96541 -0.646477 0
M  V30 8181 C 783.558 1.71753 0.783996 0
M  V30 8182 O 782.915 1.00102 1.52597 0
M  V30 8183 C 782.966 3.4983 -0.911098 0
M  V30 8184 O 782.687 3.7377 -2.28534 0
M  V30 8185 C 784.188 4.3916 -0.604458 0
M  V30 8186 H 781.408 0.626129 -0.241255 0
M  V30 8187 H 783.952 1.58268 -1.29505 0
M  V30 8188 H 782.107 3.86168 -0.308741 0
M  V30 8189 H 782.521 4.68154 -2.365 0
M  V30 8190 H 783.995 5.4557 -0.840069 0
M  V30 8191 H 784.472 4.36771 0.461273 0
M  V30 8192 H 785.078 4.08409 -1.1867 0
M  V30 8193 N 783.393 0.737304 1.3929 0
M  V30 8194 C 784.809 0.413132 1.5416 0
M  V30 8195 C 785.009 -1.07574 1.70382 0
M  V30 8196 O 784.065 -1.86185 1.70562 0
M  V30 8197 C 785.378 1.19817 2.75798 0
M  V30 8198 C 786.926 1.18662 2.89635 0
M  V30 8199 C 787.401 1.95427 4.14213 0
M  V30 8200 N 788.892 1.92605 4.21257 0
M  V30 8201 C 789.627 2.48808 5.16606 0
M  V30 8202 N 789.123 3.13659 6.1773 0
M  V30 8203 N 790.916 2.38829 5.08839 0
M  V30 8204 H 783.067 1.70243 1.27008 0
M  V30 8205 H 785.33 0.720802 0.61575 0
M  V30 8206 H 785.036 2.25179 2.70161 0
M  V30 8207 H 784.91 0.804144 3.68529 0
M  V30 8208 H 787.297 0.141112 2.94762 0
M  V30 8209 H 787.378 1.62003 1.97961 0
M  V30 8210 H 787.022 2.9998 4.09847 0
M  V30 8211 H 786.952 1.4949 5.04936 0
M  V30 8212 H 789.443 1.45362 3.48824 0
M  V30 8213 H 789.756 3.54006 6.8695 0
M  V30 8214 H 788.101 3.17749 6.1811 0
M  V30 8215 H 791.292 1.87806 4.28773 0
M  V30 8216 H 791.465 2.82929 5.82971 0
M  V30 8217 N 784.871 -1.49948 0.485112 0
M  V30 8218 C 786.119 -2.01996 -0.0648775 0
M  V30 8219 C 786.44 -1.36819 -1.38945 0
M  V30 8220 O 785.71 -0.518163 -1.88923 0
M  V30 8221 H 784.29 -0.746513 -0.0269662 0
M  V30 8222 H 786.952 -1.84136 0.638733 0
M  V30 8223 H 786.048 -3.11418 -0.20617 0
M  V30 8224 N 786.349 -0.21828 -1.56081 0
M  V30 8225 C 787.297 0.709679 -2.21509 0
M  V30 8226 C 788.291 1.20221 -1.19346 0
M  V30 8227 O 789.497 1.16241 -1.37433 0
M  V30 8228 H 785.872 0.247271 -0.710184 0
M  V30 8229 H 787.843 0.134386 -2.98097 0
M  V30 8230 C 786.592 1.90853 -2.90638 0
M  V30 8231 H 785.915 1.53865 -3.69006 0
M  V30 8232 H 787.355 2.53568 -3.39822 0
M  V30 8233 C 785.814 2.76189 -1.92929 0
M  V30 8234 O 786.344 3.74842 -1.44416 0
M  V30 8235 N 784.55 2.42157 -1.6065 0
M  V30 8236 H 784.097 1.61987 -2.00294 0
M  V30 8237 H 784.055 2.99534 -0.955347 0
M  V30 8238 N 787.827 1.57504 0.0551401 0
M  V30 8239 C 788.757 2.07864 1.06372 0
M  V30 8240 C 789.738 0.975565 1.39344 0
M  V30 8241 O 790.923 1.24929 1.48682 0
M  V30 8242 C 788.053 2.53643 2.3724 0
M  V30 8243 C 787.007 3.67978 2.18578 0
M  V30 8244 C 786.333 3.9987 3.54976 0
M  V30 8245 C 787.633 4.97405 1.59329 0
M  V30 8246 H 789.327 2.92379 0.644595 0
M  V30 8247 H 786.873 1.40654 0.308619 0
M  V30 8248 H 788.826 2.8749 3.08103 0
M  V30 8249 H 787.55 1.66177 2.81163 0
M  V30 8250 H 786.209 3.3444 1.50152 0
M  V30 8251 H 785.857 3.0951 3.965 0
M  V30 8252 H 785.557 4.76867 3.43324 0
M  V30 8253 H 787.081 4.36228 4.27244 0
M  V30 8254 H 788.495 5.29375 2.20078 0
M  V30 8255 H 786.892 5.78837 1.58327 0
M  V30 8256 H 787.962 4.81697 0.55638 0
M  V30 8257 N 789.305 -0.326896 1.54172 0
M  V30 8258 C 790.533 -1.08486 1.76177 0
M  V30 8259 C 790.948 -1.81815 0.508788 0
M  V30 8260 O 790.305 -1.74924 -0.520362 0
M  V30 8261 C 790.356 -2.08552 2.95276 0
M  V30 8262 O 790.077 -1.38202 4.15731 0
M  V30 8263 C 791.578 -2.96593 3.29466 0
M  V30 8264 H 788.798 -0.322835 0.588233 0
M  V30 8265 H 791.342 -0.374036 2.0105 0
M  V30 8266 H 789.497 -2.75174 2.72687 0
M  V30 8267 H 789.911 -2.05186 4.827 0
M  V30 8268 H 791.385 -3.62708 4.16109 0
M  V30 8269 H 791.862 -3.63511 2.46487 0
M  V30 8270 H 792.468 -2.35537 3.54122 0
M  V30 8271 N 790.784 -1.46188 -0.588786 0
M  V30 8272 C 792.014 -1.54519 -1.3714 0
M  V30 8273 C 792.422 -0.183075 -1.88312 0
M  V30 8274 O 791.765 0.828815 -1.6394 0
M  V30 8275 C 791.827 -2.48426 -2.59856 0
M  V30 8276 C 791.491 -3.94791 -2.30193 0
M  V30 8277 C 792.488 -4.84173 -1.894 0
M  V30 8278 C 790.173 -4.39872 -2.42525 0
M  V30 8279 C 792.167 -6.16647 -1.61325 0
M  V30 8280 C 789.854 -5.72381 -2.14063 0
M  V30 8281 C 790.852 -6.60589 -1.73527 0
M  V30 8282 O 790.54 -7.9064 -1.4541 0
M  V30 8283 H 790.272 -0.525264 -0.425527 0
M  V30 8284 H 792.826 -1.92242 -0.723344 0
M  V30 8285 H 791.056 -2.05709 -3.27446 0
M  V30 8286 H 792.745 -2.4723 -3.21919 0
M  V30 8287 H 793.511 -4.50603 -1.79393 0
M  V30 8288 H 789.39 -3.71444 -2.7304 0
M  V30 8289 H 792.934 -6.85454 -1.29611 0
M  V30 8290 H 788.831 -6.05501 -2.23693 0
M  V30 8291 H 789.599 -8.02847 -1.59306 0
M  V30 8292 N 792.262 0.832906 -1.33792 0
M  V30 8293 C 793.487 1.62568 -1.28788 0
M  V30 8294 C 793.912 1.87599 0.137246 0
M  V30 8295 O 793.27 1.44436 1.0958 0
M  V30 8296 C 793.318 2.9495 -2.07453 0
M  V30 8297 O 792.422 3.86546 -1.43722 0
M  V30 8298 H 791.763 0.494809 -0.442787 0
M  V30 8299 H 794.293 1.03578 -1.76445 0
M  V30 8300 H 794.303 3.44599 -2.1844 0
M  V30 8301 H 792.978 2.76055 -3.11073 0
M  V30 8302 H 791.555 3.45044 -1.41417 0
M  V30 8303 N 793.74 1.17359 1.05189 0
M  V30 8304 C 794.986 0.963413 1.78455 0
M  V30 8305 C 795.319 -0.506703 1.87473 0
M  V30 8306 O 794.594 -1.37611 1.37453 0
M  V30 8307 C 794.877 1.60519 3.22344 0
M  V30 8308 C 794.73 3.14741 3.21338 0
M  V30 8309 C 796.049 1.3091 4.20179 0
M  V30 8310 H 793.168 0.351412 0.647826 0
M  V30 8311 H 795.81 1.44858 1.22948 0
M  V30 8312 H 793.96 1.19265 3.69741 0
M  V30 8313 H 795.632 3.65053 2.82017 0
M  V30 8314 H 793.875 3.4749 2.59679 0
M  V30 8315 H 794.546 3.54775 4.22894 0
M  V30 8316 H 797.022 1.66635 3.81277 0
M  V30 8317 H 795.898 1.784 5.191 0
M  V30 8318 H 796.159 0.229908 4.41502 0
M  V30 8319 N 795.218 -1.23913 0.973828 0
M  V30 8320 C 796.458 -1.93889 0.647015 0
M  V30 8321 C 796.822 -1.74368 -0.803735 0
M  V30 8322 O 798.023 -2.38435 -1.24106 0
M  V30 8323 C 796.294 -3.4257 1.01885 0
M  V30 8324 S 797.853 -4.31306 0.807517 0
M  V30 8325 H 794.671 -0.670279 0.237165 0
M  V30 8326 H 797.273 -1.50144 1.25208 0
M  V30 8327 H 795.977 -3.54286 2.07146 0
M  V30 8328 H 795.508 -3.91312 0.404812 0
M  V30 8329 H 797.523 -4.95218 -0.311986 0
M  V30 8330 N 796.696 -0.74468 -1.38897 0
M  V30 8331 C 798.112 -0.421302 -1.53939 0
M  V30 8332 C 798.312 1.06668 -1.70951 0
M  V30 8333 O 797.368 1.85278 -1.71547 0
M  V30 8334 C 798.681 -1.21278 -2.75159 0
M  V30 8335 C 800.229 -1.20196 -2.89001 0
M  V30 8336 C 800.704 -1.97621 -4.13171 0
M  V30 8337 N 802.195 -1.94836 -4.2023 0
M  V30 8338 C 802.93 -2.51545 -5.15279 0
M  V30 8339 N 802.426 -3.1693 -6.16058 0
M  V30 8340 N 804.219 -2.41524 -5.07565 0
M  V30 8341 H 796.37 -1.70914 -1.26103 0
M  V30 8342 H 798.633 -0.724058 -0.611919 0
M  V30 8343 H 798.339 -2.26609 -2.68963 0
M  V30 8344 H 798.213 -0.823677 -3.68097 0
M  V30 8345 H 800.6 -0.156742 -2.94683 0
M  V30 8346 H 800.681 -1.63051 -1.97099 0
M  V30 8347 H 800.325 -3.02149 -4.0825 0
M  V30 8348 H 800.255 -1.52166 -5.04136 0
M  V30 8349 H 802.746 -1.4721 -3.48048 0
M  V30 8350 H 803.059 -3.57644 -6.85062 0
M  V30 8351 H 801.404 -3.21023 -6.16417 0
M  V30 8352 H 804.595 -1.90077 -4.27771 0
M  V30 8353 H 804.768 -2.86016 -5.81462 0
M  V30 8354 N 798.174 1.49689 -0.493057 0
M  V30 8355 C 799.414 2.04332 0.0527374 0
M  V30 8356 C 799.778 1.36522 1.35003 0
M  V30 8357 O 800.979 1.81842 1.97957 0
M  V30 8358 C 799.25 3.56782 0.210044 0
M  V30 8359 S 800.809 4.32998 0.711232 0
M  V30 8360 H 797.627 0.710978 0.00554853 0
M  V30 8361 H 800.229 1.83835 -0.665213 0
M  V30 8362 H 798.933 4.03681 -0.739566 0
M  V30 8363 H 798.464 3.81671 0.953468 0
M  V30 8364 H 800.479 4.54916 1.98156 0
M  V30 8365 N 799.652 0.226554 1.55963 0
M  V30 8366 C 800.88 -0.408507 2.02827 0
M  V30 8367 C 801.295 -1.52994 1.10627 0
M  V30 8368 O 800.652 -1.82126 0.116809 0
M  V30 8369 C 800.703 -0.93545 3.49187 0
M  V30 8370 O 800.424 0.141273 4.37872 0
M  V30 8371 C 801.925 -1.64325 4.11719 0
M  V30 8372 H 799.145 -0.099442 0.66359 0
M  V30 8373 H 801.689 0.344471 2.01578 0
M  V30 8374 H 799.844 -1.63868 3.51036 0
M  V30 8375 H 800.258 -0.25558 5.23877 0
M  V30 8376 H 801.732 -1.9639 5.15883 0
M  V30 8377 H 802.209 -2.55815 3.57009 0
M  V30 8378 H 802.815 -0.9851 4.13734 0
M  V30 8379 N 801.13 -1.57531 -0.0467866 0
M  V30 8380 C 802.08 -2.01845 -1.06031 0
M  V30 8381 C 803.064 -0.904662 -1.33059 0
M  V30 8382 O 804.256 -1.16858 -1.32941 0
M  V30 8383 C 801.385 -2.48673 -2.36679 0
M  V30 8384 C 800.471 -3.66837 -2.12818 0
M  V30 8385 N 800.862 -4.80172 -1.5896 0
M  V30 8386 C 799.16 -3.73869 -2.43183 0
M  V30 8387 C 799.861 -5.61895 -1.50494 0
M  V30 8388 N 798.837 -5.0648 -1.97431 0
M  V30 8389 H 802.639 -2.869 -0.637623 0
M  V30 8390 H 800.153 -1.6041 -0.253427 0
M  V30 8391 H 802.15 -2.78671 -3.10077 0
M  V30 8392 H 800.81 -1.65016 -2.79642 0
M  V30 8393 H 801.821 -5.01967 -1.27474 0
M  V30 8394 H 798.498 -3.00977 -2.89342 0
M  V30 8395 H 799.888 -6.62918 -1.09494 0
M  V30 8396 N 802.608 0.318715 -1.54344 0
M  V30 8397 C 803.538 1.39751 -1.87061 0
M  V30 8398 C 804.519 1.53741 -0.727848 0
M  V30 8399 O 805.704 1.67541 -0.982016 0
M  V30 8400 C 802.834 2.76446 -2.10226 0
M  V30 8401 C 801.788 2.77239 -3.26071 0
M  V30 8402 C 801.114 4.17056 -3.34617 0
M  V30 8403 C 802.414 2.40555 -4.63606 0
M  V30 8404 H 804.108 1.12619 -2.77412 0
M  V30 8405 H 801.654 0.540318 -1.33479 0
M  V30 8406 H 803.607 3.51985 -2.31699 0
M  V30 8407 H 802.331 3.05066 -1.16629 0
M  V30 8408 H 800.99 2.04155 -3.04493 0
M  V30 8409 H 800.638 4.42824 -2.3857 0
M  V30 8410 H 800.338 4.18492 -4.12478 0
M  V30 8411 H 801.862 4.94401 -3.5833 0
M  V30 8412 H 803.276 3.05808 -4.84927 0
M  V30 8413 H 801.673 2.53234 -5.44052 0
M  V30 8414 H 802.743 1.35698 -4.65526 0
M  V30 8415 N 804.086 1.46499 0.581025 0
M  V30 8416 C 805.314 1.5547 1.36517 0
M  V30 8417 C 805.729 0.196407 1.87776 0
M  V30 8418 O 805.086 -0.806577 1.63709 0
M  V30 8419 C 805.137 2.56084 2.55154 0
M  V30 8420 O 804.858 3.86637 2.06018 0
M  V30 8421 C 806.359 2.75011 3.47683 0
M  V30 8422 H 803.579 0.525703 0.416986 0
M  V30 8423 H 806.123 1.9192 0.706177 0
M  V30 8424 H 804.278 2.22633 3.17039 0
M  V30 8425 H 804.692 4.41413 2.83292 0
M  V30 8426 H 806.166 3.49329 4.27403 0
M  V30 8427 H 806.643 1.81978 3.99726 0
M  V30 8428 H 807.249 3.09565 2.91632 0
M  V30 8429 N 805.565 -0.825799 1.34232 0
M  V30 8430 C 806.513 -1.95792 1.25572 0
M  V30 8431 C 807.507 -1.68695 0.154404 0
M  V30 8432 O 808.713 -1.77147 0.319196 0
M  V30 8433 H 805.088 -0.642949 0.390027 0
M  V30 8434 H 807.059 -2.00219 2.21258 0
M  V30 8435 C 805.808 -3.32245 1.02511 0
M  V30 8436 H 805.131 -3.53642 1.86487 0
M  V30 8437 H 806.571 -4.1192 1.00487 0
M  V30 8438 C 805.03 -3.35803 -0.27167 0
M  V30 8439 O 805.56 -3.80962 -1.274 0
M  V30 8440 N 803.766 -2.89008 -0.303778 0
M  V30 8441 H 803.313 -2.52451 0.512464 0
M  V30 8442 H 803.271 -2.9177 -1.17121 0
M  V30 8443 N 807.043 -1.17915 -1.04565 0
M  V30 8444 C 808.29 -0.971424 -1.77678 0
M  V30 8445 C 808.618 0.499401 -1.87979 0
M  V30 8446 O 807.873 1.38695 -1.38066 0
M  V30 8447 C 808.172 -1.56528 -3.213 0
M  V30 8448 C 807.838 -3.06138 -3.31044 0
M  V30 8449 C 806.5 -3.46974 -3.33411 0
M  V30 8450 C 808.852 -4.02151 -3.31548 0
M  V30 8451 C 806.18 -4.82406 -3.33918 0
M  V30 8452 C 808.532 -5.37492 -3.33595 0
M  V30 8453 C 807.196 -5.77782 -3.34251 0
M  V30 8454 H 806.466 -0.355469 -0.650171 0
M  V30 8455 H 809.113 -1.46902 -1.22849 0
M  V30 8456 H 807.418 -0.98955 -3.79098 0
M  V30 8457 H 809.115 -1.38003 -3.76505 0
M  V30 8458 H 805.705 -2.73589 -3.29919 0
M  V30 8459 H 809.889 -3.71656 -3.28916 0
M  V30 8460 H 805.145 -5.12927 -3.3274 0
M  V30 8461 H 809.319 -6.1166 -3.32934 0
M  V30 8462 H 806.946 -6.82702 -3.34397 0
M  V30 8463 N 808.521 1.23394 -0.980386 0
M  V30 8464 C 809.484 2.23092 -0.525619 0
M  V30 8465 C 810.484 1.56129 0.384745 0
M  V30 8466 O 811.674 1.73284 0.178439 0
M  V30 8467 C 808.806 3.40074 0.23712 0
M  V30 8468 H 809.999 2.64839 -1.40714 0
M  V30 8469 H 807.552 1.36227 -0.766275 0
M  V30 8470 H 808.287 3.03783 1.13518 0
M  V30 8471 H 808.072 3.89883 -0.416356 0
M  V30 8472 H 809.562 4.14043 0.543892 0
M  V30 8473 N 809.999 0.752036 1.385 0
M  V30 8474 C 811.248 0.304294 1.99391 0
M  V30 8475 C 811.561 -1.11982 1.60373 0
M  V30 8476 O 812.767 -1.66795 2.14223 0
M  V30 8477 C 811.223 0.493101 3.56506 0
M  V30 8478 C 810.831 1.9262 4.04477 0
M  V30 8479 C 812.575 0.107994 4.24363 0
M  V30 8480 C 810.482 2.06365 5.54227 0
M  V30 8481 H 809.412 0.110024 0.745929 0
M  V30 8482 H 812.063 0.928355 1.58284 0
M  V30 8483 H 810.445 -0.20012 3.95494 0
M  V30 8484 H 811.619 2.65276 3.76783 0
M  V30 8485 H 809.934 2.26608 3.49339 0
M  V30 8486 H 812.531 0.189474 5.34364 0
M  V30 8487 H 812.874 -0.939165 4.05568 0
M  V30 8488 H 813.407 0.753011 3.90608 0
M  V30 8489 H 810.146 3.0933 5.77923 0
M  V30 8490 H 809.666 1.38167 5.83669 0
M  V30 8491 H 811.345 1.85286 6.19902 0
M  V30 8492 N 811.477 -1.49425 0.500989 0
M  V30 8493 C 812.407 -2.31971 -0.266775 0
M  V30 8494 C 813.388 -1.40245 -0.962563 0
M  V30 8495 O 814.573 -1.69154 -0.953968 0
M  V30 8496 C 811.703 -3.20757 -1.33163 0
M  V30 8497 C 810.657 -4.21275 -0.75572 0
M  V30 8498 C 809.983 -4.98997 -1.92109 0
M  V30 8499 C 811.283 -5.21686 0.253213 0
M  V30 8500 H 812.977 -2.96408 0.422237 0
M  V30 8501 H 810.523 -1.4254 0.204505 0
M  V30 8502 H 812.476 -3.77315 -1.87646 0
M  V30 8503 H 811.2 -2.54263 -2.04983 0
M  V30 8504 H 809.859 -3.65861 -0.232637 0
M  V30 8505 H 809.507 -4.28951 -2.62698 0
M  V30 8506 H 809.207 -5.67011 -1.54182 0
M  V30 8507 H 810.731 -5.584 -2.47026 0
M  V30 8508 H 812.145 -5.72939 -0.203483 0
M  V30 8509 H 810.542 -5.9759 0.548322 0
M  V30 8510 H 811.612 -4.70596 1.16909 0
M  V30 8511 N 812.955 -0.234822 -1.55841 0
M  V30 8512 C 813.888 0.710134 -2.16869 0
M  V30 8513 C 814.866 1.18155 -1.11706 0
M  V30 8514 O 816.05 1.26188 -1.40032 0
M  V30 8515 C 813.177 1.96368 -2.75966 0
M  V30 8516 C 812.223 1.63114 -3.94076 0
M  V30 8517 S 813.056 0.744307 -5.30302 0
M  V30 8518 C 814.212 2.00712 -5.92845 0
M  V30 8519 H 814.445 0.19146 -2.96683 0
M  V30 8520 H 811.978 -0.0193854 -1.54388 0
M  V30 8521 H 813.936 2.68338 -3.10653 0
M  V30 8522 H 812.597 2.45347 -1.96121 0
M  V30 8523 H 811.79 2.56285 -4.33975 0
M  V30 8524 H 811.392 0.991967 -3.60605 0
M  V30 8525 H 813.684 2.9557 -6.09627 0
M  V30 8526 H 814.627 1.65182 -6.88564 0
M  V30 8527 H 815.035 2.1537 -5.21801 0
M  V30 8528 N 814.433 1.57553 0.0384317 0
M  V30 8529 C 815.365 2.02726 1.06934 0
M  V30 8530 C 816.378 0.938502 1.33026 0
M  V30 8531 O 817.567 1.21595 1.30678 0
M  V30 8532 C 814.667 2.37958 2.41308 0
M  V30 8533 C 813.84 3.69098 2.34703 0
M  V30 8534 C 812.899 3.91623 3.51451 0
M  V30 8535 O 811.925 4.628 3.31368 0
M  V30 8536 N 813.127 3.36538 4.72993 0
M  V30 8537 H 815.892 2.91781 0.684381 0
M  V30 8538 H 813.453 1.60307 0.226542 0
M  V30 8539 H 815.445 2.50172 3.18113 0
M  V30 8540 H 814.015 1.54621 2.71682 0
M  V30 8541 H 813.235 3.67325 1.43059 0
M  V30 8542 H 814.523 4.55144 2.27424 0
M  V30 8543 H 813.921 2.78828 4.92211 0
M  V30 8544 H 812.478 3.54148 5.47195 0
M  V30 8545 N 815.911 -0.310526 1.54511 0
M  V30 8546 C 817.157 -1.04846 1.73595 0
M  V30 8547 C 817.49 -1.87244 0.515118 0
M  V30 8548 O 816.765 -1.88282 -0.48786 0
M  V30 8549 C 817.048 -1.96237 3.01932 0
M  V30 8550 C 816.901 -1.17082 4.34295 0
M  V30 8551 C 818.22 -2.9556 3.26086 0
M  V30 8552 H 815.339 -0.37976 0.631626 0
M  V30 8553 H 817.981 -0.32394 1.87218 0
M  V30 8554 H 816.131 -2.58015 2.90449 0
M  V30 8555 H 817.803 -0.576643 4.57682 0
M  V30 8556 H 816.046 -0.473336 4.3121 0
M  V30 8557 H 816.717 -1.84257 5.20339 0
M  V30 8558 H 819.193 -2.43908 3.37117 0
M  V30 8559 H 818.069 -3.5668 4.17218 0
M  V30 8560 H 818.33 -3.68715 2.4393 0
M  V30 8561 N 817.389 -1.46805 -0.573248 0
M  V30 8562 C 818.635 -1.5283 -1.33307 0
M  V30 8563 C 818.968 -0.183287 -1.93333 0
M  V30 8564 O 818.243 0.806354 -1.76998 0
M  V30 8565 C 818.526 -2.63414 -2.45531 0
M  V30 8566 C 818.379 -4.07478 -1.90478 0
M  V30 8567 C 819.698 -2.70014 -3.47535 0
M  V30 8568 H 816.817 -0.556371 -0.483343 0
M  V30 8569 H 819.459 -1.78787 -0.643066 0
M  V30 8570 H 817.609 -2.41412 -3.04389 0
M  V30 8571 H 819.281 -4.40795 -1.36004 0
M  V30 8572 H 817.524 -4.16511 -1.21248 0
M  V30 8573 H 818.195 -4.80598 -2.71531 0
M  V30 8574 H 820.671 -2.89817 -2.98572 0
M  V30 8575 H 819.547 -3.49192 -4.23504 0
M  V30 8576 H 819.808 -1.76436 -4.05367 0
M  V30 8577 N 818.867 0.818669 -1.34668 0
M  V30 8578 C 820.278 1.39177 -1.24446 0
M  V30 8579 C 820.629 1.9578 0.128268 0
M  V30 8580 O 819.754 1.90382 1.02877 0
M  V30 8581 C 820.349 2.53012 -2.25323 0
M  V30 8582 C 818.908 3.06218 -2.18878 0
M  V30 8583 C 818.055 1.79112 -2.11694 0
M  V30 8584 H 821.006 0.622709 -1.45973 0
M  V30 8585 H 821.027 3.31226 -1.8727 0
M  V30 8586 H 820.539 2.11784 -3.25221 0
M  V30 8587 H 818.64 3.51939 -1.22351 0
M  V30 8588 H 818.753 3.65019 -3.10319 0
M  V30 8589 H 817.117 2.0018 -1.57481 0
M  V30 8590 H 817.9 1.40053 -3.13433 0
M  V30 8591 N 820.346 1.18468 1.03938 0
M  V30 8592 C 821.276 0.936389 2.13902 0
M  V30 8593 C 822.257 -0.126381 1.6963 0
M  V30 8594 O 823.442 0.0264757 1.94182 0
M  V30 8595 C 820.572 0.462729 3.44204 0
M  V30 8596 C 819.526 1.46613 4.02105 0
M  V30 8597 C 818.852 0.84994 5.27902 0
M  V30 8598 C 820.152 2.84323 4.3813 0
M  V30 8599 H 821.846 1.85602 2.3493 0
M  V30 8600 H 819.392 0.893806 1.12903 0
M  V30 8601 H 821.345 0.276382 4.20493 0
M  V30 8602 H 820.069 -0.492477 3.22866 0
M  V30 8603 H 818.728 1.63944 3.27899 0
M  V30 8604 H 818.376 -0.112493 5.02874 0
M  V30 8605 H 818.076 1.51988 5.67603 0
M  V30 8606 H 819.6 0.674152 6.06867 0
M  V30 8607 H 821.014 2.70636 5.054 0
M  V30 8608 H 819.411 3.48012 4.88884 0
M  V30 8609 H 820.481 3.37776 3.47901 0
M  V30 8610 N 821.824 -1.22873 0.986916 0
M  V30 8611 C 822.734 -2.28277 0.540978 0
M  V30 8612 C 823.75 -1.69164 -0.407363 0
M  V30 8613 O 824.926 -1.99504 -0.275674 0
M  V30 8614 C 821.991 -3.46404 -0.143181 0
M  V30 8615 C 821.052 -4.20854 0.847375 0
M  V30 8616 C 820.285 -5.33341 0.19577 0
M  V30 8617 O 820.508 -5.61356 -1.0117 0
M  V30 8618 O 819.442 -5.95169 0.897623 0
M  V30 8619 H 823.268 -2.68578 1.41773 0
M  V30 8620 H 820.853 -1.28927 0.754867 0
M  V30 8621 H 822.735 -4.18096 -0.526676 0
M  V30 8622 H 821.41 -3.08041 -0.994593 0
M  V30 8623 H 820.317 -3.51459 1.28169 0
M  V30 8624 H 821.65 -4.63082 1.6678 0
M  V30 8625 N 823.302 -0.75937 -1.38099 0
M  V30 8626 C 824.232 -0.151077 -2.33011 0
M  V30 8627 C 825.213 0.697099 -1.5516 0
M  V30 8628 O 826.398 0.637101 -1.83452 0
M  V30 8629 C 823.528 0.738423 -3.39359 0
M  V30 8630 C 822.482 -0.0074741 -4.27999 0
M  V30 8631 C 821.808 1.00066 -5.25253 0
M  V30 8632 C 823.108 -1.17926 -5.08813 0
M  V30 8633 H 824.802 -0.943933 -2.84131 0
M  V30 8634 H 822.348 -0.455362 -1.36611 0
M  V30 8635 H 824.301 1.17369 -4.04725 0
M  V30 8636 H 823.025 1.56366 -2.86735 0
M  V30 8637 H 821.684 -0.423379 -3.64147 0
M  V30 8638 H 821.332 1.82012 -4.68914 0
M  V30 8639 H 821.032 0.506199 -5.85416 0
M  V30 8640 H 822.556 1.43512 -5.93495 0
M  V30 8641 H 823.97 -0.821262 -5.67387 0
M  V30 8642 H 822.367 -1.60497 -5.78239 0
M  V30 8643 H 823.437 -1.98938 -4.42212 0
M  V30 8644 N 824.78 1.49157 -0.508906 0
M  V30 8645 C 825.743 2.27784 0.25434 0
M  V30 8646 C 826.743 1.34132 0.88686 0
M  V30 8647 O 827.933 1.5722 0.750168 0
M  V30 8648 C 825.065 3.12347 1.36573 0
M  V30 8649 H 826.258 2.96718 -0.435714 0
M  V30 8650 H 823.811 1.54052 -0.264128 0
M  V30 8651 H 824.546 2.47997 2.08969 0
M  V30 8652 H 824.331 3.81213 0.917543 0
M  V30 8653 H 825.821 3.71712 1.90315 0
M  V30 8654 N 826.258 0.243083 1.55714 0
M  V30 8655 C 827.674 -0.111853 1.59208 0
M  V30 8656 C 827.874 -1.5723 1.2602 0
M  V30 8657 O 826.93 -2.31608 1.00569 0
M  V30 8658 C 828.243 0.233885 2.99789 0
M  V30 8659 C 829.791 0.177873 3.12494 0
M  V30 8660 C 830.266 0.49759 4.55289 0
M  V30 8661 N 831.757 0.447949 4.61029 0
M  V30 8662 C 832.492 0.668545 5.69489 0
M  V30 8663 N 831.988 0.952064 6.86227 0
M  V30 8664 N 833.781 0.599512 5.58894 0
M  V30 8665 H 825.932 1.19554 1.75558 0
M  V30 8666 H 828.195 0.480765 0.817049 0
M  V30 8667 H 827.901 1.24835 3.28799 0
M  V30 8668 H 827.775 -0.440846 3.74615 0
M  V30 8669 H 830.162 -0.827263 2.83267 0
M  V30 8670 H 830.243 0.886399 2.39951 0
M  V30 8671 H 829.887 1.50026 4.85237 0
M  V30 8672 H 829.817 -0.232371 5.26087 0
M  V30 8673 H 832.308 0.237388 3.77154 0
M  V30 8674 H 832.621 1.10791 7.64817 0
M  V30 8675 H 830.966 0.989496 6.8792 0
M  V30 8676 H 834.157 0.378088 4.66571 0
M  V30 8677 H 834.33 0.774828 6.43351 0
M  V30 8678 N 827.736 -1.57571 -0.0300757 0
M  V30 8679 C 828.984 -1.88852 -0.719666 0
M  V30 8680 C 829.305 -0.840645 -1.75949 0
M  V30 8681 O 828.575 0.125854 -1.95495 0
M  V30 8682 H 827.155 -0.696965 -0.268792 0
M  V30 8683 H 829.817 -1.949 0.00373285 0
M  V30 8684 H 828.913 -2.87695 -1.20987 0
M  V30 8685 N 829.214 0.302327 -1.54673 0
M  V30 8686 C 830.164 1.37443 -1.81916 0
M  V30 8687 C 831.148 1.45999 -0.676251 0
M  V30 8688 O 832.34 1.50174 -0.93685 0
M  V30 8689 C 829.469 2.73966 -2.06876 0
M  V30 8690 C 828.555 2.69637 -3.27348 0
M  V30 8691 N 828.946 2.34926 -4.47933 0
M  V30 8692 C 827.244 3.00742 -3.29348 0
M  V30 8693 C 827.945 2.39862 -5.29944 0
M  V30 8694 N 826.921 2.77163 -4.67634 0
M  V30 8695 H 830.723 1.09567 -2.72713 0
M  V30 8696 H 828.237 0.5109 -1.54154 0
M  V30 8697 H 830.234 3.51265 -2.2454 0
M  V30 8698 H 828.894 3.02754 -1.17346 0
M  V30 8699 H 829.905 2.07403 -4.74557 0
M  V30 8700 H 826.582 3.34434 -2.49921 0
M  V30 8701 H 827.972 2.15835 -6.3629 0
M  V30 8702 N 830.692 1.47107 0.565454 0
M  V30 8703 C 831.624 1.55024 1.6882 0
M  V30 8704 C 832.637 0.4371 1.56822 0
M  V30 8705 O 833.826 0.706315 1.63931 0
M  V30 8706 C 830.926 1.43069 3.0722 0
M  V30 8707 C 830.099 2.68807 3.45053 0
M  V30 8708 C 829.158 2.50806 4.62583 0
M  V30 8709 O 828.184 3.24593 4.67577 0
M  V30 8710 N 829.386 1.58093 5.58558 0
M  V30 8711 H 832.151 2.51836 1.62477 0
M  V30 8712 H 829.712 1.43382 0.751885 0
M  V30 8713 H 831.704 1.28773 3.83666 0
M  V30 8714 H 830.274 0.543721 3.07835 0
M  V30 8715 H 829.494 2.97923 2.58138 0
M  V30 8716 H 830.782 3.52298 3.67101 0
M  V30 8717 H 830.18 0.972807 5.57273 0
M  V30 8718 H 828.737 1.49753 6.34364 0
M  V30 8719 N 832.17 -0.811516 1.35101 0
M  V30 8720 C 833.416 -1.57068 1.28287 0
M  V30 8721 C 833.749 -1.93667 -0.143808 0
M  V30 8722 O 833.024 -1.60953 -1.09199 0
M  V30 8723 C 833.307 -2.86259 2.18466 0
M  V30 8724 C 833.16 -2.56168 3.69727 0
M  V30 8725 C 834.479 -3.87924 2.07852 0
M  V30 8726 H 831.598 -0.569869 0.467353 0
M  V30 8727 H 834.24 -0.934023 1.65457 0
M  V30 8728 H 832.39 -3.4059 1.86898 0
M  V30 8729 H 834.062 -2.08059 4.11715 0
M  V30 8730 H 832.305 -1.89436 3.90252 0
M  V30 8731 H 832.976 -3.48344 4.28206 0
M  V30 8732 H 835.452 -3.4298 2.35593 0
M  V30 8733 H 834.328 -4.76106 2.73157 0
M  V30 8734 H 834.589 -4.2923 1.05896 0
M  V30 8735 N 833.648 -1.19017 -1.03309 0
M  V30 8736 C 834.611 -0.926076 -2.09658 0
M  V30 8737 C 835.611 0.0917077 -1.60538 0
M  V30 8738 O 836.801 -0.142574 -1.73616 0
M  V30 8739 C 833.933 -0.390958 -3.38651 0
M  V30 8740 H 835.126 -1.86923 -2.3452 0
M  V30 8741 H 832.679 -1.00325 -1.19853 0
M  V30 8742 H 833.414 0.558446 -3.19456 0
M  V30 8743 H 833.199 -1.12474 -3.75622 0
M  V30 8744 H 834.689 -0.225131 -4.16993 0
M  V30 8745 N 835.127 1.22348 -0.993418 0
M  V30 8746 C 836.057 2.26584 -0.564088 0
M  V30 8747 C 837.038 1.65102 0.409298 0
M  V30 8748 O 838.223 1.91872 0.299819 0
M  V30 8749 C 835.353 3.47087 0.121554 0
M  V30 8750 C 834.307 4.21009 -0.770429 0
M  V30 8751 C 833.633 5.34678 0.0481586 0
M  V30 8752 C 834.933 4.79636 -2.06752 0
M  V30 8753 H 836.627 2.62749 -1.43538 0
M  V30 8754 H 834.173 1.26303 -0.691628 0
M  V30 8755 H 836.126 4.19166 0.433303 0
M  V30 8756 H 834.85 3.1002 1.0274 0
M  V30 8757 H 833.509 3.50764 -1.06583 0
M  V30 8758 H 833.157 4.93852 0.954933 0
M  V30 8759 H 832.857 5.85061 -0.545641 0
M  V30 8760 H 834.381 6.09573 0.353991 0
M  V30 8761 H 835.795 5.43654 -1.81969 0
M  V30 8762 H 834.192 5.4036 -2.61019 0
M  V30 8763 H 835.262 3.99659 -2.74592 0
M  V30 8764 N 836.605 0.766683 1.37694 0
M  V30 8765 C 837.83 0.338715 2.04615 0
M  V30 8766 C 838.255 -1.02918 1.57447 0
M  V30 8767 O 837.613 -1.65849 0.732386 0
M  V30 8768 C 837.661 0.385284 3.58536 0
M  V30 8769 O 836.765 -0.616081 4.07772 0
M  V30 8770 H 836.106 0.147527 0.647404 0
M  V30 8771 H 838.636 1.04146 1.7611 0
M  V30 8772 H 838.646 0.240782 4.07289 0
M  V30 8773 H 837.321 1.38325 3.92223 0
M  V30 8774 H 835.898 -0.435115 3.70353 0
M  V30 8775 N 838.083 -1.48885 0.516809 0
M  V30 8776 C 839.308 -2.0739 -0.0205201 0
M  V30 8777 C 839.733 -1.37259 -1.28614 0
M  V30 8778 O 839.091 -0.434304 -1.76021 0
M  V30 8779 C 839.139 -3.59793 -0.24104 0
M  V30 8780 O 838.243 -3.90957 -1.31251 0
M  V30 8781 H 837.584 -0.663167 0.0332564 0
M  V30 8782 H 840.114 -1.91477 0.720956 0
M  V30 8783 H 840.124 -4.0531 -0.467737 0
M  V30 8784 H 838.799 -4.10244 0.68356 0
M  V30 8785 H 837.376 -3.57234 -1.06951 0
M  V30 8786 N 839.561 -0.251338 -1.55583 0
M  V30 8787 C 840.81 0.372681 -1.98227 0
M  V30 8788 C 841.123 1.58743 -1.1428 0
M  V30 8789 O 842.329 2.28289 -1.46957 0
M  V30 8790 C 840.785 0.714439 -3.52738 0
M  V30 8791 C 840.393 -0.479168 -4.4543 0
M  V30 8792 C 842.137 1.3024 -4.04027 0
M  V30 8793 C 840.044 -0.113318 -5.91291 0
M  V30 8794 H 838.974 0.14302 -0.740312 0
M  V30 8795 H 841.625 -0.352253 -1.80087 0
M  V30 8796 H 840.007 1.49762 -3.66589 0
M  V30 8797 H 841.181 -1.25644 -4.4334 0
M  V30 8798 H 839.496 -0.982359 -4.04646 0
M  V30 8799 H 842.093 1.58953 -5.10527 0
M  V30 8800 H 842.436 2.22837 -3.51638 0
M  V30 8801 H 842.969 0.582024 -3.93519 0
M  V30 8802 H 839.708 -1.00654 -6.47726 0
M  V30 8803 H 839.228 0.627666 -5.96507 0
M  V30 8804 H 840.907 0.30293 -6.4629 0
M  V30 8805 N 841.039 1.57585 0.0217189 0
M  V30 8806 C 842.264 1.94267 0.726309 0
M  V30 8807 C 842.689 0.851904 1.67703 0
M  V30 8808 O 842.047 -0.191792 1.80283 0
M  V30 8809 C 842.095 3.30023 1.45318 0
M  V30 8810 O 841.199 3.22791 2.5667 0
M  V30 8811 H 840.54 0.634777 0.194818 0
M  V30 8812 H 843.07 2.04585 -0.0249985 0
M  V30 8813 H 843.08 3.65084 1.82147 0
M  V30 8814 H 841.755 4.08972 0.755962 0
M  V30 8815 H 840.332 2.99373 2.2233 0
M  V30 8816 N 842.517 -0.29412 1.54831 0
M  V30 8817 C 843.747 -1.04572 1.7818 0
M  V30 8818 C 844.155 -1.81187 0.544776 0
M  V30 8819 O 843.498 -1.769 -0.495169 0
M  V30 8820 C 843.56 -2.06748 2.94101 0
M  V30 8821 C 843.224 -1.49265 4.31936 0
M  V30 8822 C 844.221 -0.919136 5.11711 0
M  V30 8823 C 841.906 -1.52621 4.78552 0
M  V30 8824 C 843.9 -0.386824 6.36225 0
M  V30 8825 C 841.587 -0.990031 6.03027 0
M  V30 8826 C 842.585 -0.421315 6.81699 0
M  V30 8827 O 842.273 0.106713 8.03829 0
M  V30 8828 H 842.005 -0.31559 0.597812 0
M  V30 8829 H 844.559 -0.336817 2.0262 0
M  V30 8830 H 842.789 -2.81339 2.65303 0
M  V30 8831 H 844.478 -2.67865 3.04964 0
M  V30 8832 H 845.244 -0.886062 4.76837 0
M  V30 8833 H 841.123 -1.95826 4.17341 0
M  V30 8834 H 844.667 0.0577248 6.97576 0
M  V30 8835 H 840.564 -1.02027 6.37386 0
M  V30 8836 H 841.332 -0.00593526 8.185 0
M  V30 8837 N 843.995 -1.47404 -0.557645 0
M  V30 8838 C 845.241 -1.54235 -1.31679 0
M  V30 8839 C 845.574 -0.203782 -1.93128 0
M  V30 8840 O 844.849 0.787536 -1.77843 0
M  V30 8841 C 845.132 -2.66003 -2.42723 0
M  V30 8842 C 844.985 -4.09475 -1.86145 0
M  V30 8843 C 846.304 -2.73685 -3.44652 0
M  V30 8844 H 843.423 -0.561466 -0.477415 0
M  V30 8845 H 846.065 -1.79459 -0.624067 0
M  V30 8846 H 844.215 -2.44627 -3.01811 0
M  V30 8847 H 845.887 -4.42213 -1.31321 0
M  V30 8848 H 844.13 -4.17774 -1.16823 0
M  V30 8849 H 844.801 -4.83451 -2.66418 0
M  V30 8850 H 847.277 -2.92968 -2.95481 0
M  V30 8851 H 846.153 -3.53665 -4.19777 0
M  V30 8852 H 846.414 -1.80726 -4.03473 0
M  V30 8853 N 845.473 0.80434 -1.35529 0
M  V30 8854 C 846.721 1.55845 -1.28673 0
M  V30 8855 C 847.042 1.94511 0.137976 0
M  V30 8856 O 846.312 1.63775 1.07492 0
M  V30 8857 H 844.892 0.577931 -0.473291 0
M  V30 8858 H 847.554 0.959293 -1.69657 0
M  V30 8859 H 846.65 2.47285 -1.90411 0
M  V30 8860 N 846.951 1.19563 1.02676 0
M  V30 8861 C 848.191 1.01072 1.77662 0
M  V30 8862 C 848.555 -0.450344 1.86644 0
M  V30 8863 O 849.756 -0.755132 2.57975 0
M  V30 8864 C 848.027 1.66383 3.16309 0
M  V30 8865 S 849.586 1.62858 4.07459 0
M  V30 8866 H 846.404 0.362644 0.611564 0
M  V30 8867 H 849.006 1.51947 1.23014 0
M  V30 8868 H 847.71 2.71917 3.07391 0
M  V30 8869 H 847.241 1.15596 3.76033 0
M  V30 8870 H 849.256 0.654265 4.91868 0
M  V30 8871 N 848.429 -1.21819 0.999893 0
M  V30 8872 C 849.654 -1.95298 0.698094 0
M  V30 8873 C 850.079 -1.73273 -0.731982 0
M  V30 8874 O 849.437 -1.01634 -1.50134 0
M  V30 8875 C 849.485 -3.45922 1.01834 0
M  V30 8876 O 848.589 -4.12223 0.120801 0
M  V30 8877 H 847.93 -0.610729 0.260588 0
M  V30 8878 H 850.46 -1.5472 1.33876 0
M  V30 8879 H 850.47 -3.96471 0.963074 0
M  V30 8880 H 849.145 -3.61278 2.06037 0
M  V30 8881 H 847.722 -3.72177 0.232153 0
M  V30 8882 N 849.908 -0.773975 -1.37286 0
M  V30 8883 C 850.838 -0.175782 -2.32837 0
M  V30 8884 C 851.819 0.680603 -1.5589 0
M  V30 8885 O 853.004 0.617607 -1.84117 0
M  V30 8886 C 850.134 0.702388 -3.40123 0
M  V30 8887 C 849.088 -0.0528687 -4.27967 0
M  V30 8888 C 848.414 0.944891 -5.26285 0
M  V30 8889 C 849.714 -1.23316 -5.07534 0
M  V30 8890 H 851.408 -0.974016 -2.83114 0
M  V30 8891 H 848.954 -0.469826 -1.3612 0
M  V30 8892 H 850.907 1.13069 -4.05947 0
M  V30 8893 H 849.631 1.53316 -2.88378 0
M  V30 8894 H 848.29 -0.461978 -3.63678 0
M  V30 8895 H 847.938 1.77028 -4.70819 0
M  V30 8896 H 847.638 0.444079 -5.8592 0
M  V30 8897 H 849.162 1.37209 -5.94984 0
M  V30 8898 H 850.576 -0.881395 -5.66484 0
M  V30 8899 H 848.973 -1.66621 -5.76504 0
M  V30 8900 H 850.043 -2.03617 -4.40077 0
M  V30 8901 N 851.386 1.48609 -0.524698 0
M  V30 8902 C 852.611 2.07398 0.00952139 0
M  V30 8903 C 853.036 1.37939 1.27884 0
M  V30 8904 O 852.394 0.443633 1.75788 0
M  V30 8905 C 852.442 3.59916 0.221956 0
M  V30 8906 O 851.546 3.91647 1.29175 0
M  V30 8907 H 850.887 0.662981 -0.0367729 0
M  V30 8908 H 853.417 1.91092 -0.7311 0
M  V30 8909 H 853.427 4.05552 0.446236 0
M  V30 8910 H 852.102 4.09876 -0.705306 0
M  V30 8911 H 850.679 3.57796 1.05055 0
M  V30 8912 N 852.864 0.259585 1.55447 0
M  V30 8913 C 854.11 -0.362143 1.9954 0
M  V30 8914 C 854.443 -1.5666 1.14767 0
M  V30 8915 O 853.718 -1.93319 0.214025 0
M  V30 8916 C 854.001 -0.759588 3.51998 0
M  V30 8917 C 853.854 0.451134 4.47532 0
M  V30 8918 C 855.173 -1.60186 4.09913 0
M  V30 8919 H 852.292 -0.130157 0.725416 0
M  V30 8920 H 854.934 0.363431 1.86492 0
M  V30 8921 H 853.084 -1.3778 3.63248 0
M  V30 8922 H 854.756 1.08965 4.48246 0
M  V30 8923 H 852.999 1.092 4.19831 0
M  V30 8924 H 853.67 0.129518 5.51848 0
M  V30 8925 H 856.146 -1.0799 4.01842 0
M  V30 8926 H 855.022 -1.84879 5.16828 0
M  V30 8927 H 855.283 -2.57787 3.59163 0
M  V30 8928 N 854.342 -1.57594 -0.0133615 0
M  V30 8929 C 855.272 -2.10611 -1.00823 0
M  V30 8930 C 856.253 -1.01217 -1.36708 0
M  V30 8931 O 857.438 -1.28827 -1.45318 0
M  V30 8932 C 854.568 -2.59844 -2.30431 0
M  V30 8933 C 853.522 -3.73644 -2.08745 0
M  V30 8934 C 852.848 -4.09141 -3.4425 0
M  V30 8935 C 854.148 -5.01454 -1.46086 0
M  V30 8936 H 855.842 -2.93985 -0.566849 0
M  V30 8937 H 853.388 -1.41423 -0.271219 0
M  V30 8938 H 855.341 -2.95557 -3.00373 0
M  V30 8939 H 854.065 -1.73573 -2.76658 0
M  V30 8940 H 852.724 -3.38303 -1.41232 0
M  V30 8941 H 852.372 -3.19914 -3.88155 0
M  V30 8942 H 852.072 -4.85802 -3.3056 0
M  V30 8943 H 853.596 -4.47402 -4.15528 0
M  V30 8944 H 855.01 -5.35024 -2.05966 0
M  V30 8945 H 853.407 -5.82832 -1.42924 0
M  V30 8946 H 854.477 -4.83003 -0.428471 0
M  V30 8947 N 855.82 0.285905 -1.54985 0
M  V30 8948 C 857.06 1.02699 -1.76726 0
M  V30 8949 C 857.424 1.83962 -0.549717 0
M  V30 8950 O 858.625 2.60943 -0.645142 0
M  V30 8951 C 856.896 1.89671 -3.02919 0
M  V30 8952 S 858.455 2.7022 -3.45726 0
M  V30 8953 H 855.273 0.346114 -0.621068 0
M  V30 8954 H 857.875 0.298764 -1.93204 0
M  V30 8955 H 856.579 1.28873 -3.89641 0
M  V30 8956 H 856.11 2.66836 -2.89071 0
M  V30 8957 H 858.125 3.92184 -3.03983 0
M  V30 8958 N 857.298 1.47698 0.54982 0
M  V30 8959 C 858.228 1.63622 1.66583 0
M  V30 8960 C 859.209 0.485477 1.63025 0
M  V30 8961 O 860.394 0.715692 1.80531 0
M  V30 8962 C 857.524 1.65721 3.05211 0
M  V30 8963 C 856.478 2.80097 3.2362 0
M  V30 8964 C 855.804 2.67272 4.63109 0
M  V30 8965 C 857.104 4.21612 3.08286 0
M  V30 8966 H 858.798 2.57049 1.53512 0
M  V30 8967 H 856.344 1.23705 0.737099 0
M  V30 8968 H 858.297 1.75451 3.83138 0
M  V30 8969 H 857.021 0.688593 3.19258 0
M  V30 8970 H 855.68 2.69889 2.48104 0
M  V30 8971 H 855.328 1.68422 4.73965 0
M  V30 8972 H 855.028 3.44008 4.76374 0
M  V30 8973 H 856.552 2.78942 5.43161 0
M  V30 8974 H 857.966 4.32758 3.76024 0
M  V30 8975 H 856.363 4.99193 3.33057 0
M  V30 8976 H 857.433 4.39462 2.04942 0
M  V30 8977 N 858.776 -0.797141 1.35954 0
M  V30 8978 C 860.022 -1.55698 1.29946 0
M  V30 8979 C 860.355 -1.93808 -0.123259 0
M  V30 8980 O 859.63 -1.62102 -1.07486 0
M  V30 8981 C 859.913 -2.83926 2.2149 0
M  V30 8982 C 859.766 -2.52232 3.72423 0
M  V30 8983 C 861.085 -3.85698 2.11955 0
M  V30 8984 H 858.204 -0.56488 0.47337 0
M  V30 8985 H 860.846 -0.916421 1.66438 0
M  V30 8986 H 858.996 -3.38588 1.905 0
M  V30 8987 H 860.668 -2.0368 4.13899 0
M  V30 8988 H 858.911 -1.85286 3.92239 0
M  V30 8989 H 859.582 -3.43782 4.31877 0
M  V30 8990 H 862.058 -3.40462 2.39218 0
M  V30 8991 H 860.934 -4.73182 2.78191 0
M  V30 8992 H 861.195 -4.28083 1.10442 0
M  V30 8993 N 860.254 -1.20106 -1.0204 0
M  V30 8994 C 861.217 -0.948261 -2.08664 0
M  V30 8995 C 862.217 0.0746753 -1.60627 0
M  V30 8996 O 863.407 -0.160981 -1.73455 0
M  V30 8997 C 860.539 -0.426854 -3.38217 0
M  V30 8998 H 861.732 -1.894 -2.32524 0
M  V30 8999 H 859.285 -1.0159 -1.18782 0
M  V30 9000 H 860.02 0.524532 -3.2003 0
M  V30 9001 H 859.805 -1.16451 -3.74408 0
M  V30 9002 H 861.295 -0.269346 -4.1673 0
M  V30 9003 N 861.732 1.21287 -1.00634 0
M  V30 9004 C 862.96 1.94385 -0.708678 0
M  V30 9005 C 863.375 1.7416 0.728957 0
M  V30 9006 O 862.732 1.04906 1.49335 0
M  V30 9007 C 862.783 3.46755 -1.02193 0
M  V30 9008 O 862.504 3.6631 -2.40309 0
M  V30 9009 C 864.005 4.37014 -0.743867 0
M  V30 9010 H 861.225 0.618136 -0.261052 0
M  V30 9011 H 863.769 1.54067 -1.34475 0
M  V30 9012 H 861.924 3.8499 -0.431441 0
M  V30 9013 H 862.338 4.60393 -2.51274 0
M  V30 9014 H 863.812 5.42621 -1.01321 0
M  V30 9015 H 864.289 4.38017 0.322084 0
M  V30 9016 H 864.895 4.04426 -1.31603 0
M  V30 9017 N 863.21 0.781244 1.36873 0
M  V30 9018 C 864.14 0.188128 2.32741 0
M  V30 9019 C 865.121 -0.672326 1.56249 0
M  V30 9020 O 866.306 -0.607835 1.84442 0
M  V30 9021 C 863.436 -0.684341 3.40491 0
M  V30 9022 C 862.39 0.0755641 4.27933 0
M  V30 9023 C 861.716 -0.916968 5.26779 0
M  V30 9024 C 863.016 1.26006 5.06873 0
M  V30 9025 H 864.71 0.989016 2.82593 0
M  V30 9026 H 862.256 0.477038 1.35869 0
M  V30 9027 H 864.209 -1.10915 4.06541 0
M  V30 9028 H 862.933 -1.51785 2.89187 0
M  V30 9029 H 861.592 0.481258 3.63427 0
M  V30 9030 H 861.24 -1.74528 4.71751 0
M  V30 9031 H 860.94 -0.413 5.86147 0
M  V30 9032 H 862.464 -1.34052 5.95703 0
M  V30 9033 H 863.878 0.911425 5.66009 0
M  V30 9034 H 862.275 1.69676 5.75613 0
M  V30 9035 H 863.345 2.05948 4.38991 0
M  V30 9036 N 864.689 -1.48329 0.532571 0
M  V30 9037 C 865.935 -2.028 -0.000583219 0
M  V30 9038 C 866.268 -1.40858 -1.33688 0
M  V30 9039 O 865.543 -0.555261 -1.86406 0
M  V30 9040 C 865.826 -3.59901 -0.119846 0
M  V30 9041 C 865.679 -4.32318 1.2418 0
M  V30 9042 C 866.998 -4.31904 -0.845372 0
M  V30 9043 H 864.117 -0.736999 0.00126205 0
M  V30 9044 H 866.759 -1.77024 0.690102 0
M  V30 9045 H 864.909 -3.81993 -0.708092 0
M  V30 9046 H 866.581 -4.21637 1.87136 0
M  V30 9047 H 864.824 -3.93635 1.82301 0
M  V30 9048 H 865.495 -5.40697 1.11132 0
M  V30 9049 H 867.971 -4.14658 -0.346159 0
M  V30 9050 H 866.847 -5.41509 -0.897723 0
M  V30 9051 H 867.108 -3.99369 -1.89622 0
M  V30 9052 N 866.167 -0.267825 -1.55308 0
M  V30 9053 C 867.395 0.354587 -2.03839 0
M  V30 9054 C 867.81 1.50007 -1.14644 0
M  V30 9055 O 867.167 1.81752 -0.165055 0
M  V30 9056 C 867.218 0.84254 -3.51544 0
M  V30 9057 O 866.939 -0.257318 -4.37344 0
M  V30 9058 C 868.44 1.53351 -4.15931 0
M  V30 9059 H 865.66 0.0818131 -0.665994 0
M  V30 9060 H 868.204 -0.397795 -2.00594 0
M  V30 9061 H 866.359 1.54503 -3.55257 0
M  V30 9062 H 866.773 0.116593 -5.2437 0
M  V30 9063 H 868.247 1.82643 -5.20908 0
M  V30 9064 H 868.724 2.4626 -3.63666 0
M  V30 9065 H 869.33 0.87506 -4.162 0
M  V30 9066 N 867.645 1.57599 0.00500368 0
M  V30 9067 C 868.892 1.90349 0.690895 0
M  V30 9068 C 869.22 0.868045 1.74055 0
M  V30 9069 O 868.475 -0.127855 1.95282 0
M  V30 9070 C 868.774 3.29855 1.37588 0
M  V30 9071 C 868.44 4.48548 0.459906 0
M  V30 9072 C 867.102 4.80752 0.207693 0
M  V30 9073 C 869.454 5.20919 -0.171054 0
M  V30 9074 C 866.782 5.82701 -0.683855 0
M  V30 9075 C 869.134 6.23818 -1.05045 0
M  V30 9076 C 867.798 6.54481 -1.31189 0
M  V30 9077 H 867.068 0.696538 0.252816 0
M  V30 9078 H 869.715 1.91436 -0.0494495 0
M  V30 9079 H 868.02 3.24869 2.19015 0
M  V30 9080 H 869.717 3.52452 1.91255 0
M  V30 9081 H 866.307 4.23384 0.666648 0
M  V30 9082 H 870.491 4.96299 0.0107942 0
M  V30 9083 H 865.747 6.04822 -0.894467 0
M  V30 9084 H 869.921 6.79029 -1.54574 0
M  V30 9085 H 867.548 7.33299 -2.00442 0
M  V30 9086 N 869.123 -0.277682 1.55134 0
M  V30 9087 C 870.086 -1.32635 1.86924 0
M  V30 9088 C 871.086 -1.42578 0.743507 0
M  V30 9089 O 872.276 -1.4181 1.01171 0
M  V30 9090 C 869.408 -2.70832 2.07034 0
M  V30 9091 H 870.601 -1.0568 2.80663 0
M  V30 9092 H 868.154 -0.515517 1.47554 0
M  V30 9093 H 868.889 -3.02974 1.15661 0
M  V30 9094 H 868.674 -2.65001 2.88993 0
M  V30 9095 H 870.164 -3.46611 2.32918 0
M  V30 9096 N 870.601 -1.47988 -0.541979 0
M  V30 9097 C 871.847 -1.55623 -1.30036 0
M  V30 9098 C 872.18 -0.224254 -1.92901 0
M  V30 9099 O 871.455 0.768629 -1.78668 0
M  V30 9100 C 871.738 -2.68562 -2.39888 0
M  V30 9101 C 871.591 -4.11426 -1.81792 0
M  V30 9102 C 872.91 -2.77325 -3.41729 0
M  V30 9103 H 870.029 -0.566498 -0.471433 0
M  V30 9104 H 872.671 -1.8011 -0.604998 0
M  V30 9105 H 870.821 -2.47814 -2.992 0
M  V30 9106 H 872.493 -4.43581 -1.26624 0
M  V30 9107 H 870.736 -4.18989 -1.12386 0
M  V30 9108 H 871.407 -4.8625 -2.61276 0
M  V30 9109 H 873.883 -2.96085 -2.92357 0
M  V30 9110 H 872.759 -3.58097 -4.16002 0
M  V30 9111 H 873.02 -1.84995 -4.01534 0
M  V30 9112 N 872.079 0.78992 -1.36375 0
M  V30 9113 C 873.009 1.91683 -1.33341 0
M  V30 9114 C 873.99 1.68861 -0.204965 0
M  V30 9115 O 875.175 1.89982 -0.402531 0
M  V30 9116 C 872.305 3.28696 -1.12143 0
M  V30 9117 C 871.259 3.66041 -2.21806 0
M  V30 9118 C 870.585 5.01399 -1.85751 0
M  V30 9119 C 871.885 3.74677 -3.63888 0
M  V30 9120 H 873.579 1.94478 -2.27637 0
M  V30 9121 H 871.125 0.934271 -1.09578 0
M  V30 9122 H 873.078 4.07151 -1.08656 0
M  V30 9123 H 871.802 3.26287 -0.142974 0
M  V30 9124 H 870.461 2.89883 -2.24418 0
M  V30 9125 H 870.109 4.9551 -0.864817 0
M  V30 9126 H 869.809 5.27355 -2.59173 0
M  V30 9127 H 871.333 5.82274 -1.83819 0
M  V30 9128 H 872.747 4.43324 -3.63506 0
M  V30 9129 H 871.144 4.12118 -4.3621 0
M  V30 9130 H 872.214 2.75795 -3.9883 0
M  V30 9131 N 873.557 1.20646 1.01402 0
M  V30 9132 C 874.782 1.04462 1.79172 0
M  V30 9133 C 875.207 -0.401588 1.83763 0
M  V30 9134 O 874.565 -1.28934 1.27459 0
M  V30 9135 C 874.613 1.63583 3.21361 0
M  V30 9136 O 873.717 0.875198 4.03006 0
M  V30 9137 H 873.058 0.368235 0.552539 0
M  V30 9138 H 875.588 1.59994 1.27526 0
M  V30 9139 H 875.598 1.67426 3.72065 0
M  V30 9140 H 874.273 2.68835 3.17334 0
M  V30 9141 H 872.85 0.911172 3.61597 0
M  V30 9142 N 875.035 -1.20752 1.01276 0
M  V30 9143 C 876.26 -1.94547 0.718769 0
M  V30 9144 C 876.685 -1.7404 -0.713563 0
M  V30 9145 O 876.043 -1.03221 -1.49047 0
M  V30 9146 C 876.091 -3.44823 1.05497 0
M  V30 9147 O 875.195 -4.12072 0.164516 0
M  V30 9148 H 874.536 -0.607931 0.267051 0
M  V30 9149 H 877.066 -1.53292 1.35509 0
M  V30 9150 H 877.076 -3.95427 1.00507 0
M  V30 9151 H 875.751 -3.59072 2.09858 0
M  V30 9152 H 874.328 -3.71909 0.271615 0
M  V30 9153 N 876.513 -0.788492 -1.36457 0
M  V30 9154 C 877.759 -0.360995 -1.99561 0
M  V30 9155 C 878.092 1.06433 -1.62437 0
M  V30 9156 O 877.367 1.7352 -0.878705 0
M  V30 9157 C 877.65 -0.523735 -3.56271 0
M  V30 9158 C 877.503 -1.99268 -4.03252 0
M  V30 9159 C 878.822 0.0617908 -4.40057 0
M  V30 9160 H 875.941 -0.13264 -0.724966 0
M  V30 9161 H 878.583 -0.994659 -1.61884 0
M  V30 9162 H 876.733 0.0156979 -3.88497 0
M  V30 9163 H 878.405 -2.59311 -3.81518 0
M  V30 9164 H 876.648 -2.49561 -3.54826 0
M  V30 9165 H 877.319 -2.05752 -5.12221 0
M  V30 9166 H 879.795 -0.398674 -4.14186 0
M  V30 9167 H 878.671 -0.0821089 -5.48839 0
M  V30 9168 H 878.932 1.15381 -4.26778 0
M  V30 9169 N 877.991 1.48044 -0.54043 0
M  V30 9170 C 879.216 2.07396 -0.0124765 0
M  V30 9171 C 879.641 1.39288 1.26414 0
M  V30 9172 O 878.999 0.462252 1.75308 0
M  V30 9173 C 879.047 3.60131 0.18377 0
M  V30 9174 O 878.151 3.92995 1.25014 0
M  V30 9175 H 877.492 0.662554 -0.0438026 0
M  V30 9176 H 880.022 1.90306 -0.751327 0
M  V30 9177 H 880.032 4.06003 0.403197 0
M  V30 9178 H 878.707 4.09105 -0.74874 0
M  V30 9179 H 877.284 3.5889 1.01254 0
M  V30 9180 N 879.47 0.276058 1.55163 0
M  V30 9181 C 880.698 -0.343772 2.04024 0
M  V30 9182 C 881.113 -1.49397 1.15438 0
M  V30 9183 O 880.47 -1.81662 0.174692 0
M  V30 9184 C 880.521 -0.823885 3.51986 0
M  V30 9185 O 880.242 0.280507 4.37201 0
M  V30 9186 C 881.743 -1.51143 4.16738 0
M  V30 9187 H 878.963 -0.07828 0.666418 0
M  V30 9188 H 881.507 0.408427 2.0038 0
M  V30 9189 H 879.662 -1.52617 3.56071 0
M  V30 9190 H 880.076 -0.0887831 5.24425 0
M  V30 9191 H 881.55 -1.79878 5.2187 0
M  V30 9192 H 882.027 -2.44327 3.64967 0
M  V30 9193 H 882.633 -0.852975 4.16659 0
M  V30 9194 N 880.948 -1.576 0.00335426 0
M  V30 9195 C 882.197 -1.89892 -0.680001 0
M  V30 9196 C 882.51 -0.878731 -1.7475 0
M  V30 9197 O 883.716 -1.09199 -2.48572 0
M  V30 9198 C 882.172 -3.37098 -1.26066 0
M  V30 9199 C 881.78 -4.4742 -0.227807 0
M  V30 9200 C 883.524 -3.78495 -1.92202 0
M  V30 9201 C 881.431 -5.85706 -0.81865 0
M  V30 9202 H 880.361 -0.708578 -0.257746 0
M  V30 9203 H 883.012 -1.83387 0.0644472 0
M  V30 9204 H 881.394 -3.38451 -2.05589 0
M  V30 9205 H 882.568 -4.57589 0.54307 0
M  V30 9206 H 880.883 -4.15064 0.333297 0
M  V30 9207 H 883.48 -4.7915 -2.37318 0
M  V30 9208 H 883.823 -3.12187 -2.75399 0
M  V30 9209 H 884.356 -3.79456 -1.19408 0
M  V30 9210 H 881.095 -6.55495 -0.0253787 0
M  V30 9211 H 880.615 -5.79196 -1.55861 0
M  V30 9212 H 882.294 -6.33469 -1.31627 0
M  V30 9213 N 882.426 0.269451 -1.5528 0
M  V30 9214 C 883.842 0.616827 -1.47199 0
M  V30 9215 C 884.042 1.89354 -0.68901 0
M  V30 9216 O 883.098 2.51631 -0.209287 0
M  V30 9217 C 884.411 0.740492 -2.9144 0
M  V30 9218 C 885.959 0.834312 -3.01676 0
M  V30 9219 C 886.434 0.989725 -4.47178 0
M  V30 9220 N 887.925 1.05516 -4.51022 0
M  V30 9221 C 888.66 1.19427 -5.60825 0
M  V30 9222 N 888.156 1.30035 -6.80487 0
M  V30 9223 N 889.949 1.22566 -5.48575 0
M  V30 9224 H 882.1 -0.568962 -2.04638 0
M  V30 9225 H 884.363 -0.193153 -0.928114 0
M  V30 9226 H 884.069 -0.127234 -3.5147 0
M  V30 9227 H 883.943 1.61965 -3.40657 0
M  V30 9228 H 886.33 1.6925 -2.4174 0
M  V30 9229 H 886.411 -0.0695298 -2.55705 0
M  V30 9230 H 886.055 0.136179 -5.07717 0
M  V30 9231 H 885.985 1.90827 -4.90808 0
M  V30 9232 H 888.476 0.985434 -3.64825 0
M  V30 9233 H 888.789 1.40494 -7.59922 0
M  V30 9234 H 887.134 1.27033 -6.83292 0
M  V30 9235 H 890.325 1.13911 -4.54029 0
M  V30 9236 H 890.498 1.33063 -6.34191 0
M  V30 9237 N 883.904 1.48273 0.534124 0
M  V30 9238 C 884.852 1.62926 1.66005 0
M  V30 9239 C 885.846 0.495814 1.61982 0
M  V30 9240 O 887.052 0.6744 1.66889 0
M  V30 9241 H 883.427 0.513163 0.549698 0
M  V30 9242 H 885.398 2.57498 1.50789 0
M  V30 9243 C 884.147 1.68231 3.04292 0
M  V30 9244 H 883.47 2.54807 3.0808 0
M  V30 9245 H 884.91 1.82528 3.827 0
M  V30 9246 C 883.369 0.420154 3.3427 0
M  V30 9247 O 883.899 -0.468769 3.98955 0
M  V30 9248 N 882.105 0.293115 2.89118 0
M  V30 9249 H 881.652 1.01745 2.36655 0
M  V30 9250 H 881.61 -0.550376 3.09545 0
M  V30 9251 N 885.382 -0.782676 1.36792 0
M  V30 9252 C 886.314 -1.9044 1.27536 0
M  V30 9253 C 887.327 -1.61647 0.193426 0
M  V30 9254 O 888.516 -1.72769 0.448692 0
M  V30 9255 C 885.616 -3.2541 0.946641 0
M  V30 9256 C 884.789 -3.81932 2.13183 0
M  V30 9257 C 883.848 -4.95355 1.7751 0
M  V30 9258 O 882.874 -5.11517 2.49678 0
M  V30 9259 N 884.076 -5.76108 0.712755 0
M  V30 9260 H 886.841 -1.98899 2.24186 0
M  V30 9261 H 884.402 -0.96127 1.30274 0
M  V30 9262 H 886.394 -3.98791 0.689043 0
M  V30 9263 H 884.964 -3.12524 0.0690591 0
M  V30 9264 H 884.184 -3.00459 2.55183 0
M  V30 9265 H 885.472 -4.16426 2.92347 0
M  V30 9266 H 884.87 -5.65586 0.113662 0
M  V30 9267 H 883.427 -6.49762 0.514995 0
M  V30 9268 N 886.86 -1.21182 -1.00761 0
M  V30 9269 C 888.276 -0.968607 -1.26847 0
M  V30 9270 C 888.476 0.346561 -1.98497 0
M  V30 9271 O 887.532 1.07287 -2.28573 0
M  V30 9272 C 888.845 -2.1574 -2.09467 0
M  V30 9273 C 890.393 -2.19937 -2.22703 0
M  V30 9274 C 890.868 -3.38328 -3.08704 0
M  V30 9275 N 892.359 -3.38398 -3.16293 0
M  V30 9276 C 893.094 -4.26653 -3.83086 0
M  V30 9277 N 892.59 -5.25101 -4.5193 0
M  V30 9278 N 894.383 -4.14469 -3.797 0
M  V30 9279 H 886.534 -2.05763 -0.526816 0
M  V30 9280 H 888.797 -0.90087 -0.29519 0
M  V30 9281 H 888.503 -3.11034 -1.64167 0
M  V30 9282 H 888.377 -2.14584 -3.10216 0
M  V30 9283 H 890.764 -1.25201 -2.67224 0
M  V30 9284 H 890.845 -2.25139 -1.21433 0
M  V30 9285 H 890.489 -4.33356 -2.64886 0
M  V30 9286 H 890.419 -3.30364 -4.10082 0
M  V30 9287 H 892.91 -2.67149 -2.67282 0
M  V30 9288 H 893.223 -5.8875 -5.00592 0
M  V30 9289 H 891.568 -5.29029 -4.50726 0
M  V30 9290 H 894.759 -3.3682 -3.25069 0
M  V30 9291 H 894.932 -4.83458 -4.31477 0
M  V30 9292 N 888.338 1.20213 -1.01915 0
M  V30 9293 C 889.568 1.93341 -0.728197 0
M  V30 9294 C 889.976 1.75151 0.715454 0
M  V30 9295 O 889.319 1.06437 1.49722 0
M  V30 9296 C 889.381 3.45677 -0.9873 0
M  V30 9297 C 889.045 3.8763 -2.42057 0
M  V30 9298 C 890.042 3.93184 -3.40151 0
M  V30 9299 C 887.727 4.19547 -2.76199 0
M  V30 9300 C 889.721 4.30069 -4.70446 0
M  V30 9301 C 887.408 4.56106 -4.06707 0
M  V30 9302 C 888.406 4.6134 -5.03641 0
M  V30 9303 O 888.094 4.97059 -6.31813 0
M  V30 9304 H 887.826 0.621258 -0.266485 0
M  V30 9305 H 890.38 1.53577 -1.36393 0
M  V30 9306 H 888.61 3.85578 -0.294405 0
M  V30 9307 H 890.299 4.00035 -0.687536 0
M  V30 9308 H 891.065 3.68687 -3.15111 0
M  V30 9309 H 886.944 4.14663 -2.01434 0
M  V30 9310 H 890.488 4.34069 -5.46105 0
M  V30 9311 H 886.385 4.80059 -4.31525 0
M  V30 9312 H 887.153 5.15043 -6.36139 0
M  V30 9313 N 889.816 0.795718 1.36037 0
M  V30 9314 C 890.766 0.171437 2.27355 0
M  V30 9315 C 891.75 -0.648346 1.47259 0
M  V30 9316 O 892.942 -0.507386 1.69572 0
M  V30 9317 C 890.071 -0.687876 3.36338 0
M  V30 9318 C 889.157 0.141041 4.23865 0
M  V30 9319 N 889.548 1.19868 4.91391 0
M  V30 9320 C 887.846 -0.0791045 4.4593 0
M  V30 9321 C 888.547 1.70382 5.56188 0
M  V30 9322 N 887.523 1.01202 5.34097 0
M  V30 9323 H 891.325 0.980846 2.7705 0
M  V30 9324 H 888.839 0.635798 1.49437 0
M  V30 9325 H 890.836 -1.15107 4.00694 0
M  V30 9326 H 889.496 -1.49576 2.88196 0
M  V30 9327 H 890.507 1.58119 4.93172 0
M  V30 9328 H 887.184 -0.856993 4.0861 0
M  V30 9329 H 888.574 2.58715 6.20093 0
M  V30 9330 N 891.294 -1.47756 0.548274 0
M  V30 9331 C 892.543 -2.01691 0.0187961 0
M  V30 9332 C 892.856 -1.42894 -1.33569 0
M  V30 9333 O 894.062 -1.88438 -1.95457 0
M  V30 9334 C 892.518 -3.59896 -0.016847 0
M  V30 9335 C 892.126 -4.27683 1.33385 0
M  V30 9336 C 893.87 -4.21614 -0.494188 0
M  V30 9337 C 891.777 -5.7787 1.2578 0
M  V30 9338 H 890.707 -0.753993 0.00325648 0
M  V30 9339 H 893.358 -1.69838 0.694792 0
M  V30 9340 H 891.74 -3.88672 -0.758304 0
M  V30 9341 H 892.914 -4.10559 2.09232 0
M  V30 9342 H 891.229 -3.77915 1.7484 0
M  V30 9343 H 893.826 -5.3166 -0.569342 0
M  V30 9344 H 894.169 -3.88176 -1.50417 0
M  V30 9345 H 894.702 -3.97336 0.192138 0
M  V30 9346 H 891.441 -6.15912 2.2435 0
M  V30 9347 H 890.961 -5.97355 0.540997 0
M  V30 9348 H 892.64 -6.39897 0.956109 0
M  V30 9349 N 892.772 -0.284283 -1.55015 0
M  V30 9350 C 893.722 0.613913 -2.19579 0
M  V30 9351 C 894.706 1.11153 -1.16335 0
M  V30 9352 O 895.898 1.05508 -1.42116 0
M  V30 9353 C 893.027 1.79329 -2.92739 0
M  V30 9354 C 892.113 1.31242 -4.03282 0
M  V30 9355 N 892.504 0.548344 -5.02819 0
M  V30 9356 C 890.802 1.5946 -4.1652 0
M  V30 9357 C 891.503 0.294358 -5.80955 0
M  V30 9358 N 890.479 0.869406 -5.36603 0
M  V30 9359 H 894.281 0.0224088 -2.93891 0
M  V30 9360 H 891.795 -0.0882619 -1.6216 0
M  V30 9361 H 893.792 2.44814 -3.37449 0
M  V30 9362 H 892.452 2.38865 -2.1994 0
M  V30 9363 H 893.463 0.194812 -5.17533 0
M  V30 9364 H 890.14 2.19866 -3.54916 0
M  V30 9365 H 891.53 -0.318195 -6.71146 0
M  V30 9366 N 894.251 1.57596 -0.0117121 0
M  V30 9367 C 895.214 2.08089 0.960816 0
M  V30 9368 C 896.214 0.992519 1.26514 0
M  V30 9369 O 897.404 1.25475 1.20837 0
M  V30 9370 C 894.536 2.53217 2.28241 0
M  V30 9371 H 895.729 2.9529 0.523829 0
M  V30 9372 H 893.282 1.54508 0.235995 0
M  V30 9373 H 894.017 1.69294 2.76604 0
M  V30 9374 H 893.802 3.32714 2.0747 0
M  V30 9375 H 895.292 2.92568 2.97983 0
M  V30 9376 N 895.729 -0.261212 1.5542 0
M  V30 9377 C 896.677 -1.34298 1.89913 0
M  V30 9378 C 897.671 -1.50547 0.776665 0
M  V30 9379 O 898.877 -1.52191 0.961139 0
M  V30 9380 H 895.252 -0.4494 0.602946 0
M  V30 9381 H 897.223 -1.02464 2.80256 0
M  V30 9382 C 895.972 -2.69423 2.19788 0
M  V30 9383 H 895.295 -2.57715 3.05652 0
M  V30 9384 H 896.735 -3.44026 2.47835 0
M  V30 9385 C 895.194 -3.21423 1.00939 0
M  V30 9386 O 895.724 -4.00921 0.250034 0
M  V30 9387 N 893.93 -2.7926 0.803883 0
M  V30 9388 H 893.477 -2.14724 1.42308 0
M  V30 9389 H 893.435 -3.14398 0.0103257 0
M  V30 9390 N 897.207 -1.48554 -0.526253 0
M  V30 9391 C 898.137 -1.66252 -1.63959 0
M  V30 9392 C 899.118 -0.511351 -1.62232 0
M  V30 9393 O 900.303 -0.744322 -1.7937 0
M  V30 9394 C 897.433 -1.70556 -3.02536 0
M  V30 9395 C 896.387 -2.8521 -3.19123 0
M  V30 9396 C 895.713 -2.74606 -4.58798 0
M  V30 9397 C 897.013 -4.26463 -3.0154 0
M  V30 9398 H 898.707 -2.59459 -1.49404 0
M  V30 9399 H 896.253 -1.24862 -0.717326 0
M  V30 9400 H 898.206 -1.81524 -3.80298 0
M  V30 9401 H 896.93 -0.739297 -3.18123 0
M  V30 9402 H 895.589 -2.73802 -2.43779 0
M  V30 9403 H 895.237 -1.75941 -4.71226 0
M  V30 9404 H 894.937 -3.51544 -4.70841 0
M  V30 9405 H 896.461 -2.87548 -5.38655 0
M  V30 9406 H 897.875 -4.38685 -3.69091 0
M  V30 9407 H 896.272 -5.04428 -3.25073 0
M  V30 9408 H 897.342 -4.42667 -1.97925 0
M  V30 9409 N 898.685 0.775411 -1.37205 0
M  V30 9410 C 899.91 1.5696 -1.35567 0
M  V30 9411 C 900.335 1.88012 0.0575554 0
M  V30 9412 O 899.693 1.48954 1.03355 0
M  V30 9413 C 899.741 2.85886 -2.19776 0
M  V30 9414 O 898.845 3.80103 -1.59987 0
M  V30 9415 H 898.186 0.475583 -0.463375 0
M  V30 9416 H 900.716 0.96001 -1.80679 0
M  V30 9417 H 900.726 3.35024 -2.32859 0
M  V30 9418 H 899.401 2.62613 -3.22502 0
M  V30 9419 H 897.978 3.38736 -1.55924 0
M  V30 9420 N 900.163 1.21714 1.00117 0
M  V30 9421 C 901.41 1.0367 1.73951 0
M  V30 9422 C 901.738 -0.429289 1.89703 0
M  V30 9423 O 900.993 -1.33475 1.43119 0
M  V30 9424 C 901.292 1.68345 3.15269 0
M  V30 9425 C 900.958 3.18214 3.19454 0
M  V30 9426 C 899.62 3.59109 3.20303 0
M  V30 9427 C 901.972 4.14179 3.16394 0
M  V30 9428 C 899.3 4.94467 3.15783 0
M  V30 9429 C 901.652 5.49502 3.13416 0
M  V30 9430 C 900.316 5.8979 3.12577 0
M  V30 9431 H 899.586 0.379355 0.63653 0
M  V30 9432 H 902.233 1.51361 1.17312 0
M  V30 9433 H 900.538 1.12957 3.75164 0
M  V30 9434 H 902.235 1.51882 3.71124 0
M  V30 9435 H 898.825 2.85646 3.19538 0
M  V30 9436 H 903.009 3.83607 3.14895 0
M  V30 9437 H 898.265 5.24923 3.13473 0
M  V30 9438 H 902.439 6.23595 3.10003 0
M  V30 9439 H 900.066 6.94643 3.08829 0
M  V30 9440 N 901.641 -1.19671 1.02551 0
M  V30 9441 C 902.604 -2.20987 0.608055 0
M  V30 9442 C 903.604 -1.5745 -0.326534 0
M  V30 9443 O 904.794 -1.73827 -0.114003 0
M  V30 9444 C 901.926 -3.4072 -0.11074 0
M  V30 9445 H 903.119 -2.59434 1.50446 0
M  V30 9446 H 900.672 -1.3329 0.816307 0
M  V30 9447 H 901.407 -3.07787 -1.02165 0
M  V30 9448 H 901.192 -3.88069 0.560772 0
M  V30 9449 H 902.682 -4.15776 -0.389848 0
M  V30 9450 N 903.119 -0.802921 -1.35613 0
M  V30 9451 C 904.365 -0.382141 -1.99167 0
M  V30 9452 C 904.698 1.04704 -1.63556 0
M  V30 9453 O 903.973 1.72578 -0.89706 0
M  V30 9454 C 904.256 -0.561493 -3.55695 0
M  V30 9455 C 904.109 -2.03534 -4.01116 0
M  V30 9456 C 905.428 0.0151135 -4.40097 0
M  V30 9457 H 902.547 -0.140322 -0.723518 0
M  V30 9458 H 905.189 -1.01177 -1.6082 0
M  V30 9459 H 903.339 -0.0255083 -3.88492 0
M  V30 9460 H 905.011 -2.63343 -3.78746 0
M  V30 9461 H 903.254 -2.5331 -3.52159 0
M  V30 9462 H 903.925 -2.11173 -5.1001 0
M  V30 9463 H 906.401 -0.442582 -4.1374 0
M  V30 9464 H 905.277 -0.140316 -5.48721 0
M  V30 9465 H 905.538 1.10848 -4.27978 0
M  V30 9466 N 904.597 1.47463 -0.556102 0
M  V30 9467 C 905.527 2.32801 0.180497 0
M  V30 9468 C 906.508 1.43721 0.909848 0
M  V30 9469 O 907.693 1.72578 0.89053 0
M  V30 9470 C 904.823 3.25478 1.21167 0
M  V30 9471 C 903.777 4.2379 0.598846 0
M  V30 9472 C 903.103 5.05783 1.73457 0
M  V30 9473 C 904.403 5.20387 -0.446659 0
M  V30 9474 H 906.097 2.94636 -0.531956 0
M  V30 9475 H 903.643 1.41683 -0.257267 0
M  V30 9476 H 905.596 3.8402 1.73513 0
M  V30 9477 H 904.32 2.61695 1.95405 0
M  V30 9478 H 902.979 3.66472 0.0966897 0
M  V30 9479 H 902.627 4.38405 2.46596 0
M  V30 9480 H 902.327 5.72343 1.33031 0
M  V30 9481 H 903.851 5.67183 2.26131 0
M  V30 9482 H 905.265 5.73299 -0.00930019 0
M  V30 9483 H 903.662 5.95143 -0.769735 0
M  V30 9484 H 904.732 4.65932 -1.34295 0
M  V30 9485 N 906.075 0.2925 1.54862 0
M  V30 9486 C 907.321 -0.319736 2.00264 0
M  V30 9487 C 907.654 -1.5419 1.18064 0
M  V30 9488 O 906.929 -1.92821 0.254983 0
M  V30 9489 C 907.212 -0.684753 3.5353 0
M  V30 9490 C 907.065 0.545961 4.46474 0
M  V30 9491 C 908.384 -1.51456 4.13218 0
M  V30 9492 H 905.503 -0.11474 0.728014 0
M  V30 9493 H 908.145 0.402907 1.85679 0
M  V30 9494 H 906.295 -1.30044 3.66089 0
M  V30 9495 H 907.967 1.18448 4.45834 0
M  V30 9496 H 906.21 1.1808 4.1742 0
M  V30 9497 H 906.881 0.246544 5.51449 0
M  V30 9498 H 909.357 -0.994421 4.04043 0
M  V30 9499 H 908.233 -1.73875 5.20633 0
M  V30 9500 H 908.494 -2.5011 3.64551 0
M  V30 9501 N 907.553 -1.57587 0.0200696 0
M  V30 9502 C 908.516 -2.08595 -0.949767 0
M  V30 9503 C 909.516 -0.999215 -1.25985 0
M  V30 9504 O 910.706 -1.26115 -1.2017 0
M  V30 9505 C 907.838 -2.54424 -2.26895 0
M  V30 9506 H 909.031 -2.95563 -0.508161 0
M  V30 9507 H 906.584 -1.54631 -0.227798 0
M  V30 9508 H 907.319 -1.70758 -2.75703 0
M  V30 9509 H 907.104 -3.3381 -2.05702 0
M  V30 9510 H 908.594 -2.94144 -2.96427 0
M  V30 9511 N 909.032 0.252966 -1.55557 0
M  V30 9512 C 909.964 1.33585 -1.86246 0
M  V30 9513 C 910.977 1.44584 -0.748291 0
M  V30 9514 O 912.166 1.46042 -1.02635 0
M  V30 9515 C 909.266 2.71509 -2.02821 0
M  V30 9516 C 908.439 2.82853 -3.33636 0
M  V30 9517 C 907.498 4.01581 -3.40028 0
M  V30 9518 O 906.524 3.91394 -4.13278 0
M  V30 9519 N 907.726 5.14474 -2.6888 0
M  V30 9520 H 910.491 1.07596 -2.7972 0
M  V30 9521 H 908.052 0.443075 -1.55719 0
M  V30 9522 H 910.044 3.49262 -2.04445 0
M  V30 9523 H 908.614 2.90232 -1.1612 0
M  V30 9524 H 907.834 1.91823 -3.4438 0
M  V30 9525 H 909.122 2.87378 -4.19871 0
M  V30 9526 H 908.52 5.25641 -2.09087 0
M  V30 9527 H 907.077 5.90385 -2.76204 0
M  V30 9528 N 910.51 1.48831 0.518367 0
M  V30 9529 C 911.756 1.57672 1.27543 0
M  V30 9530 C 912.089 0.254915 1.9252 0
M  V30 9531 O 911.364 -0.740107 1.79868 0
M  V30 9532 C 911.647 2.72345 2.35585 0
M  V30 9533 C 911.5 4.14267 1.75224 0
M  V30 9534 C 912.819 2.82726 3.37274 0
M  V30 9535 H 909.938 0.573926 0.462361 0
M  V30 9536 H 912.58 1.8105 0.576267 0
M  V30 9537 H 910.73 2.52543 2.95219 0
M  V30 9538 H 912.402 4.45539 1.19551 0
M  V30 9539 H 910.645 4.20724 1.05706 0
M  V30 9540 H 911.316 4.90345 2.53507 0
M  V30 9541 H 913.792 3.00699 2.8761 0
M  V30 9542 H 912.668 3.6467 4.10252 0
M  V30 9543 H 912.929 1.9136 3.9854 0
M  V30 9544 N 911.988 -0.768124 1.37614 0
M  V30 9545 C 912.918 -1.89537 1.36374 0
M  V30 9546 C 913.899 -1.68513 0.231803 0
M  V30 9547 O 915.084 -1.89318 0.432705 0
M  V30 9548 C 912.214 -3.26871 1.17358 0
M  V30 9549 C 911.168 -3.62466 2.27602 0
M  V30 9550 C 910.494 -4.9838 1.93705 0
M  V30 9551 C 911.794 -3.68841 3.69802 0
M  V30 9552 H 913.488 -1.90832 2.30702 0
M  V30 9553 H 911.034 -0.91672 1.11051 0
M  V30 9554 H 912.987 -4.05371 1.15119 0
M  V30 9555 H 911.711 -3.26018 0.194865 0
M  V30 9556 H 910.37 -2.86276 2.29002 0
M  V30 9557 H 910.018 -4.94071 0.943539 0
M  V30 9558 H 909.718 -5.23165 2.6753 0
M  V30 9559 H 911.242 -5.79276 1.93059 0
M  V30 9560 H 912.656 -4.37485 3.70513 0
M  V30 9561 H 911.053 -4.05126 4.42711 0
M  V30 9562 H 912.123 -2.69415 4.03167 0
M  V30 9563 N 913.466 -1.22244 -0.994698 0
M  V30 9564 C 914.396 -1.01513 -2.10279 0
M  V30 9565 C 915.377 0.0633365 -1.69982 0
M  V30 9566 O 916.562 -0.0985268 -1.9395 0
M  V30 9567 C 913.692 -0.59016 -3.42249 0
M  V30 9568 C 912.646 -1.61436 -3.96387 0
M  V30 9569 C 911.972 -1.04528 -5.24383 0
M  V30 9570 C 913.272 -3.00388 -4.27276 0
M  V30 9571 H 914.966 -1.94194 -2.2788 0
M  V30 9572 H 912.512 -0.935094 -1.09508 0
M  V30 9573 H 914.465 -0.432254 -4.19177 0
M  V30 9574 H 913.189 0.372308 -3.24471 0
M  V30 9575 H 911.848 -1.76001 -3.21589 0
M  V30 9576 H 911.496 -0.0742225 -5.02945 0
M  V30 9577 H 911.196 -1.72949 -5.61571 0
M  V30 9578 H 912.72 -0.898922 -6.03947 0
M  V30 9579 H 914.134 -2.89207 -4.95007 0
M  V30 9580 H 912.531 -3.65916 -4.75631 0
M  V30 9581 H 913.601 -3.50456 -3.35125 0
M  V30 9582 N 914.944 1.19125 -1.03184 0
M  V30 9583 C 915.874 2.24675 -0.635889 0
M  V30 9584 C 916.855 1.66321 0.356565 0
M  V30 9585 O 918.04 1.92728 0.238625 0
M  V30 9586 C 915.17 3.47298 0.011069 0
M  V30 9587 C 914.124 4.18345 -0.903979 0
M  V30 9588 C 913.45 5.34561 -0.12197 0
M  V30 9589 C 914.75 4.72816 -2.21907 0
M  V30 9590 H 916.444 2.5805 -1.51825 0
M  V30 9591 H 913.99 1.24039 -0.73146 0
M  V30 9592 H 915.943 4.20333 0.299729 0
M  V30 9593 H 914.667 3.13131 0.928245 0
M  V30 9594 H 913.326 3.47196 -1.17688 0
M  V30 9595 H 912.974 4.9664 0.797334 0
M  V30 9596 H 912.674 5.83029 -0.731498 0
M  V30 9597 H 914.198 6.10391 0.159881 0
M  V30 9598 H 915.612 5.3759 -1.99173 0
M  V30 9599 H 914.009 5.31782 -2.78078 0
M  V30 9600 H 915.079 3.9072 -2.87168 0
M  V30 9601 N 916.422 0.810101 1.35185 0
M  V30 9602 C 917.671 0.388589 1.97921 0
M  V30 9603 C 917.984 -1.05079 1.64978 0
M  V30 9604 O 919.19 -1.57559 2.21105 0
M  V30 9605 C 917.646 0.643864 3.54094 0
M  V30 9606 C 917.254 2.09602 3.95943 0
M  V30 9607 C 918.998 0.287883 4.23523 0
M  V30 9608 C 916.905 2.29686 5.44976 0
M  V30 9609 H 915.835 0.141562 0.740592 0
M  V30 9610 H 918.486 0.994653 1.54204 0
M  V30 9611 H 916.868 -0.0321978 3.95987 0
M  V30 9612 H 918.042 2.81018 3.65192 0
M  V30 9613 H 916.357 2.4122 3.39414 0
M  V30 9614 H 918.954 0.415946 5.3308 0
M  V30 9615 H 919.297 -0.766305 4.09186 0
M  V30 9616 H 919.83 0.918004 3.87063 0
M  V30 9617 H 916.569 3.33563 5.64284 0
M  V30 9618 H 916.089 1.62798 5.77284 0
M  V30 9619 H 917.768 2.11411 6.11485 0
M  V30 9620 N 917.9 -1.47166 0.563914 0
M  V30 9621 C 919.125 -2.0735 0.0454698 0
M  V30 9622 C 919.55 -1.41281 -1.24182 0
M  V30 9623 O 918.908 -0.490084 -1.7455 0
M  V30 9624 C 918.956 -3.60378 -0.126453 0
M  V30 9625 O 918.06 -3.94934 -1.18746 0
M  V30 9626 H 917.401 -0.661773 0.0543377 0
M  V30 9627 H 919.931 -1.89086 0.781508 0
M  V30 9628 H 919.941 -4.06593 -0.338554 0
M  V30 9629 H 918.616 -4.07862 0.81373 0
M  V30 9630 H 917.193 -3.60455 -0.955318 0
M  V30 9631 N 919.378 -0.300708 -1.54705 0
M  V30 9632 C 920.625 0.308654 -2.00134 0
M  V30 9633 C 920.953 1.53918 -1.1891 0
M  V30 9634 O 920.208 1.94054 -0.253263 0
M  V30 9635 C 920.507 0.710108 -3.50275 0
M  V30 9636 C 920.173 -0.418651 -4.48952 0
M  V30 9637 C 918.835 -0.728524 -4.75653 0
M  V30 9638 C 921.187 -1.17797 -5.07714 0
M  V30 9639 C 918.515 -1.80085 -5.58378 0
M  V30 9640 C 920.867 -2.24022 -5.91606 0
M  V30 9641 C 919.531 -2.55616 -6.16617 0
M  V30 9642 H 918.801 0.112945 -0.732342 0
M  V30 9643 H 921.448 -0.419744 -1.86843 0
M  V30 9644 H 919.753 1.51859 -3.61173 0
M  V30 9645 H 921.45 1.19277 -3.8285 0
M  V30 9646 H 918.04 -0.167034 -4.28274 0
M  V30 9647 H 922.224 -0.951835 -4.87087 0
M  V30 9648 H 917.48 -2.05036 -5.75995 0
M  V30 9649 H 921.654 -2.83317 -6.36164 0
M  V30 9650 H 919.281 -3.38839 -6.80509 0
M  V30 9651 N 920.856 1.57574 -0.0284266 0
M  V30 9652 C 922.272 1.56194 0.327958 0
M  V30 9653 C 922.472 1.03397 1.72949 0
M  V30 9654 O 921.528 0.680392 2.4316 0
M  V30 9655 C 922.841 3.00177 0.177196 0
M  V30 9656 C 924.389 3.12 0.250014 0
M  V30 9657 C 924.864 4.57821 0.128049 0
M  V30 9658 N 926.355 4.6283 0.185054 0
M  V30 9659 C 927.09 5.73286 0.114454 0
M  V30 9660 N 926.586 6.928 -0.00719225 0
M  V30 9661 N 928.379 5.61848 0.16839 0
M  V30 9662 H 920.53 1.90224 -0.944921 0
M  V30 9663 H 922.793 0.874987 -0.364832 0
M  V30 9664 H 922.499 3.42753 -0.788224 0
M  V30 9665 H 922.373 3.65101 0.94768 0
M  V30 9666 H 924.76 2.69337 1.20589 0
M  V30 9667 H 924.841 2.49799 -0.550835 0
M  V30 9668 H 924.485 5.01165 -0.824407 0
M  V30 9669 H 924.415 5.18001 0.947753 0
M  V30 9670 H 926.906 3.76867 0.279247 0
M  V30 9671 H 927.219 7.72781 -0.0543903 0
M  V30 9672 H 925.564 6.94987 -0.0419648 0
M  V30 9673 H 928.755 4.67367 0.261821 0
M  V30 9674 H 928.928 6.47907 0.109908 0
M  V30 9675 N 922.334 -0.244713 1.55689 0
M  V30 9676 C 923.264 -1.30667 1.93516 0
M  V30 9677 C 924.245 -1.50094 0.800371 0
M  V30 9678 O 925.43 -1.62665 1.06083 0
M  V30 9679 C 922.56 -2.66101 2.23176 0
M  V30 9680 C 921.514 -2.61366 3.38927 0
M  V30 9681 C 920.84 -4.00616 3.54134 0
M  V30 9682 C 922.14 -2.18161 4.74555 0
M  V30 9683 H 923.834 -0.992546 2.82469 0
M  V30 9684 H 921.38 -0.476018 1.35905 0
M  V30 9685 H 923.333 -3.4053 2.48228 0
M  V30 9686 H 922.057 -2.99154 1.31051 0
M  V30 9687 H 920.716 -1.89395 3.13887 0
M  V30 9688 H 920.364 -4.30938 2.59426 0
M  V30 9689 H 920.064 -3.98335 4.31975 0
M  V30 9690 H 921.588 -4.76741 3.8151 0
M  V30 9691 H 923.002 -2.82323 4.98965 0
M  V30 9692 H 921.399 -2.26988 5.55515 0
M  V30 9693 H 922.469 -1.13333 4.7147 0
M  V30 9694 N 923.813 -1.49104 -0.510467 0
M  V30 9695 C 924.723 -1.67792 -1.6396 0
M  V30 9696 C 925.739 -0.560454 -1.64727 0
M  V30 9697 O 926.915 -0.833985 -1.83321 0
M  V30 9698 C 923.98 -1.73154 -3.00364 0
M  V30 9699 C 923.041 -2.9667 -3.10299 0
M  V30 9700 C 922.274 -3.01767 -4.40196 0
M  V30 9701 O 922.497 -2.1472 -5.28443 0
M  V30 9702 O 921.431 -3.94137 -4.54906 0
M  V30 9703 H 925.257 -2.63428 -1.51126 0
M  V30 9704 H 922.842 -1.32734 -0.685719 0
M  V30 9705 H 924.724 -1.79089 -3.81451 0
M  V30 9706 H 923.399 -0.806952 -3.1348 0
M  V30 9707 H 922.306 -2.96257 -2.28435 0
M  V30 9708 H 923.639 -3.88578 -3.02106 0
M  V30 9709 N 925.291 0.760815 -1.38019 0
M  V30 9710 C 926.702 1.33773 -1.30237 0
M  V30 9711 C 927.053 1.96148 0.0451153 0
M  V30 9712 O 926.178 1.94574 0.9471 0
M  V30 9713 C 926.773 2.43227 -2.35851 0
M  V30 9714 C 925.332 2.96659 -2.31669 0
M  V30 9715 C 924.479 1.69972 -2.191 0
M  V30 9716 H 927.43 0.560237 -1.48482 0
M  V30 9717 H 927.451 3.22985 -2.01149 0
M  V30 9718 H 926.963 1.978 -3.33911 0
M  V30 9719 H 925.064 3.46433 -1.37167 0
M  V30 9720 H 925.177 3.51529 -3.25521 0
M  V30 9721 H 923.541 1.9332 -1.65829 0
M  V30 9722 H 924.324 1.26633 -3.19091 0
M  V30 9723 N 926.769 1.22769 0.988202 0
M  V30 9724 C 928.017 1.05301 1.725 0
M  V30 9725 C 928.338 -0.412103 1.90596 0
M  V30 9726 O 927.608 -1.29606 1.46898 0
M  V30 9727 H 926.188 0.386658 0.639144 0
M  V30 9728 H 928.85 1.54359 1.18993 0
M  V30 9729 H 927.946 1.53465 2.71763 0
M  V30 9730 N 928.247 -1.18576 1.03814 0
M  V30 9731 C 929.475 -1.92437 0.759966 0
M  V30 9732 C 929.89 -1.76031 -0.682526 0
M  V30 9733 O 929.247 -1.08829 -1.46501 0
M  V30 9734 C 929.298 -3.43923 1.11351 0
M  V30 9735 O 929.019 -3.5981 2.49937 0
M  V30 9736 C 930.52 -4.34888 0.859472 0
M  V30 9737 H 927.74 -0.610998 0.277349 0
M  V30 9738 H 930.284 -1.50448 1.38512 0
M  V30 9739 H 928.439 -3.83711 0.533362 0
M  V30 9740 H 928.853 -4.53569 2.63393 0
M  V30 9741 H 930.327 -5.39744 1.15672 0
M  V30 9742 H 930.804 -4.38717 -0.205839 0
M  V30 9743 H 931.41 -4.00795 1.42279 0
M  V30 9744 N 929.725 -0.817259 -1.34754 0
M  V30 9745 C 930.953 -0.415451 -2.02686 0
M  V30 9746 C 931.368 0.97688 -1.61563 0
M  V30 9747 O 930.725 1.63125 -0.818321 0
M  V30 9748 C 930.776 -0.501486 -3.58005 0
M  V30 9749 O 930.497 -1.83893 -3.97637 0
M  V30 9750 C 931.998 -0.0938504 -4.43201 0
M  V30 9751 H 929.218 -0.16742 -0.649778 0
M  V30 9752 H 931.762 -1.10384 -1.7215 0
M  V30 9753 H 929.917 0.138766 -3.87151 0
M  V30 9754 H 930.331 -1.8092 -4.92309 0
M  V30 9755 H 931.805 -0.205145 -5.51619 0
M  V30 9756 H 932.282 0.962011 -4.28535 0
M  V30 9757 H 932.888 -0.707677 -4.19371 0
M  V30 9758 N 931.203 1.46865 -0.571711 0
M  V30 9759 C 932.614 1.86158 -0.142181 0
M  V30 9760 C 932.965 1.47663 1.2919 0
M  V30 9761 O 932.09 0.886393 1.97413 0
M  V30 9762 C 932.685 3.37867 -0.251256 0
M  V30 9763 C 931.244 3.76198 0.123329 0
M  V30 9764 C 930.391 2.70902 -0.592232 0
M  V30 9765 H 933.342 1.38176 -0.780587 0
M  V30 9766 H 933.363 3.76842 0.526331 0
M  V30 9767 H 932.875 3.65853 -1.2951 0
M  V30 9768 H 930.976 3.53829 1.16773 0
M  V30 9769 H 931.089 4.78471 -0.24533 0
M  V30 9770 H 929.453 2.54678 -0.0336927 0
M  V30 9771 H 930.236 3.01729 -1.63751 0
M  V30 9772 N 932.681 0.308908 1.54543 0
M  V30 9773 C 933.921 -0.298811 2.02204 0
M  V30 9774 C 934.285 -1.50484 1.19242 0
M  V30 9775 O 935.486 -2.18445 1.56637 0
M  V30 9776 C 933.757 -0.638849 3.51644 0
M  V30 9777 S 935.316 -1.22831 4.21258 0
M  V30 9778 H 932.134 -0.0912638 0.705118 0
M  V30 9779 H 934.736 0.438622 1.90516 0
M  V30 9780 H 933.44 0.24726 4.09654 0
M  V30 9781 H 932.971 -1.40687 3.67384 0
M  V30 9782 H 934.986 -2.51579 4.27694 0
M  V30 9783 N 934.159 -1.57557 0.0367827 0
M  V30 9784 C 935.091 -2.07597 -0.971395 0
M  V30 9785 C 936.104 -1.0009 -1.28397 0
M  V30 9786 O 937.293 -1.27692 -1.24728 0
M  V30 9787 C 934.393 -2.492 -2.2968 0
M  V30 9788 C 933.566 -3.79875 -2.16826 0
M  V30 9789 C 932.625 -4.07946 -3.32366 0
M  V30 9790 O 931.651 -4.78083 -3.0891 0
M  V30 9791 N 932.853 -3.58722 -4.56397 0
M  V30 9792 H 935.618 -2.94714 -0.544389 0
M  V30 9793 H 933.179 -1.61205 -0.1498 0
M  V30 9794 H 935.171 -2.65065 -3.05815 0
M  V30 9795 H 933.741 -1.67407 -2.63995 0
M  V30 9796 H 932.961 -3.73732 -1.2537 0
M  V30 9797 H 934.249 -4.65476 -2.0545 0
M  V30 9798 H 933.647 -3.01994 -4.78347 0
M  V30 9799 H 932.204 -3.79852 -5.29675 0
M  V30 9800 N 935.637 0.236453 -1.55816 0
M  V30 9801 C 936.883 0.964439 -1.784 0
M  V30 9802 C 937.216 1.84573 -0.603868 0
M  V30 9803 O 936.491 1.90395 0.397473 0
M  V30 9804 C 936.774 1.81608 -3.10951 0
M  V30 9805 C 936.627 0.962283 -4.39386 0
M  V30 9806 C 937.946 2.79665 -3.39817 0
M  V30 9807 H 935.065 0.349192 -0.649026 0
M  V30 9808 H 937.707 0.234247 -1.8855 0
M  V30 9809 H 935.857 2.43864 -3.02428 0
M  V30 9810 H 937.529 0.35762 -4.59912 0
M  V30 9811 H 935.772 0.267062 -4.32977 0
M  V30 9812 H 936.443 1.59222 -5.28538 0
M  V30 9813 H 938.919 2.27546 -3.4837 0
M  V30 9814 H 937.795 3.36367 -4.33761 0
M  V30 9815 H 938.056 3.56657 -2.61244 0
M  V30 9816 N 937.115 1.49373 0.502552 0
M  V30 9817 C 938.048 1.60529 1.6219 0
M  V30 9818 C 939.026 0.454431 1.56121 0
M  V30 9819 O 940.21 0.669768 1.762 0
M  V30 9820 C 937.337 1.55879 3.00698 0
M  V30 9821 C 936.383 2.76143 3.25034 0
M  V30 9822 S 937.216 4.37831 3.08325 0
M  V30 9823 C 938.372 4.35824 4.49231 0
M  V30 9824 H 938.605 2.55219 1.52482 0
M  V30 9825 H 936.138 1.38244 0.687594 0
M  V30 9826 H 938.096 1.53882 3.80566 0
M  V30 9827 H 936.757 0.624791 3.07823 0
M  V30 9828 H 935.95 2.69104 4.26144 0
M  V30 9829 H 935.552 2.75544 2.52886 0
M  V30 9830 H 937.844 4.07447 5.41288 0
M  V30 9831 H 938.787 5.37206 4.6132 0
M  V30 9832 H 939.195 3.65923 4.29838 0
M  V30 9833 N 938.594 -0.753485 1.38421 0
M  V30 9834 C 939.557 -1.84888 1.35459 0
M  V30 9835 C 940.557 -1.58764 0.255083 0
M  V30 9836 O 941.747 -1.66507 0.511978 0
M  V30 9837 C 938.879 -3.22361 1.10888 0
M  V30 9838 H 940.072 -1.88922 2.32913 0
M  V30 9839 H 937.625 -0.955199 1.23716 0
M  V30 9840 H 938.36 -3.23996 0.1404 0
M  V30 9841 H 938.145 -3.42717 1.90492 0
M  V30 9842 H 939.635 -4.02437 1.1151 0
M  V30 9843 N 940.072 -1.23292 -0.981677 0
M  V30 9844 C 941.318 -1.06582 -1.72535 0
M  V30 9845 C 941.651 0.396538 -1.90108 0
M  V30 9846 O 940.926 1.29363 -1.45243 0
M  V30 9847 C 941.209 -1.7904 -3.12437 0
M  V30 9848 C 941.062 -3.32941 -3.02441 0
M  V30 9849 C 942.381 -1.55185 -4.11832 0
M  V30 9850 H 939.5 -0.388585 -0.626236 0
M  V30 9851 H 942.142 -1.51779 -1.14293 0
M  V30 9852 H 940.292 -1.40619 -3.62158 0
M  V30 9853 H 941.964 -3.80875 -2.60254 0
M  V30 9854 H 940.207 -3.62039 -2.38977 0
M  V30 9855 H 940.878 -3.78827 -4.0149 0
M  V30 9856 H 943.354 -1.88581 -3.70913 0
M  V30 9857 H 942.23 -2.08362 -5.07815 0
M  V30 9858 H 942.491 -0.486925 -4.3941 0
M  V30 9859 N 941.55 1.18024 -1.04442 0
M  V30 9860 C 942.48 2.23988 -0.659683 0
M  V30 9861 C 943.461 1.6669 0.338904 0
M  V30 9862 O 944.646 1.92971 0.21817 0
M  V30 9863 C 941.776 3.4729 -0.0257672 0
M  V30 9864 C 940.73 4.17362 -0.948299 0
M  V30 9865 C 940.056 5.34401 -0.17866 0
M  V30 9866 C 941.356 4.70435 -2.26909 0
M  V30 9867 H 943.05 2.56425 -1.54553 0
M  V30 9868 H 940.596 1.23256 -0.744575 0
M  V30 9869 H 942.549 4.20627 0.255131 0
M  V30 9870 H 941.273 3.14098 0.894981 0
M  V30 9871 H 939.932 3.45928 -1.21364 0
M  V30 9872 H 939.58 4.97458 0.744614 0
M  V30 9873 H 939.28 5.8222 -0.793294 0
M  V30 9874 H 940.804 6.10526 0.0951315 0
M  V30 9875 H 942.218 5.35447 -2.04864 0
M  V30 9876 H 940.615 5.28803 -2.83703 0
M  V30 9877 H 941.685 3.87653 -2.91296 0
M  V30 9878 N 943.028 0.824394 1.34319 0
M  V30 9879 C 943.958 0.262077 2.32025 0
M  V30 9880 C 944.939 -0.622277 1.58309 0
M  V30 9881 O 946.124 -0.548848 1.86283 0
M  V30 9882 C 943.254 -0.57567 3.42496 0
M  V30 9883 C 942.208 0.21167 4.27476 0
M  V30 9884 C 941.534 -0.748913 5.29429 0
M  V30 9885 C 942.834 1.42068 5.02607 0
M  V30 9886 H 944.528 1.07842 2.79304 0
M  V30 9887 H 942.074 0.520022 1.34282 0
M  V30 9888 H 944.027 -0.979251 4.09864 0
M  V30 9889 H 942.751 -1.42508 2.93869 0
M  V30 9890 H 941.41 0.596636 3.61712 0
M  V30 9891 H 941.058 -1.59432 4.77064 0
M  V30 9892 H 940.758 -0.226313 5.87164 0
M  V30 9893 H 942.282 -1.15032 5.99667 0
M  V30 9894 H 943.696 1.09103 5.62823 0
M  V30 9895 H 942.093 1.87903 5.69923 0
M  V30 9896 H 943.163 2.1981 4.32217 0
M  V30 9897 N 944.506 -1.46559 0.579492 0
M  V30 9898 C 945.456 -2.27316 -0.17645 0
M  V30 9899 C 946.44 -1.35681 -0.864835 0
M  V30 9900 O 947.632 -1.59879 -0.759462 0
M  V30 9901 C 944.761 -3.21957 -1.19157 0
M  V30 9902 C 943.847 -4.21077 -0.505459 0
M  V30 9903 N 944.238 -5.03908 0.437133 0
M  V30 9904 C 942.536 -4.39535 -0.75661 0
M  V30 9905 C 943.237 -5.75635 0.837819 0
M  V30 9906 N 942.213 -5.43276 0.187679 0
M  V30 9907 H 946.015 -2.88747 0.547932 0
M  V30 9908 H 943.529 -1.5737 0.401048 0
M  V30 9909 H 945.526 -3.78518 -1.74728 0
M  V30 9910 H 944.186 -2.62085 -1.9168 0
M  V30 9911 H 945.197 -5.11487 0.812488 0
M  V30 9912 H 941.874 -3.90815 -1.46867 0
M  V30 9913 H 943.264 -6.52235 1.61364 0
M  V30 9914 N 945.984 -0.3171 -1.54377 0
M  V30 9915 C 947.214 0.289138 -2.04567 0
M  V30 9916 C 947.622 1.46833 -1.19318 0
M  V30 9917 O 946.965 1.82436 -0.215141 0
M  V30 9918 C 947.027 0.792994 -3.50645 0
M  V30 9919 C 946.691 -0.263033 -4.56242 0
M  V30 9920 C 947.688 -1.09694 -5.08196 0
M  V30 9921 C 945.373 -0.409364 -5.00629 0
M  V30 9922 C 947.367 -2.06297 -6.03092 0
M  V30 9923 C 945.054 -1.37882 -5.95342 0
M  V30 9924 C 946.052 -2.20409 -6.46459 0
M  V30 9925 O 945.74 -3.15708 -7.39313 0
M  V30 9926 H 945.472 0.0644005 -0.672925 0
M  V30 9927 H 948.026 -0.459438 -2.00196 0
M  V30 9928 H 946.256 1.59237 -3.52392 0
M  V30 9929 H 947.945 1.31687 -3.83944 0
M  V30 9930 H 948.711 -0.994842 -4.74687 0
M  V30 9931 H 944.59 0.223091 -4.6046 0
M  V30 9932 H 948.134 -2.70751 -6.42915 0
M  V30 9933 H 944.031 -1.48158 -6.28267 0
M  V30 9934 H 944.799 -3.10873 -7.57166 0
M  V30 9935 N 947.462 1.57535 -0.0451378 0
M  V30 9936 C 948.709 1.92451 0.629987 0
M  V30 9937 C 949.037 0.92298 1.71206 0
M  V30 9938 O 948.292 -0.0656626 1.9559 0
M  V30 9939 C 948.591 3.34065 1.27024 0
M  V30 9940 C 948.257 4.49785 0.316971 0
M  V30 9941 C 946.919 4.81169 0.0546406 0
M  V30 9942 C 949.271 5.20111 -0.336693 0
M  V30 9943 C 946.599 5.8023 -0.86889 0
M  V30 9944 C 948.951 6.2016 -1.24838 0
M  V30 9945 C 947.615 6.49976 -1.51944 0
M  V30 9946 H 946.885 0.704228 0.230529 0
M  V30 9947 H 949.532 1.91182 -0.110328 0
M  V30 9948 H 947.837 3.31672 2.08568 0
M  V30 9949 H 949.534 3.58359 1.79945 0
M  V30 9950 H 946.124 4.2529 0.531614 0
M  V30 9951 H 950.308 4.96082 -0.147105 0
M  V30 9952 H 945.564 6.0167 -1.08643 0
M  V30 9953 H 949.738 6.73767 -1.76098 0
M  V30 9954 H 947.365 7.26551 -2.2367 0
M  V30 9955 N 948.94 -0.228186 1.55939 0
M  V30 9956 C 950.187 -0.953552 1.78644 0
M  V30 9957 C 950.515 -1.84596 0.61275 0
M  V30 9958 O 949.77 -1.91502 -0.403175 0
M  V30 9959 C 950.069 -1.82924 3.0704 0
M  V30 9960 C 949.735 -1.09062 4.37511 0
M  V30 9961 C 948.397 -0.886565 4.72962 0
M  V30 9962 C 950.749 -0.568533 5.1809 0
M  V30 9963 C 948.077 -0.148413 5.86512 0
M  V30 9964 C 950.429 0.156243 6.32407 0
M  V30 9965 C 949.093 0.371612 6.66465 0
M  V30 9966 H 948.363 -0.348929 0.653704 0
M  V30 9967 H 951.01 -0.222211 1.90206 0
M  V30 9968 H 949.315 -2.62823 2.90571 0
M  V30 9969 H 951.012 -2.3925 3.21808 0
M  V30 9970 H 947.602 -1.25963 4.09672 0
M  V30 9971 H 951.786 -0.713673 4.91142 0
M  V30 9972 H 947.042 0.0287418 6.11393 0
M  V30 9973 H 951.216 0.568333 6.94077 0
M  V30 9974 H 948.843 0.945522 7.54297 0
M  V30 9975 N 950.418 -1.49637 -0.494624 0
M  V30 9976 C 951.348 -1.69692 -1.60396 0
M  V30 9977 C 952.329 -0.545648 -1.61111 0
M  V30 9978 O 953.514 -0.782202 -1.77751 0
M  V30 9979 C 950.644 -1.76934 -2.9885 0
M  V30 9980 C 949.598 -2.91915 -3.13001 0
M  V30 9981 C 948.924 -2.84276 -4.5287 0
M  V30 9982 C 950.224 -4.32764 -2.92426 0
M  V30 9983 H 951.918 -2.6257 -1.43866 0
M  V30 9984 H 949.464 -1.26355 -0.690679 0
M  V30 9985 H 951.417 -1.8955 -3.76362 0
M  V30 9986 H 950.141 -0.806609 -3.16483 0
M  V30 9987 H 948.8 -2.78911 -2.37916 0
M  V30 9988 H 948.448 -1.85897 -4.67388 0
M  V30 9989 H 948.148 -3.61452 -4.63278 0
M  V30 9990 H 949.672 -2.98909 -5.32434 0
M  V30 9991 H 951.086 -4.46415 -3.59703 0
M  V30 9992 H 949.483 -5.1121 -3.143 0
M  V30 9993 H 950.553 -4.46765 -1.88491 0
M  V30 9994 N 951.896 0.746133 -1.38819 0
M  V30 9995 C 953.121 1.54049 -1.38866 0
M  V30 9996 C 953.546 1.88092 0.0176624 0
M  V30 9997 O 952.904 1.51113 1.00173 0
M  V30 9998 C 952.952 2.8116 -2.25791 0
M  V30 9999 O 952.056 3.76623 -1.68014 0
M  V30 10000 H 951.397 0.465648 -0.473359 0
M  V30 10001 H 953.927 0.921469 -1.82675 0
M  V30 10002 H 953.937 3.30009 -2.39913 0
M  V30 10003 H 952.612 2.55713 -3.27999 0
M  V30 10004 H 951.189 3.35352 -1.63074 0
M  V30 10005 N 953.375 1.23811 0.975125 0
M  V30 10006 C 954.338 1.02505 2.05001 0
M  V30 10007 C 955.338 -0.0150084 1.60793 0
M  V30 10008 O 956.528 0.225246 1.72738 0
M  V30 10009 C 953.66 0.552087 3.364 0
M  V30 10010 H 954.853 1.979 2.25335 0
M  V30 10011 H 952.406 1.05929 1.1493 0
M  V30 10012 H 953.141 -0.405394 3.21756 0
M  V30 10013 H 952.926 1.30267 3.69828 0
M  V30 10014 H 954.416 0.423828 4.15444 0
M  V30 10015 N 954.853 -1.17469 1.05066 0
M  V30 10016 C 956.1 -1.87698 0.759987 0
M  V30 10017 C 956.428 -1.80964 -0.712902 0
M  V30 10018 O 955.683 -1.21146 -1.53695 0
M  V30 10019 C 955.982 -3.37211 1.18421 0
M  V30 10020 C 955.648 -3.64148 2.65909 0
M  V30 10021 C 954.31 -3.71209 3.06199 0
M  V30 10022 C 956.662 -3.75724 3.61222 0
M  V30 10023 C 953.99 -3.87334 4.40669 0
M  V30 10024 C 956.342 -3.93368 4.95424 0
M  V30 10025 C 955.006 -3.98667 5.3537 0
M  V30 10026 H 954.276 -0.686835 0.278099 0
M  V30 10027 H 956.923 -1.38975 1.31751 0
M  V30 10028 H 955.228 -3.87982 0.545654 0
M  V30 10029 H 956.925 -3.89911 0.936518 0
M  V30 10030 H 953.515 -3.59276 2.33707 0
M  V30 10031 H 957.699 -3.69591 3.31235 0
M  V30 10032 H 952.955 -3.89685 4.71122 0
M  V30 10033 H 957.129 -4.01267 5.69173 0
M  V30 10034 H 954.756 -4.10915 6.39572 0
M  V30 10035 N 956.331 -0.831506 -1.3388 0
M  V30 10036 C 957.294 -0.264773 -2.27666 0
M  V30 10037 C 958.294 0.562273 -1.50649 0
M  V30 10038 O 959.484 0.377131 -1.70069 0
M  V30 10039 C 956.616 0.627814 -3.35069 0
M  V30 10040 H 957.809 -1.09225 -2.79303 0
M  V30 10041 H 955.362 -0.604021 -1.44157 0
M  V30 10042 H 956.097 1.47802 -2.88661 0
M  V30 10043 H 955.882 0.0361552 -3.92083 0
M  V30 10044 H 957.372 1.01786 -4.05005 0
M  V30 10045 N 957.809 1.4625 -0.587256 0
M  V30 10046 C 959.055 2.0323 -0.0830359 0
M  V30 10047 C 959.41 1.45007 1.26455 0
M  V30 10048 O 958.703 0.607494 1.81714 0
M  V30 10049 C 958.897 3.57382 0.036328 0
M  V30 10050 C 958.726 4.30556 -1.29814 0
M  V30 10051 C 957.496 4.69285 -1.87349 0
M  V30 10052 C 959.694 4.63806 -2.22236 0
M  V30 10053 N 957.676 5.27229 -3.14488 0
M  V30 10054 C 959.047 5.22368 -3.33964 0
M  V30 10055 C 961.102 4.45738 -2.2186 0
M  V30 10056 C 959.805 5.64769 -4.45454 0
M  V30 10057 C 961.831 4.89158 -3.32383 0
M  V30 10058 C 961.193 5.47795 -4.42832 0
M  V30 10059 H 957.292 0.77856 -0.0732716 0
M  V30 10060 H 959.876 1.78343 -0.781152 0
M  V30 10061 H 958.047 3.81973 0.703621 0
M  V30 10062 H 959.779 4.01009 0.545347 0
M  V30 10063 H 956.534 4.5219 -1.40789 0
M  V30 10064 H 956.958 5.60719 -3.79372 0
M  V30 10065 H 961.6 3.99735 -1.37739 0
M  V30 10066 H 959.318 6.09748 -5.30314 0
M  V30 10067 H 962.904 4.76926 -3.33216 0
M  V30 10068 H 961.784 5.80778 -5.26941 0
M  V30 10069 N 959.287 0.325282 1.54207 0
M  V30 10070 C 960.22 -0.582485 2.20641 0
M  V30 10071 C 961.198 -1.11441 1.18405 0
M  V30 10072 O 962.382 -1.17809 1.4715 0
M  V30 10073 C 959.509 -1.79944 2.86946 0
M  V30 10074 C 958.555 -1.39861 4.02916 0
M  V30 10075 S 959.388 -0.433859 5.3374 0
M  V30 10076 C 960.544 -1.65806 6.03539 0
M  V30 10077 H 960.777 -0.0181601 2.97294 0
M  V30 10078 H 958.31 0.109365 1.54012 0
M  V30 10079 H 960.268 -2.4977 3.25769 0
M  V30 10080 H 958.929 -2.33495 2.10092 0
M  V30 10081 H 958.122 -2.30547 4.48179 0
M  V30 10082 H 957.724 -0.780036 3.65775 0
M  V30 10083 H 960.016 -2.59524 6.25822 0
M  V30 10084 H 960.959 -1.24756 6.97023 0
M  V30 10085 H 961.367 -1.84581 5.3347 0
M  V30 10086 N 960.765 -1.57509 0.0534917 0
M  V30 10087 C 961.695 -2.14698 -0.917999 0
M  V30 10088 C 962.676 -1.06924 -1.32292 0
M  V30 10089 O 963.861 -1.34875 -1.39723 0
M  V30 10090 C 960.991 -2.69383 -2.19203 0
M  V30 10091 C 959.945 -3.82161 -1.9271 0
M  V30 10092 C 959.271 -4.23373 -3.26587 0
M  V30 10093 C 960.571 -5.07199 -1.24686 0
M  V30 10094 H 962.265 -2.96125 -0.44165 0
M  V30 10095 H 959.811 -1.42446 -0.210993 0
M  V30 10096 H 961.764 -3.08031 -2.87567 0
M  V30 10097 H 960.488 -1.85151 -2.69048 0
M  V30 10098 H 959.147 -3.43989 -1.26757 0
M  V30 10099 H 958.795 -3.36089 -3.74237 0
M  V30 10100 H 958.495 -4.99385 -3.09658 0
M  V30 10101 H 960.019 -4.64623 -3.96178 0
M  V30 10102 H 961.433 -5.43279 -1.83088 0
M  V30 10103 H 959.83 -5.88369 -1.18076 0
M  V30 10104 H 960.9 -4.84386 -0.223227 0
M  V30 10105 N 962.243 0.219913 -1.56058 0
M  V30 10106 C 963.489 0.945463 -1.79412 0
M  V30 10107 C 963.822 1.83922 -0.62341 0
M  V30 10108 O 963.097 1.90806 0.377256 0
M  V30 10109 C 963.38 1.783 -3.1286 0
M  V30 10110 C 963.233 0.915626 -4.40382 0
M  V30 10111 C 964.552 2.76045 -3.42764 0
M  V30 10112 H 961.671 0.342288 -0.652693 0
M  V30 10113 H 964.313 0.214235 -1.88788 0
M  V30 10114 H 962.463 2.40642 -3.04998 0
M  V30 10115 H 964.135 0.30882 -4.60265 0
M  V30 10116 H 962.378 0.221124 -4.33236 0
M  V30 10117 H 963.049 1.53607 -5.30197 0
M  V30 10118 H 965.525 2.23838 -3.50764 0
M  V30 10119 H 964.401 3.31748 -4.37304 0
M  V30 10120 H 964.662 3.53866 -2.65012 0
M  V30 10121 N 963.721 1.49897 0.486681 0
M  V30 10122 C 964.631 1.70379 1.6127 0
M  V30 10123 C 965.647 0.58659 1.63814 0
M  V30 10124 O 966.823 0.863044 1.81971 0
M  V30 10125 C 963.888 1.77911 2.97571 0
M  V30 10126 C 962.949 3.01569 3.0554 0
M  V30 10127 C 962.182 3.08732 4.35339 0
M  V30 10128 O 962.405 2.23099 5.2496 0
M  V30 10129 O 961.339 4.01325 4.48578 0
M  V30 10130 H 965.165 2.65799 1.46916 0
M  V30 10131 H 962.75 1.33808 0.664516 0
M  V30 10132 H 964.632 1.85135 3.78554 0
M  V30 10133 H 963.307 0.856722 3.12157 0
M  V30 10134 H 962.214 2.99854 2.23693 0
M  V30 10135 H 963.547 3.93335 2.95886 0
M  V30 10136 N 965.199 -0.738761 1.39212 0
M  V30 10137 C 966.447 -1.49529 1.35962 0
M  V30 10138 C 966.768 -1.94948 -0.0450152 0
M  V30 10139 O 966.038 -1.68717 -0.995552 0
M  V30 10140 H 964.618 -0.554692 0.500326 0
M  V30 10141 H 967.28 -0.877255 1.74041 0
M  V30 10142 H 966.376 -2.37919 2.01993 0
M  V30 10143 N 966.677 -1.24326 -0.968545 0
M  V30 10144 C 967.607 -1.05951 -2.08079 0
M  V30 10145 C 968.588 0.0272666 -1.70078 0
M  V30 10146 O 969.773 -0.139644 -1.93697 0
M  V30 10147 C 966.903 -0.662623 -3.4092 0
M  V30 10148 C 965.857 -1.69807 -3.92873 0
M  V30 10149 C 965.183 -1.15628 -5.22048 0
M  V30 10150 C 966.483 -3.09383 -4.20808 0
M  V30 10151 H 968.177 -1.98984 -2.23709 0
M  V30 10152 H 965.723 -0.958112 -1.075 0
M  V30 10153 H 967.676 -0.521071 -4.18166 0
M  V30 10154 H 966.4 0.303399 -3.25188 0
M  V30 10155 H 965.059 -1.82783 -3.17783 0
M  V30 10156 H 964.707 -0.180888 -5.02675 0
M  V30 10157 H 964.407 -1.84822 -5.57776 0
M  V30 10158 H 965.931 -1.02683 -6.01904 0
M  V30 10159 H 967.345 -2.99642 -4.88761 0
M  V30 10160 H 965.742 -3.75923 -4.67763 0
M  V30 10161 H 966.812 -3.57486 -3.27616 0
M  V30 10162 N 968.156 1.1691 -1.05688 0
M  V30 10163 C 969.106 2.19056 -0.632339 0
M  V30 10164 C 970.09 1.574 0.333797 0
M  V30 10165 O 971.282 1.76361 0.150223 0
M  V30 10166 C 968.411 3.43297 -0.0138209 0
M  V30 10167 C 967.497 4.12042 -1.00408 0
M  V30 10168 N 967.888 4.56535 -2.17737 0
M  V30 10169 C 966.186 4.38139 -0.833663 0
M  V30 10170 C 966.887 5.09644 -2.80425 0
M  V30 10171 N 965.863 5.02153 -2.08191 0
M  V30 10172 H 969.665 2.51165 -1.52621 0
M  V30 10173 H 967.179 1.33294 -0.927707 0
M  V30 10174 H 969.176 4.1576 0.308117 0
M  V30 10175 H 967.836 3.12677 0.87538 0
M  V30 10176 H 968.847 4.50463 -2.55546 0
M  V30 10177 H 965.524 4.175 0.00406684 0
M  V30 10178 H 966.914 5.54153 -3.79952 0
M  V30 10179 N 969.634 0.838594 1.33437 0
M  V30 10180 C 970.564 0.286672 2.31734 0
M  V30 10181 C 971.545 -0.605451 1.5896 0
M  V30 10182 O 972.73 -0.529059 1.86854 0
M  V30 10183 C 969.86 -0.539311 3.43087 0
M  V30 10184 C 968.814 0.256997 4.27228 0
M  V30 10185 C 968.14 -0.692718 5.30194 0
M  V30 10186 C 969.44 1.47391 5.01072 0
M  V30 10187 H 971.134 1.10798 2.78144 0
M  V30 10188 H 968.68 0.534235 1.33723 0
M  V30 10189 H 970.633 -0.935724 4.1088 0
M  V30 10190 H 969.357 -1.39383 2.95364 0
M  V30 10191 H 968.016 0.634967 3.61059 0
M  V30 10192 H 967.664 -1.54363 4.78729 0
M  V30 10193 H 967.364 -0.164023 5.87371 0
M  V30 10194 H 968.888 -1.08665 6.00853 0
M  V30 10195 H 970.302 1.15067 5.61634 0
M  V30 10196 H 968.699 1.93937 5.67898 0
M  V30 10197 H 969.769 2.24382 4.29861 0
M  V30 10198 N 971.112 -1.45937 0.595003 0
M  V30 10199 C 972.342 -2.06399 0.0911607 0
M  V30 10200 C 972.75 -1.44236 -1.22444 0
M  V30 10201 O 972.093 -0.546265 -1.7539 0
M  V30 10202 C 972.155 -3.59242 -0.136079 0
M  V30 10203 C 971.819 -4.43668 1.09579 0
M  V30 10204 C 972.816 -4.79437 2.01088 0
M  V30 10205 C 970.501 -4.84616 1.32109 0
M  V30 10206 C 972.495 -5.54995 3.13464 0
M  V30 10207 C 970.182 -5.5993 2.44788 0
M  V30 10208 C 971.18 -5.95035 3.35294 0
M  V30 10209 O 970.868 -6.68825 4.46014 0
M  V30 10210 H 970.6 -0.673316 0.0601779 0
M  V30 10211 H 973.154 -1.88365 0.819005 0
M  V30 10212 H 971.384 -3.75629 -0.918676 0
M  V30 10213 H 973.073 -4.0159 -0.589954 0
M  V30 10214 H 973.839 -4.48371 1.84902 0
M  V30 10215 H 969.718 -4.56735 0.625662 0
M  V30 10216 H 973.262 -5.82314 3.84131 0
M  V30 10217 H 969.159 -5.90411 2.60931 0
M  V30 10218 H 969.927 -6.87262 4.44537 0
M  V30 10219 N 972.59 -0.333456 -1.54032 0
M  V30 10220 C 973.815 0.270517 -2.05628 0
M  V30 10221 C 974.24 1.44231 -1.20744 0
M  V30 10222 O 973.598 1.79975 -0.218822 0
M  V30 10223 C 973.646 0.673251 -3.54259 0
M  V30 10224 O 972.75 1.77448 -3.72271 0
M  V30 10225 H 972.091 0.0469753 -0.662336 0
M  V30 10226 H 974.621 -0.484739 -1.98775 0
M  V30 10227 H 974.631 0.953194 -3.96709 0
M  V30 10228 H 973.306 -0.183747 -4.15494 0
M  V30 10229 H 971.883 1.49259 -3.41725 0
M  V30 10230 N 974.068 1.57479 -0.061844 0
M  V30 10231 C 975.001 2.07734 0.94455 0
M  V30 10232 C 975.979 0.980207 1.29733 0
M  V30 10233 O 977.163 1.2529 1.40836 0
M  V30 10234 C 974.29 2.52673 2.25553 0
M  V30 10235 C 973.336 3.73725 2.05503 0
M  V30 10236 S 974.169 5.18886 1.32354 0
M  V30 10237 C 975.325 5.67148 2.64753 0
M  V30 10238 H 975.558 2.92772 0.516888 0
M  V30 10239 H 973.091 1.53663 0.150684 0
M  V30 10240 H 975.049 2.79226 3.00904 0
M  V30 10241 H 973.71 1.67921 2.65445 0
M  V30 10242 H 972.903 4.03125 3.025 0
M  V30 10243 H 972.505 3.47494 1.3829 0
M  V30 10244 H 974.797 5.73385 3.60882 0
M  V30 10245 H 975.74 6.66196 2.39976 0
M  V30 10246 H 976.148 4.94921 2.71502 0
M  V30 10247 N 975.546 -0.211634 1.56173 0
M  V30 10248 C 976.792 -0.935935 1.79911 0
M  V30 10249 C 977.125 -1.83589 0.633155 0
M  V30 10250 O 976.4 -1.91004 -0.367132 0
M  V30 10251 C 976.683 -1.76638 3.13801 0
M  V30 10252 C 976.536 -0.892259 4.40861 0
M  V30 10253 C 977.855 -2.74224 3.44223 0
M  V30 10254 H 974.974 -0.338822 0.654499 0
M  V30 10255 H 977.616 -0.20422 1.88899 0
M  V30 10256 H 975.766 -2.39021 3.0627 0
M  V30 10257 H 977.438 -0.284407 4.60422 0
M  V30 10258 H 975.681 -0.198145 4.33347 0
M  V30 10259 H 976.352 -1.50793 5.31004 0
M  V30 10260 H 978.828 -2.21975 3.51946 0
M  V30 10261 H 977.704 -3.29424 4.39057 0
M  V30 10262 H 977.965 -3.52455 2.66885 0
M  V30 10263 N 977.024 -1.50153 -0.478725 0
M  V30 10264 C 978.273 -1.60002 -1.22809 0
M  V30 10265 C 978.586 -0.302277 -1.9325 0
M  V30 10266 O 979.792 -0.279583 -2.70057 0
M  V30 10267 C 978.248 -2.82402 -2.23108 0
M  V30 10268 C 977.856 -4.19023 -1.58505 0
M  V30 10269 C 979.6 -3.01593 -2.98734 0
M  V30 10270 C 977.507 -5.32618 -2.57045 0
M  V30 10271 H 976.437 -0.595822 -0.462073 0
M  V30 10272 H 979.088 -1.76573 -0.499412 0
M  V30 10273 H 977.47 -2.59373 -2.99235 0
M  V30 10274 H 978.644 -4.52277 -0.882187 0
M  V30 10275 H 976.959 -4.05374 -0.951877 0
M  V30 10276 H 979.556 -3.8363 -3.72468 0
M  V30 10277 H 979.899 -2.1302 -3.57671 0
M  V30 10278 H 980.432 -3.24766 -2.29721 0
M  V30 10279 H 977.171 -6.23321 -2.02858 0
M  V30 10280 H 976.691 -5.03792 -3.25505 0
M  V30 10281 H 978.37 -5.62877 -3.19028 0
M  V30 10282 N 978.502 0.731368 -1.39602 0
M  V30 10283 C 979.449 1.84541 -1.38612 0
M  V30 10284 C 980.419 1.64279 -0.245287 0
M  V30 10285 O 981.604 1.85635 -0.440954 0
M  V30 10286 C 978.744 3.22092 -1.23897 0
M  V30 10287 C 977.857 3.54034 -2.47555 0
M  V30 10288 C 976.992 4.81007 -2.25402 0
M  V30 10289 C 976.031 5.05804 -3.44716 0
M  V30 10290 N 975.168 6.23981 -3.21857 0
M  V30 10291 H 980.008 1.84722 -2.33841 0
M  V30 10292 H 977.545 0.902569 -1.16156 0
M  V30 10293 H 979.503 4.01499 -1.13376 0
M  V30 10294 H 978.133 3.2118 -0.322958 0
M  V30 10295 H 977.185 2.69301 -2.68665 0
M  V30 10296 H 978.497 3.68275 -3.36415 0
M  V30 10297 H 977.651 5.68401 -2.12143 0
M  V30 10298 H 976.39 4.68946 -1.33943 0
M  V30 10299 H 975.395 4.1687 -3.58468 0
M  V30 10300 H 976.62 5.19747 -4.37081 0
M  V30 10301 H 974.566 6.13202 -2.33065 0
M  V30 10302 H 974.483 6.38826 -4.04274 0
M  V30 10303 H 975.751 7.14205 -3.123 0
M  V30 10304 N 979.98 1.24838 0.961938 0
M  V30 10305 C 981.226 1.09313 1.70817 0
M  V30 10306 C 981.559 -0.366244 1.90715 0
M  V30 10307 O 980.834 -1.27036 1.47282 0
M  V30 10308 C 981.117 1.83988 3.09549 0
M  V30 10309 C 980.97 3.3771 2.97106 0
M  V30 10310 C 982.289 1.61718 4.09311 0
M  V30 10311 H 979.408 0.398498 0.619974 0
M  V30 10312 H 982.05 1.53579 1.11864 0
M  V30 10313 H 980.2 1.46363 3.59875 0
M  V30 10314 H 981.872 3.84967 2.54161 0
M  V30 10315 H 980.115 3.65795 2.33187 0
M  V30 10316 H 980.786 3.85166 3.95412 0
M  V30 10317 H 983.262 1.94458 3.67866 0
M  V30 10318 H 982.138 2.16415 5.04436 0
M  V30 10319 H 982.399 0.55677 4.3858 0
M  V30 10320 N 981.458 -1.16348 1.06306 0
M  V30 10321 C 982.705 -1.86881 0.779852 0
M  V30 10322 C 983.033 -1.8171 -0.693668 0
M  V30 10323 O 982.288 -1.22769 -1.52401 0
M  V30 10324 C 982.587 -3.35936 1.21991 0
M  V30 10325 C 982.253 -3.61307 2.69756 0
M  V30 10326 C 980.915 -3.6794 3.10119 0
M  V30 10327 C 983.267 -3.71871 3.65187 0
M  V30 10328 C 980.595 -3.82639 4.44752 0
M  V30 10329 C 982.947 -3.88091 4.99568 0
M  V30 10330 C 981.611 -3.92967 5.39568 0
M  V30 10331 H 980.881 -0.683847 0.285368 0
M  V30 10332 H 983.528 -1.37569 1.33218 0
M  V30 10333 H 981.833 -3.87381 0.586774 0
M  V30 10334 H 983.53 -3.88895 0.977821 0
M  V30 10335 H 980.12 -3.56777 2.37504 0
M  V30 10336 H 984.304 -3.66057 3.35136 0
M  V30 10337 H 979.56 -3.84666 4.75228 0
M  V30 10338 H 983.734 -3.95207 5.73397 0
M  V30 10339 H 981.361 -4.04109 6.43895 0
M  V30 10340 N 982.937 -0.845659 -1.3299 0
M  V30 10341 C 984.185 -0.443774 -1.97168 0
M  V30 10342 C 984.506 1.00192 -1.67292 0
M  V30 10343 O 983.776 1.69891 -0.975397 0
M  V30 10344 H 982.356 -0.161111 -0.729419 0
M  V30 10345 H 985.018 -1.08011 -1.62233 0
M  V30 10346 H 984.114 -0.581414 -3.06637 0
M  V30 10347 N 984.415 1.45619 -0.602734 0
M  V30 10348 C 985.64 2.07157 -0.100429 0
M  V30 10349 C 986.065 1.44524 1.20393 0
M  V30 10350 O 985.423 0.536191 1.7319 0
M  V30 10351 C 985.471 3.60587 0.0308604 0
M  V30 10352 O 984.575 3.97944 1.08234 0
M  V30 10353 H 983.916 0.6601 -0.0718643 0
M  V30 10354 H 986.446 1.86948 -0.831366 0
M  V30 10355 H 986.456 4.07348 0.230634 0
M  V30 10356 H 985.131 4.05561 -0.921581 0
M  V30 10357 H 983.708 3.62862 0.859414 0
M  V30 10358 N 985.893 0.34162 1.53853 0
M  V30 10359 C 986.803 -0.524555 2.2866 0
M  V30 10360 C 987.819 -1.1136 1.33697 0
M  V30 10361 O 988.995 -1.1297 1.66732 0
M  V30 10362 C 986.06 -1.66065 3.04341 0
M  V30 10363 C 985.121 -1.10158 4.14926 0
M  V30 10364 C 984.354 -2.18353 4.86988 0
M  V30 10365 O 984.577 -3.39038 4.58704 0
M  V30 10366 O 983.511 -1.82756 5.73484 0
M  V30 10367 H 987.337 0.0835014 3.03585 0
M  V30 10368 H 984.922 0.106727 1.49018 0
M  V30 10369 H 986.804 -2.3217 3.51674 0
M  V30 10370 H 985.479 -2.25456 2.32275 0
M  V30 10371 H 984.386 -0.405109 3.719 0
M  V30 10372 H 985.719 -0.552567 4.89088 0
M  V30 10373 N 987.371 -1.57444 0.0701946 0
M  V30 10374 C 988.648 -1.84826 -0.6402 0
M  V30 10375 C 989.028 -0.962344 -1.87889 0
M  V30 10376 O 988.376 -0.0282209 -2.28483 0
M  V30 10377 C 988.586 -3.34976 -0.979382 0
M  V30 10378 C 989.934 -4.02448 -1.35355 0
M  V30 10379 O 990.958 -3.39713 -1.07116 0
M  V30 10380 O 989.817 -5.13096 -1.88136 0
M  V30 10381 H 986.911 -0.763494 -0.317813 0
M  V30 10382 H 989.457 -1.69399 0.101004 0
M  V30 10383 H 988.229 -3.91173 -0.0995576 0
M  V30 10384 H 987.852 -3.5566 -1.7774 0
M  V30 10385 N 988.849 0.203349 -1.56283 0
M  V30 10386 C 990.074 0.945548 -1.84592 0
M  V30 10387 C 990.499 1.7641 -0.652772 0
M  V30 10388 O 989.857 1.76867 0.398468 0
M  V30 10389 C 989.905 1.82416 -3.11057 0
M  V30 10390 O 989.009 2.92191 -2.9103 0
M  V30 10391 H 988.35 0.266739 -0.608068 0
M  V30 10392 H 990.88 0.211158 -2.03507 0
M  V30 10393 H 990.89 2.23044 -3.41636 0
M  V30 10394 H 989.565 1.22267 -3.97522 0
M  V30 10395 H 988.142 2.55378 -2.71728 0
M  V30 10396 N 990.327 1.50405 0.470755 0
M  V30 10397 C 991.274 1.69293 1.56871 0
M  V30 10398 C 992.244 0.534248 1.57274 0
M  V30 10399 O 993.429 0.764855 1.74799 0
M  V30 10400 C 990.569 1.79338 2.94842 0
M  V30 10401 C 989.682 3.06709 3.04226 0
M  V30 10402 C 988.817 3.07548 4.33114 0
M  V30 10403 C 987.856 4.29372 4.36241 0
M  V30 10404 N 986.993 4.27949 5.56601 0
M  V30 10405 H 991.833 2.63029 1.40071 0
M  V30 10406 H 989.37 1.30386 0.681016 0
M  V30 10407 H 991.328 1.83143 3.74853 0
M  V30 10408 H 989.958 0.890411 3.10277 0
M  V30 10409 H 989.01 3.12374 2.17086 0
M  V30 10410 H 990.322 3.96684 3.02396 0
M  V30 10411 H 989.476 3.10084 5.21472 0
M  V30 10412 H 988.215 2.15404 4.37553 0
M  V30 10413 H 987.22 4.27048 3.4628 0
M  V30 10414 H 988.445 5.22743 4.33493 0
M  V30 10415 H 986.391 3.38658 5.61824 0
M  V30 10416 H 986.308 5.11692 5.56513 0
M  V30 10417 H 987.576 4.34631 6.47083 0
M  V30 10418 N 991.805 -0.723954 1.39988 0
M  V30 10419 C 992.755 -1.82943 1.36073 0
M  V30 10420 C 993.739 -1.59105 0.239682 0
M  V30 10421 O 994.931 -1.7042 0.478116 0
M  V30 10422 C 992.06 -3.20988 1.21745 0
M  V30 10423 C 991.146 -3.50618 2.38596 0
M  V30 10424 N 991.537 -3.51115 3.64077 0
M  V30 10425 C 989.835 -3.81035 2.31794 0
M  V30 10426 C 990.536 -3.78852 4.41413 0
M  V30 10427 N 989.512 -3.97182 3.71143 0
M  V30 10428 H 993.314 -1.81649 2.31043 0
M  V30 10429 H 990.828 -0.922703 1.33641 0
M  V30 10430 H 992.825 -4.00139 1.17022 0
M  V30 10431 H 991.485 -3.23513 0.277344 0
M  V30 10432 H 992.496 -3.32163 3.97351 0
M  V30 10433 H 989.173 -3.911 1.46105 0
M  V30 10434 H 990.563 -3.85612 5.5023 0
M  V30 10435 N 993.283 -1.25346 -0.955304 0
M  V30 10436 C 994.699 -1.02154 -1.22625 0
M  V30 10437 C 994.899 0.26206 -1.99789 0
M  V30 10438 O 993.955 0.974958 -2.32918 0
M  V30 10439 C 995.268 -2.2443 -2.00129 0
M  V30 10440 C 996.816 -2.29185 -2.13174 0
M  V30 10441 C 997.291 -3.51117 -2.94077 0
M  V30 10442 N 998.782 -3.51509 -3.01655 0
M  V30 10443 C 999.517 -4.42517 -3.64645 0
M  V30 10444 N 999.013 -5.43796 -4.29252 0
M  V30 10445 N 1000.81 -4.302 -3.61779 0
M  V30 10446 H 992.957 -2.07812 -0.439071 0
M  V30 10447 H 995.22 -0.91258 -0.256715 0
M  V30 10448 H 994.926 -3.17717 -1.50827 0
M  V30 10449 H 994.8 -2.27548 -3.00835 0
M  V30 10450 H 997.187 -1.36422 -2.61674 0
M  V30 10451 H 997.268 -2.30087 -1.11775 0
M  V30 10452 H 996.912 -4.44201 -2.46268 0
M  V30 10453 H 996.842 -3.4746 -3.95701 0
M  V30 10454 H 999.333 -2.78245 -2.55711 0
M  V30 10455 H 999.646 -6.09453 -4.75171 0
M  V30 10456 H 997.991 -5.4767 -4.27882 0
M  V30 10457 H 1001.18 -3.50304 -3.10491 0
M  V30 10458 H 1001.36 -5.01323 -4.10584 0
M  V30 10459 N 994.761 1.15782 -1.06922 0
M  V30 10460 C 995.991 1.90079 -0.809545 0
M  V30 10461 C 996.399 1.78028 0.640523 0
M  V30 10462 O 995.742 1.12692 1.45073 0
M  V30 10463 C 995.804 3.41179 -1.13302 0
M  V30 10464 C 995.468 3.77015 -2.5828 0
M  V30 10465 C 996.465 3.78403 -3.56521 0
M  V30 10466 C 994.15 4.07455 -2.93745 0
M  V30 10467 C 996.144 4.09729 -4.88264 0
M  V30 10468 C 993.831 4.38446 -4.25686 0
M  V30 10469 C 994.829 4.39564 -5.22755 0
M  V30 10470 O 994.517 4.69814 -6.52326 0
M  V30 10471 H 994.249 0.609397 -0.292595 0
M  V30 10472 H 996.803 1.47654 -1.42784 0
M  V30 10473 H 995.033 3.83982 -0.457676 0
M  V30 10474 H 996.722 3.96759 -0.856586 0
M  V30 10475 H 997.488 3.54991 -3.30464 0
M  V30 10476 H 993.367 4.05746 -2.1884 0
M  V30 10477 H 996.911 4.10516 -5.64023 0
M  V30 10478 H 992.808 4.61325 -4.51497 0
M  V30 10479 H 993.576 4.87598 -6.57412 0
M  V30 10480 N 996.239 0.8527 1.3254 0
M  V30 10481 C 997.469 0.468363 2.01221 0
M  V30 10482 C 997.877 -0.938966 1.64256 0
M  V30 10483 O 997.22 -1.62387 0.858837 0
M  V30 10484 C 997.282 0.525457 3.55639 0
M  V30 10485 C 996.946 1.89133 4.16026 0
M  V30 10486 C 997.943 2.85652 4.34395 0
M  V30 10487 C 995.628 2.18795 4.52144 0
M  V30 10488 C 997.622 4.09985 4.88048 0
M  V30 10489 C 995.309 3.43381 5.05502 0
M  V30 10490 C 996.307 4.38792 5.23403 0
M  V30 10491 O 995.995 5.61173 5.75622 0
M  V30 10492 H 995.727 0.182712 0.65084 0
M  V30 10493 H 998.281 1.15076 1.70138 0
M  V30 10494 H 996.511 -0.213779 3.86109 0
M  V30 10495 H 998.2 0.156999 4.05596 0
M  V30 10496 H 998.966 2.6404 4.06827 0
M  V30 10497 H 994.845 1.45317 4.37498 0
M  V30 10498 H 998.389 4.84465 5.01936 0
M  V30 10499 H 994.286 3.64844 5.32503 0
M  V30 10500 H 995.054 5.63104 5.94017 0
M  V30 10501 N 997.718 -1.45297 0.610449 0
M  V30 10502 C 998.948 -2.0629 0.113047 0
M  V30 10503 C 999.356 -1.45527 -1.20907 0
M  V30 10504 O 998.699 -0.564837 -1.74801 0
M  V30 10505 C 998.761 -3.59366 -0.0979692 0
M  V30 10506 C 998.425 -4.42481 1.14279 0
M  V30 10507 C 999.422 -4.77277 2.06161 0
M  V30 10508 C 997.107 -4.83187 1.37241 0
M  V30 10509 C 999.101 -5.51639 3.19333 0
M  V30 10510 C 996.788 -5.57303 2.50713 0
M  V30 10511 C 997.786 -5.91445 3.41587 0
M  V30 10512 O 997.474 -6.64056 4.53083 0
M  V30 10513 H 997.206 -0.67264 0.0673159 0
M  V30 10514 H 999.76 -1.87486 0.838937 0
M  V30 10515 H 997.99 -3.76582 -0.878783 0
M  V30 10516 H 999.679 -4.02193 -0.547327 0
M  V30 10517 H 1000.44 -4.46384 1.89647 0
M  V30 10518 H 996.324 -4.56045 0.67407 0
M  V30 10519 H 999.868 -5.78207 3.90286 0
M  V30 10520 H 995.765 -5.8761 2.67179 0
M  V30 10521 H 996.533 -6.82509 4.51801 0
M  V30 10522 N 999.196 -0.349774 -1.5367 0
M  V30 10523 C 1000.44 0.244343 -2.00617 0
M  V30 10524 C 1000.76 1.50567 -1.23914 0
M  V30 10525 O 1000.03 1.92784 -0.348016 0
M  V30 10526 H 998.615 0.0932792 -0.741153 0
M  V30 10527 H 1001.28 -0.472367 -1.89089 0
M  V30 10528 H 1000.37 0.482433 -3.08349 0
M  V30 10529 N 1000.67 1.57404 -0.0785433 0
M  V30 10530 C 1001.61 2.08724 0.922464 0
M  V30 10531 C 1002.58 0.993912 1.28686 0
M  V30 10532 O 1003.77 1.26776 1.39499 0
M  V30 10533 C 1000.9 2.55051 2.2286 0
M  V30 10534 C 999.942 3.75884 2.01528 0
M  V30 10535 S 1000.77 5.2026 1.26844 0
M  V30 10536 C 1001.93 5.69924 2.58723 0
M  V30 10537 H 1002.16 2.93304 0.485807 0
M  V30 10538 H 999.697 1.53814 0.134377 0
M  V30 10539 H 1001.65 2.82402 2.97926 0
M  V30 10540 H 1000.32 1.70727 2.63649 0
M  V30 10541 H 999.509 4.06311 2.98207 0
M  V30 10542 H 999.111 3.48941 1.34596 0
M  V30 10543 H 1001.4 5.7718 3.5478 0
M  V30 10544 H 1002.35 6.68704 2.32897 0
M  V30 10545 H 1002.75 4.97773 2.66237 0
M  V30 10546 N 1002.15 -0.195058 1.56388 0
M  V30 10547 C 1003.4 -0.913636 1.8027 0
M  V30 10548 C 1003.72 -1.83791 0.651606 0
M  V30 10549 O 1002.99 -1.931 -0.330057 0
M  V30 10550 H 1001.57 -0.34036 0.664954 0
M  V30 10551 H 1004.23 -0.200559 1.93865 0
M  V30 10552 H 1003.33 -1.50473 2.7343 0
M  V30 10553 N 1003.63 -1.50653 -0.462772 0
M  V30 10554 C 1004.88 -1.63264 -1.21311 0
M  V30 10555 C 1005.23 -0.332647 -1.89503 0
M  V30 10556 O 1004.52 0.669994 -1.79504 0
M  V30 10557 C 1004.72 -2.75637 -2.27507 0
M  V30 10558 C 1004.55 -4.16438 -1.69734 0
M  V30 10559 C 1003.32 -4.82727 -1.49341 0
M  V30 10560 C 1005.51 -5.00399 -1.18765 0
M  V30 10561 N 1003.5 -6.07718 -0.868991 0
M  V30 10562 C 1004.87 -6.16182 -0.68697 0
M  V30 10563 C 1006.92 -4.86112 -1.07699 0
M  V30 10564 C 1005.63 -7.19248 -0.0865268 0
M  V30 10565 C 1007.65 -5.89363 -0.490473 0
M  V30 10566 C 1007.01 -7.044 -0.000208479 0
M  V30 10567 H 1003.11 -0.651518 -0.432491 0
M  V30 10568 H 1005.7 -1.878 -0.51375 0
M  V30 10569 H 1003.87 -2.52809 -2.9486 0
M  V30 10570 H 1005.6 -2.77562 -2.94519 0
M  V30 10571 H 1002.35 -4.40161 -1.74801 0
M  V30 10572 H 1002.78 -6.74554 -0.574957 0
M  V30 10573 H 1007.42 -3.97452 -1.44194 0
M  V30 10574 H 1005.14 -8.07577 0.290614 0
M  V30 10575 H 1008.72 -5.80374 -0.407099 0
M  V30 10576 H 1007.6 -7.82928 0.44652 0
M  V30 10577 N 1005.11 0.71652 -1.4037 0
M  V30 10578 C 1006.36 1.47347 -1.38324 0
M  V30 10579 C 1006.68 1.94995 0.0139949 0
M  V30 10580 O 1005.95 1.7028 0.968585 0
M  V30 10581 H 1004.53 0.546662 -0.509087 0
M  V30 10582 H 1007.19 0.849455 -1.75415 0
M  V30 10583 H 1006.29 2.34675 -2.05752 0
M  V30 10584 N 1006.59 1.25851 0.948643 0
M  V30 10585 C 1007.83 1.10954 1.69397 0
M  V30 10586 C 1008.16 -0.348443 1.91353 0
M  V30 10587 O 1007.42 -1.27285 1.48651 0
M  V30 10588 C 1007.72 1.81565 3.07846 0
M  V30 10589 C 1007.38 3.31477 3.0567 0
M  V30 10590 C 1006.04 3.72371 3.04784 0
M  V30 10591 C 1008.4 4.27225 2.98543 0
M  V30 10592 C 1005.72 5.07416 2.94527 0
M  V30 10593 C 1008.08 5.62301 2.89828 0
M  V30 10594 C 1006.74 6.02516 2.87281 0
M  V30 10595 H 1006.01 0.406011 0.619868 0
M  V30 10596 H 1008.66 1.562 1.10787 0
M  V30 10597 H 1006.96 1.28767 3.70035 0
M  V30 10598 H 1008.66 1.67486 3.64348 0
M  V30 10599 H 1005.25 2.98941 3.07135 0
M  V30 10600 H 1009.43 3.96618 2.98342 0
M  V30 10601 H 1004.69 5.37746 2.90928 0
M  V30 10602 H 1008.86 6.36182 2.83276 0
M  V30 10603 H 1006.49 7.07116 2.79089 0
M  V30 10604 N 1008.06 -1.15214 1.07534 0
M  V30 10605 C 1009.48 -1.67628 0.822045 0
M  V30 10606 C 1009.83 -1.8503 -0.652571 0
M  V30 10607 O 1008.95 -1.55497 -1.50498 0
M  V30 10608 C 1009.55 -3.04489 1.48566 0
M  V30 10609 C 1008.11 -3.53974 1.27983 0
M  V30 10610 C 1007.25 -2.29656 1.55414 0
M  V30 10611 H 1010.2 -0.994016 1.23713 0
M  V30 10612 H 1010.22 -3.69509 0.907916 0
M  V30 10613 H 1009.74 -2.91792 2.55888 0
M  V30 10614 H 1007.84 -3.71908 0.226906 0
M  V30 10615 H 1007.95 -4.35298 2.0013 0
M  V30 10616 H 1006.31 -2.35289 0.975251 0
M  V30 10617 H 1007.1 -2.19544 2.63923 0
M  V30 10618 N 1009.54 -0.859717 -1.32086 0
M  V30 10619 C 1010.47 -0.323502 -2.31248 0
M  V30 10620 C 1011.45 0.580085 -1.59903 0
M  V30 10621 O 1012.64 0.499265 -1.87673 0
M  V30 10622 C 1009.77 0.484661 -3.43902 0
M  V30 10623 C 1008.72 -0.324933 -4.26765 0
M  V30 10624 C 1008.05 0.608281 -5.31229 0
M  V30 10625 C 1009.35 -1.55344 -4.98664 0
M  V30 10626 H 1011.04 -1.15209 -2.76346 0
M  V30 10627 H 1008.59 -0.555442 -1.32856 0
M  V30 10628 H 1010.54 0.870238 -4.12316 0
M  V30 10629 H 1009.27 1.34666 -2.97544 0
M  V30 10630 H 1007.92 -0.692328 -3.60003 0
M  V30 10631 H 1007.57 1.46727 -4.81124 0
M  V30 10632 H 1007.27 0.0705571 -5.87558 0
M  V30 10633 H 1008.8 0.990925 -6.02506 0
M  V30 10634 H 1010.21 -1.23987 -5.59732 0
M  V30 10635 H 1008.61 -2.02947 -5.64741 0
M  V30 10636 H 1009.68 -2.31192 -4.26237 0
M  V30 10637 N 1011.02 1.44971 -0.618145 0
M  V30 10638 C 1011.95 2.33357 0.0815955 0
M  V30 10639 C 1012.93 1.47451 0.848072 0
M  V30 10640 O 1014.12 1.762 0.816532 0
M  V30 10641 C 1011.25 3.30324 1.07253 0
M  V30 10642 C 1010.2 4.25948 0.418563 0
M  V30 10643 C 1009.53 5.12685 1.51849 0
M  V30 10644 C 1010.83 5.18024 -0.66697 0
M  V30 10645 H 1012.52 2.92115 -0.656442 0
M  V30 10646 H 1010.07 1.40465 -0.317129 0
M  V30 10647 H 1012.02 3.91033 1.57069 0
M  V30 10648 H 1010.74 2.69748 1.8413 0
M  V30 10649 H 1009.4 3.66553 -0.0588308 0
M  V30 10650 H 1009.05 4.4847 2.2778 0
M  V30 10651 H 1008.75 5.7747 1.08637 0
M  V30 10652 H 1010.27 5.76264 2.01871 0
M  V30 10653 H 1011.69 5.72744 -0.252448 0
M  V30 10654 H 1010.09 5.91343 -1.02146 0
M  V30 10655 H 1011.16 4.59817 -1.53936 0
M  V30 10656 N 1012.5 0.357919 1.53482 0
M  V30 10657 C 1013.75 -0.235241 2.00324 0
M  V30 10658 C 1014.06 -1.50494 1.24944 0
M  V30 10659 O 1015.27 -2.17623 1.62335 0
M  V30 10660 C 1013.72 -0.469748 3.56821 0
M  V30 10661 C 1013.33 0.784877 4.41071 0
M  V30 10662 C 1015.07 -1.02098 4.12039 0
M  V30 10663 C 1012.98 0.520377 5.89106 0
M  V30 10664 H 1011.91 -0.0916816 0.748405 0
M  V30 10665 H 1014.56 0.475474 1.77233 0
M  V30 10666 H 1012.94 -1.24153 3.76035 0
M  V30 10667 H 1014.12 1.55886 4.33631 0
M  V30 10668 H 1012.43 1.25878 3.96918 0
M  V30 10669 H 1015.03 -1.23406 5.20264 0
M  V30 10670 H 1015.37 -1.98084 3.66154 0
M  V30 10671 H 1015.91 -0.309554 3.96594 0
M  V30 10672 H 1012.65 1.45035 6.39254 0
M  V30 10673 H 1012.17 -0.215254 5.99414 0
M  V30 10674 H 1013.84 0.143006 6.46842 0
M  V30 10675 N 1013.98 -1.5736 0.0868897 0
M  V30 10676 C 1015.22 -1.95933 -0.582212 0
M  V30 10677 C 1015.58 -0.967238 -1.65857 0
M  V30 10678 O 1016.78 -1.24116 -2.3843 0
M  V30 10679 C 1015.05 -3.39049 -1.1305 0
M  V30 10680 S 1016.61 -3.99612 -1.81262 0
M  V30 10681 H 1013.43 -0.685082 -0.190221 0
M  V30 10682 H 1016.03 -1.94808 0.164341 0
M  V30 10683 H 1014.74 -4.09026 -0.335492 0
M  V30 10684 H 1014.27 -3.43752 -1.91307 0
M  V30 10685 H 1016.28 -3.87747 -3.09624 0
M  V30 10686 N 1015.45 0.186762 -1.56489 0
M  V30 10687 C 1016.7 0.904077 -1.80303 0
M  V30 10688 C 1017.02 1.84073 -0.661538 0
M  V30 10689 O 1018.22 2.59928 -0.784197 0
M  V30 10690 C 1016.68 1.65806 -3.19432 0
M  V30 10691 C 1016.29 0.765807 -4.41406 0
M  V30 10692 C 1018.03 2.36451 -3.52549 0
M  V30 10693 C 1015.94 1.51913 -5.71556 0
M  V30 10694 H 1014.87 0.34133 -0.672317 0
M  V30 10695 H 1017.52 0.157218 -1.82825 0
M  V30 10696 H 1015.9 2.44911 -3.11183 0
M  V30 10697 H 1017.07 0.0128225 -4.60798 0
M  V30 10698 H 1015.39 0.169772 -4.16054 0
M  V30 10699 H 1017.99 2.93378 -4.47027 0
M  V30 10700 H 1018.33 3.11044 -2.7669 0
M  V30 10701 H 1018.86 1.64305 -3.62283 0
M  V30 10702 H 1015.6 0.815829 -6.50403 0
M  V30 10703 H 1015.12 2.24583 -5.56168 0
M  V30 10704 H 1016.8 2.07073 -6.12968 0
M  V30 10705 N 1016.93 1.50896 0.454776 0
M  V30 10706 C 1018.18 1.61936 1.20248 0
M  V30 10707 C 1018.49 0.332983 1.92745 0
M  V30 10708 O 1019.7 0.322512 2.69578 0
M  V30 10709 C 1018.16 2.85916 2.18587 0
M  V30 10710 C 1017.76 4.21492 1.51818 0
M  V30 10711 C 1019.51 3.06307 2.93898 0
M  V30 10712 C 1017.42 5.3664 2.48539 0
M  V30 10713 H 1016.35 0.603098 0.452536 0
M  V30 10714 H 1019 1.77345 0.471257 0
M  V30 10715 H 1017.38 2.64101 2.95071 0
M  V30 10716 H 1018.55 4.53623 0.810123 0
M  V30 10717 H 1016.87 4.06837 0.887265 0
M  V30 10718 H 1019.46 3.89507 3.66317 0
M  V30 10719 H 1019.81 2.18683 3.54236 0
M  V30 10720 H 1020.34 3.2838 2.24525 0
M  V30 10721 H 1017.08 6.26469 1.92916 0
M  V30 10722 H 1016.6 5.08907 3.17449 0
M  V30 10723 H 1018.28 5.67881 3.10033 0
M  V30 10724 N 1018.41 -0.709066 1.40748 0
M  V30 10725 C 1019.64 -1.50313 1.42901 0
M  V30 10726 C 1020.06 -1.88072 0.032213 0
M  V30 10727 O 1019.42 -1.53716 -0.96131 0
M  V30 10728 C 1019.47 -2.75074 2.33166 0
M  V30 10729 O 1018.57 -3.72036 1.7794 0
M  V30 10730 H 1017.91 -0.452934 0.485538 0
M  V30 10731 H 1020.44 -0.872712 1.85054 0
M  V30 10732 H 1020.45 -3.23532 2.48578 0
M  V30 10733 H 1019.13 -2.46927 3.34664 0
M  V30 10734 H 1017.7 -3.30911 1.71908 0
M  V30 10735 N 1019.89 -1.26353 -0.941956 0
M  V30 10736 C 1020.82 -1.10341 -2.05784 0
M  V30 10737 C 1021.8 -0.00881565 -1.70098 0
M  V30 10738 O 1022.99 -0.180699 -1.93357 0
M  V30 10739 C 1020.12 -0.734788 -3.39438 0
M  V30 10740 C 1019.07 -1.78103 -3.89183 0
M  V30 10741 C 1018.4 -1.26675 -5.19478 0
M  V30 10742 C 1019.7 -3.1824 -4.14151 0
M  V30 10743 H 1021.39 -2.03684 -2.19438 0
M  V30 10744 H 1018.94 -0.980698 -1.05443 0
M  V30 10745 H 1020.89 -0.609653 -4.16967 0
M  V30 10746 H 1019.61 0.234354 -3.25758 0
M  V30 10747 H 1018.27 -1.89482 -3.13835 0
M  V30 10748 H 1017.92 -0.287472 -5.02178 0
M  V30 10749 H 1017.62 -1.96612 -5.53731 0
M  V30 10750 H 1019.14 -1.15427 -5.99591 0
M  V30 10751 H 1020.56 -3.09942 -4.82296 0
M  V30 10752 H 1018.95 -3.8576 -4.59684 0
M  V30 10753 H 1020.02 -3.64354 -3.19959 0
M  V30 10754 N 1021.37 1.14642 -1.08144 0
M  V30 10755 C 1022.59 1.90025 -0.830972 0
M  V30 10756 C 1023.02 1.77904 0.610879 0
M  V30 10757 O 1022.38 1.11735 1.42776 0
M  V30 10758 C 1022.42 3.38085 -1.25422 0
M  V30 10759 O 1021.53 4.10412 -0.404486 0
M  V30 10760 H 1020.87 0.591327 -0.302041 0
M  V30 10761 H 1023.4 1.4513 -1.44216 0
M  V30 10762 H 1023.41 3.88894 -1.23391 0
M  V30 10763 H 1022.08 3.46226 -2.30435 0
M  V30 10764 H 1020.66 3.69693 -0.487987 0
M  V30 10765 N 1022.85 0.866709 1.31628 0
M  V30 10766 C 1024.09 0.476026 1.96825 0
M  V30 10767 C 1024.42 -0.970994 1.68529 0
M  V30 10768 O 1023.68 -1.69823 0.97255 0
M  V30 10769 C 1023.97 0.676018 3.50948 0
M  V30 10770 C 1023.64 2.09533 3.99258 0
M  V30 10771 C 1022.3 2.48349 4.1216 0
M  V30 10772 C 1024.65 3.02112 4.24709 0
M  V30 10773 C 1021.98 3.78991 4.47864 0
M  V30 10774 C 1024.33 4.32266 4.61875 0
M  V30 10775 C 1023 4.71 4.72985 0
M  V30 10776 H 1022.27 0.17419 0.720235 0
M  V30 10777 H 1024.92 1.09907 1.5682 0
M  V30 10778 H 1023.22 -0.0301867 3.91788 0
M  V30 10779 H 1024.92 0.353604 3.99438 0
M  V30 10780 H 1021.51 1.78396 3.89709 0
M  V30 10781 H 1025.69 2.73351 4.14238 0
M  V30 10782 H 1020.95 4.08769 4.54663 0
M  V30 10783 H 1025.12 5.04055 4.80522 0
M  V30 10784 H 1022.75 5.72273 5.00407 0
M  V30 10785 N 1024.32 -1.44642 0.625825 0
M  V30 10786 C 1025.29 -2.29085 -0.072526 0
M  V30 10787 C 1026.29 -1.40755 -0.777467 0
M  V30 10788 O 1027.48 -1.62684 -0.622861 0
M  V30 10789 C 1024.61 -3.22212 -1.1132 0
M  V30 10790 H 1025.8 -2.92317 0.670124 0
M  V30 10791 H 1023.35 -1.51466 0.38571 0
M  V30 10792 H 1024.09 -2.63819 -1.88601 0
M  V30 10793 H 1023.87 -3.87299 -0.611709 0
M  V30 10794 H 1025.36 -3.8566 -1.60175 0
M  V30 10795 N 1025.8 -0.366053 -1.5329 0
M  V30 10796 C 1026.73 0.523781 -2.22108 0
M  V30 10797 C 1027.71 1.08262 -1.21318 0
M  V30 10798 O 1028.9 1.13866 -1.50222 0
M  V30 10799 C 1026.02 1.72273 -2.91616 0
M  V30 10800 C 1025.07 1.29129 -4.06482 0
M  V30 10801 S 1025.9 0.292195 -5.34702 0
M  V30 10802 C 1027.06 1.49746 -6.07723 0
M  V30 10803 H 1027.29 -0.0606687 -2.97238 0
M  V30 10804 H 1024.82 -0.15016 -1.53668 0
M  V30 10805 H 1026.78 2.41045 -3.32277 0
M  V30 10806 H 1025.44 2.27843 -2.16209 0
M  V30 10807 H 1024.64 2.18583 -4.54134 0
M  V30 10808 H 1024.24 0.682783 -3.67715 0
M  V30 10809 H 1026.53 2.4284 -6.32483 0
M  V30 10810 H 1027.47 1.06232 -7.00086 0
M  V30 10811 H 1027.88 1.70373 -5.38176 0
M  V30 10812 N 1027.28 1.57312 -0.0952337 0
M  V30 10813 C 1028.56 1.85822 0.610715 0
M  V30 10814 C 1028.94 0.992114 1.86334 0
M  V30 10815 O 1028.28 0.0645669 2.28409 0
M  V30 10816 C 1028.49 3.36492 0.925967 0
M  V30 10817 C 1029.84 4.0455 1.28936 0
M  V30 10818 O 1030.87 3.41374 1.01698 0
M  V30 10819 O 1029.73 5.16024 1.79949 0
M  V30 10820 H 1026.82 0.768454 0.305626 0
M  V30 10821 H 1029.37 1.69217 -0.127941 0
M  V30 10822 H 1028.14 3.91282 0.0373127 0
M  V30 10823 H 1027.76 3.58443 1.7206 0
M  V30 10824 N 1028.76 -0.17846 1.56586 0
M  V30 10825 C 1029.98 -0.916061 1.86073 0
M  V30 10826 C 1030.41 -1.75349 0.680754 0
M  V30 10827 O 1029.77 -1.77479 -0.37028 0
M  V30 10828 C 1029.81 -1.77445 3.1392 0
M  V30 10829 O 1028.92 -2.87524 2.95641 0
M  V30 10830 H 1028.26 -0.257031 0.612234 0
M  V30 10831 H 1030.79 -0.178755 2.03818 0
M  V30 10832 H 1030.8 -2.1758 3.45142 0
M  V30 10833 H 1029.47 -1.15927 3.99417 0
M  V30 10834 H 1028.05 -2.51023 2.75757 0
M  V30 10835 N 1030.24 -1.51135 -0.446768 0
M  V30 10836 C 1031.47 -1.66887 -1.21788 0
M  V30 10837 C 1031.87 -0.361729 -1.8571 0
M  V30 10838 O 1031.22 0.668784 -1.71093 0
M  V30 10839 C 1031.28 -2.72062 -2.34994 0
M  V30 10840 C 1030.94 -4.14935 -1.91516 0
M  V30 10841 C 1031.94 -5.00021 -1.42389 0
M  V30 10842 C 1029.62 -4.60985 -1.99495 0
M  V30 10843 C 1031.62 -6.29216 -1.01816 0
M  V30 10844 C 1029.31 -5.90179 -1.58532 0
M  V30 10845 C 1030.3 -6.74121 -1.09774 0
M  V30 10846 O 1029.99 -8.009 -0.69389 0
M  V30 10847 H 1029.72 -0.563431 -0.373525 0
M  V30 10848 H 1032.28 -1.98261 -0.536818 0
M  V30 10849 H 1030.51 -2.35983 -3.06348 0
M  V30 10850 H 1032.2 -2.76788 -2.96889 0
M  V30 10851 H 1032.96 -4.6565 -1.35627 0
M  V30 10852 H 1028.84 -3.95777 -2.36393 0
M  V30 10853 H 1032.39 -6.94687 -0.636879 0
M  V30 10854 H 1028.28 -6.24066 -1.64962 0
M  V30 10855 H 1029.05 -8.14376 -0.820582 0
M  V30 10856 N 1031.71 0.701592 -1.41122 0
M  V30 10857 C 1032.96 1.45871 -1.39879 0
M  V30 10858 C 1033.28 1.94999 -0.00668769 0
M  V30 10859 O 1032.55 1.71298 0.95047 0
M  V30 10860 H 1031.13 0.541231 -0.514857 0
M  V30 10861 H 1033.79 0.830803 -1.76306 0
M  V30 10862 H 1032.89 2.32479 -2.0823 0
M  V30 10863 N 1033.19 1.2685 0.935242 0
M  V30 10864 C 1034.42 1.15538 1.71635 0
M  V30 10865 C 1034.83 -0.288698 1.8658 0
M  V30 10866 O 1034.19 -1.19721 1.37743 0
M  V30 10867 C 1034.24 1.8259 3.11999 0
M  V30 10868 O 1033.96 3.21355 2.97763 0
M  V30 10869 C 1035.46 1.77307 4.06297 0
M  V30 10870 H 1032.68 0.402055 0.537208 0
M  V30 10871 H 1035.23 1.67582 1.17203 0
M  V30 10872 H 1033.38 1.3447 3.63313 0
M  V30 10873 H 1033.8 3.54626 3.86446 0
M  V30 10874 H 1035.27 2.28851 5.02326 0
M  V30 10875 H 1035.75 0.740823 4.32907 0
M  V30 10876 H 1036.35 2.25007 3.60904 0
M  V30 10877 N 1034.67 -1.14067 1.0875 0
M  V30 10878 C 1035.9 -1.89582 0.841038 0
M  V30 10879 C 1036.32 -1.78226 -0.601436 0
M  V30 10880 O 1035.68 -1.12491 -1.42181 0
M  V30 10881 C 1035.73 -3.37415 1.27213 0
M  V30 10882 O 1034.83 -4.10191 0.426246 0
M  V30 10883 H 1034.17 -0.589716 0.305173 0
M  V30 10884 H 1036.7 -1.44364 1.44984 0
M  V30 10885 H 1036.71 -3.88234 1.25451 0
M  V30 10886 H 1035.39 -3.44999 2.32268 0
M  V30 10887 H 1033.96 -3.69429 0.507585 0
M  V30 10888 N 1036.15 -0.873678 -1.31166 0
M  V30 10889 C 1037.1 -0.321349 -2.3037 0
M  V30 10890 C 1038.09 0.565568 -1.5968 0
M  V30 10891 O 1039.3 0.451257 -1.74252 0
M  V30 10892 H 1035.67 -0.0852425 -0.747153 0
M  V30 10893 H 1037.64 -1.17191 -2.74425 0
M  V30 10894 C 1036.39 0.459016 -3.44657 0
M  V30 10895 H 1035.71 -0.214185 -3.99226 0
M  V30 10896 H 1037.15 0.810758 -4.16176 0
M  V30 10897 C 1035.61 1.65173 -2.93632 0
M  V30 10898 O 1036.14 2.75105 -2.92711 0
M  V30 10899 N 1034.35 1.4851 -2.49786 0
M  V30 10900 H 1033.9 0.590785 -2.50734 0
M  V30 10901 H 1033.85 2.28452 -2.16002 0
M  V30 10902 N 1037.63 1.44308 -0.633487 0
M  V30 10903 C 1038.57 2.32455 0.0821956 0
M  V30 10904 C 1039.57 1.47482 0.833388 0
M  V30 10905 O 1040.77 1.63812 0.746021 0
M  V30 10906 H 1037.15 0.750631 0.045352 0
M  V30 10907 H 1039.12 2.90566 -0.679282 0
M  V30 10908 C 1037.87 3.31512 1.04858 0
M  V30 10909 H 1037.19 3.96908 0.479979 0
M  V30 10910 H 1038.63 3.95865 1.51879 0
M  V30 10911 C 1037.09 2.60615 2.13498 0
M  V30 10912 O 1037.62 2.40682 3.21613 0
M  V30 10913 N 1035.83 2.20315 1.89499 0
M  V30 10914 H 1035.37 2.36726 1.01581 0
M  V30 10915 H 1035.33 1.73205 2.62388 0
M  V30 10916 N 1039.1 0.374177 1.53094 0
M  V30 10917 C 1040.34 -0.21278 2.03289 0
M  V30 10918 C 1040.71 -1.45291 1.25517 0
M  V30 10919 O 1041.91 -2.11605 1.65761 0
M  V30 10920 C 1040.18 -0.48913 3.54037 0
M  V30 10921 S 1041.74 -1.04853 4.26088 0
M  V30 10922 H 1038.56 -0.0612752 0.708355 0
M  V30 10923 H 1041.16 0.519031 1.88484 0
M  V30 10924 H 1039.86 0.420786 4.08237 0
M  V30 10925 H 1039.39 -1.24978 3.7302 0
M  V30 10926 H 1041.41 -2.33213 4.3798 0
M  V30 10927 N 1040.58 -1.57259 0.103575 0
M  V30 10928 C 1041.83 -1.95744 -0.552781 0
M  V30 10929 C 1042.18 -0.985175 -1.65264 0
M  V30 10930 O 1041.48 -0.0125763 -1.91596 0
M  V30 10931 C 1041.67 -3.38549 -1.14538 0
M  V30 10932 C 1041.5 -4.49579 -0.104467 0
M  V30 10933 C 1040.27 -5.04273 0.321999 0
M  V30 10934 C 1042.47 -5.09909 0.670622 0
M  V30 10935 N 1040.45 -5.98866 1.3503 0
M  V30 10936 C 1041.82 -6.00299 1.55052 0
M  V30 10937 C 1043.88 -4.9262 0.723209 0
M  V30 10938 C 1042.58 -6.75254 2.4784 0
M  V30 10939 C 1044.6 -5.68243 1.63873 0
M  V30 10940 C 1043.97 -6.58306 2.50624 0
M  V30 10941 H 1040.07 -0.762769 -0.172359 0
M  V30 10942 H 1042.65 -1.93789 0.188113 0
M  V30 10943 H 1040.82 -3.41182 -1.85606 0
M  V30 10944 H 1042.55 -3.64194 -1.7648 0
M  V30 10945 H 1039.31 -4.73552 -0.0674026 0
M  V30 10946 H 1039.73 -6.50865 1.86291 0
M  V30 10947 H 1044.37 -4.22747 0.0666625 0
M  V30 10948 H 1042.09 -7.44383 3.14516 0
M  V30 10949 H 1045.68 -5.56876 1.68466 0
M  V30 10950 H 1044.56 -7.15799 3.20315 0
M  V30 10951 N 1042.06 0.170153 -1.56679 0
M  V30 10952 C 1042.99 1.21285 -1.9953 0
M  V30 10953 C 1043.97 1.46104 -0.871071 0
M  V30 10954 O 1045.16 1.57419 -1.13724 0
M  V30 10955 C 1042.29 2.5515 -2.35618 0
M  V30 10956 C 1041.24 2.44898 -3.51011 0
M  V30 10957 C 1040.57 3.83263 -3.72845 0
M  V30 10958 C 1041.87 1.95271 -4.84424 0
M  V30 10959 H 1043.56 0.856646 -2.86883 0
M  V30 10960 H 1041.11 0.410634 -1.38021 0
M  V30 10961 H 1043.06 3.28299 -2.64193 0
M  V30 10962 H 1041.78 2.92561 -1.45175 0
M  V30 10963 H 1040.44 1.74203 -3.22566 0
M  V30 10964 H 1040.09 4.18069 -2.79691 0
M  V30 10965 H 1039.79 3.77272 -4.50488 0
M  V30 10966 H 1041.31 4.57996 -4.03822 0
M  V30 10967 H 1042.73 2.58195 -5.11867 0
M  V30 10968 H 1041.13 2.00225 -5.65712 0
M  V30 10969 H 1042.2 0.90709 -4.7634 0
M  V30 10970 N 1043.54 1.5137 0.438746 0
M  V30 10971 C 1044.76 1.68058 1.21537 0
M  V30 10972 C 1045.19 0.376787 1.84288 0
M  V30 10973 O 1044.55 -0.662911 1.68746 0
M  V30 10974 C 1044.59 2.79684 2.27616 0
M  V30 10975 O 1043.7 2.43189 3.33066 0
M  V30 10976 H 1043.04 0.560408 0.356144 0
M  V30 10977 H 1045.57 1.97926 0.518311 0
M  V30 10978 H 1045.58 3.03726 2.72423 0
M  V30 10979 H 1044.25 3.74293 1.81321 0
M  V30 10980 H 1042.83 2.29713 2.93746 0
M  V30 10981 N 1045.02 -0.694098 1.41492 0
M  V30 10982 C 1045.95 -1.82042 1.46229 0
M  V30 10983 C 1046.93 -1.67047 0.320803 0
M  V30 10984 O 1048.11 -1.86758 0.53245 0
M  V30 10985 C 1045.24 -3.2019 1.34519 0
M  V30 10986 C 1044.2 -3.49892 2.46495 0
M  V30 10987 C 1043.52 -4.87411 2.1985 0
M  V30 10988 C 1044.82 -3.4872 3.88834 0
M  V30 10989 H 1046.52 -1.78335 2.40493 0
M  V30 10990 H 1044.06 -0.856566 1.15754 0
M  V30 10991 H 1046.02 -3.98699 1.36445 0
M  V30 10992 H 1044.74 -3.24527 0.367406 0
M  V30 10993 H 1043.4 -2.73734 2.43854 0
M  V30 10994 H 1043.05 -4.88375 1.20411 0
M  V30 10995 H 1042.75 -5.08248 2.94885 0
M  V30 10996 H 1044.27 -5.68228 2.23494 0
M  V30 10997 H 1045.68 -4.1723 3.93182 0
M  V30 10998 H 1044.08 -3.81089 4.63564 0
M  V30 10999 H 1045.15 -2.47665 4.16881 0
M  V30 11000 N 1046.49 -1.27344 -0.928501 0
M  V30 11001 C 1047.46 -1.10043 -2.01055 0
M  V30 11002 C 1048.46 -0.0446793 -1.60738 0
M  V30 11003 O 1049.65 -0.289202 -1.71783 0
M  V30 11004 C 1046.78 -0.676559 -3.34119 0
M  V30 11005 H 1047.97 -2.06126 -2.17835 0
M  V30 11006 H 1045.53 -1.10121 -1.10919 0
M  V30 11007 H 1046.26 0.285697 -3.23039 0
M  V30 11008 H 1046.05 -1.43903 -3.64739 0
M  V30 11009 H 1047.54 -0.577725 -4.13584 0
M  V30 11010 N 1047.97 1.13488 -1.09353 0
M  V30 11011 C 1049.2 1.89133 -0.85108 0
M  V30 11012 C 1049.62 1.78542 0.591976 0
M  V30 11013 O 1048.98 1.13243 1.41583 0
M  V30 11014 C 1049.03 3.36736 -1.29001 0
M  V30 11015 O 1048.13 4.09959 -0.447993 0
M  V30 11016 H 1047.47 0.58809 -0.308296 0
M  V30 11017 H 1050 1.43593 -1.45747 0
M  V30 11018 H 1050.01 3.87564 -1.27508 0
M  V30 11019 H 1048.69 3.43762 -2.34095 0
M  V30 11020 H 1047.27 3.69155 -0.52717 0
M  V30 11021 N 1049.45 0.880621 1.30701 0
M  V30 11022 C 1050.7 0.495894 1.95922 0
M  V30 11023 C 1051.02 -0.957214 1.69889 0
M  V30 11024 O 1050.29 -1.67245 1.0201 0
M  V30 11025 H 1048.87 0.180394 0.724891 0
M  V30 11026 H 1051.53 1.12274 1.59313 0
M  V30 11027 H 1050.63 0.662508 3.04987 0
M  V30 11028 N 1050.93 -1.4397 0.641131 0
M  V30 11029 C 1051.89 -2.29149 -0.0482243 0
M  V30 11030 C 1052.89 -1.41572 -0.762495 0
M  V30 11031 O 1054.08 -1.63335 -0.605571 0
M  V30 11032 C 1051.21 -3.23375 -1.07896 0
M  V30 11033 H 1052.41 -2.9159 0.70109 0
M  V30 11034 H 1049.96 -1.51048 0.401754 0
M  V30 11035 H 1050.7 -2.65804 -1.85792 0
M  V30 11036 H 1050.48 -3.87926 -0.570597 0
M  V30 11037 H 1051.97 -3.87337 -1.56075 0
M  V30 11038 N 1052.41 -0.382291 -1.52893 0
M  V30 11039 C 1053.66 0.203342 -2.00672 0
M  V30 11040 C 1053.97 1.48487 -1.27322 0
M  V30 11041 O 1055.18 2.15013 -1.65776 0
M  V30 11042 C 1053.63 0.412922 -3.57523 0
M  V30 11043 C 1053.24 -0.854949 -4.39767 0
M  V30 11044 C 1054.98 0.955301 -4.13611 0
M  V30 11045 C 1052.89 -0.614033 -5.88204 0
M  V30 11046 H 1051.82 0.0797635 -0.749769 0
M  V30 11047 H 1054.47 -0.50361 -1.76454 0
M  V30 11048 H 1052.85 1.18155 -3.77962 0
M  V30 11049 H 1054.03 -1.62765 -4.31096 0
M  V30 11050 H 1052.34 -1.32176 -3.94865 0
M  V30 11051 H 1054.94 1.15114 -5.22162 0
M  V30 11052 H 1055.28 1.92233 -3.69259 0
M  V30 11053 H 1055.82 0.24642 -3.97036 0
M  V30 11054 H 1052.55 -1.55187 -6.36865 0
M  V30 11055 H 1052.07 0.119865 -5.9968 0
M  V30 11056 H 1053.75 -0.245895 -6.46533 0
M  V30 11057 N 1053.89 1.57202 -0.111913 0
M  V30 11058 C 1055.13 1.96035 0.542393 0
M  V30 11059 C 1055.49 0.993925 1.64739 0
M  V30 11060 O 1054.78 0.0227369 1.91587 0
M  V30 11061 C 1054.97 3.39152 1.12741 0
M  V30 11062 C 1054.8 4.49628 0.0806232 0
M  V30 11063 C 1053.57 5.04095 -0.348737 0
M  V30 11064 C 1055.77 5.09546 -0.697655 0
M  V30 11065 N 1053.75 5.98141 -1.38204 0
M  V30 11066 C 1055.12 5.99468 -1.58234 0
M  V30 11067 C 1057.18 4.92229 -0.749324 0
M  V30 11068 C 1055.88 6.7393 -2.51418 0
M  V30 11069 C 1057.91 5.67366 -1.66884 0
M  V30 11070 C 1057.27 6.56968 -2.54112 0
M  V30 11071 H 1053.37 0.763672 0.168311 0
M  V30 11072 H 1055.95 1.93687 -0.198387 0
M  V30 11073 H 1054.12 3.42161 1.83794 0
M  V30 11074 H 1055.86 3.65125 1.74546 0
M  V30 11075 H 1052.61 4.73581 0.042288 0
M  V30 11076 H 1053.03 6.49868 -1.8974 0
M  V30 11077 H 1057.68 4.22706 -0.0890808 0
M  V30 11078 H 1055.39 7.42704 -3.18459 0
M  V30 11079 H 1058.98 5.55974 -1.71417 0
M  V30 11080 H 1057.86 7.1409 -3.24107 0
M  V30 11081 N 1055.36 -0.161842 1.56767 0
M  V30 11082 C 1056.33 -1.18404 1.96247 0
M  V30 11083 C 1057.33 -1.3667 0.84722 0
M  V30 11084 O 1058.52 -1.33915 1.11411 0
M  V30 11085 C 1055.65 -2.54728 2.26553 0
M  V30 11086 H 1056.84 -0.845703 2.87729 0
M  V30 11087 H 1054.39 -0.404645 1.50971 0
M  V30 11088 H 1055.13 -2.93559 1.37816 0
M  V30 11089 H 1054.91 -2.42834 3.07854 0
M  V30 11090 H 1056.4 -3.28378 2.57987 0
M  V30 11091 N 1056.84 -1.516 -0.430713 0
M  V30 11092 C 1058.09 -1.64596 -1.17959 0
M  V30 11093 C 1058.42 -0.365382 -1.91037 0
M  V30 11094 O 1057.67 0.650826 -1.84561 0
M  V30 11095 C 1057.97 -2.804 -2.21609 0
M  V30 11096 C 1057.64 -4.19431 -1.65495 0
M  V30 11097 C 1056.3 -4.57252 -1.49915 0
M  V30 11098 C 1058.65 -5.0616 -1.24304 0
M  V30 11099 C 1055.98 -5.79501 -0.916276 0
M  V30 11100 C 1058.33 -6.28995 -0.674437 0
M  V30 11101 C 1056.99 -6.65582 -0.505591 0
M  V30 11102 H 1056.26 -0.602301 -0.431642 0
M  V30 11103 H 1058.91 -1.8565 -0.469726 0
M  V30 11104 H 1057.22 -2.53595 -2.98658 0
M  V30 11105 H 1058.91 -2.87654 -2.79385 0
M  V30 11106 H 1055.5 -3.89615 -1.78599 0
M  V30 11107 H 1059.69 -4.77541 -1.35159 0
M  V30 11108 H 1054.94 -6.0649 -0.77328 0
M  V30 11109 H 1059.12 -6.95536 -0.346779 0
M  V30 11110 H 1056.74 -7.60182 -0.0518188 0
M  V30 11111 N 1058.32 0.686584 -1.41858 0
M  V30 11112 C 1059.57 1.44879 -1.41908 0
M  V30 11113 C 1059.9 1.94175 -0.0311408 0
M  V30 11114 O 1059.17 1.70131 0.942646 0
M  V30 11115 C 1059.46 2.65428 -2.43352 0
M  V30 11116 C 1059.31 2.2184 -3.91289 0
M  V30 11117 C 1060.63 3.67635 -2.41934 0
M  V30 11118 H 1057.75 0.525477 -0.516762 0
M  V30 11119 H 1060.39 0.781263 -1.73194 0
M  V30 11120 H 1058.54 3.2238 -2.16803 0
M  V30 11121 H 1060.21 1.70146 -4.28775 0
M  V30 11122 H 1058.45 1.53531 -4.05722 0
M  V30 11123 H 1059.13 3.08376 -4.5783 0
M  V30 11124 H 1061.6 3.20376 -2.65516 0
M  V30 11125 H 1060.48 4.49579 -3.14913 0
M  V30 11126 H 1060.74 4.17953 -1.44111 0
M  V30 11127 N 1059.8 1.27835 0.921735 0
M  V30 11128 C 1060.76 1.11108 2.00469 0
M  V30 11129 C 1061.76 0.053203 1.60712 0
M  V30 11130 O 1062.95 0.298308 1.71627 0
M  V30 11131 C 1060.08 0.694269 3.33755 0
M  V30 11132 H 1061.28 2.07279 2.16738 0
M  V30 11133 H 1058.83 1.10708 1.10333 0
M  V30 11134 H 1059.56 -0.268561 3.23186 0
M  V30 11135 H 1059.35 1.45836 3.6397 0
M  V30 11136 H 1060.84 0.59965 4.13272 0
M  V30 11137 N 1061.28 -1.12907 1.09954 0
M  V30 11138 C 1062.69 -1.65847 0.857417 0
M  V30 11139 C 1063.04 -1.86372 -0.613176 0
M  V30 11140 O 1062.16 -1.58654 -1.47166 0
M  V30 11141 C 1062.76 -3.01269 1.54991 0
M  V30 11142 C 1061.32 -3.51179 1.35462 0
M  V30 11143 C 1060.46 -2.26307 1.60251 0
M  V30 11144 H 1063.41 -0.96755 1.25794 0
M  V30 11145 H 1063.44 -3.675 0.986091 0
M  V30 11146 H 1062.95 -2.86299 2.6202 0
M  V30 11147 H 1061.05 -3.71343 0.305742 0
M  V30 11148 H 1061.16 -4.30955 2.09318 0
M  V30 11149 H 1059.53 -2.33167 1.02494 0
M  V30 11150 H 1060.31 -2.13896 2.68521 0
M  V30 11151 N 1062.75 -0.88754 -1.30232 0
M  V30 11152 C 1063.72 -0.361095 -2.26338 0
M  V30 11153 C 1064.72 0.497871 -1.52898 0
M  V30 11154 O 1065.91 0.30466 -1.71515 0
M  V30 11155 C 1063.04 0.485135 -3.3743 0
M  V30 11156 H 1064.23 -1.20973 -2.74419 0
M  V30 11157 H 1061.78 -0.664619 -1.41466 0
M  V30 11158 H 1062.52 1.35425 -2.9467 0
M  V30 11159 H 1062.3 -0.130173 -3.91884 0
M  V30 11160 H 1063.79 0.845169 -4.08958 0
M  V30 11161 N 1064.23 1.43628 -0.648757 0
M  V30 11162 C 1065.16 2.33478 0.0320785 0
M  V30 11163 C 1066.14 1.49217 0.816605 0
M  V30 11164 O 1067.33 1.77892 0.778974 0
M  V30 11165 C 1064.46 3.32525 1.00222 0
M  V30 11166 C 1063.41 4.2674 0.328119 0
M  V30 11167 C 1062.74 5.15791 1.4094 0
M  V30 11168 C 1064.04 5.16493 -0.776701 0
M  V30 11169 H 1065.73 2.90657 -0.718257 0
M  V30 11170 H 1063.28 1.3976 -0.346852 0
M  V30 11171 H 1065.23 3.94277 1.4874 0
M  V30 11172 H 1063.96 2.73593 1.78366 0
M  V30 11173 H 1062.61 3.66346 -0.136569 0
M  V30 11174 H 1062.26 4.53201 2.18216 0
M  V30 11175 H 1061.96 5.79645 0.963631 0
M  V30 11176 H 1063.49 5.80416 1.89603 0
M  V30 11177 H 1064.9 5.7208 -0.373878 0
M  V30 11178 H 1063.3 5.89043 -1.14667 0
M  V30 11179 H 1064.37 4.56448 -1.63654 0
M  V30 11180 N 1065.71 0.390394 1.52688 0
M  V30 11181 C 1066.96 -0.191445 2.01593 0
M  V30 11182 C 1067.29 -1.46723 1.27681 0
M  V30 11183 O 1066.54 -1.92248 0.365972 0
M  V30 11184 C 1066.84 -0.50468 3.53819 0
M  V30 11185 C 1066.51 0.679691 4.45748 0
M  V30 11186 C 1065.17 1.0046 4.70597 0
M  V30 11187 C 1067.52 1.47198 4.99982 0
M  V30 11188 C 1064.85 2.12334 5.46929 0
M  V30 11189 C 1067.2 2.58133 5.77538 0
M  V30 11190 C 1065.86 2.91131 6.00665 0
M  V30 11191 H 1065.13 -0.0700548 0.737681 0
M  V30 11192 H 1067.78 0.527965 1.84078 0
M  V30 11193 H 1066.09 -1.30543 3.69413 0
M  V30 11194 H 1067.78 -0.967524 3.89153 0
M  V30 11195 H 1064.37 0.416446 4.26572 0
M  V30 11196 H 1068.56 1.2342 4.80709 0
M  V30 11197 H 1063.81 2.38269 5.63061 0
M  V30 11198 H 1067.99 3.19925 6.18564 0
M  V30 11199 H 1065.61 3.77938 6.59596 0
M  V30 11200 N 1067.19 -1.57141 0.120249 0
M  V30 11201 C 1068.43 -1.95527 -0.538245 0
M  V30 11202 C 1068.77 -1.00373 -1.6625 0
M  V30 11203 O 1068.04 -0.0411734 -1.94456 0
M  V30 11204 C 1068.33 -3.43843 -1.06976 0
M  V30 11205 C 1068.18 -4.49771 0.0511596 0
M  V30 11206 C 1069.5 -3.94035 -1.96022 0
M  V30 11207 H 1066.62 -0.710958 -0.194183 0
M  V30 11208 H 1069.26 -1.88986 0.196061 0
M  V30 11209 H 1067.41 -3.49548 -1.69553 0
M  V30 11210 H 1069.08 -4.56163 0.686503 0
M  V30 11211 H 1067.32 -4.27882 0.714127 0
M  V30 11212 H 1067.99 -5.50812 -0.361995 0
M  V30 11213 H 1070.47 -3.9064 -1.43315 0
M  V30 11214 H 1069.35 -4.98329 -2.3013 0
M  V30 11215 H 1069.61 -3.34803 -2.8872 0
M  V30 11216 N 1068.67 0.153526 -1.5685 0
M  V30 11217 C 1069.92 0.865628 -1.82181 0
M  V30 11218 C 1070.23 1.82629 -0.700434 0
M  V30 11219 O 1071.43 2.58206 -0.839155 0
M  V30 11220 C 1069.89 1.58993 -3.22877 0
M  V30 11221 C 1069.5 0.672006 -4.42931 0
M  V30 11222 C 1071.24 2.2892 -3.57486 0
M  V30 11223 C 1069.15 1.39755 -5.7465 0
M  V30 11224 H 1068.08 0.326993 -0.679406 0
M  V30 11225 H 1070.73 0.118403 -1.83118 0
M  V30 11226 H 1069.11 2.38255 -3.16308 0
M  V30 11227 H 1070.29 -0.0849226 -4.60722 0
M  V30 11228 H 1068.6 0.0814825 -4.1632 0
M  V30 11229 H 1071.2 2.8383 -4.5315 0
M  V30 11230 H 1071.54 3.05105 -2.83226 0
M  V30 11231 H 1072.07 1.56583 -3.65686 0
M  V30 11232 H 1068.81 0.677686 -6.51987 0
M  V30 11233 H 1068.33 2.12736 -5.60806 0
M  V30 11234 H 1070.01 1.94024 -6.17223 0
M  V30 11235 N 1070.14 1.51827 0.422667 0
M  V30 11236 C 1071.39 1.65464 1.17258 0
M  V30 11237 C 1071.72 0.376834 1.90509 0
M  V30 11238 O 1071 -0.624219 1.84211 0
M  V30 11239 C 1071.28 2.86776 2.17788 0
M  V30 11240 C 1071.13 4.24571 1.48523 0
M  V30 11241 C 1072.45 3.03603 3.18611 0
M  V30 11242 H 1069.57 0.602169 0.424925 0
M  V30 11243 H 1072.21 1.84349 0.45996 0
M  V30 11244 H 1070.36 2.70806 2.78561 0
M  V30 11245 H 1072.04 4.5224 0.909739 0
M  V30 11246 H 1070.28 4.26595 0.787354 0
M  V30 11247 H 1070.95 5.05475 2.2181 0
M  V30 11248 H 1073.43 3.18381 2.67904 0
M  V30 11249 H 1072.3 3.90022 3.8623 0
M  V30 11250 H 1072.56 2.16318 3.85563 0
M  V30 11251 N 1071.62 -0.679052 1.4222 0
M  V30 11252 C 1072.87 -1.44125 1.42674 0
M  V30 11253 C 1073.2 -1.94156 0.041438 0
M  V30 11254 O 1072.48 -1.70628 -0.93361 0
M  V30 11255 C 1072.76 -2.64133 2.44756 0
M  V30 11256 C 1072.61 -2.19761 3.9246 0
M  V30 11257 C 1073.93 -3.66347 2.43881 0
M  V30 11258 H 1071.05 -0.522729 0.519541 0
M  V30 11259 H 1073.69 -0.772067 1.73606 0
M  V30 11260 H 1071.84 -3.21225 2.1851 0
M  V30 11261 H 1073.51 -1.67869 4.29671 0
M  V30 11262 H 1071.76 -1.51377 4.06531 0
M  V30 11263 H 1072.43 -3.05944 4.59459 0
M  V30 11264 H 1074.9 -3.18963 2.67211 0
M  V30 11265 H 1073.78 -4.47902 3.17293 0
M  V30 11266 H 1074.04 -4.17183 1.46325 0
M  V30 11267 N 1073.1 -1.28322 -0.914942 0
M  V30 11268 C 1074.05 -1.12003 -2.03858 0
M  V30 11269 C 1075.04 -0.0396287 -1.69354 0
M  V30 11270 O 1076.25 -0.198309 -1.78904 0
M  V30 11271 H 1072.62 -0.34552 -0.667922 0
M  V30 11272 H 1074.59 -2.07168 -2.14765 0
M  V30 11273 C 1073.34 -0.797402 -3.38433 0
M  V30 11274 H 1072.67 -1.62071 -3.65476 0
M  V30 11275 H 1074.11 -0.723165 -4.17787 0
M  V30 11276 C 1072.57 0.498807 -3.33187 0
M  V30 11277 O 1073.1 1.52946 -3.71444 0
M  V30 11278 N 1071.3 0.499101 -2.86282 0
M  V30 11279 H 1070.85 -0.340056 -2.55346 0
M  V30 11280 H 1070.81 1.36641 -2.83155 0
M  V30 11281 N 1074.58 1.12322 -1.10551 0
M  V30 11282 C 1075.83 1.83216 -0.84349 0
M  V30 11283 C 1076.14 1.85075 0.632992 0
M  V30 11284 O 1077.35 2.51976 1.01095 0
M  V30 11285 C 1075.8 3.28994 -1.45915 0
M  V30 11286 C 1075.41 3.3549 -2.96901 0
M  V30 11287 C 1077.15 4.0485 -1.27657 0
M  V30 11288 C 1075.06 4.7561 -3.51496 0
M  V30 11289 H 1073.99 0.686471 -0.311887 0
M  V30 11290 H 1076.64 1.26463 -1.32964 0
M  V30 11291 H 1075.02 3.85621 -0.900678 0
M  V30 11292 H 1076.2 2.88795 -3.59074 0
M  V30 11293 H 1074.51 2.73107 -3.14327 0
M  V30 11294 H 1077.11 5.08316 -1.65889 0
M  V30 11295 H 1077.45 4.15727 -0.218258 0
M  V30 11296 H 1077.99 3.54584 -1.80318 0
M  V30 11297 H 1074.73 4.69927 -4.56999 0
M  V30 11298 H 1074.25 5.22753 -2.94091 0
M  V30 11299 H 1075.92 5.44552 -3.49388 0
M  V30 11300 N 1076.06 0.894434 1.2976 0
M  V30 11301 C 1077.3 0.516646 1.95385 0
M  V30 11302 C 1077.63 -0.939141 1.70895 0
M  V30 11303 O 1076.9 -1.66153 1.03778 0
M  V30 11304 H 1075.48 0.188072 0.722937 0
M  V30 11305 H 1078.14 1.13958 1.58113 0
M  V30 11306 H 1077.23 0.694819 3.04267 0
M  V30 11307 N 1077.53 -1.43282 0.656365 0
M  V30 11308 C 1078.78 -2.00996 0.168354 0
M  V30 11309 C 1079.1 -1.52408 -1.22601 0
M  V30 11310 O 1080.3 -2.02417 -1.80941 0
M  V30 11311 C 1078.76 -3.5903 0.250161 0
M  V30 11312 C 1078.37 -4.1661 1.64742 0
M  V30 11313 C 1080.11 -4.24118 -0.180084 0
M  V30 11314 C 1078.02 -5.66948 1.68299 0
M  V30 11315 H 1076.95 -0.751674 0.0591769 0
M  V30 11316 H 1079.6 -1.64216 0.818859 0
M  V30 11317 H 1077.98 -3.93226 -0.467908 0
M  V30 11318 H 1079.15 -3.93908 2.3911 0
M  V30 11319 H 1077.47 -3.63905 2.02391 0
M  V30 11320 H 1080.07 -5.34419 -0.173401 0
M  V30 11321 H 1080.41 -3.98264 -1.21208 0
M  V30 11322 H 1080.94 -3.94816 0.486343 0
M  V30 11323 H 1077.68 -5.97573 2.69419 0
M  V30 11324 H 1077.2 -5.91697 0.98261 0
M  V30 11325 H 1078.88 -6.31041 1.42813 0
M  V30 11326 N 1079.01 -0.398486 -1.52479 0
M  V30 11327 C 1079.94 0.423498 -2.29627 0
M  V30 11328 C 1080.92 1.05547 -1.33394 0
M  V30 11329 O 1082.11 1.0665 -1.62294 0
M  V30 11330 C 1079.24 1.54612 -3.10986 0
M  V30 11331 C 1078.19 1.03971 -4.15179 0
M  V30 11332 C 1077.52 2.25512 -4.84818 0
M  V30 11333 C 1078.82 0.10121 -5.22202 0
M  V30 11334 H 1080.51 -0.220222 -2.98589 0
M  V30 11335 H 1078.06 -0.107355 -1.43599 0
M  V30 11336 H 1080.01 2.12806 -3.63719 0
M  V30 11337 H 1078.74 2.21756 -2.39774 0
M  V30 11338 H 1077.4 0.480251 -3.63441 0
M  V30 11339 H 1077.04 2.91187 -4.10145 0
M  V30 11340 H 1076.74 1.92285 -5.55248 0
M  V30 11341 H 1078.27 2.84331 -5.40359 0
M  V30 11342 H 1079.68 0.591617 -5.70239 0
M  V30 11343 H 1078.08 -0.141737 -5.99933 0
M  V30 11344 H 1079.15 -0.847216 -4.77441 0
M  V30 11345 N 1080.49 1.57075 -0.12858 0
M  V30 11346 C 1081.74 1.94695 0.526952 0
M  V30 11347 C 1082.05 1.01482 1.67215 0
M  V30 11348 O 1083.26 1.28606 2.39108 0
M  V30 11349 C 1081.72 3.4605 0.988801 0
M  V30 11350 C 1081.32 4.47816 -0.128457 0
M  V30 11351 C 1083.07 3.92572 1.61517 0
M  V30 11352 C 1080.97 5.9036 0.350628 0
M  V30 11353 H 1079.9 0.726819 0.200623 0
M  V30 11354 H 1082.56 1.82295 -0.209972 0
M  V30 11355 H 1080.94 3.53718 1.78043 0
M  V30 11356 H 1082.11 4.51826 -0.904976 0
M  V30 11357 H 1080.43 4.11103 -0.662075 0
M  V30 11358 H 1083.02 4.96493 1.98491 0
M  V30 11359 H 1083.37 3.33085 2.49721 0
M  V30 11360 H 1083.9 3.87744 0.888768 0
M  V30 11361 H 1080.64 6.53624 -0.495592 0
M  V30 11362 H 1080.16 5.89749 1.09342 0
M  V30 11363 H 1081.84 6.41926 0.808717 0
M  V30 11364 N 1081.97 -0.145205 1.5693 0
M  V30 11365 C 1082.93 -1.16316 1.97492 0
M  V30 11366 C 1083.93 -1.35764 0.861668 0
M  V30 11367 O 1085.12 -1.32726 1.12825 0
M  V30 11368 C 1082.25 -2.52311 2.29242 0
M  V30 11369 H 1083.45 -0.815138 2.8861 0
M  V30 11370 H 1081 -0.38861 1.51392 0
M  V30 11371 H 1081.74 -2.92081 1.40922 0
M  V30 11372 H 1081.52 -2.39555 3.10412 0
M  V30 11373 H 1083.01 -3.25624 2.61456 0
M  V30 11374 N 1083.45 -1.52049 -0.414609 0
M  V30 11375 C 1084.69 -1.66084 -1.16379 0
M  V30 11376 C 1085.03 -0.386932 -1.90306 0
M  V30 11377 O 1084.3 0.614441 -1.8454 0
M  V30 11378 C 1084.58 -2.87927 -2.16264 0
M  V30 11379 C 1084.44 -4.25353 -1.46269 0
M  V30 11380 C 1085.76 -3.05289 -3.16996 0
M  V30 11381 H 1082.88 -0.604414 -0.421726 0
M  V30 11382 H 1085.52 -1.8459 -0.450177 0
M  V30 11383 H 1083.67 -2.7228 -2.77121 0
M  V30 11384 H 1085.34 -4.52717 -0.885743 0
M  V30 11385 H 1083.58 -4.27006 -0.76472 0
M  V30 11386 H 1084.25 -5.06644 -2.19126 0
M  V30 11387 H 1086.73 -3.19798 -2.66212 0
M  V30 11388 H 1085.61 -3.92065 -3.84156 0
M  V30 11389 H 1085.87 -2.1836 -3.84411 0
M  V30 11390 N 1084.93 0.6715 -1.42579 0
M  V30 11391 C 1086.15 1.45972 -1.46628 0
M  V30 11392 C 1086.57 1.88636 -0.0785986 0
M  V30 11393 O 1085.93 1.58345 0.907372 0
M  V30 11394 C 1085.98 2.70668 -2.39627 0
M  V30 11395 O 1085.7 2.29793 -3.72997 0
M  V30 11396 C 1087.2 3.64201 -2.52731 0
M  V30 11397 H 1084.42 0.449044 -0.498598 0
M  V30 11398 H 1086.96 0.824811 -1.87129 0
M  V30 11399 H 1085.12 3.3034 -2.02371 0
M  V30 11400 H 1085.53 3.10341 -4.22834 0
M  V30 11401 H 1087.01 4.48412 -3.21918 0
M  V30 11402 H 1087.48 4.10323 -1.56626 0
M  V30 11403 H 1088.09 3.1042 -2.90722 0
M  V30 11404 N 1086.4 1.28806 0.908124 0
M  V30 11405 C 1087.82 1.06634 1.18749 0
M  V30 11406 C 1088.02 -0.187729 2.00624 0
M  V30 11407 O 1087.08 -0.88784 2.36376 0
M  V30 11408 C 1088.39 2.31703 1.91661 0
M  V30 11409 C 1089.94 2.36939 2.04521 0
M  V30 11410 C 1090.41 3.61789 2.80843 0
M  V30 11411 N 1091.9 3.62462 2.88402 0
M  V30 11412 C 1092.64 4.55746 3.47971 0
M  V30 11413 N 1092.13 5.59353 4.08774 0
M  V30 11414 N 1093.93 4.43331 3.45564 0
M  V30 11415 H 1086.08 2.09299 0.36164 0
M  V30 11416 H 1088.34 0.921479 0.222668 0
M  V30 11417 H 1088.05 3.23096 1.38931 0
M  V30 11418 H 1087.92 2.38556 2.92183 0
M  V30 11419 H 1090.31 1.4604 2.5643 0
M  V30 11420 H 1090.39 2.34077 1.03159 0
M  V30 11421 H 1090.03 4.53035 2.29612 0
M  V30 11422 H 1089.96 3.61907 3.82532 0
M  V30 11423 H 1092.45 2.87544 2.45208 0
M  V30 11424 H 1092.77 6.26668 4.52224 0
M  V30 11425 H 1091.11 5.63173 4.07261 0
M  V30 11426 H 1094.3 3.61587 2.97276 0
M  V30 11427 H 1094.48 5.16216 3.91695 0
M  V30 11428 N 1087.88 -1.11734 1.11145 0
M  V30 11429 C 1089.13 -1.83677 0.859684 0
M  V30 11430 C 1089.46 -1.84265 -0.613182 0
M  V30 11431 O 1088.74 -1.29351 -1.45254 0
M  V30 11432 C 1089.02 -3.31003 1.41805 0
M  V30 11433 C 1088.87 -3.38827 2.95831 0
M  V30 11434 C 1090.19 -4.26984 1.06645 0
M  V30 11435 H 1087.31 -0.666879 0.313754 0
M  V30 11436 H 1089.95 -1.31038 1.37583 0
M  V30 11437 H 1088.1 -3.75961 0.979054 0
M  V30 11438 H 1089.77 -3.02451 3.48312 0
M  V30 11439 H 1088.02 -2.79143 3.32056 0
M  V30 11440 H 1088.69 -4.42508 3.29986 0
M  V30 11441 H 1091.16 -3.9019 1.44537 0
M  V30 11442 H 1090.04 -5.2846 1.48394 0
M  V30 11443 H 1090.3 -4.42094 -0.0231866 0
M  V30 11444 N 1089.36 -0.901303 -1.29284 0
M  V30 11445 C 1090.61 -0.52401 -1.94774 0
M  V30 11446 C 1090.92 0.934645 -1.71825 0
M  V30 11447 O 1092.13 1.41953 -2.31434 0
M  V30 11448 C 1090.58 -0.886262 -3.48817 0
M  V30 11449 C 1090.19 -2.3638 -3.80564 0
M  V30 11450 C 1091.94 -0.578955 -4.20533 0
M  V30 11451 C 1089.84 -2.66682 -5.27858 0
M  V30 11452 H 1088.77 -0.192244 -0.72908 0
M  V30 11453 H 1091.42 -1.09852 -1.46986 0
M  V30 11454 H 1089.81 -0.240666 -3.95268 0
M  V30 11455 H 1090.98 -3.05508 -3.44966 0
M  V30 11456 H 1089.29 -2.64029 -3.2199 0
M  V30 11457 H 1091.89 -0.782185 -5.28948 0
M  V30 11458 H 1092.23 0.482605 -4.13493 0
M  V30 11459 H 1092.77 -1.18246 -3.79819 0
M  V30 11460 H 1089.51 -3.71643 -5.39965 0
M  V30 11461 H 1089.03 -2.02179 -5.64698 0
M  V30 11462 H 1090.71 -2.53033 -5.95469 0
M  V30 11463 N 1090.84 1.42931 -0.663954 0
M  V30 11464 C 1092.06 2.06544 -0.188201 0
M  V30 11465 C 1092.49 1.495 1.14155 0
M  V30 11466 O 1091.85 0.609164 1.7076 0
M  V30 11467 C 1091.89 3.60393 -0.122105 0
M  V30 11468 O 1091 4.02176 0.91258 0
M  V30 11469 H 1090.34 0.656458 -0.0997967 0
M  V30 11470 H 1092.87 1.83253 -0.909909 0
M  V30 11471 H 1092.88 4.07959 0.0576568 0
M  V30 11472 H 1091.55 4.01287 -1.09276 0
M  V30 11473 H 1090.13 3.6618 0.704738 0
M  V30 11474 N 1092.32 0.406567 1.52266 0
M  V30 11475 C 1093.25 -0.45552 2.24628 0
M  V30 11476 C 1094.26 -1.01234 1.27497 0
M  V30 11477 O 1095.45 -0.911718 1.5346 0
M  V30 11478 C 1092.55 -1.64578 2.96256 0
M  V30 11479 C 1091.72 -1.2133 4.20235 0
M  V30 11480 C 1090.78 -2.27018 4.7471 0
M  V30 11481 O 1089.81 -1.87714 5.37357 0
M  V30 11482 N 1091.01 -3.5915 4.56061 0
M  V30 11483 H 1093.77 0.164525 2.99248 0
M  V30 11484 H 1091.34 0.233812 1.60203 0
M  V30 11485 H 1093.33 -2.3484 3.29594 0
M  V30 11486 H 1091.9 -2.1718 2.24837 0
M  V30 11487 H 1091.12 -0.338892 3.92741 0
M  V30 11488 H 1092.41 -0.901268 5.00754 0
M  V30 11489 H 1091.8 -3.93834 4.06092 0
M  V30 11490 H 1090.36 -4.25397 4.93843 0
M  V30 11491 N 1093.79 -1.57004 0.136909 0
M  V30 11492 C 1095.04 -1.94972 -0.51662 0
M  V30 11493 C 1095.36 -1.02367 -1.66674 0
M  V30 11494 O 1096.56 -1.29873 -2.38423 0
M  V30 11495 C 1095.02 -3.4657 -0.970435 0
M  V30 11496 C 1094.63 -4.47741 0.152204 0
M  V30 11497 C 1096.37 -3.93423 -1.59432 0
M  V30 11498 C 1094.28 -5.90537 -0.319315 0
M  V30 11499 H 1093.21 -0.727873 -0.196766 0
M  V30 11500 H 1095.86 -1.82181 0.219637 0
M  V30 11501 H 1094.24 -3.54657 -1.76165 0
M  V30 11502 H 1095.41 -4.5134 0.928925 0
M  V30 11503 H 1093.73 -4.10746 0.683867 0
M  V30 11504 H 1096.33 -4.97539 -1.95856 0
M  V30 11505 H 1096.67 -3.34404 -2.47951 0
M  V30 11506 H 1097.2 -3.8821 -0.868193 0
M  V30 11507 H 1093.94 -6.53352 0.530248 0
M  V30 11508 H 1093.46 -5.90321 -1.06213 0
M  V30 11509 H 1095.14 -6.42346 -0.774662 0
M  V30 11510 N 1095.27 0.136881 -1.57004 0
M  V30 11511 C 1096.5 0.866405 -1.88436 0
M  V30 11512 C 1096.92 1.73483 -0.727006 0
M  V30 11513 O 1096.28 1.78398 0.323094 0
M  V30 11514 C 1096.33 1.69059 -3.18514 0
M  V30 11515 O 1095.43 2.79584 -3.03161 0
M  V30 11516 H 1094.77 0.240709 -0.618834 0
M  V30 11517 H 1097.3 0.124653 -2.0422 0
M  V30 11518 H 1097.31 2.08353 -3.50789 0
M  V30 11519 H 1095.99 1.05296 -4.0235 0
M  V30 11520 H 1094.57 2.43623 -2.82315 0
M  V30 11521 N 1096.75 1.52266 0.40654 0
M  V30 11522 C 1097.71 1.75168 1.47814 0
M  V30 11523 C 1098.71 0.621575 1.48301 0
M  V30 11524 O 1099.9 0.889476 1.4978 0
M  V30 11525 C 1097.04 1.83642 2.87208 0
M  V30 11526 H 1098.23 2.70834 1.28798 0
M  V30 11527 H 1095.78 1.42722 0.637196 0
M  V30 11528 H 1096.52 0.898994 3.1159 0
M  V30 11529 H 1096.3 2.65801 2.88257 0
M  V30 11530 H 1097.79 2.03093 3.64888 0
M  V30 11531 N 1098.23 -0.663929 1.42933 0
M  V30 11532 C 1099.51 -1.42054 1.34462 0
M  V30 11533 C 1099.89 -2.11096 -0.0127801 0
M  V30 11534 O 1099.23 -2.04027 -1.02884 0
M  V30 11535 C 1099.44 -2.41406 2.5204 0
M  V30 11536 C 1100.79 -3.05726 2.94647 0
M  V30 11537 O 1101.82 -2.51733 2.52009 0
M  V30 11538 O 1100.67 -4.03593 3.68477 0
M  V30 11539 H 1097.77 -0.634149 0.530834 0
M  V30 11540 H 1100.31 -0.691738 1.54962 0
M  V30 11541 H 1099.09 -1.89263 3.42484 0
M  V30 11542 H 1098.71 -3.21752 2.33584 0
M  V30 11543 N 1099.71 -1.29285 -0.901281 0
M  V30 11544 C 1100.65 -1.14159 -2.02659 0
M  V30 11545 C 1101.65 -0.0575887 -1.69302 0
M  V30 11546 O 1102.85 -0.217273 -1.78684 0
M  V30 11547 H 1099.23 -0.352584 -0.66422 0
M  V30 11548 H 1101.2 -2.09434 -2.12555 0
M  V30 11549 C 1099.95 -0.833253 -3.37568 0
M  V30 11550 H 1099.27 -1.65939 -3.63737 0
M  V30 11551 H 1100.71 -0.767436 -4.16997 0
M  V30 11552 C 1099.17 0.46344 -3.33697 0
M  V30 11553 O 1099.7 1.48998 -3.73045 0
M  V30 11554 N 1097.91 0.468709 -2.86795 0
M  V30 11555 H 1097.45 -0.36712 -2.54971 0
M  V30 11556 H 1097.41 1.3363 -2.84588 0
M  V30 11557 N 1101.18 1.11143 -1.11736 0
M  V30 11558 C 1102.41 1.86474 -0.889435 0
M  V30 11559 C 1102.82 1.80584 0.564438 0
M  V30 11560 O 1102.17 1.18743 1.40163 0
M  V30 11561 C 1102.23 3.36066 -1.27671 0
M  V30 11562 C 1101.89 3.65721 -2.74038 0
M  V30 11563 C 1102.89 3.62941 -3.7225 0
M  V30 11564 C 1100.57 3.94629 -3.10762 0
M  V30 11565 C 1102.57 3.88651 -5.05202 0
M  V30 11566 C 1100.25 4.19997 -4.43899 0
M  V30 11567 C 1101.25 4.16996 -5.40928 0
M  V30 11568 O 1100.94 4.41724 -6.71666 0
M  V30 11569 H 1100.67 0.596438 -0.318178 0
M  V30 11570 H 1103.23 1.41465 -1.48918 0
M  V30 11571 H 1101.46 3.81695 -0.620124 0
M  V30 11572 H 1103.15 3.92769 -1.02409 0
M  V30 11573 H 1103.91 3.40655 -3.45223 0
M  V30 11574 H 1099.79 3.96099 -2.35853 0
M  V30 11575 H 1103.33 3.86224 -5.80927 0
M  V30 11576 H 1099.23 4.4176 -4.70657 0
M  V30 11577 H 1100 4.59276 -6.77501 0
M  V30 11578 N 1102.66 0.908147 1.28804 0
M  V30 11579 C 1103.61 0.390734 2.27468 0
M  V30 11580 C 1104.58 -0.531765 1.57358 0
M  V30 11581 O 1105.76 -0.455177 1.85291 0
M  V30 11582 C 1102.9 -0.368159 3.43131 0
M  V30 11583 C 1102.02 0.586202 4.28004 0
M  V30 11584 C 1101.15 -0.190581 5.30858 0
M  V30 11585 C 1100.19 0.757758 6.07391 0
M  V30 11586 N 1099.33 0.0148488 7.02098 0
M  V30 11587 H 1104.17 1.23717 2.71105 0
M  V30 11588 H 1101.71 0.621382 1.33331 0
M  V30 11589 H 1103.66 -0.824289 4.08976 0
M  V30 11590 H 1102.29 -1.17898 3.00499 0
M  V30 11591 H 1101.35 1.16086 3.62254 0
M  V30 11592 H 1102.66 1.31177 4.81242 0
M  V30 11593 H 1101.81 -0.707528 6.0256 0
M  V30 11594 H 1100.55 -0.949234 4.78373 0
M  V30 11595 H 1099.56 1.28613 5.34545 0
M  V30 11596 H 1100.78 1.51588 6.61965 0
M  V30 11597 H 1098.73 -0.725916 6.51971 0
M  V30 11598 H 1098.64 0.680347 7.52932 0
M  V30 11599 H 1099.91 -0.482086 7.78008 0
M  V30 11600 N 1104.14 -1.42577 0.671525 0
M  V30 11601 C 1105.39 -2.00806 0.189663 0
M  V30 11602 C 1105.7 -1.537 -1.20978 0
M  V30 11603 O 1106.91 -2.04325 -1.78784 0
M  V30 11604 C 1105.36 -3.58744 0.288227 0
M  V30 11605 C 1104.97 -4.14839 1.69152 0
M  V30 11606 C 1106.72 -4.24285 -0.13509 0
M  V30 11607 C 1104.62 -5.65131 1.74302 0
M  V30 11608 H 1103.55 -0.751004 0.067146 0
M  V30 11609 H 1106.2 -1.63338 0.83623 0
M  V30 11610 H 1104.59 -3.937 -0.426175 0
M  V30 11611 H 1105.76 -3.91349 2.43274 0
M  V30 11612 H 1104.08 -3.61738 2.0624 0
M  V30 11613 H 1106.67 -5.34573 -0.116709 0
M  V30 11614 H 1107.02 -3.99527 -1.16977 0
M  V30 11615 H 1107.55 -3.94278 0.528191 0
M  V30 11616 H 1104.29 -5.94682 2.75742 0
M  V30 11617 H 1103.81 -5.90621 1.04531 0
M  V30 11618 H 1105.49 -6.29491 1.49498 0
M  V30 11619 N 1105.62 -0.414636 -1.52048 0
M  V30 11620 C 1106.57 0.42561 -2.23992 0
M  V30 11621 C 1107.55 1.00894 -1.25337 0
M  V30 11622 O 1108.74 0.930842 -1.50547 0
M  V30 11623 C 1105.87 1.53874 -3.06884 0
M  V30 11624 C 1104.96 0.965913 -4.12954 0
M  V30 11625 N 1105.35 0.12023 -5.05657 0
M  V30 11626 C 1103.65 1.23586 -4.28535 0
M  V30 11627 C 1104.35 -0.199063 -5.81359 0
M  V30 11628 N 1103.33 0.411505 -5.4204 0
M  V30 11629 H 1107.13 -0.226746 -2.93024 0
M  V30 11630 H 1104.64 -0.225376 -1.60829 0
M  V30 11631 H 1106.64 2.15334 -3.56983 0
M  V30 11632 H 1105.3 2.19366 -2.39392 0
M  V30 11633 H 1106.31 -0.244501 -5.17323 0
M  V30 11634 H 1102.99 1.88995 -3.72273 0
M  V30 11635 H 1104.38 -0.88585 -6.66035 0
M  V30 11636 N 1107.1 1.56929 -0.145233 0
M  V30 11637 C 1108.34 1.95681 0.50532 0
M  V30 11638 C 1108.67 1.03098 1.65516 0
M  V30 11639 O 1107.94 0.0921961 1.95683 0
M  V30 11640 H 1106.52 0.72252 0.189668 0
M  V30 11641 H 1109.18 1.93651 -0.220318 0
M  V30 11642 H 1108.27 2.99359 0.882631 0
M  V30 11643 N 1108.58 -0.128553 1.57075 0
M  V30 11644 C 1109.85 -0.867766 1.75297 0
M  V30 11645 C 1110.23 -1.98508 0.718176 0
M  V30 11646 O 1109.58 -2.2702 -0.259616 0
M  V30 11647 C 1109.79 -1.39326 3.19983 0
M  V30 11648 C 1111.14 -1.84939 3.82208 0
M  V30 11649 O 1112.16 -1.49027 3.23527 0
M  V30 11650 O 1111.02 -2.51227 4.85332 0
M  V30 11651 H 1108.12 -0.411393 0.717415 0
M  V30 11652 H 1110.66 -0.113038 1.69323 0
M  V30 11653 H 1109.43 -0.591172 3.86809 0
M  V30 11654 H 1109.06 -2.21097 3.30457 0
M  V30 11655 N 1110.05 -1.5248 -0.398459 0
M  V30 11656 C 1111.46 -1.59107 -0.976817 0
M  V30 11657 C 1111.82 -0.438104 -1.91246 0
M  V30 11658 O 1110.94 0.440111 -2.11877 0
M  V30 11659 C 1111.54 -2.88373 -1.77838 0
M  V30 11660 C 1110.09 -2.97445 -2.30659 0
M  V30 11661 C 1109.24 -2.5414 -1.10942 0
M  V30 11662 H 1112.19 -1.57695 -0.178324 0
M  V30 11663 H 1112.21 -2.74327 -2.63676 0
M  V30 11664 H 1111.73 -3.72269 -1.09714 0
M  V30 11665 H 1109.83 -2.18066 -3.02123 0
M  V30 11666 H 1109.94 -4.019 -2.60794 0
M  V30 11667 H 1108.3 -2.08237 -1.46661 0
M  V30 11668 H 1109.09 -3.40421 -0.443684 0
M  V30 11669 N 1111.53 0.65634 -1.43283 0
M  V30 11670 C 1112.76 1.44906 -1.48382 0
M  V30 11671 C 1113.18 1.87823 -0.101993 0
M  V30 11672 O 1112.54 1.57178 0.903597 0
M  V30 11673 C 1112.59 2.66231 -2.43215 0
M  V30 11674 O 1111.69 3.65176 -1.91625 0
M  V30 11675 H 1111.03 0.434601 -0.502014 0
M  V30 11676 H 1113.56 0.803429 -1.88165 0
M  V30 11677 H 1113.57 3.14083 -2.60414 0
M  V30 11678 H 1112.25 2.34336 -3.43598 0
M  V30 11679 H 1110.82 3.24302 -1.84072 0
M  V30 11680 N 1113.01 1.29761 0.894412 0
M  V30 11681 C 1113.97 1.15335 1.98067 0
M  V30 11682 C 1114.97 0.0872804 1.60563 0
M  V30 11683 O 1116.16 0.334645 1.70955 0
M  V30 11684 C 1113.29 0.764907 3.32208 0
M  V30 11685 H 1114.49 2.11829 2.12293 0
M  V30 11686 H 1112.04 1.13023 1.0796 0
M  V30 11687 H 1112.78 -0.199948 3.23683 0
M  V30 11688 H 1112.56 1.53523 3.60795 0
M  V30 11689 H 1114.05 0.687176 4.11907 0
M  V30 11690 N 1114.49 -1.10549 1.12324 0
M  V30 11691 C 1115.73 -1.82485 0.877817 0
M  V30 11692 C 1116.06 -1.85131 -0.596373 0
M  V30 11693 O 1115.32 -1.30675 -1.45679 0
M  V30 11694 C 1115.62 -3.28997 1.39626 0
M  V30 11695 C 1115.28 -3.465 2.88529 0
M  V30 11696 C 1113.94 -3.50984 3.29186 0
M  V30 11697 C 1116.3 -3.51991 3.84385 0
M  V30 11698 C 1113.62 -3.58525 4.6441 0
M  V30 11699 C 1115.98 -3.61065 5.19437 0
M  V30 11700 C 1114.64 -3.63813 5.5964 0
M  V30 11701 H 1113.91 -0.667758 0.321216 0
M  V30 11702 H 1116.56 -1.30314 1.40323 0
M  V30 11703 H 1114.86 -3.83726 0.791291 0
M  V30 11704 H 1116.56 -3.83165 1.18259 0
M  V30 11705 H 1113.15 -3.43686 2.56082 0
M  V30 11706 H 1117.33 -3.47777 3.54069 0
M  V30 11707 H 1112.59 -3.58934 4.94951 0
M  V30 11708 H 1116.76 -3.64257 5.9354 0
M  V30 11709 H 1114.39 -3.69409 6.6441 0
M  V30 11710 N 1115.97 -0.914965 -1.28321 0
M  V30 11711 C 1116.91 -0.402792 -2.27258 0
M  V30 11712 C 1117.88 0.523412 -1.57638 0
M  V30 11713 O 1119.07 0.445344 -1.8553 0
M  V30 11714 C 1116.21 0.349956 -3.43321 0
M  V30 11715 C 1115.32 -0.608892 -4.27687 0
M  V30 11716 C 1114.46 0.162425 -5.30952 0
M  V30 11717 C 1113.49 -0.789959 -6.06981 0
M  V30 11718 N 1112.63 -0.0520826 -7.02081 0
M  V30 11719 H 1117.47 -1.25153 -2.70446 0
M  V30 11720 H 1115.01 -0.628444 -1.33 0
M  V30 11721 H 1116.97 0.802589 -4.09407 0
M  V30 11722 H 1115.6 1.16303 -3.01121 0
M  V30 11723 H 1114.65 -1.18005 -3.61634 0
M  V30 11724 H 1115.96 -1.33727 -4.8054 0
M  V30 11725 H 1115.11 0.675563 -6.02927 0
M  V30 11726 H 1113.85 0.923851 -4.7887 0
M  V30 11727 H 1112.86 -1.31446 -5.33856 0
M  V30 11728 H 1114.08 -1.55096 -6.61152 0
M  V30 11729 H 1112.03 0.691331 -6.52347 0
M  V30 11730 H 1111.95 -0.720267 -7.52561 0
M  V30 11731 H 1113.21 0.44082 -7.78253 0
M  V30 11732 N 1117.44 1.42219 -0.679077 0
M  V30 11733 C 1118.37 2.33493 -0.0174528 0
M  V30 11734 C 1119.35 1.50915 0.78477 0
M  V30 11735 O 1120.54 1.79504 0.741065 0
M  V30 11736 C 1117.67 3.34576 0.931463 0
M  V30 11737 C 1116.62 4.2734 0.237527 0
M  V30 11738 C 1115.95 5.18664 1.29967 0
M  V30 11739 C 1117.25 5.14729 -0.886082 0
M  V30 11740 H 1118.94 2.89068 -0.779748 0
M  V30 11741 H 1116.49 1.38993 -0.376419 0
M  V30 11742 H 1118.44 3.97343 1.40343 0
M  V30 11743 H 1117.17 2.77315 1.72523 0
M  V30 11744 H 1115.83 3.65973 -0.214245 0
M  V30 11745 H 1115.47 4.57727 2.08554 0
M  V30 11746 H 1115.17 5.81558 0.840463 0
M  V30 11747 H 1116.7 5.84308 1.77249 0
M  V30 11748 H 1118.11 5.71158 -0.495141 0
M  V30 11749 H 1116.51 5.86478 -1.27135 0
M  V30 11750 H 1117.58 4.52874 -1.733 0
M  V30 11751 N 1118.92 0.422693 1.51826 0
M  V30 11752 C 1120.15 -0.147744 2.06372 0
M  V30 11753 C 1120.56 -1.37714 1.29152 0
M  V30 11754 O 1119.92 -1.7917 0.347046 0
M  V30 11755 C 1119.97 -0.484642 3.58237 0
M  V30 11756 O 1119.69 0.695944 4.32537 0
M  V30 11757 C 1121.19 -1.10734 4.29247 0
M  V30 11758 H 1118.41 -0.0144047 0.670845 0
M  V30 11759 H 1120.96 0.597558 1.95575 0
M  V30 11760 H 1119.11 -1.17984 3.68997 0
M  V30 11761 H 1119.53 0.411471 5.22884 0
M  V30 11762 H 1121 -1.29318 5.36639 0
M  V30 11763 H 1121.48 -2.08429 3.86593 0
M  V30 11764 H 1122.08 -0.451958 4.22892 0
M  V30 11765 N 1120.4 -1.5685 0.153553 0
M  V30 11766 C 1121.36 -2.15894 -0.769564 0
M  V30 11767 C 1122.36 -1.10239 -1.17064 0
M  V30 11768 O 1123.55 -1.35845 -1.09049 0
M  V30 11769 C 1120.68 -2.72738 -2.04516 0
M  V30 11770 H 1121.88 -2.98807 -0.255842 0
M  V30 11771 H 1119.43 -1.56005 -0.0959279 0
M  V30 11772 H 1120.17 -1.9351 -2.60239 0
M  V30 11773 H 1119.95 -3.50042 -1.76672 0
M  V30 11774 H 1121.44 -3.18208 -2.70432 0
M  V30 11775 N 1121.88 0.120221 -1.57141 0
M  V30 11776 C 1122.82 1.14751 -2.00252 0
M  V30 11777 C 1123.79 1.41217 -0.874462 0
M  V30 11778 O 1124.98 1.53104 -1.13859 0
M  V30 11779 C 1122.12 2.46923 -2.41087 0
M  V30 11780 C 1121.23 2.27403 -3.67303 0
M  V30 11781 C 1120.37 3.52797 -3.97125 0
M  V30 11782 C 1119.41 3.28429 -5.16528 0
M  V30 11783 N 1118.54 4.46022 -5.42226 0
M  V30 11784 H 1123.38 0.772884 -2.87803 0
M  V30 11785 H 1120.92 0.370137 -1.42367 0
M  V30 11786 H 1122.88 3.24025 -2.62799 0
M  V30 11787 H 1121.51 2.82281 -1.5658 0
M  V30 11788 H 1120.56 1.41224 -3.53214 0
M  V30 11789 H 1121.87 2.05373 -4.54558 0
M  V30 11790 H 1121.03 4.38318 -4.19479 0
M  V30 11791 H 1119.77 3.77857 -3.08343 0
M  V30 11792 H 1118.77 2.41299 -4.94019 0
M  V30 11793 H 1120 3.0474 -6.06886 0
M  V30 11794 H 1117.94 4.71205 -4.56401 0
M  V30 11795 H 1117.86 4.27092 -6.23802 0
M  V30 11796 H 1119.13 5.3268 -5.69098 0
M  V30 11797 N 1123.36 1.52689 0.390367 0
M  V30 11798 C 1124.32 1.76726 1.45947 0
M  V30 11799 C 1125.32 0.637269 1.47633 0
M  V30 11800 O 1126.51 0.905312 1.48828 0
M  V30 11801 C 1123.64 1.86678 2.85244 0
M  V30 11802 H 1124.83 2.72185 1.25918 0
M  V30 11803 H 1122.39 1.4339 0.622023 0
M  V30 11804 H 1123.12 0.931991 3.10619 0
M  V30 11805 H 1122.91 2.68843 2.85422 0
M  V30 11806 H 1124.4 2.06952 3.62713 0
M  V30 11807 N 1124.83 -0.648732 1.43629 0
M  V30 11808 C 1126.08 -1.41066 1.45699 0
M  V30 11809 C 1126.41 -1.94024 0.082612 0
M  V30 11810 O 1125.69 -1.7257 -0.897207 0
M  V30 11811 C 1125.97 -2.58882 2.50304 0
M  V30 11812 C 1125.82 -2.11387 3.97033 0
M  V30 11813 C 1127.14 -3.61092 2.51597 0
M  V30 11814 H 1124.26 -0.511591 0.530512 0
M  V30 11815 H 1126.9 -0.735069 1.75205 0
M  V30 11816 H 1125.05 -3.16518 2.25274 0
M  V30 11817 H 1126.73 -1.58718 4.33136 0
M  V30 11818 H 1124.97 -1.4272 4.0965 0
M  V30 11819 H 1125.64 -2.96129 4.65845 0
M  V30 11820 H 1128.12 -3.13223 2.73917 0
M  V30 11821 H 1126.99 -4.41071 3.26722 0
M  V30 11822 H 1127.25 -4.13985 1.55141 0
M  V30 11823 N 1126.31 -1.30234 -0.887518 0
M  V30 11824 C 1127.28 -1.16384 -1.97452 0
M  V30 11825 C 1128.28 -0.0957942 -1.60514 0
M  V30 11826 O 1129.47 -0.343706 -1.70776 0
M  V30 11827 C 1126.6 -0.782514 -3.31797 0
M  V30 11828 H 1127.79 -2.12952 -2.11167 0
M  V30 11829 H 1125.34 -1.13594 -1.07359 0
M  V30 11830 H 1126.08 0.18278 -3.23785 0
M  V30 11831 H 1125.86 -1.55434 -3.59976 0
M  V30 11832 H 1127.35 -0.709011 -4.11537 0
M  V30 11833 N 1127.79 1.09952 -1.12909 0
M  V30 11834 C 1129.04 1.82286 -0.888797 0
M  V30 11835 C 1129.37 1.85218 0.58379 0
M  V30 11836 O 1128.64 1.31645 1.43177 0
M  V30 11837 C 1128.93 3.28706 -1.47053 0
M  V30 11838 C 1128.78 3.34078 -3.01184 0
M  V30 11839 C 1130.1 4.25233 -1.13424 0
M  V30 11840 H 1127.22 0.661803 -0.324324 0
M  V30 11841 H 1129.86 1.28833 -1.3965 0
M  V30 11842 H 1128.01 3.74356 -1.03874 0
M  V30 11843 H 1129.68 2.96871 -3.5308 0
M  V30 11844 H 1127.93 2.73825 -3.36455 0
M  V30 11845 H 1128.6 4.37202 -3.36984 0
M  V30 11846 H 1131.07 3.87841 -1.50726 0
M  V30 11847 H 1129.95 5.26033 -1.56783 0
M  V30 11848 H 1130.21 4.42075 -0.0471496 0
M  V30 11849 N 1129.27 0.921757 1.27833 0
M  V30 11850 C 1130.2 0.433466 2.29441 0
M  V30 11851 C 1131.18 -0.503133 1.62489 0
M  V30 11852 O 1132.36 -0.409156 1.89841 0
M  V30 11853 C 1129.49 -0.320029 3.45822 0
M  V30 11854 C 1128.45 0.528178 4.24728 0
M  V30 11855 C 1127.77 -0.354132 5.33526 0
M  V30 11856 C 1129.07 1.78959 4.90684 0
M  V30 11857 H 1130.77 1.28263 2.70535 0
M  V30 11858 H 1128.31 0.618197 1.30055 0
M  V30 11859 H 1130.27 -0.672526 4.15999 0
M  V30 11860 H 1128.99 -1.20317 3.0363 0
M  V30 11861 H 1127.65 0.863302 3.5629 0
M  V30 11862 H 1127.3 -1.23605 4.87576 0
M  V30 11863 H 1127 0.209855 5.87225 0
M  V30 11864 H 1128.52 -0.702333 6.06547 0
M  V30 11865 H 1129.94 1.50552 5.53179 0
M  V30 11866 H 1128.33 2.29661 5.54415 0
M  V30 11867 H 1129.4 2.51265 4.14721 0
M  V30 11868 N 1130.75 -1.41857 0.686609 0
M  V30 11869 C 1131.68 -2.33481 0.0298353 0
M  V30 11870 C 1132.66 -1.51329 -0.776756 0
M  V30 11871 O 1133.84 -1.79895 -0.731535 0
M  V30 11872 C 1130.97 -3.35065 -0.913707 0
M  V30 11873 C 1129.93 -4.2746 -0.214861 0
M  V30 11874 C 1129.25 -5.19346 -1.27215 0
M  V30 11875 C 1130.55 -5.14252 0.913367 0
M  V30 11876 H 1132.25 -2.8865 0.795067 0
M  V30 11877 H 1129.79 -1.38792 0.383785 0
M  V30 11878 H 1131.75 -3.98082 -1.38234 0
M  V30 11879 H 1130.47 -2.78226 -1.7105 0
M  V30 11880 H 1129.13 -3.65855 0.233651 0
M  V30 11881 H 1128.78 -4.58827 -2.06124 0
M  V30 11882 H 1128.48 -5.81996 -0.80961 0
M  V30 11883 H 1130 -5.85239 -1.74147 0
M  V30 11884 H 1131.41 -5.70887 0.525424 0
M  V30 11885 H 1129.81 -5.85796 1.30244 0
M  V30 11886 H 1130.88 -4.51949 1.75699 0
M  V30 11887 N 1132.22 -0.430739 -1.51599 0
M  V30 11888 C 1133.64 0.0339139 -1.86669 0
M  V30 11889 C 1133.99 1.42533 -1.34829 0
M  V30 11890 O 1133.11 2.04889 -0.696376 0
M  V30 11891 C 1133.71 0.0683174 -3.38731 0
M  V30 11892 C 1132.27 0.477363 -3.73361 0
M  V30 11893 C 1131.41 -0.334258 -2.75278 0
M  V30 11894 H 1134.36 -0.646875 -1.44918 0
M  V30 11895 H 1134.38 0.879179 -3.70204 0
M  V30 11896 H 1133.9 -0.944501 -3.76432 0
M  V30 11897 H 1132 1.49603 -3.41247 0
M  V30 11898 H 1132.11 0.206744 -4.78654 0
M  V30 11899 H 1130.47 0.206503 -2.53861 0
M  V30 11900 H 1131.26 -1.34583 -3.1582 0
M  V30 11901 N 1133.7 1.56767 -0.161869 0
M  V30 11902 C 1134.95 1.95769 0.485536 0
M  V30 11903 C 1135.26 1.05006 1.65025 0
M  V30 11904 O 1136.47 1.33649 2.36326 0
M  V30 11905 C 1134.93 3.4807 0.915176 0
M  V30 11906 C 1134.53 4.47443 -0.223416 0
M  V30 11907 C 1136.28 3.95909 1.53153 0
M  V30 11908 C 1134.19 5.90971 0.225325 0
M  V30 11909 H 1133.12 0.730911 0.185161 0
M  V30 11910 H 1135.77 1.81808 -0.248592 0
M  V30 11911 H 1134.15 3.57415 1.705 0
M  V30 11912 H 1135.32 4.49805 -1.00061 0
M  V30 11913 H 1133.64 4.09606 -0.749127 0
M  V30 11914 H 1136.23 5.00592 1.87915 0
M  V30 11915 H 1136.58 3.38307 2.42599 0
M  V30 11916 H 1137.11 3.89542 0.806322 0
M  V30 11917 H 1133.85 6.52426 -0.634124 0
M  V30 11918 H 1133.37 5.91936 0.96808 0
M  V30 11919 H 1135.05 6.43497 0.672373 0
M  V30 11920 N 1135.18 -0.111886 1.57202 0
M  V30 11921 C 1136.11 -1.13796 2.03894 0
M  V30 11922 C 1137.09 -1.4277 0.924696 0
M  V30 11923 O 1138.28 -1.53089 1.19488 0
M  V30 11924 C 1135.41 -2.46229 2.44925 0
M  V30 11925 C 1134.36 -2.31702 3.59859 0
M  V30 11926 C 1133.69 -3.69161 3.86813 0
M  V30 11927 C 1134.99 -1.77158 4.91337 0
M  V30 11928 H 1136.68 -0.749581 2.89865 0
M  V30 11929 H 1134.23 -0.359126 1.3945 0
M  V30 11930 H 1136.18 -3.18267 2.76195 0
M  V30 11931 H 1134.9 -2.86971 1.55933 0
M  V30 11932 H 1133.56 -1.62112 3.28809 0
M  V30 11933 H 1133.21 -4.07401 2.95015 0
M  V30 11934 H 1132.91 -3.60292 4.6418 0
M  V30 11935 H 1134.43 -4.42693 4.20542 0
M  V30 11936 H 1135.85 -2.3902 5.21097 0
M  V30 11937 H 1134.25 -1.79091 5.72753 0
M  V30 11938 H 1135.32 -0.729675 4.79379 0
M  V30 11939 N 1136.66 -1.52894 -0.382264 0
M  V30 11940 C 1137.91 -1.67933 -1.1244 0
M  V30 11941 C 1138.23 -0.425166 -1.90309 0
M  V30 11942 O 1137.5 0.560557 -1.87709 0
M  V30 11943 H 1136.08 -0.619047 -0.418079 0
M  V30 11944 H 1138.74 -1.90031 -0.432928 0
M  V30 11945 H 1137.84 -2.53285 -1.82355 0
M  V30 11946 N 1138.14 0.641106 -1.43971 0
M  V30 11947 C 1139.37 1.42829 -1.49692 0
M  V30 11948 C 1139.78 1.88427 -0.118594 0
M  V30 11949 O 1139.14 1.60234 0.873581 0
M  V30 11950 C 1139.19 2.65524 -2.45314 0
M  V30 11951 O 1138.91 2.2183 -3.77787 0
M  V30 11952 C 1140.41 3.58758 -2.60399 0
M  V30 11953 H 1137.63 0.438367 -0.508011 0
M  V30 11954 H 1140.17 0.784933 -1.88836 0
M  V30 11955 H 1138.33 3.25973 -2.09332 0
M  V30 11956 H 1138.74 3.01303 -4.29321 0
M  V30 11957 H 1140.22 4.41483 -3.31357 0
M  V30 11958 H 1140.69 4.06909 -1.65294 0
M  V30 11959 H 1141.3 3.04184 -2.97241 0
M  V30 11960 N 1139.62 1.30703 0.880598 0
M  V30 11961 C 1140.84 1.22843 1.67106 0
M  V30 11962 C 1141.27 -0.204788 1.86982 0
M  V30 11963 O 1140.62 -1.14716 1.40392 0
M  V30 11964 C 1140.67 1.96685 3.02237 0
M  V30 11965 O 1139.78 1.29693 3.91476 0
M  V30 11966 H 1139.12 0.424661 0.51045 0
M  V30 11967 H 1141.65 1.72596 1.09871 0
M  V30 11968 H 1141.66 2.05874 3.52249 0
M  V30 11969 H 1140.33 3.00919 2.8709 0
M  V30 11970 H 1138.91 1.28886 3.49918 0
M  V30 11971 N 1141.09 -1.09351 1.1349 0
M  V30 11972 C 1142.34 -1.81988 0.908397 0
M  V30 11973 C 1142.69 -1.84087 -0.559442 0
M  V30 11974 O 1141.99 -1.29866 -1.40873 0
M  V30 11975 C 1142.18 -3.27498 1.43108 0
M  V30 11976 C 1142.01 -3.39575 2.9482 0
M  V30 11977 C 1140.78 -3.51332 3.63172 0
M  V30 11978 C 1142.98 -3.3204 3.92752 0
M  V30 11979 N 1140.96 -3.521 5.02891 0
M  V30 11980 C 1142.33 -3.39686 5.18665 0
M  V30 11981 C 1144.39 -3.15712 3.85007 0
M  V30 11982 C 1143.09 -3.32686 6.3774 0
M  V30 11983 C 1145.12 -3.10038 5.03617 0
M  V30 11984 C 1144.48 -3.18277 6.28394 0
M  V30 11985 H 1140.58 -0.680196 0.385821 0
M  V30 11986 H 1143.16 -1.30683 1.44326 0
M  V30 11987 H 1141.33 -3.77271 0.923118 0
M  V30 11988 H 1143.06 -3.8815 1.14549 0
M  V30 11989 H 1139.82 -3.54813 3.13695 0
M  V30 11990 H 1140.24 -3.56066 5.758 0
M  V30 11991 H 1144.88 -3.08212 2.89422 0
M  V30 11992 H 1142.6 -3.38949 7.3358 0
M  V30 11993 H 1146.19 -2.98539 4.99365 0
M  V30 11994 H 1145.07 -3.13904 7.18634 0
M  V30 11995 N 1142.57 -0.928524 -1.27343 0
M  V30 11996 C 1143.82 -0.570235 -1.94618 0
M  V30 11997 C 1144.15 0.886381 -1.72792 0
M  V30 11998 O 1143.43 1.63242 -1.05747 0
M  V30 11999 C 1143.71 -0.897964 -3.48724 0
M  V30 12000 C 1143.56 -2.40839 -3.7989 0
M  V30 12001 C 1144.88 -0.404429 -4.38238 0
M  V30 12002 H 1142 -0.208645 -0.70685 0
M  V30 12003 H 1144.64 -1.16045 -1.50444 0
M  V30 12004 H 1142.79 -0.395679 -3.8648 0
M  V30 12005 H 1144.46 -2.98243 -3.51921 0
M  V30 12006 H 1142.71 -2.85723 -3.26412 0
M  V30 12007 H 1143.38 -2.58823 -4.8756 0
M  V30 12008 H 1145.85 -0.834918 -4.07637 0
M  V30 12009 H 1144.73 -0.662684 -5.44885 0
M  V30 12010 H 1144.99 0.695507 -4.36595 0
M  V30 12011 N 1144.05 1.41491 -0.694123 0
M  V30 12012 C 1145.3 2.01252 -0.224477 0
M  V30 12013 C 1145.62 1.54965 1.17541 0
M  V30 12014 O 1144.88 0.751041 1.80715 0
M  V30 12015 C 1145.18 3.56666 -0.228869 0
M  V30 12016 C 1144.84 4.22458 -1.57608 0
M  V30 12017 C 1143.51 4.40144 -1.94491 0
M  V30 12018 C 1145.86 4.5936 -2.46247 0
M  V30 12019 C 1143.19 4.92009 -3.196 0
M  V30 12020 C 1145.54 5.12615 -3.70687 0
M  V30 12021 C 1144.2 5.28512 -4.07715 0
M  V30 12022 H 1143.47 0.736433 -0.0821419 0
M  V30 12023 H 1146.12 1.69408 -0.892926 0
M  V30 12024 H 1144.42 3.88292 0.523128 0
M  V30 12025 H 1146.12 4.00712 0.152019 0
M  V30 12026 H 1142.71 4.09065 -1.27921 0
M  V30 12027 H 1146.9 4.45352 -2.19032 0
M  V30 12028 H 1142.15 5.02502 -3.48285 0
M  V30 12029 H 1146.33 5.4015 -4.39558 0
M  V30 12030 H 1143.95 5.68464 -5.0473 0
M  V30 12031 N 1145.53 0.438773 1.51369 0
M  V30 12032 C 1146.78 -0.126962 2.01701 0
M  V30 12033 C 1147.1 -1.43086 1.32481 0
M  V30 12034 O 1146.37 -1.90427 0.459823 0
M  V30 12035 H 1144.95 -0.0499092 0.745331 0
M  V30 12036 H 1147.61 0.581808 1.86013 0
M  V30 12037 H 1146.7 -0.301836 3.10637 0
M  V30 12038 N 1147.01 -1.56678 0.170181 0
M  V30 12039 C 1148.25 -1.9714 -0.475767 0
M  V30 12040 C 1148.58 -1.05611 -1.62972 0
M  V30 12041 O 1147.86 -0.103017 -1.94227 0
M  V30 12042 C 1148.14 -3.47072 -0.959828 0
M  V30 12043 C 1148 -4.4938 0.194225 0
M  V30 12044 C 1149.31 -4.00071 -1.83387 0
M  V30 12045 H 1146.43 -0.716776 -0.171466 0
M  V30 12046 H 1149.08 -1.88266 0.256086 0
M  V30 12047 H 1147.23 -3.54766 -1.58346 0
M  V30 12048 H 1148.9 -4.53748 0.83128 0
M  V30 12049 H 1147.14 -4.25393 0.849893 0
M  V30 12050 H 1147.81 -5.51685 -0.186575 0
M  V30 12051 H 1150.29 -3.95002 -1.30815 0
M  V30 12052 H 1149.16 -5.05398 -2.14159 0
M  V30 12053 H 1149.42 -3.43819 -2.77923 0
M  V30 12054 N 1148.48 0.103547 -1.57259 0
M  V30 12055 C 1149.41 1.12714 -2.04494 0
M  V30 12056 C 1150.39 1.42278 -0.932255 0
M  V30 12057 O 1151.58 1.52453 -1.20298 0
M  V30 12058 C 1148.71 2.44927 -2.46228 0
M  V30 12059 C 1147.66 2.2979 -3.61082 0
M  V30 12060 C 1146.99 3.67105 -3.88765 0
M  V30 12061 C 1148.29 1.7455 -4.9227 0
M  V30 12062 H 1149.98 0.734198 -2.90258 0
M  V30 12063 H 1147.53 0.351725 -1.39638 0
M  V30 12064 H 1149.48 3.16798 -2.77879 0
M  V30 12065 H 1148.21 2.8614 -1.57453 0
M  V30 12066 H 1146.87 1.60366 -3.29664 0
M  V30 12067 H 1146.51 4.05831 -2.97171 0
M  V30 12068 H 1146.21 3.57825 -4.66084 0
M  V30 12069 H 1147.74 4.40456 -4.22884 0
M  V30 12070 H 1149.15 2.36253 -5.22358 0
M  V30 12071 H 1147.55 1.76051 -5.73695 0
M  V30 12072 H 1148.62 0.704242 -4.79759 0
M  V30 12073 N 1149.96 1.53094 0.37415 0
M  V30 12074 C 1150.92 1.78264 1.44065 0
M  V30 12075 C 1151.92 0.652892 1.46949 0
M  V30 12076 O 1153.11 0.921046 1.47859 0
M  V30 12077 C 1150.25 1.89693 2.83248 0
M  V30 12078 H 1151.44 2.73505 1.23025 0
M  V30 12079 H 1148.99 1.44041 0.60678 0
M  V30 12080 H 1149.73 0.964884 3.09613 0
M  V30 12081 H 1149.51 2.71855 2.82554 0
M  V30 12082 H 1151 2.10787 3.60498 0
M  V30 12083 N 1151.44 -0.633461 1.44309 0
M  V30 12084 C 1152.69 -1.39513 1.47187 0
M  V30 12085 C 1153.02 -1.93926 0.103186 0
M  V30 12086 O 1152.29 -1.73512 -0.878853 0
M  V30 12087 C 1152.58 -2.56213 2.53036 0
M  V30 12088 C 1152.43 -2.07164 3.99253 0
M  V30 12089 C 1153.75 -3.58403 2.55412 0
M  V30 12090 H 1150.87 -0.505936 0.535908 0
M  V30 12091 H 1153.51 -0.716445 1.75975 0
M  V30 12092 H 1151.66 -3.14111 2.28619 0
M  V30 12093 H 1153.33 -1.54115 4.34795 0
M  V30 12094 H 1151.57 -1.38367 4.11141 0
M  V30 12095 H 1152.25 -2.91172 4.6896 0
M  V30 12096 H 1154.72 -3.103 2.77224 0
M  V30 12097 H 1153.6 -4.37581 3.31382 0
M  V30 12098 H 1153.86 -4.12316 1.59523 0
M  V30 12099 N 1152.92 -1.31168 -0.873655 0
M  V30 12100 C 1153.87 -1.18432 -2.00191 0
M  V30 12101 C 1154.86 -0.0934873 -1.69142 0
M  V30 12102 O 1156.07 -0.255126 -1.78183 0
M  V30 12103 H 1152.44 -0.366594 -0.656592 0
M  V30 12104 H 1154.41 -2.13896 -2.08065 0
M  V30 12105 C 1153.16 -0.904668 -3.35725 0
M  V30 12106 H 1152.48 -1.73617 -3.60135 0
M  V30 12107 H 1153.92 -0.855715 -4.15275 0
M  V30 12108 C 1152.38 0.392554 -3.34605 0
M  V30 12109 O 1152.91 1.41052 -3.76121 0
M  V30 12110 N 1151.12 0.40777 -2.87725 0
M  V30 12111 H 1150.67 -0.42112 -2.54134 0
M  V30 12112 H 1150.62 1.27564 -2.87358 0
M  V30 12113 N 1154.4 1.08748 -1.14068 0
M  V30 12114 C 1155.64 1.80707 -0.904947 0
M  V30 12115 C 1155.97 1.86478 0.570167 0
M  V30 12116 O 1155.24 1.35536 1.41445 0
M  V30 12117 H 1153.82 0.669261 -0.331811 0
M  V30 12118 H 1156.48 1.31494 -1.43859 0
M  V30 12119 H 1155.57 2.83653 -1.30182 0
M  V30 12120 N 1155.87 0.935264 1.26849 0
M  V30 12121 C 1157.11 0.587087 1.95787 0
M  V30 12122 C 1157.48 -0.856974 1.71814 0
M  V30 12123 O 1158.68 -1.3138 2.34505 0
M  V30 12124 C 1156.95 0.91303 3.45541 0
M  V30 12125 S 1158.51 0.674506 4.33585 0
M  V30 12126 H 1155.33 0.216442 0.677255 0
M  V30 12127 H 1157.93 1.20532 1.53923 0
M  V30 12128 H 1156.63 1.96154 3.60488 0
M  V30 12129 H 1156.16 0.28429 3.92371 0
M  V30 12130 H 1158.18 -0.464121 4.94025 0
M  V30 12131 N 1157.35 -1.41121 0.701616 0
M  V30 12132 C 1158.32 -2.29148 0.0490091 0
M  V30 12133 C 1159.32 -1.44679 -0.701763 0
M  V30 12134 O 1160.51 -1.65757 -0.53575 0
M  V30 12135 C 1157.64 -3.2766 -0.940837 0
M  V30 12136 H 1158.83 -2.88354 0.824133 0
M  V30 12137 H 1156.38 -1.49209 0.465457 0
M  V30 12138 H 1157.12 -2.73445 -1.74351 0
M  V30 12139 H 1156.9 -3.89997 -0.405551 0
M  V30 12140 H 1158.39 -3.93609 -1.39507 0
M  V30 12141 N 1158.83 -0.446794 -1.51134 0
M  V30 12142 C 1160.08 0.116666 -2.02464 0
M  V30 12143 C 1160.41 1.41532 -1.32975 0
M  V30 12144 O 1159.68 1.89278 -0.447651 0
M  V30 12145 C 1159.97 0.325659 -3.58624 0
M  V30 12146 C 1159.82 -0.992307 -4.38718 0
M  V30 12147 C 1161.14 1.09121 -4.26357 0
M  V30 12148 H 1158.26 0.0409262 -0.735863 0
M  V30 12149 H 1160.9 -0.587641 -1.80684 0
M  V30 12150 H 1159.05 0.925585 -3.77313 0
M  V30 12151 H 1160.72 -1.62694 -4.31658 0
M  V30 12152 H 1158.97 -1.5947 -4.03425 0
M  V30 12153 H 1159.64 -0.800005 -5.46172 0
M  V30 12154 H 1162.11 0.582944 -4.11996 0
M  V30 12155 H 1160.99 1.20621 -5.35483 0
M  V30 12156 H 1161.25 2.12171 -3.87861 0
M  V30 12157 N 1160.31 1.56586 -0.178487 0
M  V30 12158 C 1161.55 1.9739 0.465306 0
M  V30 12159 C 1161.89 1.06474 1.6241 0
M  V30 12160 O 1161.16 0.113316 1.9417 0
M  V30 12161 C 1161.45 3.47577 0.941408 0
M  V30 12162 C 1161.3 4.49271 -0.218054 0
M  V30 12163 C 1162.62 4.01038 1.81263 0
M  V30 12164 H 1159.74 0.717676 0.167663 0
M  V30 12165 H 1162.38 1.88128 -0.266067 0
M  V30 12166 H 1160.53 3.556 1.56463 0
M  V30 12167 H 1162.2 4.53301 -0.855332 0
M  V30 12168 H 1160.44 4.24936 -0.872441 0
M  V30 12169 H 1161.11 5.51776 0.157315 0
M  V30 12170 H 1163.59 3.9569 1.28718 0
M  V30 12171 H 1162.47 5.06526 2.11476 0
M  V30 12172 H 1162.73 3.45288 2.76096 0
M  V30 12173 N 1161.79 -0.095206 1.57312 0
M  V30 12174 C 1163.03 -0.798719 1.86083 0
M  V30 12175 C 1163.36 -1.78739 0.766991 0
M  V30 12176 O 1162.62 -1.9423 -0.239425 0
M  V30 12177 C 1162.92 -1.56244 3.21438 0
M  V30 12178 C 1162.58 -0.715903 4.4518 0
M  V30 12179 C 1161.24 -0.482537 4.78774 0
M  V30 12180 C 1163.6 -0.127404 5.21044 0
M  V30 12181 C 1160.92 0.349193 5.8566 0
M  V30 12182 C 1163.28 0.691649 6.28808 0
M  V30 12183 C 1161.94 0.935107 6.60918 0
M  V30 12184 H 1161.21 -0.292272 0.680924 0
M  V30 12185 H 1163.86 -0.0602105 1.91405 0
M  V30 12186 H 1162.16 -2.37251 3.118 0
M  V30 12187 H 1163.86 -2.11116 3.40927 0
M  V30 12188 H 1160.45 -0.907902 4.18874 0
M  V30 12189 H 1164.63 -0.29486 4.95423 0
M  V30 12190 H 1159.89 0.546797 6.0895 0
M  V30 12191 H 1164.06 1.15452 6.86763 0
M  V30 12192 H 1161.69 1.58139 7.4357 0
M  V30 12193 N 1163.26 -1.53291 -0.366026 0
M  V30 12194 C 1164.2 -1.75981 -1.46845 0
M  V30 12195 C 1165.21 -0.640574 -1.49668 0
M  V30 12196 O 1166.4 -0.916823 -1.53155 0
M  V30 12197 C 1163.5 -1.82426 -2.85611 0
M  V30 12198 C 1162.67 -3.12062 -3.0649 0
M  V30 12199 C 1161.73 -3.09755 -4.25368 0
M  V30 12200 O 1160.76 -3.83555 -4.20564 0
M  V30 12201 N 1161.96 -2.30544 -5.32757 0
M  V30 12202 H 1164.72 -2.71104 -1.2776 0
M  V30 12203 H 1162.28 -1.52063 -0.555745 0
M  V30 12204 H 1164.28 -1.78361 -3.63276 0
M  V30 12205 H 1162.85 -0.945888 -2.97946 0
M  V30 12206 H 1162.07 -3.29433 -2.16489 0
M  V30 12207 H 1163.35 -3.97735 -3.17308 0
M  V30 12208 H 1162.75 -1.70095 -5.39522 0
M  V30 12209 H 1161.31 -2.32298 -6.09 0
M  V30 12210 N 1164.74 0.6258 -1.44643 0
M  V30 12211 C 1165.97 1.41028 -1.50979 0
M  V30 12212 C 1166.38 1.88717 -0.135092 0
M  V30 12213 O 1165.72 1.61778 0.870268 0
M  V30 12214 C 1165.79 2.66094 -2.41732 0
M  V30 12215 C 1165.45 2.40166 -3.88805 0
M  V30 12216 C 1166.45 2.01661 -4.79196 0
M  V30 12217 C 1164.13 2.53641 -4.33557 0
M  V30 12218 C 1166.13 1.76966 -6.12341 0
M  V30 12219 C 1163.81 2.2856 -5.66748 0
M  V30 12220 C 1164.81 1.90282 -6.55959 0
M  V30 12221 O 1164.5 1.65484 -7.86683 0
M  V30 12222 H 1164.23 0.438757 -0.514265 0
M  V30 12223 H 1166.78 0.772034 -1.90339 0
M  V30 12224 H 1165.01 3.32575 -1.97309 0
M  V30 12225 H 1166.7 3.28107 -2.38957 0
M  V30 12226 H 1167.47 1.90802 -4.45892 0
M  V30 12227 H 1163.35 2.82404 -3.64375 0
M  V30 12228 H 1166.89 1.47014 -6.81933 0
M  V30 12229 H 1162.79 2.3903 -5.99612 0
M  V30 12230 H 1163.56 1.79686 -7.98533 0
M  V30 12231 N 1166.22 1.31629 0.866686 0
M  V30 12232 C 1167.15 1.13886 1.9775 0
M  V30 12233 C 1168.13 0.0414887 1.62547 0
M  V30 12234 O 1169.32 0.198534 1.87452 0
M  V30 12235 C 1166.44 0.740858 3.30498 0
M  V30 12236 C 1165.49 1.84175 3.84684 0
M  V30 12237 S 1166.32 3.44781 4.09739 0
M  V30 12238 C 1167.48 3.06925 5.45479 0
M  V30 12239 H 1167.71 2.07923 2.12497 0
M  V30 12240 H 1165.24 1.16152 1.01725 0
M  V30 12241 H 1167.2 0.517974 4.07219 0
M  V30 12242 H 1165.86 -0.18045 3.13581 0
M  V30 12243 H 1165.06 1.51597 4.8066 0
M  V30 12244 H 1164.66 2.01986 3.14766 0
M  V30 12245 H 1166.95 2.56022 6.27263 0
M  V30 12246 H 1167.89 4.01877 5.8301 0
M  V30 12247 H 1168.3 2.44276 5.0891 0
M  V30 12248 N 1167.7 -1.08142 1.14644 0
M  V30 12249 C 1168.95 -1.80582 0.916327 0
M  V30 12250 C 1169.27 -1.86355 -0.556969 0
M  V30 12251 O 1168.53 -1.33736 -1.42875 0
M  V30 12252 C 1168.83 -3.25962 1.46573 0
M  V30 12253 C 1168.49 -3.40302 2.95814 0
M  V30 12254 C 1167.16 -3.43922 3.36557 0
M  V30 12255 C 1169.51 -3.43758 3.91765 0
M  V30 12256 C 1166.84 -3.48594 4.7191 0
M  V30 12257 C 1169.19 -3.49965 5.26979 0
M  V30 12258 C 1167.85 -3.5186 5.67231 0
M  V30 12259 H 1167.12 -0.660795 0.335308 0
M  V30 12260 H 1169.77 -1.27309 1.43055 0
M  V30 12261 H 1168.07 -3.81961 0.872507 0
M  V30 12262 H 1169.77 -3.80571 1.2636 0
M  V30 12263 H 1166.36 -3.38176 2.63315 0
M  V30 12264 H 1170.55 -3.40189 3.61366 0
M  V30 12265 H 1165.8 -3.48355 5.02453 0
M  V30 12266 H 1169.98 -3.51585 6.01133 0
M  V30 12267 H 1167.6 -3.55233 6.72097 0
M  V30 12268 N 1169.18 -0.941978 -1.26351 0
M  V30 12269 C 1170.14 -0.456768 -2.24602 0
M  V30 12270 C 1171.14 0.432574 -1.54872 0
M  V30 12271 O 1172.33 0.23164 -1.72653 0
M  V30 12272 C 1169.46 0.341583 -3.39184 0
M  V30 12273 H 1170.66 -1.32503 -2.69041 0
M  V30 12274 H 1168.21 -0.724021 -1.38519 0
M  V30 12275 H 1168.94 1.22806 -3.00149 0
M  V30 12276 H 1168.73 -0.296268 -3.90979 0
M  V30 12277 H 1170.22 0.670955 -4.12175 0
M  V30 12278 N 1170.66 1.40747 -0.709091 0
M  V30 12279 C 1171.88 2.05319 -0.255258 0
M  V30 12280 C 1172.3 1.53406 1.10054 0
M  V30 12281 O 1171.66 0.687905 1.69039 0
M  V30 12282 C 1171.71 3.60835 -0.219251 0
M  V30 12283 O 1171.43 4.1083 -1.52151 0
M  V30 12284 C 1172.93 4.42572 0.253927 0
M  V30 12285 H 1170.15 0.660904 -0.115959 0
M  V30 12286 H 1172.69 1.80274 -0.965474 0
M  V30 12287 H 1170.85 3.84872 0.441882 0
M  V30 12288 H 1171.26 5.04979 -1.41764 0
M  V30 12289 H 1172.74 5.51529 0.22798 0
M  V30 12290 H 1173.21 4.19673 1.29504 0
M  V30 12291 H 1173.82 4.23629 -0.376694 0
M  V30 12292 N 1172.13 0.454803 1.50895 0
M  V30 12293 C 1173.06 -0.337982 2.31041 0
M  V30 12294 C 1174.04 -1.00523 1.37219 0
M  V30 12295 O 1175.23 -1.00553 1.66141 0
M  V30 12296 C 1172.36 -1.42964 3.1651 0
M  V30 12297 C 1171.31 -0.884907 4.18752 0
M  V30 12298 C 1170.64 -2.07363 4.92854 0
M  V30 12299 C 1171.94 0.0926716 5.22218 0
M  V30 12300 H 1173.63 0.33089 2.97566 0
M  V30 12301 H 1171.18 0.160577 1.43102 0
M  V30 12302 H 1173.13 -1.9916 3.71367 0
M  V30 12303 H 1171.86 -2.12705 2.47839 0
M  V30 12304 H 1170.52 -0.345031 3.64973 0
M  V30 12305 H 1170.16 -2.75764 4.2067 0
M  V30 12306 H 1169.86 -1.71545 5.62002 0
M  V30 12307 H 1171.39 -2.6408 5.5054 0
M  V30 12308 H 1172.8 -0.379568 5.72042 0
M  V30 12309 H 1171.2 0.3643 5.98993 0
M  V30 12310 H 1172.27 1.02383 4.73968 0
M  V30 12311 N 1173.61 -1.56489 0.186789 0
M  V30 12312 C 1174.56 -2.20034 -0.754164 0
M  V30 12313 C 1175.55 -1.16899 -1.22601 0
M  V30 12314 O 1176.76 -1.35064 -1.18987 0
M  V30 12315 H 1173.13 -0.705058 -0.261529 0
M  V30 12316 H 1175.11 -2.97766 -0.194418 0
M  V30 12317 C 1173.85 -2.86733 -1.9667 0
M  V30 12318 H 1173.18 -3.65831 -1.61268 0
M  V30 12319 H 1174.62 -3.34645 -2.60363 0
M  V30 12320 C 1173.08 -1.87325 -2.8002 0
M  V30 12321 O 1173.61 -1.36835 -3.77676 0
M  V30 12322 N 1171.81 -1.55738 -2.45345 0
M  V30 12323 H 1171.36 -1.9699 -1.6599 0
M  V30 12324 H 1171.32 -0.894805 -3.01398 0
M  V30 12325 N 1175.09 0.086862 -1.5736 0
M  V30 12326 C 1176.31 0.806017 -1.91097 0
M  V30 12327 C 1176.74 1.71082 -0.78183 0
M  V30 12328 O 1176.1 1.79335 0.266175 0
M  V30 12329 C 1176.15 1.5884 -3.23732 0
M  V30 12330 O 1175.25 2.69798 -3.11902 0
M  V30 12331 H 1174.59 0.220899 -0.626179 0
M  V30 12332 H 1177.12 0.059619 -2.04513 0
M  V30 12333 H 1177.13 1.97088 -3.5724 0
M  V30 12334 H 1175.81 0.924426 -4.05496 0
M  V30 12335 H 1174.38 2.34519 -2.89923 0
M  V30 12336 N 1176.57 1.53483 0.357892 0
M  V30 12337 C 1177.5 1.83444 1.44466 0
M  V30 12338 C 1178.48 0.688486 1.55544 0
M  V30 12339 O 1179.66 0.93906 1.69986 0
M  V30 12340 C 1176.79 2.03122 2.81707 0
M  V30 12341 C 1175.75 3.1891 2.85448 0
M  V30 12342 C 1175.07 3.23895 4.25436 0
M  V30 12343 C 1176.37 4.57334 2.52275 0
M  V30 12344 H 1178.07 2.74456 1.19642 0
M  V30 12345 H 1175.61 1.3206 0.574112 0
M  V30 12346 H 1177.57 2.22666 3.57768 0
M  V30 12347 H 1176.29 1.08827 3.07935 0
M  V30 12348 H 1174.95 2.99199 2.11838 0
M  V30 12349 H 1174.6 2.27223 4.48753 0
M  V30 12350 H 1174.3 4.01694 4.28854 0
M  V30 12351 H 1175.82 3.45632 5.0336 0
M  V30 12352 H 1177.24 4.76988 3.1805 0
M  V30 12353 H 1175.63 5.37431 2.66998 0
M  V30 12354 H 1176.7 4.61921 1.47501 0
M  V30 12355 N 1178.05 -0.61812 1.44973 0
M  V30 12356 C 1178.98 -1.74299 1.48837 0
M  V30 12357 C 1179.99 -1.58296 0.38028 0
M  V30 12358 O 1181.18 -1.66371 0.646757 0
M  V30 12359 C 1178.28 -3.12179 1.31901 0
M  V30 12360 C 1177.45 -3.54519 2.56193 0
M  V30 12361 C 1176.51 -4.71324 2.33966 0
M  V30 12362 O 1175.54 -4.78975 3.07525 0
M  V30 12363 N 1176.74 -5.63894 1.37854 0
M  V30 12364 H 1179.5 -1.7145 2.45815 0
M  V30 12365 H 1177.07 -0.803087 1.40578 0
M  V30 12366 H 1179.06 -3.88059 1.14858 0
M  V30 12367 H 1177.63 -3.09595 0.43239 0
M  V30 12368 H 1176.85 -2.68711 2.88423 0
M  V30 12369 H 1178.14 -3.79563 3.38835 0
M  V30 12370 H 1177.53 -5.60418 0.771273 0
M  V30 12371 H 1176.09 -6.3935 1.26787 0
M  V30 12372 N 1179.52 -1.32087 -0.859693 0
M  V30 12373 C 1180.77 -1.22119 -1.61033 0
M  V30 12374 C 1181.09 0.218289 -1.93774 0
M  V30 12375 O 1180.36 1.14172 -1.5919 0
M  V30 12376 H 1178.94 -0.448989 -0.597008 0
M  V30 12377 H 1181.6 -1.65545 -1.02863 0
M  V30 12378 H 1180.7 -1.80023 -2.54947 0
M  V30 12379 N 1181 1.07532 -1.15215 0
M  V30 12380 C 1181.93 2.1668 -0.870171 0
M  V30 12381 C 1182.91 1.69161 0.178483 0
M  V30 12382 O 1184.1 1.94172 0.0332489 0
M  V30 12383 C 1181.23 3.45464 -0.356666 0
M  V30 12384 C 1180.18 4.06424 -1.34179 0
M  V30 12385 C 1179.51 5.30266 -0.687206 0
M  V30 12386 C 1180.81 4.46666 -2.70715 0
M  V30 12387 H 1182.5 2.40526 -1.7829 0
M  V30 12388 H 1180.05 1.15598 -0.858665 0
M  V30 12389 H 1182 4.21144 -0.146947 0
M  V30 12390 H 1180.72 3.21199 0.591527 0
M  V30 12391 H 1179.38 3.32786 -1.53783 0
M  V30 12392 H 1179.03 5.0229 0.267077 0
M  V30 12393 H 1178.73 5.72009 -1.34462 0
M  V30 12394 H 1180.26 6.08653 -0.487218 0
M  V30 12395 H 1181.67 5.13483 -2.54966 0
M  V30 12396 H 1180.07 4.99355 -3.32813 0
M  V30 12397 H 1181.14 3.58123 -3.26919 0
M  V30 12398 N 1182.48 0.948665 1.2585 0
M  V30 12399 C 1183.73 0.600236 1.934 0
M  V30 12400 C 1184.06 -0.86185 1.74363 0
M  V30 12401 O 1183.31 -1.63294 1.07858 0
M  V30 12402 C 1183.61 0.89784 3.45939 0
M  V30 12403 C 1183.28 2.345 3.85124 0
M  V30 12404 C 1181.94 2.74058 3.95532 0
M  V30 12405 C 1184.29 3.2851 4.04636 0
M  V30 12406 C 1181.62 4.06707 4.22855 0
M  V30 12407 C 1183.97 4.60764 4.3345 0
M  V30 12408 C 1182.63 5.00127 4.42074 0
M  V30 12409 H 1181.9 0.219642 0.707699 0
M  V30 12410 H 1184.55 1.19658 1.49513 0
M  V30 12411 H 1182.86 0.219037 3.91187 0
M  V30 12412 H 1184.55 0.606916 3.96381 0
M  V30 12413 H 1181.14 2.02819 3.77574 0
M  V30 12414 H 1185.33 2.99141 3.96015 0
M  V30 12415 H 1180.58 4.36856 4.27746 0
M  V30 12416 H 1184.76 5.33594 4.47493 0
M  V30 12417 H 1182.38 6.02939 4.63 0
M  V30 12418 N 1183.96 -1.40369 0.716545 0
M  V30 12419 C 1185.21 -2.00101 0.253452 0
M  V30 12420 C 1185.52 -1.57471 -1.16027 0
M  V30 12421 O 1186.73 -2.09909 -1.72193 0
M  V30 12422 C 1185.18 -3.57645 0.402213 0
M  V30 12423 C 1184.79 -4.09248 1.82264 0
M  V30 12424 C 1186.53 -4.245 -3.88526e-05 0
M  V30 12425 C 1184.44 -5.59299 1.92193 0
M  V30 12426 H 1183.37 -0.748488 0.0910047 0
M  V30 12427 H 1186.02 -1.60595 0.887772 0
M  V30 12428 H 1184.4 -3.94857 -0.300706 0
M  V30 12429 H 1185.58 -3.83412 2.55601 0
M  V30 12430 H 1183.89 -3.54993 2.17644 0
M  V30 12431 H 1186.49 -5.34673 0.0534202 0
M  V30 12432 H 1186.83 -4.03046 -1.04208 0
M  V30 12433 H 1187.37 -3.92398 0.65336 0
M  V30 12434 H 1184.11 -5.85608 2.94522 0
M  V30 12435 H 1183.63 -5.86997 1.23268 0
M  V30 12436 H 1185.3 -6.24416 1.6945 0
M  V30 12437 N 1185.44 -0.462799 -1.50652 0
M  V30 12438 C 1186.68 0.0950445 -2.02277 0
M  V30 12439 C 1187.01 1.40465 -1.34536 0
M  V30 12440 O 1186.27 1.90283 -0.457279 0
M  V30 12441 C 1186.57 0.335294 -3.55824 0
M  V30 12442 C 1186.23 -0.891589 -4.41997 0
M  V30 12443 C 1184.89 -1.22799 -4.65268 0
M  V30 12444 C 1187.25 -1.70885 -4.9239 0
M  V30 12445 C 1184.57 -2.38186 -5.36175 0
M  V30 12446 C 1186.93 -2.85394 -5.64564 0
M  V30 12447 C 1185.59 -3.19458 -5.86091 0
M  V30 12448 H 1184.86 0.0347793 -0.740183 0
M  V30 12449 H 1187.51 -0.61519 -1.8135 0
M  V30 12450 H 1185.81 1.12769 -3.7522 0
M  V30 12451 H 1187.51 0.780752 -3.93326 0
M  V30 12452 H 1184.1 -0.619495 -4.24099 0
M  V30 12453 H 1188.28 -1.46215 -4.74273 0
M  V30 12454 H 1183.54 -2.64862 -5.51052 0
M  V30 12455 H 1187.71 -3.49073 -6.02595 0
M  V30 12456 H 1185.34 -4.08978 -6.40813 0
M  V30 12457 N 1186.91 1.56388 -0.195085 0
M  V30 12458 C 1187.84 2.22091 0.720971 0
M  V30 12459 C 1188.83 1.184 1.22128 0
M  V30 12460 O 1190.01 1.46907 1.27012 0
M  V30 12461 C 1187.14 2.88025 1.94059 0
M  V30 12462 C 1186.09 3.97959 1.5752 0
M  V30 12463 C 1185.42 4.51058 2.87143 0
M  V30 12464 C 1186.72 5.16365 0.785145 0
M  V30 12465 H 1188.41 2.98898 0.173245 0
M  V30 12466 H 1185.96 1.43767 0.0818868 0
M  V30 12467 H 1187.91 3.32671 2.58666 0
M  V30 12468 H 1186.64 2.08623 2.51285 0
M  V30 12469 H 1185.3 3.54004 0.952715 0
M  V30 12470 H 1184.94 3.68418 3.42458 0
M  V30 12471 H 1184.64 5.25237 2.63439 0
M  V30 12472 H 1186.17 4.98406 3.52738 0
M  V30 12473 H 1187.58 5.57556 1.33431 0
M  V30 12474 H 1185.98 5.9661 0.646231 0
M  V30 12475 H 1187.05 4.84428 -0.213789 0
M  V30 12476 N 1188.39 -0.0785156 1.57404 0
M  V30 12477 C 1189.64 -0.778938 1.86919 0
M  V30 12478 C 1189.97 -1.77915 0.785906 0
M  V30 12479 O 1189.22 -1.94473 -0.218811 0
M  V30 12480 C 1189.52 -1.52826 3.23078 0
M  V30 12481 C 1189.19 -0.668645 4.45915 0
M  V30 12482 C 1187.85 -0.43173 4.79259 0
M  V30 12483 C 1190.2 -0.0721327 5.2115 0
M  V30 12484 C 1187.53 0.41129 5.85257 0
M  V30 12485 C 1189.88 0.758303 6.28039 0
M  V30 12486 C 1188.55 1.00515 6.59889 0
M  V30 12487 H 1187.82 -0.285034 0.683986 0
M  V30 12488 H 1190.46 -0.039906 1.91458 0
M  V30 12489 H 1188.77 -2.33931 3.14299 0
M  V30 12490 H 1190.46 -2.07488 3.43147 0
M  V30 12491 H 1187.05 -0.863424 4.19813 0
M  V30 12492 H 1191.24 -0.242297 4.95708 0
M  V30 12493 H 1186.49 0.611354 6.08336 0
M  V30 12494 H 1190.67 1.2273 6.855 0
M  V30 12495 H 1188.3 1.66017 7.41851 0
M  V30 12496 N 1189.87 -1.5367 -0.349747 0
M  V30 12497 C 1190.82 -1.77604 -1.42972 0
M  V30 12498 C 1191.8 -0.631036 -1.48009 0
M  V30 12499 O 1193 -0.890228 -1.52983 0
M  V30 12500 C 1190.13 -1.98354 -2.80198 0
M  V30 12501 C 1189.21 -3.18901 -2.79576 0
M  V30 12502 N 1189.6 -4.40497 -2.48589 0
M  V30 12503 C 1187.9 -3.19945 -3.10727 0
M  V30 12504 C 1188.6 -5.22318 -2.56045 0
M  V30 12505 N 1187.58 -4.5889 -2.91412 0
M  V30 12506 H 1191.38 -2.69215 -1.17901 0
M  V30 12507 H 1188.89 -1.5251 -0.558062 0
M  V30 12508 H 1190.89 -2.13632 -3.58004 0
M  V30 12509 H 1189.55 -1.07981 -3.06219 0
M  V30 12510 H 1190.56 -4.67955 -2.21898 0
M  V30 12511 H 1187.24 -2.39519 -3.41961 0
M  V30 12512 H 1188.63 -6.29352 -2.35299 0
M  V30 12513 N 1191.35 0.610423 -1.45298 0
M  V30 12514 C 1192.59 1.38085 -1.50705 0
M  V30 12515 C 1192.95 1.91459 -0.143997 0
M  V30 12516 O 1194.15 2.68702 -0.0727521 0
M  V30 12517 C 1192.42 2.50009 -2.55402 0
M  V30 12518 S 1193.98 3.37844 -2.80012 0
M  V30 12519 H 1190.8 0.470812 -0.532783 0
M  V30 12520 H 1193.4 0.704638 -1.8236 0
M  V30 12521 H 1192.11 2.09143 -3.53111 0
M  V30 12522 H 1191.64 3.22434 -2.25388 0
M  V30 12523 H 1193.65 4.48074 -2.13176 0
M  V30 12524 N 1192.83 1.32541 0.852676 0
M  V30 12525 C 1193.76 1.24254 1.97694 0
M  V30 12526 C 1194.74 0.125971 1.69633 0
M  V30 12527 O 1195.92 0.31347 1.91653 0
M  V30 12528 C 1193.05 0.966874 3.3357 0
M  V30 12529 C 1192.01 2.0449 3.75989 0
M  V30 12530 C 1191.33 1.6216 5.09518 0
M  V30 12531 C 1192.63 3.46013 3.91244 0
M  V30 12532 H 1194.33 2.18317 2.04886 0
M  V30 12533 H 1191.87 1.05101 0.984371 0
M  V30 12534 H 1193.83 0.895444 4.11776 0
M  V30 12535 H 1192.55 -0.0093893 3.26599 0
M  V30 12536 H 1191.21 2.10651 3.00036 0
M  V30 12537 H 1190.86 0.632729 4.99005 0
M  V30 12538 H 1190.56 2.3429 5.38871 0
M  V30 12539 H 1192.08 1.56457 5.90215 0
M  V30 12540 H 1193.49 3.4243 4.59799 0
M  V30 12541 H 1191.89 4.1651 4.32017 0
M  V30 12542 H 1192.96 3.8553 2.941 0
M  V30 12543 N 1194.3 -1.0692 1.15784 0
M  V30 12544 C 1195.23 -2.16216 0.881649 0
M  V30 12545 C 1196.22 -1.69253 -0.16951 0
M  V30 12546 O 1197.4 -1.94186 -0.0229511 0
M  V30 12547 C 1194.53 -3.4527 0.374982 0
M  V30 12548 C 1193.48 -4.05706 1.36332 0
M  V30 12549 C 1192.81 -5.29894 0.715317 0
M  V30 12550 C 1194.11 -4.45224 2.7308 0
M  V30 12551 H 1195.8 -2.39577 1.79563 0
M  V30 12552 H 1193.35 -1.15141 0.864784 0
M  V30 12553 H 1195.3 -4.2106 0.169279 0
M  V30 12554 H 1194.03 -3.21508 -0.574485 0
M  V30 12555 H 1192.69 -3.31965 1.55546 0
M  V30 12556 H 1192.33 -5.02425 -0.240436 0
M  V30 12557 H 1192.03 -5.71287 1.37494 0
M  V30 12558 H 1193.56 -6.08386 0.519489 0
M  V30 12559 H 1194.97 -5.12124 2.57686 0
M  V30 12560 H 1193.37 -4.97583 3.35457 0
M  V30 12561 H 1194.44 -3.56384 3.28813 0
M  V30 12562 N 1195.78 -0.955326 -1.25345 0
M  V30 12563 C 1196.73 -0.467205 -2.2786 0
M  V30 12564 C 1197.72 0.462873 -1.62954 0
M  V30 12565 O 1198.93 0.339526 -1.76769 0
M  V30 12566 H 1195.31 -0.132586 -0.74022 0
M  V30 12567 H 1197.28 -1.34406 -2.66416 0
M  V30 12568 C 1196.03 0.238898 -3.46878 0
M  V30 12569 H 1195.35 -0.467644 -3.97056 0
M  V30 12570 H 1196.79 0.544444 -4.2049 0
M  V30 12571 C 1195.25 1.46164 -3.03542 0
M  V30 12572 O 1195.78 2.55933 -3.09615 0
M  V30 12573 N 1193.98 1.32324 -2.58725 0
M  V30 12574 H 1193.53 0.430131 -2.53984 0
M  V30 12575 H 1193.49 2.14253 -2.30094 0
M  V30 12576 N 1197.26 1.39987 -0.723979 0
M  V30 12577 C 1198.49 2.0556 -0.275634 0
M  V30 12578 C 1198.91 1.54207 1.07711 0
M  V30 12579 O 1198.27 0.681041 1.68022 0
M  V30 12580 C 1198.32 3.59551 -0.27485 0
M  V30 12581 O 1197.42 4.05685 0.741182 0
M  V30 12582 H 1196.76 0.651634 -0.12755 0
M  V30 12583 H 1199.29 1.79229 -0.986814 0
M  V30 12584 H 1199.3 4.07837 -0.115425 0
M  V30 12585 H 1197.98 3.96291 -1.26198 0
M  V30 12586 H 1196.55 3.6884 0.548795 0
M  V30 12587 N 1198.74 0.470782 1.50404 0
M  V30 12588 C 1199.65 -0.328877 2.32283 0
M  V30 12589 C 1200.67 -0.99629 1.42654 0
M  V30 12590 O 1201.84 -0.984331 1.75707 0
M  V30 12591 C 1198.91 -1.39675 3.1732 0
M  V30 12592 C 1197.97 -0.745965 4.22769 0
M  V30 12593 C 1197.2 -1.76295 5.03742 0
M  V30 12594 O 1197.42 -2.98943 4.85788 0
M  V30 12595 O 1196.36 -1.33495 5.86909 0
M  V30 12596 H 1200.18 0.340491 3.01785 0
M  V30 12597 H 1197.77 0.232637 1.47578 0
M  V30 12598 H 1199.65 -2.0153 3.70086 0
M  V30 12599 H 1198.33 -2.04959 2.50546 0
M  V30 12600 H 1197.23 -0.0884647 3.73995 0
M  V30 12601 H 1198.57 -0.136074 4.92012 0
M  V30 12602 N 1200.22 -1.56282 0.203376 0
M  V30 12603 C 1201.46 -1.98105 -0.433844 0
M  V30 12604 C 1201.8 -1.09044 -1.60695 0
M  V30 12605 O 1201.07 -0.144193 -1.93965 0
M  V30 12606 C 1201.35 -3.4903 -0.885992 0
M  V30 12607 C 1201.21 -4.48867 0.289501 0
M  V30 12608 C 1202.53 -4.03871 -1.7486 0
M  V30 12609 H 1199.65 -0.720252 -0.156224 0
M  V30 12610 H 1202.29 -1.87681 0.295963 0
M  V30 12611 H 1200.44 -3.58045 -1.50785 0
M  V30 12612 H 1202.11 -4.51883 0.92734 0
M  V30 12613 H 1200.35 -4.23495 0.939934 0
M  V30 12614 H 1201.02 -5.51956 -0.0695128 0
M  V30 12615 H 1203.5 -3.97688 -1.22407 0
M  V30 12616 H 1202.38 -5.09827 -2.03391 0
M  V30 12617 H 1202.64 -3.49637 -2.70567 0
M  V30 12618 N 1201.7 0.070167 -1.57444 0
M  V30 12619 C 1203.11 0.424991 -1.53838 0
M  V30 12620 C 1203.31 1.79076 -0.923793 0
M  V30 12621 O 1202.37 2.46939 -0.527002 0
M  V30 12622 C 1203.68 0.364562 -2.98482 0
M  V30 12623 C 1205.23 0.444631 -3.09826 0
M  V30 12624 C 1205.7 0.414093 -4.56124 0
M  V30 12625 N 1207.19 0.474119 -4.60767 0
M  V30 12626 C 1207.93 0.472729 -5.71448 0
M  V30 12627 N 1207.43 0.426059 -6.91489 0
M  V30 12628 N 1209.22 0.519408 -5.59695 0
M  V30 12629 H 1201.37 -0.824117 -1.9576 0
M  V30 12630 H 1203.63 -0.309401 -0.896089 0
M  V30 12631 H 1203.34 -0.572343 -3.47012 0
M  V30 12632 H 1203.21 1.17414 -3.5846 0
M  V30 12633 H 1205.6 1.37196 -2.61269 0
M  V30 12634 H 1205.68 -0.393547 -2.52755 0
M  V30 12635 H 1205.32 -0.509394 -5.05339 0
M  V30 12636 H 1205.25 1.26983 -5.11061 0
M  V30 12637 H 1207.75 0.514371 -3.74383 0
M  V30 12638 H 1208.06 0.428969 -7.71609 0
M  V30 12639 H 1206.4 0.392722 -6.9389 0
M  V30 12640 H 1209.59 0.553573 -4.64815 0
M  V30 12641 H 1209.77 0.514856 -6.45951 0
M  V30 12642 N 1203.17 1.53854 0.341593 0
M  V30 12643 C 1204.14 1.8128 1.40251 0
M  V30 12644 C 1205.14 0.683915 1.45531 0
M  V30 12645 O 1206.33 0.952202 1.45872 0
M  V30 12646 C 1203.46 1.95658 2.79161 0
M  V30 12647 H 1204.65 2.76053 1.17195 0
M  V30 12648 H 1202.2 1.45296 0.57609 0
M  V30 12649 H 1202.94 1.03034 3.07497 0
M  V30 12650 H 1202.72 2.77788 2.76724 0
M  V30 12651 H 1204.21 2.18387 3.55945 0
M  V30 12652 N 1204.65 -0.602709 1.4562 0
M  V30 12653 C 1205.61 -1.69508 1.54271 0
M  V30 12654 C 1206.61 -1.55171 0.421727 0
M  V30 12655 O 1207.8 -1.60151 0.685375 0
M  V30 12656 C 1204.94 -3.0881 1.44392 0
M  V30 12657 H 1206.13 -1.63203 2.51605 0
M  V30 12658 H 1203.68 -0.818857 1.33133 0
M  V30 12659 H 1204.42 -3.20689 0.482614 0
M  V30 12660 H 1204.2 -3.20625 2.25704 0
M  V30 12661 H 1205.69 -3.8837 1.53488 0
M  V30 12662 N 1206.13 -1.32992 -0.845635 0
M  V30 12663 C 1207.38 -1.24065 -1.60044 0
M  V30 12664 C 1207.7 0.195282 -1.93517 0
M  V30 12665 O 1206.96 1.1507 -1.58296 0
M  V30 12666 C 1207.26 -2.05454 -2.92444 0
M  V30 12667 C 1206.92 -3.54718 -2.78362 0
M  V30 12668 C 1205.59 -3.95413 -2.74229 0
M  V30 12669 C 1207.94 -4.49598 -2.63649 0
M  V30 12670 C 1205.27 -5.29216 -2.53274 0
M  V30 12671 C 1207.62 -5.83554 -2.44228 0
M  V30 12672 C 1206.28 -6.2344 -2.38493 0
M  V30 12673 H 1205.55 -0.453985 -0.585644 0
M  V30 12674 H 1208.2 -1.6451 -0.980244 0
M  V30 12675 H 1206.5 -1.57765 -3.58633 0
M  V30 12676 H 1208.2 -1.95909 -3.49887 0
M  V30 12677 H 1204.79 -3.22403 -2.82409 0
M  V30 12678 H 1208.98 -4.19072 -2.65881 0
M  V30 12679 H 1204.23 -5.59164 -2.47275 0
M  V30 12680 H 1208.41 -6.56681 -2.31825 0
M  V30 12681 H 1206.03 -7.27058 -2.22015 0
M  V30 12682 N 1207.61 1.06304 -1.1635 0
M  V30 12683 C 1208.55 2.13776 -0.869965 0
M  V30 12684 C 1209.52 1.65105 0.181541 0
M  V30 12685 O 1210.71 1.90743 0.0467705 0
M  V30 12686 C 1207.85 3.43034 -0.377077 0
M  V30 12687 C 1206.96 4.0544 -1.4914 0
M  V30 12688 C 1206.1 5.22572 -0.953538 0
M  V30 12689 C 1205.14 5.76961 -2.04407 0
M  V30 12690 N 1204.27 6.85409 -1.52181 0
M  V30 12691 H 1209.11 2.38224 -1.79034 0
M  V30 12692 H 1206.65 1.16882 -0.893136 0
M  V30 12693 H 1208.61 4.17136 -0.0729426 0
M  V30 12694 H 1207.24 3.18804 0.506359 0
M  V30 12695 H 1206.29 3.28886 -1.9115 0
M  V30 12696 H 1207.6 4.41859 -2.31434 0
M  V30 12697 H 1206.76 6.037 -0.602579 0
M  V30 12698 H 1205.5 4.87598 -0.099897 0
M  V30 12699 H 1204.5 4.9447 -2.40373 0
M  V30 12700 H 1205.73 6.13987 -2.90167 0
M  V30 12701 H 1203.67 6.52354 -0.690697 0
M  V30 12702 H 1203.59 7.2077 -2.28092 0
M  V30 12703 H 1204.86 7.70217 -1.19942 0
M  V30 12704 N 1209.09 0.96196 1.24836 0
M  V30 12705 C 1210.04 0.458643 2.23339 0
M  V30 12706 C 1211.02 -0.456178 1.54298 0
M  V30 12707 O 1212.21 -0.288036 1.74641 0
M  V30 12708 C 1209.34 -0.255381 3.42349 0
M  V30 12709 C 1208.43 0.677934 4.18646 0
M  V30 12710 N 1208.82 1.81273 4.72201 0
M  V30 12711 C 1207.12 0.487577 4.43327 0
M  V30 12712 C 1207.82 2.39604 5.30061 0
M  V30 12713 N 1206.79 1.68179 5.1693 0
M  V30 12714 H 1210.59 1.32459 2.62358 0
M  V30 12715 H 1208.11 0.820343 1.40158 0
M  V30 12716 H 1210.11 -0.633142 4.12064 0
M  V30 12717 H 1208.77 -1.11784 3.04852 0
M  V30 12718 H 1209.78 2.19441 4.69112 0
M  V30 12719 H 1206.45 -0.331392 4.16183 0
M  V30 12720 H 1207.84 3.35334 5.82237 0
M  V30 12721 N 1210.56 -1.39601 0.731392 0
M  V30 12722 C 1211.51 -2.30628 0.0890606 0
M  V30 12723 C 1212.48 -1.49025 -0.73353 0
M  V30 12724 O 1213.67 -1.77722 -0.694234 0
M  V30 12725 C 1210.81 -3.35339 -0.814956 0
M  V30 12726 C 1209.92 -4.31995 0.0198606 0
M  V30 12727 C 1209.05 -5.23774 -0.885095 0
M  V30 12728 C 1208.09 -6.12083 -0.045311 0
M  V30 12729 N 1207.23 -6.9623 -0.906002 0
M  V30 12730 H 1212.07 -2.84988 0.870958 0
M  V30 12731 H 1209.61 -1.40329 0.441166 0
M  V30 12732 H 1211.56 -3.94634 -1.3535 0
M  V30 12733 H 1210.19 -2.82443 -1.56287 0
M  V30 12734 H 1209.25 -3.74349 0.675778 0
M  V30 12735 H 1210.56 -4.94289 0.669346 0
M  V30 12736 H 1209.71 -5.88078 -1.49161 0
M  V30 12737 H 1208.45 -4.61794 -1.56837 0
M  V30 12738 H 1207.46 -5.46795 0.574028 0
M  V30 12739 H 1208.68 -6.76128 0.634692 0
M  V30 12740 H 1206.63 -6.36821 -1.57463 0
M  V30 12741 H 1206.54 -7.55352 -0.312914 0
M  V30 12742 H 1207.81 -7.64967 -1.49819 0
M  V30 12743 N 1212.04 -0.478751 -1.50152 0
M  V30 12744 C 1213.27 0.0710485 -2.06778 0
M  V30 12745 C 1213.69 1.32826 -1.34174 0
M  V30 12746 O 1213.04 1.77758 -0.413304 0
M  V30 12747 C 1213.09 0.351351 -3.59789 0
M  V30 12748 O 1212.81 -0.855998 -4.29656 0
M  V30 12749 C 1214.32 0.947269 -4.33061 0
M  V30 12750 H 1211.54 -0.0105032 -0.670918 0
M  V30 12751 H 1214.08 -0.669732 -1.93222 0
M  V30 12752 H 1212.23 1.04207 -3.73121 0
M  V30 12753 H 1212.65 -0.605252 -5.20996 0
M  V30 12754 H 1214.12 1.09312 -5.41068 0
M  V30 12755 H 1214.6 1.93937 -3.94062 0
M  V30 12756 H 1215.21 0.294693 -4.24278 0
M  V30 12757 N 1213.52 1.56172 -0.211661 0
M  V30 12758 C 1214.47 2.19849 0.702515 0
M  V30 12759 C 1215.44 1.15091 1.19763 0
M  V30 12760 O 1216.62 1.43408 1.25852 0
M  V30 12761 C 1213.76 2.87468 1.90935 0
M  V30 12762 C 1212.88 4.06794 1.45406 0
M  V30 12763 C 1212.01 4.62224 2.61769 0
M  V30 12764 C 1211.05 5.73872 2.12926 0
M  V30 12765 N 1210.19 6.23635 3.22526 0
M  V30 12766 H 1215.03 2.97608 0.152777 0
M  V30 12767 H 1212.56 1.46962 0.0636596 0
M  V30 12768 H 1214.52 3.24851 2.61777 0
M  V30 12769 H 1213.15 2.12244 2.43213 0
M  V30 12770 H 1212.2 3.74962 0.640907 0
M  V30 12771 H 1213.52 4.87497 1.05584 0
M  V30 12772 H 1212.67 5.01999 3.40709 0
M  V30 12773 H 1211.41 3.80662 3.04873 0
M  V30 12774 H 1210.41 5.33609 1.32445 0
M  V30 12775 H 1211.64 6.57262 1.70833 0
M  V30 12776 H 1209.58 5.44991 3.65131 0
M  V30 12777 H 1209.5 6.99435 2.86926 0
M  V30 12778 H 1210.77 6.68066 4.01631 0
M  V30 12779 N 1215 -0.0618163 1.57479 0
M  V30 12780 C 1216.24 -0.760193 1.88013 0
M  V30 12781 C 1216.58 -1.76718 0.805258 0
M  V30 12782 O 1215.85 -1.93633 -0.183408 0
M  V30 12783 C 1216.14 -1.45924 3.29208 0
M  V30 12784 C 1215.99 -0.467994 4.47359 0
M  V30 12785 C 1217.31 -2.40166 3.68793 0
M  V30 12786 H 1214.43 -0.274896 0.683814 0
M  V30 12787 H 1217.07 -0.0232433 1.89986 0
M  V30 12788 H 1215.22 -2.08741 3.27657 0
M  V30 12789 H 1216.89 0.155735 4.61037 0
M  V30 12790 H 1215.13 0.215797 4.33263 0
M  V30 12791 H 1215.8 -0.994942 5.42959 0
M  V30 12792 H 1218.28 -1.87419 3.71501 0
M  V30 12793 H 1217.16 -2.86076 4.68457 0
M  V30 12794 H 1217.42 -3.25413 2.99264 0
M  V30 12795 N 1216.48 -1.54033 -0.333429 0
M  V30 12796 C 1217.72 -1.72958 -1.07038 0
M  V30 12797 C 1218.08 -0.492055 -1.86002 0
M  V30 12798 O 1217.37 0.515453 -1.84536 0
M  V30 12799 C 1217.56 -2.93926 -2.03328 0
M  V30 12800 C 1217.39 -4.29324 -1.33831 0
M  V30 12801 C 1216.16 -4.93647 -1.07892 0
M  V30 12802 C 1218.36 -5.08664 -0.75929 0
M  V30 12803 N 1216.34 -6.12897 -0.35082 0
M  V30 12804 C 1217.71 -6.19788 -0.162281 0
M  V30 12805 C 1219.77 -4.93491 -0.661131 0
M  V30 12806 C 1218.47 -7.17394 0.523351 0
M  V30 12807 C 1220.5 -5.91399 0.0107794 0
M  V30 12808 C 1219.86 -7.01867 0.596775 0
M  V30 12809 H 1215.96 -0.685828 -0.375718 0
M  V30 12810 H 1218.54 -1.91478 -0.35274 0
M  V30 12811 H 1216.71 -2.76889 -2.72373 0
M  V30 12812 H 1218.45 -3.01524 -2.69936 0
M  V30 12813 H 1215.2 -4.53392 -1.36868 0
M  V30 12814 H 1215.63 -6.77 -0.00120039 0
M  V30 12815 H 1220.27 -4.08242 -1.09991 0
M  V30 12816 H 1217.99 -8.02209 0.973994 0
M  V30 12817 H 1221.57 -5.81736 0.0862353 0
M  V30 12818 H 1220.45 -7.76327 1.10845 0
M  V30 12819 N 1217.95 0.594978 -1.45938 0
M  V30 12820 C 1219.18 1.38482 -1.54394 0
M  V30 12821 C 1219.6 1.87222 -0.181563 0
M  V30 12822 O 1218.96 1.60869 0.836119 0
M  V30 12823 C 1219.01 2.55676 -2.54287 0
M  V30 12824 O 1218.11 3.5672 -2.06941 0
M  V30 12825 H 1217.46 0.412918 -0.519995 0
M  V30 12826 H 1219.99 0.722899 -1.91404 0
M  V30 12827 H 1220 3.02756 -2.73501 0
M  V30 12828 H 1218.67 2.19552 -3.53228 0
M  V30 12829 H 1217.25 3.16204 -1.97661 0
M  V30 12830 N 1219.43 1.33438 0.838571 0
M  V30 12831 C 1220.36 1.26344 1.96365 0
M  V30 12832 C 1221.34 0.143956 1.6949 0
M  V30 12833 O 1222.53 0.333779 1.9131 0
M  V30 12834 C 1219.66 1.0022 3.32526 0
M  V30 12835 C 1218.61 2.08466 3.73799 0
M  V30 12836 C 1217.94 1.67555 5.07769 0
M  V30 12837 C 1219.24 3.50144 3.87552 0
M  V30 12838 H 1220.93 2.20478 2.02558 0
M  V30 12839 H 1218.48 1.06139 0.973168 0
M  V30 12840 H 1220.43 0.939068 4.10803 0
M  V30 12841 H 1219.16 0.0252514 3.2659 0
M  V30 12842 H 1217.81 2.13822 2.97785 0
M  V30 12843 H 1217.46 0.685619 4.98305 0
M  V30 12844 H 1217.16 2.39993 5.36356 0
M  V30 12845 H 1218.69 1.62708 5.88522 0
M  V30 12846 H 1220.1 3.47287 4.56141 0
M  V30 12847 H 1218.5 4.21069 4.27575 0
M  V30 12848 H 1219.57 3.88628 2.89994 0
M  V30 12849 N 1220.91 -1.05686 1.16912 0
M  V30 12850 C 1222.14 -1.82282 0.978811 0
M  V30 12851 C 1222.55 -1.8278 -0.472972 0
M  V30 12852 O 1221.91 -1.25143 -1.32836 0
M  V30 12853 C 1221.96 -3.28623 1.50629 0
M  V30 12854 O 1221.68 -3.28269 2.90122 0
M  V30 12855 C 1223.18 -4.21927 1.35987 0
M  V30 12856 H 1220.4 -0.574558 0.346588 0
M  V30 12857 H 1222.95 -1.33301 1.55084 0
M  V30 12858 H 1221.1 -3.74893 0.976404 0
M  V30 12859 H 1221.52 -4.19824 3.14401 0
M  V30 12860 H 1222.99 -5.2261 1.77716 0
M  V30 12861 H 1223.47 -4.38131 0.30626 0
M  V30 12862 H 1224.07 -3.81508 1.87968 0
M  V30 12863 N 1222.39 -0.968567 -1.24324 0
M  V30 12864 C 1223.61 -0.648166 -1.97012 0
M  V30 12865 C 1224.04 0.775842 -1.71354 0
M  V30 12866 O 1223.4 1.52672 -0.977804 0
M  V30 12867 C 1223.44 -0.929974 -3.48402 0
M  V30 12868 O 1222.55 -0.015854 -4.12397 0
M  V30 12869 H 1221.89 -0.244961 -0.617163 0
M  V30 12870 H 1224.42 -1.29895 -1.58077 0
M  V30 12871 H 1224.43 -0.861863 -3.98793 0
M  V30 12872 H 1223.1 -1.96776 -3.66404 0
M  V30 12873 H 1221.68 -0.137361 -3.72647 0
M  V30 12874 N 1223.87 1.39211 -0.738786 0
M  V30 12875 C 1225.09 2.05256 -0.297421 0
M  V30 12876 C 1225.52 1.55341 1.06069 0
M  V30 12877 O 1224.87 0.698823 1.67291 0
M  V30 12878 C 1224.92 3.59239 -0.312969 0
M  V30 12879 O 1224.03 4.06448 0.698112 0
M  V30 12880 H 1223.37 0.650245 -0.134454 0
M  V30 12881 H 1225.9 1.78173 -1.00577 0
M  V30 12882 H 1225.91 4.07691 -0.158675 0
M  V30 12883 H 1224.58 3.94931 -1.30394 0
M  V30 12884 H 1223.16 3.69401 0.509643 0
M  V30 12885 N 1225.34 0.486708 1.49896 0
M  V30 12886 C 1226.57 -0.0622999 2.07306 0
M  V30 12887 C 1226.99 -1.31353 1.3464 0
M  V30 12888 O 1226.35 -1.76861 0.398752 0
M  V30 12889 C 1226.4 -0.313481 3.59235 0
M  V30 12890 O 1225.5 -1.39101 3.88233 0
M  V30 12891 H 1224.85 0.0198885 0.663702 0
M  V30 12892 H 1227.38 0.682232 1.92891 0
M  V30 12893 H 1227.39 -0.549302 4.04285 0
M  V30 12894 H 1226.06 0.600767 4.11538 0
M  V30 12895 H 1224.64 -1.14127 3.55006 0
M  V30 12896 N 1226.82 -1.56058 0.219941 0
M  V30 12897 C 1227.79 -2.18964 -0.677303 0
M  V30 12898 C 1228.79 -1.15105 -1.12283 0
M  V30 12899 O 1229.98 -1.40348 -1.03189 0
M  V30 12900 C 1227.11 -2.81167 -1.92764 0
M  V30 12901 H 1228.3 -2.99623 -0.128877 0
M  V30 12902 H 1225.85 -1.56272 -0.0296744 0
M  V30 12903 H 1226.59 -2.04374 -2.51797 0
M  V30 12904 H 1226.37 -3.5722 -1.61666 0
M  V30 12905 H 1227.86 -3.29391 -2.56693 0
M  V30 12906 N 1228.3 0.053464 -1.57509 0
M  V30 12907 C 1229.72 0.408651 -1.5428 0
M  V30 12908 C 1229.92 1.78086 -0.942735 0
M  V30 12909 O 1228.97 2.46366 -0.553163 0
M  V30 12910 C 1230.29 0.332884 -2.98852 0
M  V30 12911 C 1231.83 0.411745 -3.1028 0
M  V30 12912 C 1232.31 0.365691 -4.56538 0
M  V30 12913 N 1233.8 0.425222 -4.61244 0
M  V30 12914 C 1234.54 0.412093 -5.71917 0
M  V30 12915 N 1234.03 0.352693 -6.91902 0
M  V30 12916 N 1235.82 0.460016 -5.60214 0
M  V30 12917 H 1227.98 -0.844834 -1.94875 0
M  V30 12918 H 1230.24 -0.318888 -0.892757 0
M  V30 12919 H 1229.94 -0.609116 -3.46385 0
M  V30 12920 H 1229.82 1.13605 -3.59686 0
M  V30 12921 H 1232.21 1.34417 -2.62709 0
M  V30 12922 H 1232.29 -0.420333 -2.52323 0
M  V30 12923 H 1231.93 -0.562963 -5.0477 0
M  V30 12924 H 1231.86 1.21555 -5.12379 0
M  V30 12925 H 1234.35 0.474634 -3.74908 0
M  V30 12926 H 1234.66 0.347105 -7.7202 0
M  V30 12927 H 1233.01 0.319104 -6.94267 0
M  V30 12928 H 1236.2 0.504242 -4.65376 0
M  V30 12929 H 1236.37 0.446315 -6.46461 0
M  V30 12930 N 1229.78 1.54207 0.325255 0
M  V30 12931 C 1231.01 1.76293 1.08298 0
M  V30 12932 C 1231.42 0.510722 1.81761 0
M  V30 12933 O 1230.78 -0.5185 1.7498 0
M  V30 12934 C 1230.83 2.95498 2.08238 0
M  V30 12935 O 1230.55 4.15877 1.37759 0
M  V30 12936 C 1232.05 3.29781 2.96242 0
M  V30 12937 H 1229.27 0.588576 0.322209 0
M  V30 12938 H 1231.82 2.0109 0.371896 0
M  V30 12939 H 1229.97 2.72979 2.74884 0
M  V30 12940 H 1230.39 4.82918 2.04672 0
M  V30 12941 H 1231.86 4.16495 3.62265 0
M  V30 12942 H 1232.34 2.46874 3.63249 0
M  V30 12943 H 1232.94 3.54372 2.3516 0
M  V30 12944 N 1231.26 -0.58723 1.46251 0
M  V30 12945 C 1232.48 -1.37661 1.55126 0
M  V30 12946 C 1232.91 -1.87123 0.191489 0
M  V30 12947 O 1232.27 -1.6131 -0.827576 0
M  V30 12948 C 1232.31 -2.54324 2.5564 0
M  V30 12949 O 1231.42 -3.55617 2.0883 0
M  V30 12950 H 1230.76 -0.410154 0.522178 0
M  V30 12951 H 1233.29 -0.712738 1.91784 0
M  V30 12952 H 1233.3 -3.01301 2.75103 0
M  V30 12953 H 1231.97 -2.17675 3.54387 0
M  V30 12954 H 1230.55 -3.15151 1.99335 0
M  V30 12955 N 1232.74 -1.33881 -0.831482 0
M  V30 12956 C 1233.68 -1.24741 -1.96322 0
M  V30 12957 C 1234.68 -0.147251 -1.68759 0
M  V30 12958 O 1235.88 -0.311684 -1.77281 0
M  V30 12959 H 1232.26 -0.387298 -0.644596 0
M  V30 12960 H 1234.23 -2.20407 -2.01155 0
M  V30 12961 C 1232.98 -1.01102 -3.32677 0
M  V30 12962 H 1232.3 -1.84986 -3.54429 0
M  V30 12963 H 1233.74 -0.987398 -4.12343 0
M  V30 12964 C 1232.2 0.285903 -3.35685 0
M  V30 12965 O 1232.73 1.29014 -3.80419 0
M  V30 12966 N 1230.94 0.316026 -2.88877 0
M  V30 12967 H 1230.48 -0.501758 -2.52666 0
M  V30 12968 H 1230.44 1.18357 -2.91271 0
M  V30 12969 N 1234.21 1.05064 -1.1747 0
M  V30 12970 C 1235.18 2.1101 -0.89485 0
M  V30 12971 C 1236.18 1.60384 0.11553 0
M  V30 12972 O 1237.37 1.73808 -0.116785 0
M  V30 12973 C 1234.5 3.39194 -0.340642 0
M  V30 12974 H 1235.69 2.37269 -1.83421 0
M  V30 12975 H 1233.24 1.21329 -0.985343 0
M  V30 12976 H 1233.98 3.18591 0.605808 0
M  V30 12977 H 1233.76 3.77251 -1.06885 0
M  V30 12978 H 1235.25 4.17281 -0.163204 0
M  V30 12979 N 1235.69 0.975146 1.23809 0
M  V30 12980 C 1236.64 0.510761 2.25077 0
M  V30 12981 C 1237.61 -0.447605 1.59955 0
M  V30 12982 O 1238.79 -0.356318 1.87443 0
M  V30 12983 C 1235.93 -0.185755 3.446 0
M  V30 12984 C 1235.05 0.812254 4.24295 0
M  V30 12985 C 1234.18 0.0910835 5.31122 0
M  V30 12986 C 1233.22 1.07866 6.02521 0
M  V30 12987 N 1232.36 0.386995 7.01033 0
M  V30 12988 H 1237.2 1.37913 2.64166 0
M  V30 12989 H 1234.73 0.691184 1.2985 0
M  V30 12990 H 1236.69 -0.606341 4.1277 0
M  V30 12991 H 1235.32 -1.01803 3.06327 0
M  V30 12992 H 1234.37 1.35125 3.55592 0
M  V30 12993 H 1235.69 1.56502 4.73612 0
M  V30 12994 H 1234.84 -0.387129 6.05464 0
M  V30 12995 H 1233.58 -0.694324 4.82732 0
M  V30 12996 H 1232.58 1.56767 5.26976 0
M  V30 12997 H 1233.81 1.86464 6.52999 0
M  V30 12998 H 1231.76 -0.3793 6.54903 0
M  V30 12999 H 1231.67 1.0785 7.48268 0
M  V30 13000 H 1232.94 -0.0690036 7.79469 0
M  V30 13001 N 1237.17 -1.38817 0.746158 0
M  V30 13002 C 1238.58 -1.83045 0.367629 0
M  V30 13003 C 1238.93 -1.62285 -1.10263 0
M  V30 13004 O 1238.06 -1.12001 -1.85162 0
M  V30 13005 C 1238.65 -3.323 0.660482 0
M  V30 13006 C 1237.21 -3.74903 0.335318 0
M  V30 13007 C 1236.36 -2.61683 0.917446 0
M  V30 13008 H 1239.31 -1.27651 0.94291 0
M  V30 13009 H 1239.33 -3.80446 -0.0639061 0
M  V30 13010 H 1238.84 -3.47377 1.73062 0
M  V30 13011 H 1236.94 -3.65408 -0.728538 0
M  V30 13012 H 1237.06 -4.71932 0.825677 0
M  V30 13013 H 1235.42 -2.52376 0.343316 0
M  V30 13014 H 1236.2 -2.79563 1.99247 0
M  V30 13015 N 1238.65 -0.49465 -1.49636 0
M  V30 13016 C 1239.89 0.0521172 -2.02433 0
M  V30 13017 C 1240.22 1.37579 -1.37485 0
M  V30 13018 O 1239.48 1.8927 -0.497538 0
M  V30 13019 C 1239.78 0.259743 -3.56455 0
M  V30 13020 C 1239.44 -0.985143 -4.40007 0
M  V30 13021 C 1238.1 -1.3264 -4.62558 0
M  V30 13022 C 1240.46 -1.81291 -4.88654 0
M  V30 13023 C 1237.78 -2.49506 -5.31003 0
M  V30 13024 C 1240.14 -2.97305 -5.58384 0
M  V30 13025 C 1238.8 -3.31818 -5.79183 0
M  V30 13026 H 1238.07 0.0190711 -0.740755 0
M  V30 13027 H 1240.72 -0.653519 -1.80004 0
M  V30 13028 H 1239.02 1.04785 -3.77528 0
M  V30 13029 H 1240.72 0.697146 -3.94893 0
M  V30 13030 H 1237.31 -0.709313 -4.2269 0
M  V30 13031 H 1241.49 -1.56242 -4.71065 0
M  V30 13032 H 1236.75 -2.76491 -5.4531 0
M  V30 13033 H 1240.92 -3.61777 -5.95055 0
M  V30 13034 H 1238.55 -4.22478 -6.31994 0
M  V30 13035 N 1240.13 1.55939 -0.228214 0
M  V30 13036 C 1241.08 2.17223 0.692674 0
M  V30 13037 C 1242.06 1.12252 1.15275 0
M  V30 13038 O 1243.25 1.3822 1.10563 0
M  V30 13039 C 1240.38 2.86084 1.89766 0
M  V30 13040 C 1239.47 3.98288 1.45695 0
M  V30 13041 N 1239.86 5.00515 0.729258 0
M  V30 13042 C 1238.16 4.105 1.74372 0
M  V30 13043 C 1238.86 5.79516 0.503606 0
M  V30 13044 N 1237.83 5.33119 1.06229 0
M  V30 13045 H 1241.63 2.9362 0.128345 0
M  V30 13046 H 1239.15 1.62373 -0.0297445 0
M  V30 13047 H 1241.15 3.28404 2.5682 0
M  V30 13048 H 1239.81 2.11185 2.46639 0
M  V30 13049 H 1240.82 5.16495 0.381261 0
M  V30 13050 H 1237.49 3.46759 2.32518 0
M  V30 13051 H 1238.88 6.71857 -0.0760344 0
M  V30 13052 N 1241.6 -0.0451101 1.57535 0
M  V30 13053 C 1242.83 -0.755068 1.93167 0
M  V30 13054 C 1243.25 -1.68949 0.826915 0
M  V30 13055 O 1242.61 -1.79978 -0.218534 0
M  V30 13056 C 1242.66 -1.50201 3.27829 0
M  V30 13057 O 1241.76 -2.61434 3.18945 0
M  V30 13058 H 1241.11 -0.204219 0.631815 0
M  V30 13059 H 1243.64 -0.00537504 2.04599 0
M  V30 13060 H 1243.65 -1.87547 3.6234 0
M  V30 13061 H 1242.32 -0.816591 4.07805 0
M  V30 13062 H 1240.9 -2.26749 2.96039 0
M  V30 13063 N 1243.08 -1.54377 -0.317073 0
M  V30 13064 C 1244.36 -1.63551 -1.07287 0
M  V30 13065 C 1244.74 -0.473499 -2.05721 0
M  V30 13066 O 1244.09 0.531545 -2.22232 0
M  V30 13067 C 1244.3 -3.00842 -1.76904 0
M  V30 13068 C 1245.65 -3.57111 -2.29689 0
M  V30 13069 O 1246.67 -3.0319 -1.86961 0
M  V30 13070 O 1245.53 -4.51486 -3.07932 0
M  V30 13071 H 1242.62 -0.662557 -0.494922 0
M  V30 13072 H 1245.17 -1.66723 -0.316444 0
M  V30 13073 H 1243.94 -3.76854 -1.05341 0
M  V30 13074 H 1243.56 -3.01377 -2.59341 0
M  V30 13075 N 1244.56 0.579466 -1.4656 0
M  V30 13076 C 1245.49 1.69846 -1.60233 0
M  V30 13077 C 1246.47 1.6397 -0.452533 0
M  V30 13078 O 1247.66 1.81936 -0.679174 0
M  V30 13079 C 1244.79 3.08488 -1.59538 0
M  V30 13080 C 1243.74 3.29197 -2.7352 0
M  V30 13081 C 1243.07 4.684 -2.57887 0
M  V30 13082 C 1244.37 3.16718 -4.15315 0
M  V30 13083 H 1246.06 1.5866 -2.53904 0
M  V30 13084 H 1243.61 0.761873 -1.22194 0
M  V30 13085 H 1245.56 3.86595 -1.67696 0
M  V30 13086 H 1244.28 3.20581 -0.62413 0
M  V30 13087 H 1242.94 2.53491 -2.64836 0
M  V30 13088 H 1242.59 4.77262 -1.58839 0
M  V30 13089 H 1242.29 4.83208 -3.34341 0
M  V30 13090 H 1243.81 5.48671 -2.67942 0
M  V30 13091 H 1245.23 3.84666 -4.25094 0
M  V30 13092 H 1243.63 3.43047 -4.92381 0
M  V30 13093 H 1244.7 2.13755 -4.35244 0
M  V30 13094 N 1246.04 1.3432 0.824371 0
M  V30 13095 C 1246.97 1.2012 1.94027 0
M  V30 13096 C 1247.95 0.0931808 1.62333 0
M  V30 13097 O 1249.13 0.258069 1.86725 0
M  V30 13098 C 1246.26 0.845628 3.27974 0
M  V30 13099 C 1245.31 1.9632 3.7863 0
M  V30 13100 S 1246.14 3.57642 3.98563 0
M  V30 13101 C 1247.3 3.24124 5.35439 0
M  V30 13102 H 1247.53 2.14579 2.05775 0
M  V30 13103 H 1245.06 1.1933 0.979783 0
M  V30 13104 H 1247.02 0.647266 4.05365 0
M  V30 13105 H 1245.68 -0.0805948 3.13997 0
M  V30 13106 H 1244.87 1.66812 4.75594 0
M  V30 13107 H 1244.48 2.11897 3.08181 0
M  V30 13108 H 1246.77 2.75848 6.188 0
M  V30 13109 H 1247.71 4.20222 5.69929 0
M  V30 13110 H 1248.12 2.60343 5.00881 0
M  V30 13111 N 1247.52 -1.0444 1.18026 0
M  V30 13112 C 1248.46 -2.14474 0.900202 0
M  V30 13113 C 1249.46 -1.68836 -0.138086 0
M  V30 13114 O 1250.66 -1.79997 0.00971011 0
M  V30 13115 H 1247.04 -0.700457 0.273613 0
M  V30 13116 H 1249.01 -2.35295 1.83518 0
M  V30 13117 C 1247.76 -3.44926 0.438305 0
M  V30 13118 H 1247.08 -3.8045 1.22874 0
M  V30 13119 H 1248.52 -4.23066 0.281306 0
M  V30 13120 C 1246.98 -3.26124 -0.845268 0
M  V30 13121 O 1247.51 -3.53368 -1.91034 0
M  V30 13122 N 1245.72 -2.79474 -0.7964 0
M  V30 13123 H 1245.26 -2.57503 0.0705595 0
M  V30 13124 H 1245.22 -2.67274 -1.65566 0
M  V30 13125 N 1248.99 -0.981699 -1.2329 0
M  V30 13126 C 1250.24 -0.650015 -1.91361 0
M  V30 13127 C 1250.56 0.819184 -1.76959 0
M  V30 13128 O 1249.83 1.5861 -1.14977 0
M  V30 13129 H 1248.41 -0.237427 -0.708264 0
M  V30 13130 H 1251.08 -1.24579 -1.49887 0
M  V30 13131 H 1250.17 -0.902772 -2.98758 0
M  V30 13132 N 1250.47 1.3842 -0.753509 0
M  V30 13133 C 1251.7 2.04403 -0.320449 0
M  V30 13134 C 1252.12 1.5683 1.05118 0
M  V30 13135 O 1251.47 0.741335 1.66765 0
M  V30 13136 C 1251.52 3.59954 -0.333937 0
M  V30 13137 O 1251.24 4.05782 -1.65144 0
M  V30 13138 C 1252.75 4.43156 0.112997 0
M  V30 13139 H 1249.97 0.656881 -0.136927 0
M  V30 13140 H 1252.51 1.77112 -1.02234 0
M  V30 13141 H 1250.66 3.86083 0.319215 0
M  V30 13142 H 1251.08 5.00213 -1.57757 0
M  V30 13143 H 1252.55 5.51975 0.0523995 0
M  V30 13144 H 1253.03 4.23581 1.16087 0
M  V30 13145 H 1253.64 4.22216 -0.511278 0
M  V30 13146 N 1251.95 0.502579 1.49372 0
M  V30 13147 C 1253.37 0.158641 1.5881 0
M  V30 13148 C 1253.57 -1.33688 1.50764 0
M  V30 13149 O 1252.62 -2.11295 1.38241 0
M  V30 13150 C 1253.94 0.736843 2.91532 0
M  V30 13151 C 1255.48 0.703093 3.05001 0
M  V30 13152 C 1255.96 1.25938 4.40345 0
M  V30 13153 N 1257.45 1.22015 4.46841 0
M  V30 13154 C 1258.18 1.62076 5.50017 0
M  V30 13155 N 1257.68 2.09736 6.6029 0
M  V30 13156 N 1259.47 1.53482 5.4074 0
M  V30 13157 H 1251.62 1.47487 1.52844 0
M  V30 13158 H 1253.89 0.611851 0.724115 0
M  V30 13159 H 1253.59 1.78573 3.02992 0
M  V30 13160 H 1253.47 0.198178 3.76679 0
M  V30 13161 H 1255.85 -0.336965 2.9317 0
M  V30 13162 H 1255.94 1.27892 2.21534 0
M  V30 13163 H 1255.58 2.29823 4.52928 0
M  V30 13164 H 1255.51 0.659481 5.22454 0
M  V30 13165 H 1258 0.870957 3.67726 0
M  V30 13166 H 1258.31 2.3837 7.35119 0
M  V30 13167 H 1256.66 2.13712 6.61326 0
M  V30 13168 H 1259.85 1.16065 4.53483 0
M  V30 13169 H 1260.02 1.85026 6.21023 0
M  V30 13170 N 1253.43 -1.55816 0.23648 0
M  V30 13171 C 1254.84 -1.84757 -0.268622 0
M  V30 13172 C 1255.19 -1.15815 -1.58371 0
M  V30 13173 O 1254.32 -0.432923 -2.12025 0
M  V30 13174 C 1254.91 -3.35177 -0.494167 0
M  V30 13175 C 1253.47 -3.64382 -0.943551 0
M  V30 13176 C 1252.62 -2.77296 -0.0149191 0
M  V30 13177 H 1255.57 -1.51908 0.459308 0
M  V30 13178 H 1255.59 -3.56192 -1.3382 0
M  V30 13179 H 1255.1 -3.85327 0.463138 0
M  V30 13180 H 1253.2 -3.19701 -1.91369 0
M  V30 13181 H 1253.31 -4.72244 -0.807626 0
M  V30 13182 H 1251.68 -2.49243 -0.524419 0
M  V30 13183 H 1252.46 -3.30249 0.937571 0
M  V30 13184 N 1254.91 0.036755 -1.57557 0
M  V30 13185 C 1256.15 0.727665 -1.88546 0
M  V30 13186 C 1256.48 1.76304 -0.833179 0
M  V30 13187 O 1255.75 1.9544 0.13414 0
M  V30 13188 H 1254.33 0.271744 -0.695819 0
M  V30 13189 H 1256.99 0.00452915 -1.94899 0
M  V30 13190 H 1256.08 1.22205 -2.8718 0
M  V30 13191 N 1256.39 1.54543 0.308881 0
M  V30 13192 C 1257.32 1.79818 1.40502 0
M  V30 13193 C 1258.3 0.648927 1.4909 0
M  V30 13194 O 1259.48 0.888009 1.66273 0
M  V30 13195 C 1256.61 1.92787 2.7848 0
M  V30 13196 C 1255.65 3.15167 2.87353 0
M  V30 13197 S 1256.49 4.73427 2.50255 0
M  V30 13198 C 1257.64 4.89321 3.90276 0
M  V30 13199 H 1257.88 2.7251 1.18852 0
M  V30 13200 H 1255.41 1.45854 0.506551 0
M  V30 13201 H 1257.37 2.00944 3.57955 0
M  V30 13202 H 1256.03 1.01047 2.97403 0
M  V30 13203 H 1255.22 3.2102 3.88538 0
M  V30 13204 H 1254.82 3.05416 2.15864 0
M  V30 13205 H 1257.11 4.7286 4.8519 0
M  V30 13206 H 1258.06 5.91418 3.89398 0
M  V30 13207 H 1258.47 4.17524 3.79913 0
M  V30 13208 N 1257.86 -0.571685 1.46866 0
M  V30 13209 C 1258.83 -1.66198 1.57832 0
M  V30 13210 C 1259.83 -1.54242 0.454547 0
M  V30 13211 O 1261.02 -1.58661 0.719191 0
M  V30 13212 C 1258.15 -3.05678 1.5091 0
M  V30 13213 H 1259.34 -1.57829 2.5501 0
M  V30 13214 H 1256.89 -0.790433 1.3484 0
M  V30 13215 H 1257.63 -3.19593 0.550529 0
M  V30 13216 H 1257.41 -3.15765 2.32454 0
M  V30 13217 H 1258.9 -3.85027 1.61692 0
M  V30 13218 N 1259.34 -1.34755 -0.817236 0
M  V30 13219 C 1260.57 -1.30676 -1.61054 0
M  V30 13220 C 1260.99 0.115343 -1.87746 0
M  V30 13221 O 1260.35 1.07887 -1.45705 0
M  V30 13222 C 1260.4 -2.10881 -2.92509 0
M  V30 13223 O 1259.5 -1.48223 -3.84842 0
M  V30 13224 H 1258.84 -0.448531 -0.489608 0
M  V30 13225 H 1261.37 -1.77642 -1.01512 0
M  V30 13226 H 1261.38 -2.22446 -3.42026 0
M  V30 13227 H 1260.06 -3.14274 -2.72406 0
M  V30 13228 H 1258.63 -1.45434 -3.4337 0
M  V30 13229 N 1260.82 1.03812 -1.18578 0
M  V30 13230 C 1262.05 1.80702 -1.00769 0
M  V30 13231 C 1262.46 1.83509 0.443833 0
M  V30 13232 O 1261.82 1.2724 1.30829 0
M  V30 13233 C 1261.87 3.26185 -1.55838 0
M  V30 13234 O 1261.59 3.23612 -2.95308 0
M  V30 13235 C 1263.09 4.1971 -1.42682 0
M  V30 13236 H 1260.31 0.568972 -0.355685 0
M  V30 13237 H 1262.86 1.30817 -1.57185 0
M  V30 13238 H 1261.01 3.73293 -1.03592 0
M  V30 13239 H 1261.43 4.14769 -3.2104 0
M  V30 13240 H 1262.9 5.19716 -1.86008 0
M  V30 13241 H 1263.38 4.37588 -0.375924 0
M  V30 13242 H 1263.98 3.78469 -1.94013 0
M  V30 13243 N 1262.3 0.988223 1.22768 0
M  V30 13244 C 1263.24 0.534605 2.24523 0
M  V30 13245 C 1264.21 -0.430615 1.60421 0
M  V30 13246 O 1265.4 -0.336417 1.87811 0
M  V30 13247 C 1262.54 -0.149195 3.44777 0
M  V30 13248 C 1261.65 0.85721 4.2341 0
M  V30 13249 C 1260.79 0.147411 5.30995 0
M  V30 13250 C 1259.83 1.1425 6.01343 0
M  V30 13251 N 1258.96 0.461327 7.00583 0
M  V30 13252 H 1263.8 1.40708 2.62689 0
M  V30 13253 H 1261.34 0.704918 1.2911 0
M  V30 13254 H 1263.3 -0.562527 4.1339 0
M  V30 13255 H 1261.93 -0.985485 3.07389 0
M  V30 13256 H 1260.98 1.38889 3.54138 0
M  V30 13257 H 1262.29 1.61517 4.71926 0
M  V30 13258 H 1261.45 -0.32289 6.0584 0
M  V30 13259 H 1260.19 -0.643085 4.83442 0
M  V30 13260 H 1259.19 1.62348 5.25284 0
M  V30 13261 H 1260.42 1.93379 6.50985 0
M  V30 13262 H 1258.36 -0.309818 6.55268 0
M  V30 13263 H 1258.28 1.15781 7.47082 0
M  V30 13264 H 1259.55 0.0136734 7.79499 0
M  V30 13265 N 1263.78 -1.38018 0.760839 0
M  V30 13266 C 1264.71 -2.32995 0.153557 0
M  V30 13267 C 1265.69 -1.55234 -0.695448 0
M  V30 13268 O 1266.87 -1.8352 -0.635148 0
M  V30 13269 C 1264 -3.39437 -0.734811 0
M  V30 13270 C 1262.96 -4.27998 0.0120287 0
M  V30 13271 C 1262.28 -5.25359 -0.995067 0
M  V30 13272 C 1263.58 -5.08687 1.18468 0
M  V30 13273 H 1265.28 -2.8403 0.946956 0
M  V30 13274 H 1262.82 -1.36562 0.456816 0
M  V30 13275 H 1264.77 -4.0485 -1.16938 0
M  V30 13276 H 1263.5 -2.86901 -1.56061 0
M  V30 13277 H 1262.16 -3.64102 0.427254 0
M  V30 13278 H 1261.81 -4.69108 -1.81512 0
M  V30 13279 H 1261.51 -5.85469 -0.499969 0
M  V30 13280 H 1263.03 -5.93648 -1.4288 0
M  V30 13281 H 1264.44 -5.67299 0.8273 0
M  V30 13282 H 1262.84 -5.78068 1.61112 0
M  V30 13283 H 1263.91 -4.42 1.99409 0
M  V30 13284 N 1265.25 -0.510493 -1.49103 0
M  V30 13285 C 1266.48 0.0293113 -2.07379 0
M  V30 13286 C 1266.9 1.29195 -1.36713 0
M  V30 13287 O 1266.26 1.76204 -0.426838 0
M  V30 13288 C 1266.31 0.25629 -3.59688 0
M  V30 13289 O 1265.41 1.32907 -3.90397 0
M  V30 13290 H 1264.75 -0.0304449 -0.663302 0
M  V30 13291 H 1267.28 -0.712832 -1.91781 0
M  V30 13292 H 1267.29 0.484915 -4.05108 0
M  V30 13293 H 1265.97 -0.666163 -4.1053 0
M  V30 13294 H 1264.55 1.08464 -3.56777 0
M  V30 13295 N 1266.73 1.55688 -0.24474 0
M  V30 13296 C 1268.14 1.84897 0.25882 0
M  V30 13297 C 1268.49 1.16653 1.57755 0
M  V30 13298 O 1267.62 0.444162 2.11793 0
M  V30 13299 C 1268.21 3.35434 0.476385 0
M  V30 13300 C 1266.77 3.64877 0.924213 0
M  V30 13301 C 1265.92 2.773 0.00021322 0
M  V30 13302 H 1268.87 1.51662 -0.467358 0
M  V30 13303 H 1268.89 3.56896 1.31929 0
M  V30 13304 H 1268.4 3.85076 -0.483567 0
M  V30 13305 H 1266.5 3.20711 1.89671 0
M  V30 13306 H 1266.62 4.72665 0.78257 0
M  V30 13307 H 1264.98 2.49517 0.511194 0
M  V30 13308 H 1265.76 3.29747 -0.955072 0
M  V30 13309 N 1268.21 -0.0283989 1.57574 0
M  V30 13310 C 1269.46 -0.714661 1.90432 0
M  V30 13311 C 1269.81 -1.72929 0.843409 0
M  V30 13312 O 1269.1 -1.91029 -0.147815 0
M  V30 13313 C 1269.3 -1.4247 3.27776 0
M  V30 13314 C 1269.13 -0.480353 4.47127 0
M  V30 13315 C 1267.9 -0.101157 5.05199 0
M  V30 13316 C 1270.09 0.241526 5.13733 0
M  V30 13317 N 1268.08 0.844371 6.08065 0
M  V30 13318 C 1269.45 1.04269 6.11169 0
M  V30 13319 C 1271.5 0.308398 4.96944 0
M  V30 13320 C 1270.21 1.90459 6.93627 0
M  V30 13321 C 1272.23 1.15742 5.79964 0
M  V30 13322 C 1271.59 1.94651 6.76971 0
M  V30 13323 H 1267.69 -0.23559 0.745668 0
M  V30 13324 H 1270.28 0.0252703 1.94684 0
M  V30 13325 H 1268.45 -2.13509 3.24451 0
M  V30 13326 H 1270.18 -2.0634 3.48146 0
M  V30 13327 H 1266.93 -0.463482 4.71327 0
M  V30 13328 H 1267.36 1.31166 6.64172 0
M  V30 13329 H 1272 -0.287369 4.21822 0
M  V30 13330 H 1269.72 2.51115 7.68093 0
M  V30 13331 H 1273.3 1.2127 5.69021 0
M  V30 13332 H 1272.18 2.59286 7.40095 0
M  V30 13333 N 1269.69 -1.54705 -0.300681 0
M  V30 13334 C 1270.96 -1.6468 -1.05546 0
M  V30 13335 C 1271.34 -0.495292 -2.05207 0
M  V30 13336 O 1270.69 0.507944 -2.22783 0
M  V30 13337 C 1270.9 -3.02702 -1.73703 0
M  V30 13338 C 1272.25 -3.59527 -2.25888 0
M  V30 13339 O 1273.27 -3.05156 -1.83735 0
M  V30 13340 O 1272.13 -4.54727 -3.03126 0
M  V30 13341 H 1269.23 -0.667769 -0.487867 0
M  V30 13342 H 1271.77 -1.6705 -0.298743 0
M  V30 13343 H 1270.55 -3.7795 -1.01338 0
M  V30 13344 H 1270.17 -3.0411 -2.5613 0
M  V30 13345 N 1271.17 0.563888 -1.47167 0
M  V30 13346 C 1272.11 1.67151 -1.59152 0
M  V30 13347 C 1273.08 1.60307 -0.434852 0
M  V30 13348 O 1274.27 1.7924 -0.654049 0
M  V30 13349 C 1271.41 3.0548 -1.60549 0
M  V30 13350 C 1270.52 3.2281 -2.87085 0
M  V30 13351 C 1269.66 4.51498 -2.79862 0
M  V30 13352 C 1268.7 4.62237 -4.01252 0
M  V30 13353 N 1267.83 5.82273 -3.92305 0
M  V30 13354 H 1272.67 1.56245 -2.53755 0
M  V30 13355 H 1270.21 0.761219 -1.25872 0
M  V30 13356 H 1272.17 3.85572 -1.59343 0
M  V30 13357 H 1270.8 3.15237 -0.69464 0
M  V30 13358 H 1269.85 2.36196 -2.98188 0
M  V30 13359 H 1271.16 3.2661 -3.76997 0
M  V30 13360 H 1270.32 5.39842 -2.76867 0
M  V30 13361 H 1269.05 4.50166 -1.87621 0
M  V30 13362 H 1268.06 3.72307 -4.04558 0
M  V30 13363 H 1269.28 4.65334 -4.94612 0
M  V30 13364 H 1267.23 5.81902 -3.02862 0
M  V30 13365 H 1267.15 5.87422 -4.7589 0
M  V30 13366 H 1268.42 6.72996 -3.93315 0
M  V30 13367 N 1272.64 1.35187 0.810078 0
M  V30 13368 C 1273.87 1.31528 1.60359 0
M  V30 13369 C 1274.29 -0.105385 1.87805 0
M  V30 13370 O 1273.65 -1.07113 1.46276 0
M  V30 13371 C 1273.7 2.12429 2.91386 0
M  V30 13372 O 1272.8 1.50262 3.84051 0
M  V30 13373 H 1272.15 0.451122 0.487222 0
M  V30 13374 H 1274.68 1.78178 1.00568 0
M  V30 13375 H 1274.69 2.24257 3.40841 0
M  V30 13376 H 1273.36 3.15714 2.70735 0
M  V30 13377 H 1271.94 1.47253 3.42594 0
M  V30 13378 N 1274.12 -1.03182 1.19127 0
M  V30 13379 C 1275.35 -1.80703 1.01791 0
M  V30 13380 C 1275.77 -1.83147 -0.428824 0
M  V30 13381 O 1275.13 -1.2553 -1.30812 0
M  V30 13382 C 1275.18 -3.23754 1.58794 0
M  V30 13383 O 1274.28 -4.04261 0.815274 0
M  V30 13384 H 1273.62 -0.557944 0.359992 0
M  V30 13385 H 1276.15 -1.29887 1.58084 0
M  V30 13386 H 1276.16 -3.7451 1.61884 0
M  V30 13387 H 1274.84 -3.2129 2.64094 0
M  V30 13388 H 1273.42 -3.62909 0.857392 0
M  V30 13389 N 1275.6 -0.99472 -1.22242 0
M  V30 13390 C 1276.55 -0.517696 -2.22045 0
M  V30 13391 C 1277.53 0.415108 -1.55453 0
M  V30 13392 O 1278.73 0.241632 -1.75343 0
M  V30 13393 C 1275.86 0.164524 -3.42906 0
M  V30 13394 C 1274.94 -0.788692 -4.16702 0
M  V30 13395 N 1275.33 -1.93729 -4.67229 0
M  V30 13396 C 1273.63 -0.604946 -4.41878 0
M  V30 13397 C 1274.33 -2.53573 -5.23522 0
M  V30 13398 N 1273.31 -1.81825 -5.12289 0
M  V30 13399 H 1277.11 -1.39368 -2.58754 0
M  V30 13400 H 1274.62 -0.857215 -1.37933 0
M  V30 13401 H 1276.62 0.523668 -4.13598 0
M  V30 13402 H 1275.28 1.03662 -3.07708 0
M  V30 13403 H 1276.29 -2.31802 -4.63129 0
M  V30 13404 H 1272.97 0.220932 -4.16915 0
M  V30 13405 H 1274.36 -3.50653 -5.73142 0
M  V30 13406 N 1277.08 1.37613 -0.768148 0
M  V30 13407 C 1278.3 2.04579 -0.340892 0
M  V30 13408 C 1278.73 1.57556 1.02751 0
M  V30 13409 O 1278.09 0.734151 1.65771 0
M  V30 13410 C 1278.13 3.58495 -0.389099 0
M  V30 13411 O 1277.24 4.07838 0.611741 0
M  V30 13412 H 1276.58 0.647246 -0.148216 0
M  V30 13413 H 1279.11 1.75999 -1.04333 0
M  V30 13414 H 1279.12 4.07263 -0.245116 0
M  V30 13415 H 1277.79 3.92076 -1.38742 0
M  V30 13416 H 1276.37 3.70399 0.431173 0
M  V30 13417 N 1278.56 0.518393 1.4883 0
M  V30 13418 C 1279.52 -0.23983 2.27942 0
M  V30 13419 C 1280.52 -0.878302 1.34694 0
M  V30 13420 O 1281.71 -0.740142 1.57694 0
M  V30 13421 C 1278.84 -1.34581 3.1321 0
M  V30 13422 H 1280.03 0.454599 2.96434 0
M  V30 13423 H 1277.59 0.273932 1.53881 0
M  V30 13424 H 1278.32 -2.07385 2.49323 0
M  V30 13425 H 1278.11 -0.893251 3.8179 0
M  V30 13426 H 1279.6 -1.87944 3.72917 0
M  V30 13427 N 1280.03 -1.55556 0.252993 0
M  V30 13428 C 1280.98 -2.18298 -0.658028 0
M  V30 13429 C 1281.97 -1.14072 -1.13474 0
M  V30 13430 O 1283.16 -1.39962 -1.0835 0
M  V30 13431 C 1280.29 -2.89067 -1.8519 0
M  V30 13432 C 1279.38 -4.00556 -1.3934 0
M  V30 13433 N 1279.77 -5.01612 -0.649538 0
M  V30 13434 C 1278.06 -4.13222 -1.67819 0
M  V30 13435 C 1278.77 -5.80244 -0.411347 0
M  V30 13436 N 1277.74 -5.34742 -0.977342 0
M  V30 13437 H 1281.54 -2.93787 -0.0816162 0
M  V30 13438 H 1279.06 -1.62305 0.0555728 0
M  V30 13439 H 1281.05 -3.32448 -2.51563 0
M  V30 13440 H 1279.71 -2.15082 -2.43248 0
M  V30 13441 H 1280.73 -5.17036 -0.299043 0
M  V30 13442 H 1277.4 -3.50414 -2.26972 0
M  V30 13443 H 1278.79 -6.71651 0.182911 0
M  V30 13444 N 1281.51 0.0200419 -1.57587 0
M  V30 13445 C 1282.93 0.375834 -1.55112 0
M  V30 13446 C 1283.13 1.76047 -0.980297 0
M  V30 13447 O 1282.18 2.45138 -0.605297 0
M  V30 13448 C 1283.5 0.269418 -2.99491 0
M  V30 13449 C 1285.05 0.345838 -3.11084 0
M  V30 13450 C 1285.52 0.268771 -4.57211 0
M  V30 13451 N 1287.01 0.32729 -4.62042 0
M  V30 13452 C 1287.75 0.290688 -5.72663 0
M  V30 13453 N 1287.24 0.205851 -6.92494 0
M  V30 13454 N 1289.04 0.341082 -5.61064 0
M  V30 13455 H 1281.19 -0.885979 -1.93039 0
M  V30 13456 H 1283.45 -0.337753 -0.885792 0
M  V30 13457 H 1283.16 -0.682452 -3.45015 0
M  V30 13458 H 1283.03 1.0595 -3.62014 0
M  V30 13459 H 1285.42 1.28814 -2.65501 0
M  V30 13460 H 1285.5 -0.47376 -2.51375 0
M  V30 13461 H 1285.14 -0.669906 -5.03463 0
M  V30 13462 H 1285.07 1.10659 -5.14842 0
M  V30 13463 H 1287.56 0.395004 -3.7583 0
M  V30 13464 H 1287.88 0.18327 -7.72583 0
M  V30 13465 H 1286.22 0.171768 -6.94788 0
M  V30 13466 H 1289.41 0.405415 -4.66341 0
M  V30 13467 H 1289.58 0.309091 -6.47262 0
M  V30 13468 N 1282.99 1.54862 0.292472 0
M  V30 13469 C 1284.24 1.74807 1.02813 0
M  V30 13470 C 1284.57 0.536935 1.8663 0
M  V30 13471 O 1283.84 -0.465854 1.88839 0
M  V30 13472 C 1284.13 3.04202 1.927 0
M  V30 13473 C 1283.98 4.35631 1.12006 0
M  V30 13474 C 1285.3 3.29514 2.91734 0
M  V30 13475 H 1282.42 0.636015 0.372362 0
M  V30 13476 H 1285.06 1.87583 0.302069 0
M  V30 13477 H 1283.21 2.9344 2.54608 0
M  V30 13478 H 1284.88 4.58323 0.52319 0
M  V30 13479 H 1283.13 4.31733 0.42298 0
M  V30 13480 H 1283.8 5.22454 1.78172 0
M  V30 13481 H 1286.27 3.39941 2.39957 0
M  V30 13482 H 1285.15 4.21352 3.51786 0
M  V30 13483 H 1285.41 2.48216 3.65843 0
M  V30 13484 N 1284.47 -0.556076 1.47464 0
M  V30 13485 C 1285.75 -1.31689 1.44628 0
M  V30 13486 C 1286.13 -2.10609 0.143841 0
M  V30 13487 O 1285.47 -2.11097 -0.874662 0
M  V30 13488 C 1285.68 -2.22045 2.69253 0
M  V30 13489 C 1287.03 -2.83028 3.16513 0
M  V30 13490 O 1288.06 -2.32346 2.69988 0
M  V30 13491 O 1286.91 -3.75148 3.97399 0
M  V30 13492 H 1284.01 -0.593026 0.576411 0
M  V30 13493 H 1286.55 -0.574885 1.59666 0
M  V30 13494 H 1285.33 -1.63337 3.5558 0
M  V30 13495 H 1284.95 -3.03539 2.56807 0
M  V30 13496 N 1285.95 -1.35615 -0.802897 0
M  V30 13497 C 1286.88 -1.31506 -1.92947 0
M  V30 13498 C 1287.86 -0.188843 -1.69048 0
M  V30 13499 O 1289.04 -0.384384 -1.90358 0
M  V30 13500 C 1286.17 -1.09001 -3.29752 0
M  V30 13501 C 1285.13 -2.18303 -3.68141 0
M  V30 13502 C 1284.45 -1.80959 -5.03148 0
M  V30 13503 C 1285.75 -3.60296 -3.78132 0
M  V30 13504 H 1287.45 -2.25771 -1.96642 0
M  V30 13505 H 1284.99 -1.08682 -0.944685 0
M  V30 13506 H 1286.95 -1.04766 -4.08169 0
M  V30 13507 H 1285.67 -0.111832 -3.26408 0
M  V30 13508 H 1284.33 -2.21642 -2.92011 0
M  V30 13509 H 1283.98 -0.817495 -4.96312 0
M  V30 13510 H 1283.68 -2.54129 -5.29804 0
M  V30 13511 H 1285.2 -1.78255 -5.84001 0
M  V30 13512 H 1286.62 -3.59259 -4.46773 0
M  V30 13513 H 1285.01 -4.32258 -4.16261 0
M  V30 13514 H 1286.08 -3.9618 -2.79588 0
M  V30 13515 N 1287.43 1.02549 -1.19673 0
M  V30 13516 C 1288.65 1.8016 -1.02748 0
M  V30 13517 C 1289.08 1.83372 0.419105 0
M  V30 13518 O 1288.43 1.26222 1.30144 0
M  V30 13519 C 1288.48 3.22907 -1.60509 0
M  V30 13520 O 1287.59 4.03823 -0.836702 0
M  V30 13521 H 1286.93 0.556027 -0.362946 0
M  V30 13522 H 1289.46 1.29047 -1.5877 0
M  V30 13523 H 1289.47 3.73646 -1.63868 0
M  V30 13524 H 1288.14 3.19885 -2.65794 0
M  V30 13525 H 1286.72 3.6245 -0.876626 0
M  V30 13526 N 1288.9 1.00119 1.21713 0
M  V30 13527 C 1289.87 0.563409 2.22167 0
M  V30 13528 C 1290.87 -0.35819 1.5676 0
M  V30 13529 O 1292.06 -0.149001 1.73562 0
M  V30 13530 C 1289.19 -0.179365 3.40428 0
M  V30 13531 H 1290.38 1.45189 2.62412 0
M  V30 13532 H 1287.93 0.789286 1.34907 0
M  V30 13533 H 1288.67 -1.08345 3.05666 0
M  V30 13534 H 1288.45 0.482471 3.8912 0
M  V30 13535 H 1289.94 -0.473537 4.14906 0
M  V30 13536 N 1290.38 -1.37203 0.775435 0
M  V30 13537 C 1291.63 -1.99897 0.341936 0
M  V30 13538 C 1291.96 -1.61414 -1.07978 0
M  V30 13539 O 1291.24 -0.862108 -1.7435 0
M  V30 13540 C 1291.52 -3.56755 0.489715 0
M  V30 13541 C 1291.37 -4.05135 1.95411 0
M  V30 13542 C 1292.69 -4.39978 -0.103779 0
M  V30 13543 H 1289.81 -0.726199 0.125717 0
M  V30 13544 H 1292.45 -1.62826 0.979167 0
M  V30 13545 H 1290.6 -3.88464 -0.0527684 0
M  V30 13546 H 1292.27 -3.83975 2.55658 0
M  V30 13547 H 1290.52 -3.57192 2.46164 0
M  V30 13548 H 1291.19 -5.14161 2.00855 0
M  V30 13549 H 1293.66 -4.14547 0.359134 0
M  V30 13550 H 1292.54 -5.48892 0.0297337 0
M  V30 13551 H 1292.8 -4.25658 -1.19448 0
M  V30 13552 O 1291.9 -0.667683 -1.47052 0
M  V30 13553 H 1292.59 -0.197643 -1.92689 0
M  V30 END ATOM
M  V30 BEGIN BOND
M  V30 END BOND
M  V30 END CTAB
M  END
$$$$
