drugbank_target|Q6TGC4 Protein-arginine deiminase type-6 (DB00155)
 OpenBabel12092120083D

  0  0  0     0  0            999 V3000
M  V30 BEGIN CTAB
M  V30 COUNTS 10901 11025 0 0 0
M  V30 BEGIN ATOM
M  V30 1 H -0.908 1.98254 -0.117106 0
M  V30 2 N 0 1.576 0 0
M  V30 3 C 0.933 2.03868 1.02534 0
M  V30 4 C 1.911 0.928543 1.3348 0
M  V30 5 O 3.095 1.19667 1.45644 0
M  V30 6 C 0.222 2.43627 2.35294 0
M  V30 7 C -0.732 3.65373 2.2001 0
M  V30 8 S 0.101 5.13292 1.52614 0
M  V30 9 C 1.257 5.56322 2.86805 0
M  V30 10 H 1.49 2.90518 0.631377 0
M  V30 11 H -0.977 1.52953 0.210867 0
M  V30 12 H 0.981 2.67203 3.11629 0
M  V30 13 H -0.358 1.57376 2.7183 0
M  V30 14 H -1.165 3.90944 3.18086 0
M  V30 15 H -1.563 3.418 1.51819 0
M  V30 16 H 0.729 5.58782 3.83104 0
M  V30 17 H 1.672 6.56266 2.65933 0
M  V30 18 H 2.08 4.83886 2.90714 0
M  V30 19 N 1.4781 -0.272755 1.55222 0
M  V30 20 C 2.7241 -1.00581 1.761 0
M  V30 21 C 3.0571 -1.85932 0.560625 0
M  V30 22 O 2.3321 -1.89416 -0.441801 0
M  V30 23 C 2.6151 -1.88816 3.06628 0
M  V30 24 C 2.4681 -1.06457 4.37021 0
M  V30 25 C 3.7871 -2.8752 3.33197 0
M  V30 26 H 0.9061 -0.364244 0.640699 0
M  V30 27 H 3.5481 -0.278189 1.87952 0
M  V30 28 H 1.6981 -2.50856 2.96654 0
M  V30 29 H 3.3701 -0.464863 4.58952 0
M  V30 30 H 1.6131 -0.368043 4.32236 0
M  V30 31 H 2.2841 -1.71514 5.24678 0
M  V30 32 H 4.7601 -2.35615 3.42965 0
M  V30 33 H 3.6361 -3.46399 4.25792 0
M  V30 34 H 3.8971 -3.62657 2.52849 0
M  V30 35 N 2.9562 -1.48159 -0.537278 0
M  V30 36 C 4.1812 -1.59707 -1.32319 0
M  V30 37 C 4.6062 -0.254859 -1.86365 0
M  V30 38 O 3.9642 0.772378 -1.64024 0
M  V30 39 C 4.0122 -2.6412 -2.45505 0
M  V30 40 O 3.1162 -2.20774 -3.48328 0
M  V30 41 H 2.4572 -0.535791 -0.392204 0
M  V30 42 H 4.9872 -1.94092 -0.647268 0
M  V30 43 H 4.9972 -2.85166 -2.91795 0
M  V30 44 H 3.6722 -3.61567 -2.05528 0
M  V30 45 H 2.2492 -2.09911 -3.08207 0
M  V30 46 N 4.4343 0.785586 -1.36625 0
M  V30 47 C 5.6803 1.54591 -1.31261 0
M  V30 48 C 6.0133 1.93906 0.106823 0
M  V30 49 O 5.2883 1.63007 1.06108 0
M  V30 50 C 5.5713 2.82038 -2.23889 0
M  V30 51 C 5.4243 2.49066 -3.74548 0
M  V30 52 C 6.7433 3.83887 -2.15217 0
M  V30 53 H 3.8623 0.560846 -0.478143 0
M  V30 54 H 6.5043 0.902278 -1.67209 0
M  V30 55 H 4.6543 3.36961 -1.93363 0
M  V30 56 H 6.3263 2.00164 -4.15611 0
M  V30 57 H 4.5693 1.81954 -3.93796 0
M  V30 58 H 5.2403 3.40109 -4.34776 0
M  V30 59 H 7.7163 3.38421 -2.42096 0
M  V30 60 H 6.5923 4.70806 -2.82193 0
M  V30 61 H 6.8533 4.27131 -1.14068 0
M  V30 62 N 5.9124 1.20967 1.01018 0
M  V30 63 C 6.8224 0.980157 2.13143 0
M  V30 64 C 7.8384 -0.0660665 1.73875 0
M  V30 65 O 9.0144 0.122821 2.01025 0
M  V30 66 C 6.0794 0.54216 3.42435 0
M  V30 67 C 5.1404 1.65999 3.95908 0
M  V30 68 C 4.3734 1.2428 5.19028 0
M  V30 69 O 4.5964 0.114196 5.70286 0
M  V30 70 O 3.5304 2.05271 5.65816 0
M  V30 71 H 7.3564 1.91913 2.35379 0
M  V30 72 H 4.9414 0.994099 1.11526 0
M  V30 73 H 6.8234 0.30744 4.20277 0
M  V30 74 H 5.4984 -0.36815 3.216 0
M  V30 75 H 4.4054 1.94906 3.19316 0
M  V30 76 H 5.7384 2.54753 4.21143 0
M  V30 77 N 7.3905 -1.2043 1.01659 0
M  V30 78 C 8.6385 -1.89423 0.704522 0
M  V30 79 C 8.9595 -1.79231 -0.768197 0
M  V30 80 O 8.2295 -1.1947 -1.55254 0
M  V30 81 H 6.8095 -0.701178 0.257602 0
M  V30 82 H 9.4715 -1.4626 1.28818 0
M  V30 83 H 8.5675 -2.96052 0.987916 0
M  V30 84 N 8.8686 -0.792821 -1.36206 0
M  V30 85 C 10.2846 -0.474903 -1.52371 0
M  V30 86 C 10.4846 1.00622 -1.74578 0
M  V30 87 O 9.5406 1.79162 -1.77924 0
M  V30 88 C 10.8536 -1.3083 -2.70747 0
M  V30 89 C 12.4016 -1.30234 -2.84619 0
M  V30 90 C 12.8766 -2.11956 -4.06004 0
M  V30 91 N 14.3676 -2.09419 -4.13156 0
M  V30 92 C 15.1026 -2.69419 -5.06163 0
M  V30 93 N 14.5986 -3.3829 -6.04592 0
M  V30 94 N 16.3916 -2.59134 -4.98804 0
M  V30 95 H 8.5426 -1.75222 -1.20046 0
M  V30 96 H 10.8056 -0.745024 -0.586211 0
M  V30 97 H 10.5116 -2.35881 -2.6087 0
M  V30 98 H 10.3856 -0.95196 -3.6499 0
M  V30 99 H 12.7726 -0.259748 -2.93955 0
M  V30 100 H 12.8536 -1.69847 -1.91274 0
M  V30 101 H 12.4976 -3.16248 -3.97429 0
M  V30 102 H 12.4276 -1.69711 -4.98503 0
M  V30 103 H 14.9186 -1.59297 -3.42685 0
M  V30 104 H 15.2316 -3.81394 -6.7213 0
M  V30 105 H 13.5766 -3.42393 -6.04807 0
M  V30 106 H 16.7676 -2.04927 -4.20859 0
M  V30 107 H 16.9406 -3.06185 -5.711 0
M  V30 108 N 10.3467 1.47872 -0.545128 0
M  V30 109 C 11.3097 2.28337 0.198717 0
M  V30 110 C 12.3097 1.36255 0.853888 0
M  V30 111 O 13.4997 1.59003 0.711606 0
M  V30 112 C 10.6317 3.15585 1.28915 0
M  V30 113 H 11.8247 2.95567 -0.507941 0
M  V30 114 H 9.3777 1.53362 -0.301616 0
M  V30 115 H 10.1127 2.53019 2.02859 0
M  V30 116 H 9.8977 3.83337 0.824309 0
M  V30 117 H 11.3877 3.76243 1.81194 0
M  V30 118 N 11.8248 0.280983 1.55075 0
M  V30 119 C 12.7578 -0.645439 2.18882 0
M  V30 120 C 13.7358 -1.14786 1.15165 0
M  V30 121 O 14.9198 -1.21975 1.43716 0
M  V30 122 C 12.0468 -1.88088 2.81674 0
M  V30 123 C 11.0928 -1.51343 3.98745 0
M  V30 124 S 11.9258 -0.586548 5.32278 0
M  V30 125 C 13.0818 -1.83024 5.98543 0
M  V30 126 H 13.3148 -0.1033 2.9712 0
M  V30 127 H 10.8478 0.0652099 1.54262 0
M  V30 128 H 12.8058 -2.58997 3.18482 0
M  V30 129 H 11.4668 -2.39417 2.03318 0
M  V30 130 H 10.6598 -2.43289 4.41392 0
M  V30 131 H 10.2618 -0.884477 3.63391 0
M  V30 132 H 12.5538 -2.77342 6.18133 0
M  V30 133 H 13.4968 -1.44668 6.93164 0
M  V30 134 H 13.9048 -1.99785 5.27964 0
M  V30 135 N 13.3029 -1.57598 0.00835791 0
M  V30 136 C 14.5279 -1.95617 -0.689103 0
M  V30 137 C 14.9529 -0.883753 -1.66046 0
M  V30 138 O 14.3109 0.157352 -1.80616 0
M  V30 139 C 14.3589 -3.32736 -1.38994 0
M  V30 140 O 13.4629 -3.27631 -2.50463 0
M  V30 141 H 12.8039 -0.638379 -0.182668 0
M  V30 142 H 15.3339 -2.045 0.064036 0
M  V30 143 H 15.3439 -3.68494 -1.75147 0
M  V30 144 H 14.0189 -4.1034 -0.677778 0
M  V30 145 H 12.5959 -3.03561 -2.16576 0
M  V30 146 N 14.781 0.264519 -1.55364 0
M  V30 147 C 16.028 0.994986 -1.7637 0
M  V30 148 C 16.356 1.85976 -0.5695 0
M  V30 149 O 15.611 1.90509 0.44776 0
M  V30 150 C 15.91 1.9004 -3.02687 0
M  V30 151 C 15.576 1.19243 -4.34847 0
M  V30 152 C 14.238 0.996709 -4.70764 0
M  V30 153 C 16.59 0.689296 -5.16622 0
M  V30 154 C 13.918 0.285261 -5.86006 0
M  V30 155 C 16.27 -0.00860079 -6.32599 0
M  V30 156 C 14.934 -0.215963 -6.67151 0
M  V30 157 H 14.204 0.364091 -0.645383 0
M  V30 158 H 16.851 0.266543 -1.89636 0
M  V30 159 H 15.156 2.69533 -2.84357 0
M  V30 160 H 16.853 2.46695 -3.16137 0
M  V30 161 H 13.443 1.3549 -4.06621 0
M  V30 162 H 17.627 0.828108 -4.89342 0
M  V30 163 H 12.883 0.113961 -6.11294 0
M  V30 164 H 17.057 -0.406186 -6.95214 0
M  V30 165 H 14.684 -0.769217 -7.56298 0
M  V30 166 N 16.2591 1.48442 0.529413 0
M  V30 167 C 17.1911 1.59095 1.64989 0
M  V30 168 C 18.2041 0.475212 1.5571 0
M  V30 169 O 19.3931 0.746081 1.6216 0
M  V30 170 C 16.4931 1.50518 3.0364 0
M  V30 171 C 15.6661 2.77142 3.38395 0
M  V30 172 C 14.7251 2.62012 4.56329 0
M  V30 173 O 13.7511 3.35898 4.59522 0
M  V30 174 N 14.9531 1.71667 5.54536 0
M  V30 175 H 17.7181 2.55723 1.56287 0
M  V30 176 H 15.2791 1.45173 0.716697 0
M  V30 177 H 17.2711 1.38091 3.80412 0
M  V30 178 H 15.8411 0.618627 3.06418 0
M  V30 179 H 15.0611 3.0413 2.50796 0
M  V30 180 H 16.3491 3.61146 3.58401 0
M  V30 181 H 15.7471 1.10841 5.54735 0
M  V30 182 H 14.3041 1.65178 6.30523 0
M  V30 183 N 17.7372 -0.778329 1.37039 0
M  V30 184 C 18.9622 -1.57248 1.35233 0
M  V30 185 C 19.3872 -1.87999 -0.0615568 0
M  V30 186 O 18.7452 -1.48734 -1.03672 0
M  V30 187 C 18.7932 -2.86353 2.19167 0
M  V30 188 O 17.8972 -3.80442 1.59178 0
M  V30 189 H 17.2382 -0.476569 0.462362 0
M  V30 190 H 19.7682 -0.963853 1.80474 0
M  V30 191 H 19.7782 -3.35519 2.32145 0
M  V30 192 H 18.4532 -2.63299 3.21942 0
M  V30 193 H 17.0302 -3.39067 1.55203 0
M  V30 194 N 19.2153 -1.21501 -1.00376 0
M  V30 195 C 20.4643 -1.02718 -1.73586 0
M  V30 196 C 20.7773 0.439589 -1.90596 0
M  V30 197 O 21.9833 0.746848 -2.61026 0
M  V30 198 C 20.4393 -1.78929 -3.1227 0
M  V30 199 C 20.0473 -3.29783 -3.03228 0
M  V30 200 C 21.7913 -1.68557 -3.89601 0
M  V30 201 C 19.6983 -3.98479 -4.36999 0
M  V30 202 H 18.6283 -0.380733 -0.650814 0
M  V30 203 H 21.2793 -1.45248 -1.1214 0
M  V30 204 H 19.6613 -1.29192 -3.74333 0
M  V30 205 H 20.8353 -3.86832 -2.50395 0
M  V30 206 H 19.1503 -3.40711 -2.39385 0
M  V30 207 H 21.7473 -2.17211 -4.88593 0
M  V30 208 H 22.0903 -0.644021 -4.11288 0
M  V30 209 H 22.6233 -2.15778 -3.34193 0
M  V30 210 H 19.3623 -5.02841 -4.20513 0
M  V30 211 H 18.8823 -3.46219 -4.89788 0
M  V30 212 H 20.5613 -4.03462 -5.05794 0
M  V30 213 N 20.6934 1.19889 -1.02296 0
M  V30 214 C 21.9424 1.88743 -0.711257 0
M  V30 215 C 22.2554 1.80112 0.762817 0
M  V30 216 O 23.4614 2.44161 1.18733 0
M  V30 217 C 21.9174 3.38525 -1.22185 0
M  V30 218 C 21.5254 3.55727 -2.72328 0
M  V30 219 C 23.2694 4.12893 -0.985864 0
M  V30 220 C 21.1764 4.99369 -3.16835 0
M  V30 221 H 20.1064 0.706885 -0.262353 0
M  V30 222 H 22.7574 1.35586 -1.23648 0
M  V30 223 H 21.1394 3.91044 -0.624571 0
M  V30 224 H 22.3134 3.13564 -3.3766 0
M  V30 225 H 20.6284 2.94739 -2.9414 0
M  V30 226 H 23.2254 5.18813 -1.29374 0
M  V30 227 H 23.5684 4.16228 0.0775055 0
M  V30 228 H 24.1014 3.66494 -1.54684 0
M  V30 229 H 20.8404 5.01193 -4.22476 0
M  V30 230 H 20.3604 5.42317 -2.56228 0
M  V30 231 H 22.0394 5.67988 -3.09837 0
M  V30 232 N 22.1715 0.800033 1.35784 0
M  V30 233 C 23.1215 0.178654 2.27299 0
M  V30 234 C 24.1055 -0.643667 1.47464 0
M  V30 235 O 25.2975 -0.502 1.69732 0
M  V30 236 C 22.4265 -0.677194 3.36555 0
M  V30 237 C 21.5125 0.154497 4.23818 0
M  V30 238 N 21.9035 1.21427 4.91008 0
M  V30 239 C 20.2015 -0.0649462 4.45953 0
M  V30 240 C 20.9025 1.72147 5.55644 0
M  V30 241 N 19.8785 1.02897 5.33773 0
M  V30 242 H 23.6805 0.989637 2.76737 0
M  V30 243 H 21.1945 0.64054 1.49234 0
M  V30 244 H 23.1915 -1.13835 4.01058 0
M  V30 245 H 21.8515 -1.4866 2.8867 0
M  V30 246 H 22.8625 1.59684 4.92668 0
M  V30 247 H 19.5395 -0.844016 4.0888 0
M  V30 248 H 20.9295 2.60683 6.19269 0
M  V30 249 N 23.6496 -1.47581 0.552962 0
M  V30 250 C 24.5796 -2.32762 -0.185451 0
M  V30 251 C 25.5606 -1.43527 -0.912905 0
M  V30 252 O 26.7456 -1.72388 -0.894201 0
M  V30 253 C 23.8756 -3.25219 -1.21859 0
M  V30 254 C 22.8296 -4.23661 -0.607864 0
M  V30 255 C 22.1556 -5.05413 -1.74533 0
M  V30 256 C 23.4556 -5.20481 0.435582 0
M  V30 257 H 25.1496 -2.94749 0.525684 0
M  V30 258 H 22.6956 -1.41738 0.254251 0
M  V30 259 H 24.6486 -3.8365 -1.7433 0
M  V30 260 H 23.3726 -2.61279 -1.95961 0
M  V30 261 H 22.0316 -3.66451 -0.104489 0
M  V30 262 H 21.6796 -4.3788 -2.47529 0
M  V30 263 H 21.3796 -5.72059 -1.34249 0
M  V30 264 H 22.9036 -5.66701 -2.27338 0
M  V30 265 H 24.3176 -5.733 -0.00290157 0
M  V30 266 H 22.7146 -5.95305 0.757067 0
M  V30 267 H 23.7846 -4.66217 1.33303 0
M  V30 268 N 25.1277 -0.289203 -1.54924 0
M  V30 269 C 26.3527 0.329299 -2.04769 0
M  V30 270 C 26.7777 1.4763 -1.16564 0
M  V30 271 O 26.1357 1.80527 -0.167186 0
M  V30 272 C 26.1837 0.774438 -3.52186 0
M  V30 273 O 25.2877 1.88038 -3.67036 0
M  V30 274 H 24.6287 0.0659259 -0.660719 0
M  V30 275 H 27.1587 -0.42761 -2.00082 0
M  V30 276 H 27.1687 1.06642 -3.93816 0
M  V30 277 H 25.8437 -0.0646707 -4.1585 0
M  V30 278 H 24.4207 1.58985 -3.3731 0
M  V30 279 N 26.6058 1.57591 -0.0167156 0
M  V30 280 C 27.5358 2.12496 0.967858 0
M  V30 281 C 28.5168 1.03807 1.34752 0
M  V30 282 O 29.7018 1.31577 1.42833 0
M  V30 283 C 26.8318 2.64194 2.25431 0
M  V30 284 C 25.7858 3.77559 2.01576 0
M  V30 285 C 25.1118 4.15636 3.36379 0
M  V30 286 C 26.4118 5.04151 1.36489 0
M  V30 287 H 28.1058 2.95013 0.510643 0
M  V30 288 H 25.6518 1.41915 0.244181 0
M  V30 289 H 27.6048 3.01236 2.94678 0
M  V30 290 H 26.3288 1.78821 2.73296 0
M  V30 291 H 24.9878 3.40937 1.34751 0
M  V30 292 H 24.6358 3.27263 3.81979 0
M  V30 293 H 24.3358 4.92022 3.21229 0
M  V30 294 H 25.8598 4.5525 4.06915 0
M  V30 295 H 27.2738 5.38857 1.95718 0
M  V30 296 H 25.6708 5.85453 1.31776 0
M  V30 297 H 26.7408 4.83733 0.336219 0
M  V30 298 N 28.0839 -0.256276 1.55502 0
M  V30 299 C 29.3609 -1.00789 1.67633 0
M  V30 300 C 29.7409 -2.03706 0.553826 0
M  V30 301 O 29.0889 -2.24145 -0.443969 0
M  V30 302 C 29.2989 -1.64968 3.07549 0
M  V30 303 C 30.6469 -2.15505 3.65845 0
M  V30 304 O 31.6709 -1.74925 3.1029 0
M  V30 305 O 30.5299 -2.89986 4.63217 0
M  V30 306 H 27.6239 -0.468553 0.681459 0
M  V30 307 H 30.1699 -0.250806 1.67836 0
M  V30 308 H 28.9419 -0.904785 3.80696 0
M  V30 309 H 28.5649 -2.47321 3.11317 0
M  V30 310 N 29.562 -1.4872 -0.521534 0
M  V30 311 C 30.787 -1.61101 -1.30618 0
M  V30 312 C 31.212 -0.274611 -1.86085 0
M  V30 313 O 30.57 0.754937 -1.64834 0
M  V30 314 C 30.618 -2.66709 -2.4269 0
M  V30 315 O 29.722 -2.24456 -3.45967 0
M  V30 316 H 29.063 -0.539921 -0.386499 0
M  V30 317 H 31.593 -1.94767 -0.626645 0
M  V30 318 H 31.603 -2.88245 -2.88754 0
M  V30 319 H 30.278 -3.63727 -2.01682 0
M  V30 320 H 28.855 -2.13168 -3.05964 0
M  V30 321 N 31.0401 0.771051 -1.3745 0
M  V30 322 C 32.4511 1.34737 -1.29239 0
M  V30 323 C 32.8021 1.96109 0.0596908 0
M  V30 324 O 31.9271 1.93865 0.961534 0
M  V30 325 C 32.5221 2.44973 -2.34037 0
M  V30 326 C 31.0811 2.98372 -2.29458 0
M  V30 327 C 30.2281 1.71595 -2.17831 0
M  V30 328 H 33.1791 0.571256 -1.48062 0
M  V30 329 H 33.2001 3.24471 -1.98744 0
M  V30 330 H 32.7121 2.00276 -3.32432 0
M  V30 331 H 30.8131 3.47443 -1.34589 0
M  V30 332 H 30.9261 3.53939 -3.229 0
M  V30 333 H 29.2901 1.94547 -1.64388 0
M  V30 334 H 30.0731 1.29001 -3.18141 0
M  V30 335 N 32.5182 1.22032 0.997298 0
M  V30 336 C 33.7642 1.04376 1.73878 0
M  V30 337 C 34.0972 -0.420716 1.89588 0
M  V30 338 O 33.3722 -1.31202 1.43583 0
M  V30 339 C 33.6552 1.75047 3.14691 0
M  V30 340 C 33.5082 3.29062 3.06656 0
M  V30 341 C 34.8272 1.49928 4.13775 0
M  V30 342 H 31.9462 0.380578 0.631133 0
M  V30 343 H 34.5882 1.50312 1.16217 0
M  V30 344 H 32.7382 1.35996 3.63919 0
M  V30 345 H 34.4102 3.7753 2.65083 0
M  V30 346 H 32.6532 3.58967 2.43568 0
M  V30 347 H 33.3242 3.73683 4.06282 0
M  V30 348 H 35.8002 1.83842 3.73285 0
M  V30 349 H 34.6762 2.01878 5.10428 0
M  V30 350 H 34.9372 0.430929 4.39995 0
M  V30 351 N 33.9963 -1.19345 1.0293 0
M  V30 352 C 34.9463 -2.20472 0.58104 0
M  V30 353 C 35.9303 -1.56578 -0.370442 0
M  V30 354 O 37.1223 -1.75963 -0.191344 0
M  V30 355 C 34.2513 -3.43236 -0.066306 0
M  V30 356 C 33.3373 -4.14274 0.907642 0
M  V30 357 N 33.7283 -4.61492 2.07023 0
M  V30 358 C 32.0263 -4.39966 0.731177 0
M  V30 359 C 32.7273 -5.1605 2.68454 0
M  V30 360 N 31.7033 -5.06875 1.96414 0
M  V30 361 H 35.5053 -2.54659 1.46717 0
M  V30 362 H 33.0193 -1.35423 0.896345 0
M  V30 363 H 35.0163 -4.14927 -0.405068 0
M  V30 364 H 33.6763 -3.10549 -0.948118 0
M  V30 365 H 34.6873 -4.56304 2.44963 0
M  V30 366 H 31.3643 -4.17377 -0.101507 0
M  V30 367 H 32.7543 -5.6287 3.66915 0
M  V30 368 N 35.4744 -0.807222 -1.35358 0
M  V30 369 C 36.4374 -0.223665 -2.28106 0
M  V30 370 C 37.4374 0.589354 -1.4961 0
M  V30 371 O 38.6274 0.407745 -1.69361 0
M  V30 372 C 35.7594 0.688149 -3.33882 0
M  V30 373 H 36.9524 -1.04169 -2.81227 0
M  V30 374 H 34.5054 -0.577921 -1.45223 0
M  V30 375 H 35.2404 1.52984 -2.85948 0
M  V30 376 H 35.0254 0.10687 -3.91954 0
M  V30 377 H 36.5154 1.09075 -4.03104 0
M  V30 378 N 36.9525 1.47285 -0.560781 0
M  V30 379 C 38.1985 2.02764 -0.0381184 0
M  V30 380 C 38.5315 1.43384 1.30976 0
M  V30 381 O 37.8065 0.590733 1.85312 0
M  V30 382 C 38.0895 3.60064 0.0511427 0
M  V30 383 C 37.9425 4.2987 -1.32408 0
M  V30 384 C 39.2615 4.33439 0.762795 0
M  V30 385 H 36.3805 0.736841 -0.0153264 0
M  V30 386 H 39.0225 1.75675 -0.723759 0
M  V30 387 H 37.1725 3.83274 0.635065 0
M  V30 388 H 38.8445 4.17989 -1.95148 0
M  V30 389 H 37.0875 3.90085 -1.8978 0
M  V30 390 H 37.7585 5.38478 -1.21431 0
M  V30 391 H 40.2345 4.15243 0.266965 0
M  V30 392 H 39.1105 5.43124 0.794221 0
M  V30 393 H 39.3715 4.02915 1.81966 0
M  V30 394 N 38.4306 0.297415 1.54768 0
M  V30 395 C 39.6706 -0.313829 2.01976 0
M  V30 396 C 40.0346 -1.51366 1.1812 0
M  V30 397 O 41.2356 -2.19603 1.5501 0
M  V30 398 C 39.5066 -0.664964 3.51159 0
M  V30 399 S 41.0656 -1.25958 4.20333 0
M  V30 400 H 37.8836 -0.0965014 0.704421 0
M  V30 401 H 40.4856 0.424451 1.90837 0
M  V30 402 H 39.1896 0.21681 4.09827 0
M  V30 403 H 38.7206 -1.43413 3.66328 0
M  V30 404 H 40.7356 -2.54751 4.25813 0
M  V30 405 N 39.9087 -1.5758 0.0250728 0
M  V30 406 C 41.1547 -1.91917 -0.655413 0
M  V30 407 C 41.4877 -0.901433 -1.72011 0
M  V30 408 O 40.7627 0.0764069 -1.9435 0
M  V30 409 C 41.0457 -3.36751 -1.27558 0
M  V30 410 C 40.8987 -4.49258 -0.220719 0
M  V30 411 C 42.2177 -3.81469 -2.19475 0
M  V30 412 H 39.3367 -0.697925 -0.23679 0
M  V30 413 H 41.9787 -1.89825 0.0815036 0
M  V30 414 H 40.1287 -3.38664 -1.90365 0
M  V30 415 H 41.8007 -4.59478 0.409601 0
M  V30 416 H 40.0437 -4.31415 0.454264 0
M  V30 417 H 40.7147 -5.47618 -0.694175 0
M  V30 418 H 43.1907 -3.81266 -1.66659 0
M  V30 419 H 42.0667 -4.83512 -2.59822 0
M  V30 420 H 42.3277 -3.16744 -3.08424 0
M  V30 421 N 41.3868 0.248026 -1.55636 0
M  V30 422 C 42.3168 1.31079 -1.93237 0
M  V30 423 C 43.2978 1.50264 -0.797174 0
M  V30 424 O 44.4828 1.62891 -1.05737 0
M  V30 425 C 41.6128 2.66575 -2.22609 0
M  V30 426 C 40.5668 2.62087 -3.3837 0
M  V30 427 C 39.8928 4.01369 -3.53281 0
M  V30 428 C 41.1928 2.19171 -4.7409 0
M  V30 429 H 42.8868 0.998556 -2.82257 0
M  V30 430 H 40.4328 0.47891 -1.35803 0
M  V30 431 H 42.3858 3.41057 -2.47503 0
M  V30 432 H 41.1098 2.99432 -1.30414 0
M  V30 433 H 39.7688 1.90063 -3.13483 0
M  V30 434 H 39.4168 4.31489 -2.58508 0
M  V30 435 H 39.1168 3.99254 -4.31127 0
M  V30 436 H 40.6408 4.77552 -3.80495 0
M  V30 437 H 42.0548 2.83384 -4.98363 0
M  V30 438 H 40.4518 2.2817 -5.5503 0
M  V30 439 H 41.5218 1.14336 -4.71227 0
M  V30 440 N 42.8649 1.48995 0.513639 0
M  V30 441 C 44.1129 1.57531 1.26604 0
M  V30 442 C 44.4339 0.258236 1.93283 0
M  V30 443 O 43.7039 -0.721502 1.8213 0
M  V30 444 H 42.2839 0.580387 0.470276 0
M  V30 445 H 44.9459 1.85552 0.596373 0
M  V30 446 H 44.0419 2.36486 2.03669 0
M  V30 447 N 44.343 -0.763751 1.37857 0
M  V30 448 C 45.571 -1.55293 1.36718 0
M  V30 449 C 45.986 -1.88745 -0.0455434 0
M  V30 450 O 45.343 -1.52039 -1.00947 0
M  V30 451 C 45.394 -2.85831 2.2132 0
M  V30 452 O 45.115 -2.5381 3.57089 0
M  V30 453 C 46.616 -3.80023 2.28249 0
M  V30 454 H 43.836 -0.480841 0.468009 0
M  V30 455 H 46.38 -0.946009 1.81303 0
M  V30 456 H 44.535 -3.42926 1.80223 0
M  V30 457 H 44.949 -3.37459 4.01524 0
M  V30 458 H 46.423 -4.68599 2.91752 0
M  V30 459 H 46.9 -4.1973 1.2932 0
M  V30 460 H 47.506 -3.28855 2.69693 0
M  V30 461 N 45.8211 -1.22559 -0.990812 0
M  V30 462 C 46.7311 -1.01394 -2.11557 0
M  V30 463 C 47.7471 0.0383962 -1.73958 0
M  V30 464 O 48.9231 -0.154787 -2.00804 0
M  V30 465 C 45.9881 -0.596569 -3.41529 0
M  V30 466 C 45.0491 -1.72276 -3.93217 0
M  V30 467 C 44.2821 -1.32521 -5.16985 0
M  V30 468 O 44.5051 -0.204909 -5.70032 0
M  V30 469 O 43.4391 -2.14247 -5.62478 0
M  V30 470 H 47.2651 -1.95633 -2.32296 0
M  V30 471 H 44.8501 -1.01172 -1.0993 0
M  V30 472 H 46.7321 -0.374263 -4.19735 0
M  V30 473 H 45.4071 0.316939 -3.22145 0
M  V30 474 H 44.3141 -1.99961 -3.16174 0
M  V30 475 H 45.6471 -2.61421 -4.17037 0
M  V30 476 N 47.2992 1.18797 -1.03562 0
M  V30 477 C 48.5482 1.87978 -0.731235 0
M  V30 478 C 48.8612 1.80911 0.743671 0
M  V30 479 O 50.0672 2.45407 1.16137 0
M  V30 480 C 48.5232 3.3721 -1.25768 0
M  V30 481 C 48.1312 3.52818 -2.76085 0
M  V30 482 C 49.8752 4.11825 -1.0296 0
M  V30 483 C 47.7822 4.9598 -3.22114 0
M  V30 484 H 46.7122 0.704063 -0.269835 0
M  V30 485 H 49.3632 1.34266 -1.25079 0
M  V30 486 H 47.7452 3.90359 -0.666011 0
M  V30 487 H 48.9192 3.09965 -3.40966 0
M  V30 488 H 47.2342 2.91602 -2.97249 0
M  V30 489 H 49.8312 5.17411 -1.34869 0
M  V30 490 H 50.1742 4.16287 0.0333546 0
M  V30 491 H 50.7072 3.64833 -1.58562 0
M  V30 492 H 47.4462 4.96684 -4.27768 0
M  V30 493 H 46.9662 5.39569 -2.61965 0
M  V30 494 H 48.6452 5.6467 -3.15844 0
M  V30 495 N 48.7773 0.814389 1.34928 0
M  V30 496 C 50.0173 0.404165 2.00364 0
M  V30 497 C 50.3813 -1.01166 1.63185 0
M  V30 498 O 51.5823 -1.52431 2.21401 0
M  V30 499 C 49.8533 0.590718 3.52484 0
M  V30 500 S 51.4123 0.272075 4.37956 0
M  V30 501 H 48.2303 0.15311 0.694319 0
M  V30 502 H 50.8323 1.05834 1.64376 0
M  V30 503 H 49.5363 1.62099 3.77031 0
M  V30 504 H 49.0673 -0.0785013 3.93322 0
M  V30 505 H 51.0823 -0.917405 4.87645 0
M  V30 506 N 50.2554 -1.46986 0.568584 0
M  V30 507 C 51.1854 -2.32946 -0.160753 0
M  V30 508 C 52.1664 -1.44487 -0.897631 0
M  V30 509 O 53.3514 -1.73327 -0.875867 0
M  V30 510 C 50.4814 -3.26494 -1.18403 0
M  V30 511 C 49.4354 -4.24282 -0.562895 0
M  V30 512 C 48.7614 -5.07236 -1.69163 0
M  V30 513 C 50.0614 -5.19989 0.490761 0
M  V30 514 H 51.7554 -2.94175 0.556916 0
M  V30 515 H 49.3014 -1.4146 0.26927 0
M  V30 516 H 51.2544 -3.85477 -1.70251 0
M  V30 517 H 49.9784 -2.63343 -1.93179 0
M  V30 518 H 48.6374 -3.66541 -0.0656164 0
M  V30 519 H 48.2854 -4.4048 -2.42871 0
M  V30 520 H 47.9854 -5.7345 -1.28174 0
M  V30 521 H 49.5094 -5.6908 -2.21314 0
M  V30 522 H 50.9234 -5.73271 0.0579047 0
M  V30 523 H 49.3204 -5.94469 0.820165 0
M  V30 524 H 50.3904 -4.64777 1.3824 0
M  V30 525 N 51.7335 -0.305618 -1.54608 0
M  V30 526 C 53.0105 0.355652 -1.92339 0
M  V30 527 C 53.3905 1.71324 -1.23335 0
M  V30 528 O 52.7385 2.25473 -0.370702 0
M  V30 529 C 52.9485 0.46572 -3.45879 0
M  V30 530 C 54.2965 0.734426 -4.182 0
M  V30 531 O 55.3205 0.54935 -3.51938 0
M  V30 532 O 54.1795 1.09024 -5.35515 0
M  V30 533 H 51.2735 0.199666 -0.802535 0
M  V30 534 H 53.8195 -0.354017 -1.65966 0
M  V30 535 H 52.5915 -0.488461 -3.88239 0
M  V30 536 H 52.2145 1.22367 -3.78301 0
M  V30 537 N 53.2116 1.57565 -0.0334293 0
M  V30 538 C 54.1416 2.13511 0.945265 0
M  V30 539 C 55.1226 1.05231 1.33643 0
M  V30 540 O 56.3076 1.33084 1.41429 0
M  V30 541 C 53.4376 2.6657 2.22616 0
M  V30 542 C 52.3916 3.79676 1.97561 0
M  V30 543 C 51.7176 4.1918 3.31952 0
M  V30 544 C 53.0176 5.0557 1.31135 0
M  V30 545 H 54.7116 2.95538 0.479325 0
M  V30 546 H 52.2576 1.42166 0.229115 0
M  V30 547 H 54.2106 3.04344 2.91466 0
M  V30 548 H 52.9346 1.8171 2.71384 0
M  V30 549 H 51.5936 3.42347 1.31127 0
M  V30 550 H 51.2416 3.31296 3.78487 0
M  V30 551 H 50.9416 4.95402 3.15992 0
M  V30 552 H 52.4656 4.59541 4.02063 0
M  V30 553 H 53.8796 5.40903 1.89992 0
M  V30 554 H 52.2766 5.86818 1.25559 0
M  V30 555 H 53.3466 4.84062 0.284894 0
M  V30 556 N 54.6897 -0.239769 1.55765 0
M  V30 557 C 55.9147 -0.988373 1.82335 0
M  V30 558 C 56.3397 -1.77886 0.611421 0
M  V30 559 O 55.6977 -1.75889 -0.439639 0
M  V30 560 C 55.7457 -1.89627 3.06715 0
M  V30 561 O 54.8497 -2.98904 2.84131 0
M  V30 562 H 54.1907 -0.280858 0.601677 0
M  V30 563 H 56.7207 -0.258597 2.02959 0
M  V30 564 H 56.7307 -2.30957 3.36338 0
M  V30 565 H 55.4057 -1.31511 3.9456 0
M  V30 566 H 53.9827 -2.61651 2.65694 0
M  V30 567 N 56.1678 -1.49265 -0.50573 0
M  V30 568 C 57.4158 -1.582 -1.25766 0
M  V30 569 C 57.7368 -0.268482 -1.93143 0
M  V30 570 O 57.0068 0.711833 -1.8251 0
M  V30 571 H 55.5868 -0.582873 -0.467191 0
M  V30 572 H 58.2488 -1.85865 -0.586525 0
M  V30 573 H 57.3448 -2.37563 -2.02412 0
M  V30 574 N 57.6459 0.756429 -1.3826 0
M  V30 575 C 58.8859 1.52833 -1.35725 0
M  V30 576 C 59.2499 1.91926 0.0534106 0
M  V30 577 O 60.4509 2.68028 0.203613 0
M  V30 578 C 58.7219 2.74919 -2.28373 0
M  V30 579 S 60.2809 3.64817 -2.43832 0
M  V30 580 H 57.0989 0.523043 -0.481608 0
M  V30 581 H 59.7009 0.888212 -1.74158 0
M  V30 582 H 58.4049 2.44304 -3.29763 0
M  V30 583 H 57.9359 3.43878 -1.91079 0
M  V30 584 H 59.9509 4.676 -1.66027 0
M  V30 585 N 59.124 1.23083 0.984299 0
M  V30 586 C 60.087 1.00979 2.05757 0
M  V30 587 C 61.087 -0.0269573 1.60777 0
M  V30 588 O 62.277 0.212403 1.729 0
M  V30 589 C 59.409 0.527072 3.36801 0
M  V30 590 H 60.602 1.9622 2.26799 0
M  V30 591 H 58.155 1.05072 1.15714 0
M  V30 592 H 58.89 -0.429294 3.21446 0
M  V30 593 H 58.675 1.27515 3.70786 0
M  V30 594 H 60.165 0.392942 4.15747 0
M  V30 595 N 60.6021 -1.18246 1.0419 0
M  V30 596 C 62.0131 -1.69914 0.773698 0
M  V30 597 C 62.3641 -1.83085 -0.705297 0
M  V30 598 O 61.4891 -1.51123 -1.5489 0
M  V30 599 C 62.0841 -3.08619 1.39784 0
M  V30 600 C 60.6431 -3.57494 1.17792 0
M  V30 601 C 59.7901 -2.34013 1.48773 0
M  V30 602 H 62.7411 -1.02904 1.20816 0
M  V30 603 H 62.7621 -3.71958 0.801714 0
M  V30 604 H 62.2741 -2.99001 2.47426 0
M  V30 605 H 60.3751 -3.72406 0.120295 0
M  V30 606 H 60.4881 -4.40852 1.87581 0
M  V30 607 H 58.8521 -2.37986 0.907463 0
M  V30 608 H 59.6351 -2.27013 2.57527 0
M  V30 609 N 62.0802 -0.821533 -1.34494 0
M  V30 610 C 63.0122 -0.199946 -2.28326 0
M  V30 611 C 64.0252 0.609377 -1.50965 0
M  V30 612 O 65.2142 0.439285 -1.7301 0
M  V30 613 C 62.3142 0.738431 -3.30757 0
M  V30 614 C 61.4872 -0.0277632 -4.37391 0
M  V30 615 C 60.5462 0.831332 -5.19591 0
M  V30 616 O 59.5722 0.276822 -5.68526 0
M  V30 617 N 60.7742 2.15132 -5.39165 0
M  V30 618 H 63.5392 -1.00609 -2.82308 0
M  V30 619 H 61.1002 -0.678366 -1.47003 0
M  V30 620 H 63.0922 1.31773 -3.82646 0
M  V30 621 H 61.6622 1.44533 -2.7718 0
M  V30 622 H 60.8822 -0.788359 -3.86236 0
M  V30 623 H 62.1702 -0.555251 -5.05761 0
M  V30 624 H 61.5682 2.62559 -5.01078 0
M  V30 625 H 60.1252 2.6795 -5.94177 0
M  V30 626 N 63.5583 1.46682 -0.576371 0
M  V30 627 C 64.5053 2.30241 0.160499 0
M  V30 628 C 65.4753 1.40233 0.890162 0
M  V30 629 O 66.6603 1.69186 0.882084 0
M  V30 630 C 63.8003 3.24578 1.1723 0
M  V30 631 C 62.9133 4.29684 0.446736 0
M  V30 632 C 62.0483 5.11154 1.44551 0
M  V30 633 C 61.0873 6.08015 0.70599 0
M  V30 634 N 60.2243 6.82376 1.65251 0
M  V30 635 H 65.0643 2.92727 -0.558127 0
M  V30 636 H 62.6013 1.44272 -0.287056 0
M  V30 637 H 64.5593 3.77711 1.77172 0
M  V30 638 H 63.1893 2.63916 1.85872 0
M  V30 639 H 62.2413 3.79458 -0.267594 0
M  V30 640 H 63.5533 4.98626 -0.131686 0
M  V30 641 H 62.7073 5.68533 2.11791 0
M  V30 642 H 61.4463 4.42158 2.05786 0
M  V30 643 H 60.4513 5.49796 0.0197725 0
M  V30 644 H 61.6763 6.79028 0.09912 0
M  V30 645 H 59.6223 6.16094 2.25308 0
M  V30 646 H 59.5393 7.47556 1.12673 0
M  V30 647 H 60.8073 7.44316 2.31546 0
M  V30 648 N 65.0364 0.313813 1.54444 0
M  V30 649 C 66.2764 -0.292389 2.02298 0
M  V30 650 C 66.6404 -1.50105 1.19719 0
M  V30 651 O 67.8414 -2.17947 1.5733 0
M  V30 652 C 66.1124 -0.627682 3.51845 0
M  V30 653 S 67.6714 -1.21493 4.21646 0
M  V30 654 H 64.4894 -0.0890247 0.705405 0
M  V30 655 H 67.0914 0.444668 1.90376 0
M  V30 656 H 65.7954 0.260265 4.09574 0
M  V30 657 H 65.3264 -1.39519 3.67829 0
M  V30 658 H 67.3414 -2.5022 4.28491 0
M  V30 659 N 66.5145 -1.57545 0.0417849 0
M  V30 660 C 67.4465 -2.07904 -0.964799 0
M  V30 661 C 68.4595 -1.00497 -1.28079 0
M  V30 662 O 69.6485 -1.28087 -1.24322 0
M  V30 663 C 66.7485 -2.49928 -2.28887 0
M  V30 664 C 65.9215 -3.80562 -2.15619 0
M  V30 665 C 64.9805 -4.08999 -3.31069 0
M  V30 666 O 64.0065 -4.79061 -3.0739 0
M  V30 667 N 65.2085 -3.6017 -4.55256 0
M  V30 668 H 67.9735 -2.94886 -0.535029 0
M  V30 669 H 65.5345 -1.61252 -0.144681 0
M  V30 670 H 67.5265 -2.66034 -3.04972 0
M  V30 671 H 66.0965 -1.68245 -2.63463 0
M  V30 672 H 65.3165 -3.74129 -1.24183 0
M  V30 673 H 66.6045 -4.66126 -2.03971 0
M  V30 674 H 66.0025 -3.03512 -4.77386 0
M  V30 675 H 64.5595 -3.81532 -5.28466 0
M  V30 676 N 67.9926 0.231505 -1.5589 0
M  V30 677 C 69.2326 0.964533 -1.80211 0
M  V30 678 C 69.5966 1.81926 -0.613744 0
M  V30 679 O 70.7976 2.58526 -0.736045 0
M  V30 680 C 69.0686 1.78956 -3.09369 0
M  V30 681 S 70.6276 2.57959 -3.54969 0
M  V30 682 H 67.4456 0.324173 -0.632798 0
M  V30 683 H 70.0476 0.230985 -1.94131 0
M  V30 684 H 68.7516 1.15161 -3.93911 0
M  V30 685 H 68.2826 2.56559 -2.9823 0
M  V30 686 H 70.2976 3.81309 -3.17519 0
M  V30 687 N 69.4707 1.49531 0.497807 0
M  V30 688 C 70.7177 1.59179 1.25173 0
M  V30 689 C 71.0457 0.279932 1.92475 0
M  V30 690 O 70.3007 -0.732383 1.81479 0
M  V30 691 C 70.5997 2.70252 2.33878 0
M  V30 692 C 70.2657 4.11644 1.84012 0
M  V30 693 C 68.9277 4.50121 1.70132 0
M  V30 694 C 71.2797 5.00121 1.46725 0
M  V30 695 C 68.6077 5.74845 1.17348 0
M  V30 696 C 70.9597 6.25366 0.95392 0
M  V30 697 C 69.6237 6.6267 0.801538 0
M  V30 698 H 68.8937 0.582478 0.45804 0
M  V30 699 H 71.5407 1.83373 0.551948 0
M  V30 700 H 69.8457 2.40041 3.09657 0
M  V30 701 H 71.5427 2.74925 2.9192 0
M  V30 702 H 68.1327 3.81274 1.95775 0
M  V30 703 H 72.3167 4.71048 1.56294 0
M  V30 704 H 67.5727 6.02444 1.04264 0
M  V30 705 H 71.7467 6.93301 0.656225 0
M  V30 706 H 69.3737 7.59197 0.390351 0
M  V30 707 N 70.9488 -0.749086 1.3866 0
M  V30 708 C 72.1768 -1.53834 1.38358 0
M  V30 709 C 72.5918 -1.88783 -0.0255219 0
M  V30 710 O 71.9488 -1.53101 -0.993292 0
M  V30 711 C 71.9998 -2.83468 2.2434 0
M  V30 712 O 71.7208 -2.50008 3.5976 0
M  V30 713 C 73.2218 -3.7758 2.32267 0
M  V30 714 H 70.4418 -0.47585 0.473083 0
M  V30 715 H 72.9858 -0.926726 1.82297 0
M  V30 716 H 71.1408 -3.40995 1.83851 0
M  V30 717 H 71.5548 -3.33182 4.05081 0
M  V30 718 H 73.0288 -4.65478 2.96706 0
M  V30 719 H 73.5058 -4.18334 1.33765 0
M  V30 720 H 74.1118 -3.25976 2.73166 0
M  V30 721 N 72.4269 -1.23603 -0.977757 0
M  V30 722 C 73.6759 -1.06377 -1.71368 0
M  V30 723 C 73.9889 0.399062 -1.91486 0
M  V30 724 O 75.1949 0.691312 -2.62551 0
M  V30 725 C 73.6509 -1.85512 -3.08404 0
M  V30 726 C 73.2589 -3.36141 -2.96164 0
M  V30 727 C 75.0029 -1.76783 -3.85938 0
M  V30 728 C 72.9099 -4.07659 -4.28449 0
M  V30 729 H 71.8399 -0.394452 -0.642591 0
M  V30 730 H 74.4909 -1.47594 -1.09034 0
M  V30 731 H 72.8729 -1.37103 -3.71509 0
M  V30 732 H 74.0469 -3.92056 -2.42133 0
M  V30 733 H 72.3619 -3.45712 -2.32104 0
M  V30 734 H 74.9589 -2.27526 -4.83876 0
M  V30 735 H 75.3019 -0.731116 -4.0983 0
M  V30 736 H 75.8349 -2.22818 -3.2954 0
M  V30 737 H 72.5739 -5.11648 -4.09752 0
M  V30 738 H 72.0939 -3.5653 -4.82334 0
M  V30 739 H 73.7729 -4.141 -4.97122 0
M  V30 740 N 73.905 1.17692 -1.04816 0
M  V30 741 C 74.855 2.1952 -0.616042 0
M  V30 742 C 75.839 1.57147 0.345485 0
M  V30 743 O 77.031 1.76245 0.163325 0
M  V30 744 C 74.16 3.43298 0.0116917 0
M  V30 745 C 73.246 4.12777 -0.973435 0
M  V30 746 N 73.637 4.5814 -2.14339 0
M  V30 747 C 71.935 4.38747 -0.80108 0
M  V30 748 C 72.636 5.11713 -2.7663 0
M  V30 749 N 71.612 5.03686 -2.04453 0
M  V30 750 H 75.414 2.52293 -1.5075 0
M  V30 751 H 72.928 1.3398 -0.917776 0
M  V30 752 H 74.925 4.15519 0.339006 0
M  V30 753 H 73.585 3.12018 0.898593 0
M  V30 754 H 74.596 4.52349 -2.52191 0
M  V30 755 H 71.273 4.17485 0.0350934 0
M  V30 756 H 72.663 5.56962 -3.75823 0
M  V30 757 N 75.3831 0.828654 1.34056 0
M  V30 758 C 76.6311 0.41863 1.97717 0
M  V30 759 C 76.9521 -1.02314 1.66002 0
M  V30 760 O 76.2221 -1.71119 0.953683 0
M  V30 761 H 74.8021 0.151809 0.731412 0
M  V30 762 H 77.4641 1.05936 1.63596 0
M  V30 763 H 76.5601 0.542318 3.07352 0
M  V30 764 N 76.8612 -1.46375 0.584142 0
M  V30 765 C 78.0862 -2.07268 0.0740405 0
M  V30 766 C 78.5112 -1.42979 -1.22223 0
M  V30 767 O 77.8692 -0.514092 -1.73859 0
M  V30 768 C 77.9172 -3.60518 -0.0767769 0
M  V30 769 O 77.0212 -3.96533 -1.13292 0
M  V30 770 H 76.3622 -0.660961 0.0634524 0
M  V30 771 H 78.8922 -1.87991 0.807492 0
M  V30 772 H 78.9022 -4.07021 -0.282489 0
M  V30 773 H 77.5772 -4.06702 0.86986 0
M  V30 774 H 76.1542 -3.61738 -0.905553 0
M  V30 775 N 78.3393 -0.321999 -1.54275 0
M  V30 776 C 79.5873 0.280489 -2.00144 0
M  V30 777 C 79.9083 1.52777 -1.21178 0
M  V30 778 O 79.1783 1.9338 -0.313187 0
M  V30 779 H 77.7583 0.106632 -0.73935 0
M  V30 780 H 80.4203 -0.438184 -1.8991 0
M  V30 781 H 79.5163 0.537972 -3.07428 0
M  V30 782 N 79.8174 1.5752 -0.0501392 0
M  V30 783 C 81.2334 1.56631 0.306402 0
M  V30 784 C 81.4334 1.0577 1.71508 0
M  V30 785 O 80.4894 0.713837 2.422 0
M  V30 786 C 81.8024 3.00393 0.135811 0
M  V30 787 C 83.3504 3.12315 0.206993 0
M  V30 788 C 83.8254 4.57954 0.064944 0
M  V30 789 N 85.3164 4.63041 0.121254 0
M  V30 790 C 86.0514 5.73389 0.0354381 0
M  V30 791 N 85.5474 6.92724 -0.102666 0
M  V30 792 N 87.3404 5.62026 0.090946 0
M  V30 793 H 79.4914 1.88903 -0.971046 0
M  V30 794 H 81.7544 0.869876 -0.376855 0
M  V30 795 H 81.4604 3.41635 -0.835384 0
M  V30 796 H 81.3344 3.66373 0.897275 0
M  V30 797 H 83.7214 2.70973 1.16866 0
M  V30 798 H 83.8024 2.49016 -0.585208 0
M  V30 799 H 83.4464 4.99981 -0.893394 0
M  V30 800 H 83.3764 5.19258 0.876277 0
M  V30 801 H 85.8674 3.77216 0.227284 0
M  V30 802 H 86.1804 7.72633 -0.160882 0
M  V30 803 H 84.5254 6.94864 -0.137737 0
M  V30 804 H 87.7164 4.67684 0.197388 0
M  V30 805 H 87.8894 6.47997 0.0206089 0
M  V30 806 N 81.2955 -0.223234 1.56011 0
M  V30 807 C 82.5415 -0.949279 1.79211 0
M  V30 808 C 82.8745 -1.84054 0.619494 0
M  V30 809 O 82.1495 -1.90726 -0.381317 0
M  V30 810 C 82.4325 -1.78965 3.12479 0
M  V30 811 C 82.2855 -0.924997 4.40186 0
M  V30 812 C 83.6045 -2.76774 3.42175 0
M  V30 813 H 80.7235 -0.343676 0.651963 0
M  V30 814 H 83.3655 -0.218253 1.88742 0
M  V30 815 H 81.5155 -2.41291 3.04485 0
M  V30 816 H 83.1875 -0.318615 4.60198 0
M  V30 817 H 81.4305 -0.230344 4.33188 0
M  V30 818 H 82.1015 -1.54735 5.29869 0
M  V30 819 H 84.5775 -2.24584 3.50287 0
M  V30 820 H 83.4535 -3.32678 4.36597 0
M  V30 821 H 83.7145 -3.54429 2.64258 0
M  V30 822 N 82.7736 -1.49793 -0.48987 0
M  V30 823 C 83.7036 -1.70201 -1.59856 0
M  V30 824 C 84.6846 -0.55076 -1.60937 0
M  V30 825 O 85.8696 -0.787841 -1.77501 0
M  V30 826 C 82.9996 -1.77882 -2.98287 0
M  V30 827 C 81.9536 -2.92907 -3.12073 0
M  V30 828 C 81.2796 -2.85712 -4.51965 0
M  V30 829 C 82.5796 -4.3369 -2.91051 0
M  V30 830 H 84.2736 -2.63025 -1.43032 0
M  V30 831 H 81.8196 -1.26574 -0.686664 0
M  V30 832 H 83.7726 -1.90744 -3.75759 0
M  V30 833 H 82.4966 -0.816653 -3.16225 0
M  V30 834 H 81.1556 -2.79665 -2.37029 0
M  V30 835 H 80.8036 -1.8738 -4.66795 0
M  V30 836 H 80.5036 -3.62921 -4.62128 0
M  V30 837 H 82.0276 -3.00598 -5.31482 0
M  V30 838 H 83.4416 -4.47555 -3.58284 0
M  V30 839 H 81.8386 -5.12205 -3.12675 0
M  V30 840 H 82.9086 -4.47362 -1.87071 0
M  V30 841 N 84.2517 0.741722 -1.39055 0
M  V30 842 C 85.5007 1.49656 -1.35225 0
M  V30 843 C 85.8137 1.95533 0.0512708 0
M  V30 844 O 87.0197 2.7067 0.212138 0
M  V30 845 C 85.4757 2.70389 -2.37525 0
M  V30 846 C 85.0837 2.31489 -3.83558 0
M  V30 847 C 86.8277 3.48236 -2.42759 0
M  V30 848 C 84.7347 3.48903 -4.77515 0
M  V30 849 H 83.6647 0.56197 -0.502699 0
M  V30 850 H 86.3157 0.809727 -1.64668 0
M  V30 851 H 84.6977 3.41113 -2.01142 0
M  V30 852 H 85.8717 1.68354 -4.28945 0
M  V30 853 H 84.1867 1.66749 -3.81554 0
M  V30 854 H 86.7837 4.35558 -3.1015 0
M  V30 855 H 87.1267 3.90229 -1.45008 0
M  V30 856 H 87.6597 2.84535 -2.78002 0
M  V30 857 H 84.3987 3.11966 -5.76504 0
M  V30 858 H 83.9187 4.11041 -4.36813 0
M  V30 859 H 85.5977 4.15328 -4.96096 0
M  V30 860 N 85.7298 1.2412 0.971189 0
M  V30 861 C 87.0068 0.986867 1.6888 0
M  V30 862 C 87.3868 -0.491857 2.0529 0
M  V30 863 O 86.7348 -1.46531 1.75331 0
M  V30 864 C 86.9448 1.9063 2.92338 0
M  V30 865 C 88.2928 2.17515 3.64654 0
M  V30 866 O 89.3168 1.88254 3.02388 0
M  V30 867 O 88.1758 2.6719 4.7673 0
M  V30 868 H 85.2698 0.372944 0.738134 0
M  V30 869 H 87.8158 1.35203 1.02559 0
M  V30 870 H 86.5878 2.90552 2.62097 0
M  V30 871 H 86.2108 1.54408 3.66393 0
M  V30 872 N 87.2079 -1.17134 1.05439 0
M  V30 873 C 88.4539 -1.87733 0.767077 0
M  V30 874 C 88.7869 -1.8098 -0.704253 0
M  V30 875 O 88.0619 -1.21951 -1.5152 0
M  V30 876 C 88.3449 -3.37659 1.25133 0
M  V30 877 C 88.1979 -3.53149 2.78578 0
M  V30 878 C 89.5169 -4.31768 0.852324 0
M  V30 879 H 86.6359 -0.681687 0.280129 0
M  V30 880 H 89.2779 -1.37732 1.30881 0
M  V30 881 H 87.4279 -3.80373 0.790469 0
M  V30 882 H 89.0999 -3.19434 3.32806 0
M  V30 883 H 87.3429 -2.95345 3.17732 0
M  V30 884 H 88.0139 -4.58403 3.07523 0
M  V30 885 H 90.4899 -3.96909 1.24911 0
M  V30 886 H 89.3659 -5.35199 1.21873 0
M  V30 887 H 89.6269 -4.41429 -0.243485 0
M  V30 888 N 88.686 -0.835752 -1.33615 0
M  V30 889 C 89.649 -0.272 -2.2758 0
M  V30 890 C 90.649 0.557487 -1.50827 0
M  V30 891 O 91.839 0.37173 -1.70188 0
M  V30 892 C 88.971 0.617173 -3.35267 0
M  V30 893 H 90.164 -1.10111 -2.78954 0
M  V30 894 H 87.717 -0.608594 -1.43965 0
M  V30 895 H 88.452 1.46884 -2.89129 0
M  V30 896 H 88.237 0.0237066 -3.92093 0
M  V30 897 H 89.727 1.005 -4.05326 0
M  V30 898 N 90.1641 1.46063 -0.591896 0
M  V30 899 C 91.1121 2.32124 0.148739 0
M  V30 900 C 92.1061 1.45035 0.875286 0
M  V30 901 O 93.3121 1.61609 0.792632 0
M  V30 902 H 89.6871 0.749024 0.066832 0
M  V30 903 H 91.6581 2.92392 -0.595783 0
M  V30 904 C 90.4071 3.28373 1.1431 0
M  V30 905 H 89.7301 3.95371 0.59346 0
M  V30 906 H 91.1701 3.91352 1.63155 0
M  V30 907 C 89.6291 2.54393 2.20875 0
M  V30 908 O 90.1591 2.31373 3.28374 0
M  V30 909 N 88.3651 2.14797 1.95731 0
M  V30 910 H 87.9121 2.33719 1.08319 0
M  V30 911 H 87.8701 1.65619 2.67241 0
M  V30 912 N 91.6422 0.330177 1.54103 0
M  V30 913 C 92.8702 -0.272179 2.05102 0
M  V30 914 C 93.2852 -1.45267 1.20595 0
M  V30 915 O 92.6422 -1.8094 0.238144 0
M  V30 916 C 92.6932 -0.70023 3.54653 0
M  V30 917 O 92.4142 0.433301 4.35952 0
M  V30 918 C 93.9152 -1.3647 4.21771 0
M  V30 919 H 91.1352 -0.0549159 0.668749 0
M  V30 920 H 93.6792 0.478285 1.98828 0
M  V30 921 H 91.8342 -1.40066 3.61193 0
M  V30 922 H 92.2482 0.0947539 5.24414 0
M  V30 923 H 93.7222 -1.61509 5.27843 0
M  V30 924 H 94.1992 -2.31409 3.73292 0
M  V30 925 H 94.8052 -0.706675 4.19388 0
M  V30 926 N 93.1203 -1.57491 0.0584922 0
M  V30 927 C 94.3663 -1.93264 -0.614558 0
M  V30 928 C 94.6993 -0.937717 -1.7006 0
M  V30 929 O 93.9743 0.0351652 -1.94468 0
M  V30 930 C 94.2573 -3.3938 -1.20386 0
M  V30 931 C 94.1103 -4.49625 -0.125375 0
M  V30 932 C 95.4293 -3.86039 -2.11334 0
M  V30 933 H 92.5483 -0.702791 -0.221933 0
M  V30 934 H 95.1903 -1.8961 0.12175 0
M  V30 935 H 93.3403 -3.42626 -1.83139 0
M  V30 936 H 95.0123 -4.58506 0.506971 0
M  V30 937 H 93.2553 -4.30354 0.545672 0
M  V30 938 H 93.9263 -5.48967 -0.577861 0
M  V30 939 H 96.4023 -3.84716 -1.58534 0
M  V30 940 H 95.2783 -4.88914 -2.49507 0
M  V30 941 H 95.5393 -3.23215 -3.01636 0
M  V30 942 N 94.5984 0.214957 -1.56127 0
M  V30 943 C 95.8474 0.936451 -1.78643 0
M  V30 944 C 96.1604 1.85237 -0.628229 0
M  V30 945 O 97.3664 2.613 -0.737186 0
M  V30 946 C 95.8224 1.7154 -3.16389 0
M  V30 947 C 95.4304 0.845299 -4.39953 0
M  V30 948 C 97.1744 2.42772 -3.48227 0
M  V30 949 C 95.0814 1.62198 -5.68723 0
M  V30 950 H 94.0114 0.353401 -0.666051 0
M  V30 951 H 96.6624 0.190169 -1.82512 0
M  V30 952 H 95.0444 2.50484 -3.06715 0
M  V30 953 H 96.2184 0.0959353 -4.607 0
M  V30 954 H 94.5334 0.244789 -4.1568 0
M  V30 955 H 97.1304 3.01394 -4.41663 0
M  V30 956 H 97.4734 3.15984 -2.71035 0
M  V30 957 H 98.0064 1.70813 -3.5926 0
M  V30 958 H 94.7454 0.933011 -6.48826 0
M  V30 959 H 94.2654 2.34579 -5.52026 0
M  V30 960 H 95.9444 2.18095 -6.09133 0
M  V30 961 N 96.0765 1.50051 0.48192 0
M  V30 962 C 97.3015 1.64508 1.26301 0
M  V30 963 C 97.7265 0.323851 1.85291 0
M  V30 964 O 97.0845 -0.710969 1.66778 0
M  V30 965 C 97.1325 2.7305 2.35533 0
M  V30 966 O 96.2365 2.3355 3.39895 0
M  V30 967 H 95.5775 0.549978 0.372048 0
M  V30 968 H 98.1075 1.9636 0.574786 0
M  V30 969 H 98.1175 2.95799 2.8101 0
M  V30 970 H 96.7925 3.68946 1.91967 0
M  V30 971 H 95.3695 2.21205 3.00204 0
M  V30 972 N 97.5546 -0.734337 1.39446 0
M  V30 973 C 98.4646 -1.87879 1.40495 0
M  V30 974 C 99.4806 -1.714 0.299672 0
M  V30 975 O 100.657 -1.93991 0.541249 0
M  V30 976 C 97.7216 -3.23477 1.24754 0
M  V30 977 C 96.7826 -3.52344 2.45259 0
M  V30 978 C 96.0156 -4.81473 2.30259 0
M  V30 979 O 96.2386 -5.55237 1.30643 0
M  V30 980 O 95.1726 -5.10254 3.19256 0
M  V30 981 H 98.9986 -1.89949 2.36966 0
M  V30 982 H 96.5836 -0.882243 1.20569 0
M  V30 983 H 98.4656 -4.04509 1.18111 0
M  V30 984 H 97.1406 -3.22176 0.313781 0
M  V30 985 H 96.0476 -2.71396 2.57478 0
M  V30 986 H 97.3806 -3.58426 3.37331 0
M  V30 987 N 99.0327 -1.24633 -0.964593 0
M  V30 988 C 99.9797 -1.04144 -2.05968 0
M  V30 989 C 100.95 0.046262 -1.66036 0
M  V30 990 O 102.135 -0.108972 -1.90489 0
M  V30 991 C 99.2747 -0.65563 -3.38815 0
M  V30 992 C 98.3877 -1.81714 -3.91923 0
M  V30 993 C 97.5227 -1.37662 -5.13052 0
M  V30 994 C 96.5617 -2.50788 -5.58365 0
M  V30 995 N 95.6987 -2.07582 -6.70712 0
M  V30 996 H 100.539 -1.9787 -2.22827 0
M  V30 997 H 98.0757 -0.9855 -1.09208 0
M  V30 998 H 100.034 -0.412954 -4.15151 0
M  V30 999 H 98.6637 0.244627 -3.21872 0
M  V30 1000 H 97.7157 -2.1734 -3.12198 0
M  V30 1001 H 99.0277 -2.66705 -4.21509 0
M  V30 1002 H 98.1817 -1.093 -5.96773 0
M  V30 1003 H 96.9207 -0.497293 -4.85158 0
M  V30 1004 H 95.9257 -2.79906 -4.73215 0
M  V30 1005 H 97.1507 -3.39283 -5.88272 0
M  V30 1006 H 95.0967 -1.22051 -6.44546 0
M  V30 1007 H 95.0137 -2.86125 -6.99763 0
M  V30 1008 H 96.2817 -1.82369 -7.57867 0
M  V30 1009 N 100.511 1.16574 -1.06058 0
M  V30 1010 C 101.421 2.2452 -0.680282 0
M  V30 1011 C 102.437 1.71348 0.302604 0
M  V30 1012 O 103.613 2.00822 0.152513 0
M  V30 1013 C 100.678 3.46629 -0.0700315 0
M  V30 1014 C 99.7388 4.14849 -1.10448 0
M  V30 1015 C 98.9718 5.31129 -0.523256 0
M  V30 1016 O 99.1948 5.66514 0.664709 0
M  V30 1017 O 98.1288 5.88526 -1.26179 0
M  V30 1018 H 101.955 2.59355 -1.58015 0
M  V30 1019 H 99.5398 1.24043 -0.832694 0
M  V30 1020 H 101.422 4.20543 0.268667 0
M  V30 1021 H 100.097 3.13573 0.803353 0
M  V30 1022 H 99.0038 3.42916 -1.49532 0
M  V30 1023 H 100.337 4.51954 -1.94931 0
M  V30 1024 N 101.989 0.842826 1.3317 0
M  V30 1025 C 103.266 0.362216 1.92217 0
M  V30 1026 C 103.646 -1.15289 1.76838 0
M  V30 1027 O 102.994 -1.96914 1.15919 0
M  V30 1028 C 103.204 0.813495 3.39387 0
M  V30 1029 C 104.552 0.823804 4.16532 0
M  V30 1030 O 105.576 0.757358 3.48055 0
M  V30 1031 O 104.435 0.915193 5.38782 0
M  V30 1032 H 101.529 0.103317 0.820521 0
M  V30 1033 H 104.075 0.928942 1.42017 0
M  V30 1034 H 102.847 1.85624 3.4447 0
M  V30 1035 H 102.47 0.223561 3.96971 0
M  V30 1036 N 103.467 -1.45747 0.599634 0
M  V30 1037 C 104.43 -2.28917 -0.113835 0
M  V30 1038 C 105.43 -1.3933 -0.802729 0
M  V30 1039 O 106.62 -1.61534 -0.652103 0
M  V30 1040 C 103.752 -3.20152 -1.17114 0
M  V30 1041 H 104.945 -2.93478 0.617289 0
M  V30 1042 H 102.498 -1.52137 0.358327 0
M  V30 1043 H 103.233 -2.60374 -1.93329 0
M  V30 1044 H 103.018 -3.86133 -0.681468 0
M  V30 1045 H 104.508 -3.82708 -1.67105 0
M  V30 1046 N 104.945 -0.338344 -1.53925 0
M  V30 1047 C 106.173 0.261298 -2.05243 0
M  V30 1048 C 106.588 1.44625 -1.21363 0
M  V30 1049 O 105.945 1.80811 -0.247736 0
M  V30 1050 C 105.996 0.681412 -3.5502 0
M  V30 1051 O 105.717 -0.456414 -4.35716 0
M  V30 1052 C 107.218 1.34232 -4.22489 0
M  V30 1053 H 104.438 0.0513685 -0.669031 0
M  V30 1054 H 106.982 -0.488822 -1.98572 0
M  V30 1055 H 105.137 1.38148 -3.61931 0
M  V30 1056 H 105.551 -0.122564 -5.24357 0
M  V30 1057 H 107.025 1.58708 -5.28693 0
M  V30 1058 H 107.502 2.29426 -3.74514 0
M  V30 1059 H 108.108 0.684424 -4.19757 0
M  V30 1060 N 106.423 1.57458 -0.0668435 0
M  V30 1061 C 107.672 1.92477 0.602947 0
M  V30 1062 C 107.985 0.948419 1.71068 0
M  V30 1063 O 109.191 1.19124 2.43971 0
M  V30 1064 C 107.647 3.41903 1.12383 0
M  V30 1065 C 107.255 4.47975 0.04737 0
M  V30 1066 C 108.999 3.85931 1.76797 0
M  V30 1067 C 106.906 5.88529 0.582022 0
M  V30 1068 H 105.836 0.718387 0.22899 0
M  V30 1069 H 108.487 1.82978 -0.138276 0
M  V30 1070 H 106.869 3.46459 1.91787 0
M  V30 1071 H 108.043 4.55029 -0.726978 0
M  V30 1072 H 106.358 4.13384 -0.500243 0
M  V30 1073 H 108.955 4.88322 2.17821 0
M  V30 1074 H 109.298 3.23029 2.62599 0
M  V30 1075 H 109.831 3.83958 1.04024 0
M  V30 1076 H 106.57 6.55065 -0.238721 0
M  V30 1077 H 106.09 5.85004 1.324 0
M  V30 1078 H 107.769 6.38258 1.05999 0
M  V30 1079 N 107.901 -0.206675 1.56239 0
M  V30 1080 C 109.147 -0.925733 1.81113 0
M  V30 1081 C 109.502 -1.81368 0.642135 0
M  V30 1082 O 108.795 -1.88126 -0.363211 0
M  V30 1083 C 108.989 -1.78675 3.09532 0
M  V30 1084 C 108.818 -0.98365 4.3881 0
M  V30 1085 C 107.588 -0.672661 5.00803 0
M  V30 1086 C 109.786 -0.341847 5.13163 0
M  V30 1087 N 107.768 0.150283 6.13716 0
M  V30 1088 C 109.139 0.343815 6.19046 0
M  V30 1089 C 111.194 -0.256392 4.97239 0
M  V30 1090 C 109.897 1.10678 7.10734 0
M  V30 1091 C 111.923 0.493142 5.8934 0
M  V30 1092 C 111.285 1.16729 6.94661 0
M  V30 1093 H 107.384 -0.318524 0.714189 0
M  V30 1094 H 109.968 -0.195378 1.93717 0
M  V30 1095 H 108.139 -2.4888 2.98183 0
M  V30 1096 H 109.871 -2.44441 3.22538 0
M  V30 1097 H 106.626 -0.994294 4.63045 0
M  V30 1098 H 107.05 0.551026 6.74754 0
M  V30 1099 H 111.692 -0.763249 4.15854 0
M  V30 1100 H 109.41 1.6251 7.91591 0
M  V30 1101 H 112.996 0.560465 5.79094 0
M  V30 1102 H 111.876 1.738 7.64698 0
M  V30 1103 N 109.379 -1.50304 -0.473955 0
M  V30 1104 C 110.625 -1.62358 -1.22521 0
M  V30 1105 C 110.98 -0.318555 -1.89745 0
M  V30 1106 O 110.273 0.683315 -1.79001 0
M  V30 1107 C 110.467 -2.73938 -2.29549 0
M  V30 1108 C 110.296 -4.15165 -1.72825 0
M  V30 1109 C 109.066 -4.81604 -1.52924 0
M  V30 1110 C 111.264 -4.99503 -1.22481 0
M  V30 1111 N 109.246 -6.07056 -0.91413 0
M  V30 1112 C 110.617 -6.15655 -0.732743 0
M  V30 1113 C 112.672 -4.85299 -1.11308 0
M  V30 1114 C 111.375 -7.19164 -0.139976 0
M  V30 1115 C 113.401 -5.88982 -0.534258 0
M  V30 1116 C 112.763 -7.0438 -0.0525562 0
M  V30 1117 H 108.862 -0.648286 -0.437321 0
M  V30 1118 H 111.446 -1.87413 -0.527692 0
M  V30 1119 H 109.617 -2.50611 -2.9673 0
M  V30 1120 H 111.349 -2.75366 -2.96573 0
M  V30 1121 H 108.104 -4.3885 -1.78067 0
M  V30 1122 H 108.528 -6.74108 -0.625071 0
M  V30 1123 H 113.17 -3.96369 -1.47144 0
M  V30 1124 H 110.888 -8.07771 0.230591 0
M  V30 1125 H 114.474 -5.80055 -0.450219 0
M  V30 1126 H 113.354 -7.83238 0.388324 0
M  V30 1127 N 110.857 0.726932 -1.39834 0
M  V30 1128 C 112.268 1.30558 -1.3346 0
M  V30 1129 C 112.619 1.962 -0.00273003 0
M  V30 1130 O 111.744 1.96826 0.899371 0
M  V30 1131 C 112.339 2.37404 -2.41713 0
M  V30 1132 C 110.898 2.90921 -2.38835 0
M  V30 1133 C 110.045 1.64578 -2.2318 0
M  V30 1134 H 112.996 0.523862 -1.49804 0
M  V30 1135 H 113.017 3.17984 -2.08966 0
M  V30 1136 H 112.529 1.89599 -3.38635 0
M  V30 1137 H 110.63 3.42985 -1.45575 0
M  V30 1138 H 110.743 3.43487 -3.33997 0
M  V30 1139 H 109.107 1.89219 -1.70494 0
M  V30 1140 H 109.89 1.18814 -3.22084 0
M  V30 1141 N 112.336 1.25143 0.95797 0
M  V30 1142 C 113.266 1.07711 2.07173 0
M  V30 1143 C 114.247 -0.0128462 1.70095 0
M  V30 1144 O 115.432 0.156061 1.93572 0
M  V30 1145 C 112.562 0.691503 3.40346 0
M  V30 1146 C 111.516 1.73132 3.9142 0
M  V30 1147 C 110.842 1.20049 5.21049 0
M  V30 1148 C 112.142 3.1294 4.1817 0
M  V30 1149 H 113.836 2.00873 2.22014 0
M  V30 1150 H 111.382 0.967191 1.06684 0
M  V30 1151 H 113.335 0.556505 4.17709 0
M  V30 1152 H 112.059 -0.275819 3.25433 0
M  V30 1153 H 110.718 1.8547 3.16222 0
M  V30 1154 H 110.366 0.223499 5.02503 0
M  V30 1155 H 110.066 1.89545 5.56189 0
M  V30 1156 H 111.59 1.07782 6.01012 0
M  V30 1157 H 113.004 3.03775 4.86203 0
M  V30 1158 H 111.401 3.79875 4.64559 0
M  V30 1159 H 112.471 3.6025 3.24573 0
M  V30 1160 N 113.814 -1.1601 1.06675 0
M  V30 1161 C 115.039 -1.91068 0.806706 0
M  V30 1162 C 115.464 -1.77112 -0.633485 0
M  V30 1163 O 114.822 -1.09908 -1.44187 0
M  V30 1164 C 114.87 -3.39655 1.21106 0
M  V30 1165 O 113.974 -4.10893 0.352189 0
M  V30 1166 H 113.315 -0.595125 0.294486 0
M  V30 1167 H 115.845 -1.46955 1.42356 0
M  V30 1168 H 115.855 -3.90434 1.18428 0
M  V30 1169 H 114.53 -3.49132 2.26008 0
M  V30 1170 H 113.107 -3.70285 0.440868 0
M  V30 1171 N 115.292 -0.849877 -1.32721 0
M  V30 1172 C 116.569 -0.372405 -1.92022 0
M  V30 1173 C 116.949 1.1435 -1.77447 0
M  V30 1174 O 116.297 1.96296 -1.16962 0
M  V30 1175 C 116.507 -0.831482 -3.3895 0
M  V30 1176 C 117.855 -0.845882 -4.16089 0
M  V30 1177 O 118.879 -0.775806 -3.47649 0
M  V30 1178 O 117.738 -0.943753 -5.38289 0
M  V30 1179 H 114.832 -0.107667 -0.819961 0
M  V30 1180 H 117.378 -0.93646 -1.41522 0
M  V30 1181 H 116.15 -1.87448 -3.4348 0
M  V30 1182 H 115.773 -0.24461 -3.96847 0
M  V30 1183 N 116.77 1.45427 -0.607355 0
M  V30 1184 C 118.181 1.85756 -0.187535 0
M  V30 1185 C 118.532 1.5077 1.25551 0
M  V30 1186 O 117.657 0.93427 1.95193 0
M  V30 1187 C 118.252 3.37154 -0.333572 0
M  V30 1188 C 116.811 3.76387 0.0315542 0
M  V30 1189 C 115.958 2.69377 -0.658117 0
M  V30 1190 H 118.909 1.36231 -0.81405 0
M  V30 1191 H 118.93 3.78014 0.43428 0
M  V30 1192 H 118.442 3.62586 -1.38393 0
M  V30 1193 H 116.543 3.56571 1.0811 0
M  V30 1194 H 116.656 4.77731 -0.361935 0
M  V30 1195 H 115.02 2.5452 -0.0957873 0
M  V30 1196 H 115.803 2.97646 -1.7106 0
M  V30 1197 N 118.248 0.346503 1.53744 0
M  V30 1198 C 119.476 -0.25041 2.05379 0
M  V30 1199 C 119.891 -1.43979 1.22129 0
M  V30 1200 O 119.248 -1.80677 0.257321 0
M  V30 1201 C 119.299 -0.662575 3.55376 0
M  V30 1202 O 119.02 0.479515 4.35468 0
M  V30 1203 C 120.521 -1.31989 4.23195 0
M  V30 1204 H 117.741 -0.0478198 0.669294 0
M  V30 1205 H 120.285 0.499346 1.9831 0
M  V30 1206 H 118.44 -1.36227 3.62658 0
M  V30 1207 H 118.854 0.15037 5.24284 0
M  V30 1208 H 120.328 -1.55902 5.29527 0
M  V30 1209 H 120.805 -2.27436 3.75725 0
M  V30 1210 H 121.411 -0.662154 4.20114 0
M  V30 1211 N 119.726 -1.57421 0.075193 0
M  V30 1212 C 120.956 -1.97659 -0.601203 0
M  V30 1213 C 121.364 -0.952427 -1.63479 0
M  V30 1214 O 120.707 0.0688241 -1.83571 0
M  V30 1215 C 120.769 -3.34218 -1.32434 0
M  V30 1216 C 120.433 -4.5484 -0.443826 0
M  V30 1217 C 121.43 -5.19034 0.299969 0
M  V30 1218 C 119.115 -5.00952 -0.367709 0
M  V30 1219 C 121.109 -6.27695 1.10807 0
M  V30 1220 C 118.796 -6.09484 0.444058 0
M  V30 1221 C 119.794 -6.72719 1.18061 0
M  V30 1222 O 119.482 -7.79161 1.97898 0
M  V30 1223 H 119.214 -0.65494 -0.167422 0
M  V30 1224 H 121.768 -2.04886 0.145157 0
M  V30 1225 H 119.998 -3.23615 -2.11685 0
M  V30 1226 H 121.687 -3.59038 -1.89331 0
M  V30 1227 H 122.453 -4.84351 0.250776 0
M  V30 1228 H 118.332 -4.51509 -0.930638 0
M  V30 1229 H 121.876 -6.76982 1.68347 0
M  V30 1230 H 117.773 -6.43601 0.494803 0
M  V30 1231 H 118.541 -7.96055 1.90367 0
M  V30 1232 N 121.204 0.198386 -1.56346 0
M  V30 1233 C 122.167 1.22952 -1.93431 0
M  V30 1234 C 123.167 1.38611 -0.815092 0
M  V30 1235 O 124.357 1.36479 -1.08255 0
M  V30 1236 C 121.489 2.59946 -2.20546 0
M  V30 1237 H 122.682 0.912626 -2.85677 0
M  V30 1238 H 120.235 0.43977 -1.49986 0
M  V30 1239 H 120.97 2.96696 -1.30927 0
M  V30 1240 H 120.755 2.49953 -3.02102 0
M  V30 1241 H 122.245 3.3431 -2.50253 0
M  V30 1242 N 122.682 1.50554 0.465978 0
M  V30 1243 C 123.91 1.65563 1.24083 0
M  V30 1244 C 124.325 0.341051 1.85694 0
M  V30 1245 O 123.682 -0.677543 1.69457 0
M  V30 1246 C 123.733 2.75051 2.34583 0
M  V30 1247 O 123.454 4.01413 1.75497 0
M  V30 1248 C 124.955 3.01078 3.25372 0
M  V30 1249 H 122.175 0.55638 0.375077 0
M  V30 1250 H 124.719 1.96807 0.555624 0
M  V30 1251 H 122.874 2.46486 2.9887 0
M  V30 1252 H 123.288 4.62002 2.48303 0
M  V30 1253 H 124.762 3.81339 3.99105 0
M  V30 1254 H 125.239 2.12349 3.84453 0
M  V30 1255 H 125.845 3.31194 2.66816 0
M  V30 1256 N 124.16 -0.719506 1.40217 0
M  V30 1257 C 125.406 -1.48152 1.38488 0
M  V30 1258 C 125.739 -1.94195 -0.0141867 0
M  V30 1259 O 125.014 -1.67884 -0.982096 0
M  V30 1260 C 125.297 -2.71035 2.37091 0
M  V30 1261 C 125.15 -2.30912 3.86005 0
M  V30 1262 C 126.469 -3.73182 2.33288 0
M  V30 1263 H 123.588 -0.537395 0.504357 0
M  V30 1264 H 126.23 -0.821472 1.71324 0
M  V30 1265 H 124.38 -3.27352 2.0922 0
M  V30 1266 H 126.052 -1.80107 4.24687 0
M  V30 1267 H 124.295 -1.62958 4.02029 0
M  V30 1268 H 124.966 -3.18978 4.50508 0
M  V30 1269 H 127.442 -3.26485 2.57966 0
M  V30 1270 H 126.318 -4.56806 3.04334 0
M  V30 1271 H 126.579 -4.21202 1.34317 0
M  V30 1272 N 125.638 -1.25649 -0.95132 0
M  V30 1273 C 126.585 -1.06323 -2.04851 0
M  V30 1274 C 127.555 0.0286491 -1.66075 0
M  V30 1275 O 128.74 -0.12917 -1.90362 0
M  V30 1276 C 125.88 -0.691529 -3.381 0
M  V30 1277 C 124.993 -1.85861 -3.89974 0
M  V30 1278 C 124.128 -1.43096 -5.11563 0
M  V30 1279 C 123.167 -2.56696 -5.55674 0
M  V30 1280 N 122.304 -2.14684 -6.68472 0
M  V30 1281 H 127.144 -2.00222 -2.20715 0
M  V30 1282 H 124.681 -0.997027 -1.08156 0
M  V30 1283 H 126.639 -0.456963 -4.1469 0
M  V30 1284 H 125.269 0.210474 -3.22113 0
M  V30 1285 H 124.321 -2.20639 -3.09875 0
M  V30 1286 H 125.633 -2.71161 -4.18657 0
M  V30 1287 H 124.787 -1.15624 -5.9558 0
M  V30 1288 H 123.526 -0.548722 -4.84603 0
M  V30 1289 H 122.531 -2.84909 -4.7022 0
M  V30 1290 H 123.756 -3.45503 -5.8464 0
M  V30 1291 H 121.702 -1.28881 -6.43215 0
M  V30 1292 H 121.619 -2.9353 -6.96689 0
M  V30 1293 H 122.887 -1.90397 -7.5589 0
M  V30 1294 N 127.117 1.15442 -1.07289 0
M  V30 1295 C 128.05 2.19135 -0.636798 0
M  V30 1296 C 129.028 1.58884 0.34562 0
M  V30 1297 O 130.212 1.86805 0.252195 0
M  V30 1298 C 127.339 3.38638 0.0650014 0
M  V30 1299 C 126.385 4.17412 -0.87576 0
M  V30 1300 S 127.218 4.79882 -2.37642 0
M  V30 1301 C 128.374 6.02753 -1.6864 0
M  V30 1302 H 128.607 2.55787 -1.51526 0
M  V30 1303 H 126.14 1.26394 -0.886793 0
M  V30 1304 H 128.098 4.07873 0.463664 0
M  V30 1305 H 126.759 3.00331 0.919801 0
M  V30 1306 H 125.952 5.02909 -0.33143 0
M  V30 1307 H 125.554 3.53722 -1.21478 0
M  V30 1308 H 127.846 6.70113 -0.997753 0
M  V30 1309 H 128.789 6.61754 -2.51967 0
M  V30 1310 H 129.197 5.52355 -1.16465 0
M  V30 1311 N 128.595 0.856903 1.32268 0
M  V30 1312 C 129.823 0.475439 2.01363 0
M  V30 1313 C 130.238 -0.928486 1.64392 0
M  V30 1314 O 129.595 -1.60624 0.866387 0
M  V30 1315 C 129.646 0.607545 3.56358 0
M  V30 1316 O 129.367 1.95617 3.92002 0
M  V30 1317 C 130.868 0.225382 4.42727 0
M  V30 1318 H 128.088 0.186636 0.644521 0
M  V30 1319 H 130.632 1.15446 1.68797 0
M  V30 1320 H 128.787 -0.0237719 3.87393 0
M  V30 1321 H 129.201 1.95455 4.86721 0
M  V30 1322 H 130.675 0.368813 5.50767 0
M  V30 1323 H 131.152 -0.834369 4.31202 0
M  V30 1324 H 131.758 0.831864 4.17085 0
M  V30 1325 N 130.073 -1.45103 0.615059 0
M  V30 1326 C 131.298 -2.07064 0.117988 0
M  V30 1327 C 131.723 -1.4554 -1.19163 0
M  V30 1328 O 131.081 -0.550855 -1.72729 0
M  V30 1329 C 131.129 -3.606 -0.000288387 0
M  V30 1330 O 130.233 -3.98847 -1.04856 0
M  V30 1331 H 129.574 -0.659467 0.0774581 0
M  V30 1332 H 132.104 -1.86236 0.847186 0
M  V30 1333 H 132.114 -4.07529 -0.196091 0
M  V30 1334 H 130.789 -4.04765 0.955932 0
M  V30 1335 H 129.366 -3.63577 -0.828619 0
M  V30 1336 N 131.551 -0.354651 -1.53558 0
M  V30 1337 C 132.962 0.126902 -1.86268 0
M  V30 1338 C 133.313 1.49075 -1.27558 0
M  V30 1339 O 132.438 2.08105 -0.5934 0
M  V30 1340 C 133.033 0.237046 -3.3797 0
M  V30 1341 C 131.592 0.662842 -3.70518 0
M  V30 1342 C 130.739 -0.196652 -2.76602 0
M  V30 1343 H 133.69 -0.573849 -1.47962 0
M  V30 1344 H 133.711 1.06259 -3.65362 0
M  V30 1345 H 133.223 -0.755725 -3.80671 0
M  V30 1346 H 131.324 1.66424 -3.33367 0
M  V30 1347 H 131.437 0.445034 -4.77029 0
M  V30 1348 H 129.801 0.332763 -2.52517 0
M  V30 1349 H 130.584 -1.18676 -3.22135 0
M  V30 1350 N 133.029 1.57378 -0.0835403 0
M  V30 1351 C 134.254 1.98682 0.594987 0
M  V30 1352 C 134.679 0.961969 1.61641 0
M  V30 1353 O 134.037 -0.0709989 1.81161 0
M  V30 1354 C 134.085 3.38988 1.2296 0
M  V30 1355 O 133.189 3.39208 2.34546 0
M  V30 1356 H 132.53 0.646368 0.152002 0
M  V30 1357 H 135.06 2.03961 -0.161533 0
M  V30 1358 H 135.07 3.76431 1.57366 0
M  V30 1359 H 133.745 4.13107 0.481228 0
M  V30 1360 H 132.322 3.13548 2.01846 0
M  V30 1361 N 134.507 -0.190092 1.56449 0
M  V30 1362 C 135.918 -0.754312 1.70784 0
M  V30 1363 C 136.269 -1.83631 0.690951 0
M  V30 1364 O 135.394 -2.15868 -0.151604 0
M  V30 1365 C 135.989 -1.37503 3.09642 0
M  V30 1366 C 134.548 -1.88628 3.25725 0
M  V30 1367 C 133.695 -0.758098 2.66736 0
M  V30 1368 H 136.646 0.0350524 1.58661 0
M  V30 1369 H 136.667 -2.2445 3.0725 0
M  V30 1370 H 136.179 -0.587302 3.83631 0
M  V30 1371 H 134.28 -2.70103 2.56661 0
M  V30 1372 H 134.393 -2.04462 4.3328 0
M  V30 1373 H 132.757 -1.17369 2.26046 0
M  V30 1374 H 133.54 0.0174705 3.43296 0
M  V30 1375 N 135.985 -1.50799 -0.457987 0
M  V30 1376 C 137.21 -1.66496 -1.23668 0
M  V30 1377 C 137.635 -0.353288 -1.84752 0
M  V30 1378 O 136.993 0.684346 -1.67888 0
M  V30 1379 C 137.041 -2.76763 -2.3116 0
M  V30 1380 O 136.145 -2.38928 -3.36136 0
M  V30 1381 H 135.486 -0.555828 -0.363252 0
M  V30 1382 H 138.016 -1.9725 -0.543474 0
M  V30 1383 H 138.026 -3.00232 -2.76269 0
M  V30 1384 H 136.701 -3.71954 -1.86073 0
M  V30 1385 H 135.278 -2.25953 -2.96647 0
M  V30 1386 N 137.463 0.71206 -1.40597 0
M  V30 1387 C 138.709 1.47416 -1.39271 0
M  V30 1388 C 139.042 1.942 0.00388791 0
M  V30 1389 O 138.317 1.68403 0.973179 0
M  V30 1390 C 138.6 2.69774 -2.38525 0
M  V30 1391 C 138.453 2.28861 -3.87224 0
M  V30 1392 C 139.772 3.71939 -2.35264 0
M  V30 1393 H 136.891 0.534713 -0.5072 0
M  V30 1394 H 139.533 0.812375 -1.71757 0
M  V30 1395 H 137.683 3.26238 -2.10953 0
M  V30 1396 H 139.355 1.77852 -4.25636 0
M  V30 1397 H 137.598 1.60824 -4.02887 0
M  V30 1398 H 138.269 3.16584 -4.52193 0
M  V30 1399 H 140.745 3.25113 -2.59694 0
M  V30 1400 H 139.621 4.55186 -3.06753 0
M  V30 1401 H 139.882 4.20484 -1.36549 0
M  V30 1402 N 138.941 1.26152 0.944643 0
M  V30 1403 C 140.218 1.02247 1.66748 0
M  V30 1404 C 140.598 -0.448202 2.06287 0
M  V30 1405 O 139.946 -1.42779 1.78399 0
M  V30 1406 C 140.156 1.96788 2.88228 0
M  V30 1407 C 141.504 2.25201 3.59958 0
M  V30 1408 O 142.528 1.94626 2.98327 0
M  V30 1409 O 141.387 2.77242 4.70956 0
M  V30 1410 H 138.481 0.388517 0.730057 0
M  V30 1411 H 141.027 1.37348 0.99668 0
M  V30 1412 H 139.799 2.96047 2.55875 0
M  V30 1413 H 139.422 1.62145 3.63035 0
M  V30 1414 N 140.419 -1.14872 1.07899 0
M  V30 1415 C 141.382 -2.17986 0.708161 0
M  V30 1416 C 142.382 -1.58775 -0.25442 0
M  V30 1417 O 143.572 -1.74166 -0.034645 0
M  V30 1418 C 140.704 -3.40871 0.0446929 0
M  V30 1419 H 141.897 -2.52306 1.62116 0
M  V30 1420 H 139.45 -1.2943 0.876218 0
M  V30 1421 H 140.185 -3.12124 -0.880281 0
M  V30 1422 H 139.97 -3.8511 0.737091 0
M  V30 1423 H 141.46 -4.17121 -0.19991 0
M  V30 1424 N 141.898 -0.863906 -1.31812 0
M  V30 1425 C 143.175 -0.39275 -1.91616 0
M  V30 1426 C 143.555 1.12461 -1.7865 0
M  V30 1427 O 142.903 1.95045 -1.19037 0
M  V30 1428 C 143.113 -0.867385 -3.38049 0
M  V30 1429 C 144.461 -0.889966 -4.15168 0
M  V30 1430 O 145.485 -0.812635 -3.46806 0
M  V30 1431 O 144.344 -1.00079 -5.37258 0
M  V30 1432 H 141.438 -0.116358 -0.818773 0
M  V30 1433 H 143.984 -0.951418 -1.40521 0
M  V30 1434 H 142.756 -1.91081 -3.41473 0
M  V30 1435 H 142.379 -0.286687 -3.96565 0
M  V30 1436 N 143.376 1.44774 -0.622745 0
M  V30 1437 C 144.323 2.30635 0.0871679 0
M  V30 1438 C 145.293 1.42994 0.845097 0
M  V30 1439 O 146.478 1.71907 0.827812 0
M  V30 1440 C 143.618 3.28144 1.06844 0
M  V30 1441 C 142.731 4.30888 0.309809 0
M  V30 1442 C 141.866 5.15494 1.28215 0
M  V30 1443 C 140.905 6.09953 0.512198 0
M  V30 1444 N 140.042 6.87287 1.43458 0
M  V30 1445 H 144.882 2.90803 -0.650974 0
M  V30 1446 H 142.419 1.43286 -0.33281 0
M  V30 1447 H 144.377 3.83157 1.65066 0
M  V30 1448 H 143.007 2.69695 1.77382 0
M  V30 1449 H 142.059 3.78414 -0.388181 0
M  V30 1450 H 143.371 4.97955 -0.290254 0
M  V30 1451 H 142.525 5.74983 1.93596 0
M  V30 1452 H 141.264 4.48481 1.91614 0
M  V30 1453 H 140.269 5.49581 -0.155151 0
M  V30 1454 H 141.494 6.78999 -0.116958 0
M  V30 1455 H 139.44 6.2295 2.05594 0
M  V30 1456 H 139.357 7.50763 0.888335 0
M  V30 1457 H 140.625 7.51306 2.07749 0
M  V30 1458 N 144.854 0.36279 1.53368 0
M  V30 1459 C 146.1 -0.228113 2.01513 0
M  V30 1460 C 146.433 -1.48648 1.2497 0
M  V30 1461 O 145.708 -1.91459 0.342616 0
M  V30 1462 C 145.991 -0.522884 3.56284 0
M  V30 1463 C 145.844 0.74892 4.43521 0
M  V30 1464 C 147.163 -1.32461 4.19693 0
M  V30 1465 H 144.282 -0.0814343 0.732487 0
M  V30 1466 H 146.924 0.48713 1.83649 0
M  V30 1467 H 145.074 -1.1322 3.71636 0
M  V30 1468 H 146.746 1.38648 4.39971 0
M  V30 1469 H 144.989 1.36986 4.11603 0
M  V30 1470 H 145.66 0.497667 5.49752 0
M  V30 1471 H 148.136 -0.809203 4.08156 0
M  V30 1472 H 147.012 -1.49961 5.28018 0
M  V30 1473 H 147.273 -2.33232 3.75573 0
M  V30 1474 N 146.332 -1.57332 0.0918853 0
M  V30 1475 C 147.557 -1.98995 -0.584442 0
M  V30 1476 C 147.982 -0.970528 -1.61128 0
M  V30 1477 O 147.34 0.0613904 -1.81196 0
M  V30 1478 C 147.388 -3.39636 -1.21161 0
M  V30 1479 O 146.492 -3.40447 -2.32744 0
M  V30 1480 H 145.833 -0.647165 -0.148572 0
M  V30 1481 H 148.363 -2.03873 0.172347 0
M  V30 1482 H 148.373 -3.7726 -1.55367 0
M  V30 1483 H 147.048 -4.13356 -0.459313 0
M  V30 1484 H 145.625 -3.14614 -2.0018 0
M  V30 1485 N 147.81 0.181792 -1.56548 0
M  V30 1486 C 149.056 0.901431 -1.81665 0
M  V30 1487 C 149.389 1.82347 -0.668075 0
M  V30 1488 O 148.664 1.91669 0.330615 0
M  V30 1489 C 148.947 1.70618 -3.17115 0
M  V30 1490 C 148.8 0.807964 -4.42484 0
M  V30 1491 C 150.119 2.67605 -3.49393 0
M  V30 1492 H 147.238 0.32627 -0.660846 0
M  V30 1493 H 149.88 0.168134 -1.89255 0
M  V30 1494 H 148.03 2.33133 -3.10775 0
M  V30 1495 H 149.702 0.19649 -4.60881 0
M  V30 1496 H 147.945 0.115411 -4.33646 0
M  V30 1497 H 148.616 1.40632 -5.33785 0
M  V30 1498 H 151.092 2.15218 -3.56118 0
M  V30 1499 H 149.968 3.20985 -4.45264 0
M  V30 1500 H 150.229 3.47298 -2.73563 0
M  V30 1501 N 149.288 1.51039 0.449983 0
M  V30 1502 C 150.516 1.66869 1.2232 0
M  V30 1503 C 150.931 0.360727 1.85322 0
M  V30 1504 O 150.288 -0.659531 1.70166 0
M  V30 1505 C 150.339 2.77524 2.31652 0
M  V30 1506 O 150.06 4.03252 1.7123 0
M  V30 1507 C 151.561 3.04512 3.2216 0
M  V30 1508 H 148.781 0.560326 0.369155 0
M  V30 1509 H 151.325 1.97385 0.534719 0
M  V30 1510 H 149.48 2.49642 2.96239 0
M  V30 1511 H 149.894 4.64609 2.43389 0
M  V30 1512 H 151.368 3.85551 3.95038 0
M  V30 1513 H 151.845 2.16415 3.8218 0
M  V30 1514 H 152.451 3.34005 2.63288 0
M  V30 1515 N 150.766 -0.704594 1.40972 0
M  V30 1516 C 151.996 -1.49138 1.42974 0
M  V30 1517 C 152.404 -1.89175 0.0308406 0
M  V30 1518 O 151.747 -1.56734 -0.958138 0
M  V30 1519 C 151.809 -2.79016 2.26694 0
M  V30 1520 C 151.473 -2.61236 3.74973 0
M  V30 1521 C 152.47 -2.27773 4.67349 0
M  V30 1522 C 150.155 -2.77158 4.18914 0
M  V30 1523 C 152.149 -2.10457 6.01653 0
M  V30 1524 C 149.836 -2.59459 5.53285 0
M  V30 1525 C 150.834 -2.26158 6.4447 0
M  V30 1526 O 150.522 -2.08605 7.76363 0
M  V30 1527 H 150.254 -0.466443 0.489292 0
M  V30 1528 H 152.808 -0.8758 1.85793 0
M  V30 1529 H 151.038 -3.42947 1.78673 0
M  V30 1530 H 152.727 -3.40782 2.20504 0
M  V30 1531 H 153.493 -2.15095 4.34694 0
M  V30 1532 H 149.372 -3.02064 3.48251 0
M  V30 1533 H 152.916 -1.84387 6.72791 0
M  V30 1534 H 148.813 -2.71725 5.85522 0
M  V30 1535 H 149.581 -2.23439 7.87412 0
M  V30 1536 N 152.244 -1.26651 -0.937939 0
M  V30 1537 C 153.474 -1.15006 -1.71631 0
M  V30 1538 C 153.882 0.297026 -1.86854 0
M  V30 1539 O 153.225 1.21493 -1.37786 0
M  V30 1540 C 153.287 -1.74984 -3.14039 0
M  V30 1541 C 152.951 -3.24103 -3.2219 0
M  V30 1542 C 153.948 -4.20877 -3.05219 0
M  V30 1543 C 151.633 -3.64625 -3.45476 0
M  V30 1544 C 153.627 -5.56151 -3.11408 0
M  V30 1545 C 151.314 -5.00032 -3.513 0
M  V30 1546 C 152.312 -5.95604 -3.34282 0
M  V30 1547 O 152 -7.28545 -3.3982 0
M  V30 1548 H 151.732 -0.401183 -0.544085 0
M  V30 1549 H 154.286 -1.67832 -1.18413 0
M  V30 1550 H 152.516 -1.16624 -3.68695 0
M  V30 1551 H 154.205 -1.58199 -3.73802 0
M  V30 1552 H 154.971 -3.90908 -2.87081 0
M  V30 1553 H 150.85 -2.90718 -3.57777 0
M  V30 1554 H 154.394 -6.30727 -2.98043 0
M  V30 1555 H 150.291 -5.29659 -3.68959 0
M  V30 1556 H 151.059 -7.3686 -3.56343 0
M  V30 1557 N 153.722 1.14298 -1.08507 0
M  V30 1558 C 154.97 1.84993 -0.813763 0
M  V30 1559 C 155.291 1.83405 0.662393 0
M  V30 1560 O 154.561 1.28319 1.48024 0
M  V30 1561 H 153.141 0.684966 -0.298045 0
M  V30 1562 H 155.803 1.385 -1.37126 0
M  V30 1563 H 154.899 2.89788 -1.15884 0
M  V30 1564 N 155.201 0.870884 1.31352 0
M  V30 1565 C 156.612 0.534714 1.78879 0
M  V30 1566 C 156.963 -0.948423 1.71754 0
M  V30 1567 O 156.088 -1.74055 1.28584 0
M  V30 1568 C 156.683 0.963839 3.24801 0
M  V30 1569 C 155.242 0.679311 3.70219 0
M  V30 1570 C 154.389 1.15465 2.52117 0
M  V30 1571 H 157.34 1.05651 1.18421 0
M  V30 1572 H 157.361 0.286892 3.79417 0
M  V30 1573 H 156.873 2.04332 3.29955 0
M  V30 1574 H 154.974 -0.388769 3.70566 0
M  V30 1575 H 155.087 1.25698 4.62317 0
M  V30 1576 H 153.451 0.574383 2.48139 0
M  V30 1577 H 154.234 2.24157 2.60016 0
M  V30 1578 N 156.679 -1.44442 0.630414 0
M  V30 1579 C 157.627 -2.32437 -0.0871428 0
M  V30 1580 C 158.621 -1.47304 -0.836525 0
M  V30 1581 O 159.827 -1.63653 -0.749506 0
M  V30 1582 H 156.202 -0.750533 -0.0469495 0
M  V30 1583 H 158.173 -2.90709 0.673096 0
M  V30 1584 C 156.922 -3.31288 -1.05563 0
M  V30 1585 H 156.245 -3.96805 -0.488426 0
M  V30 1586 H 157.685 -3.9554 -1.52721 0
M  V30 1587 C 156.144 -2.6016 -2.14052 0
M  V30 1588 O 156.674 -2.39997 -3.22124 0
M  V30 1589 N 154.88 -2.19911 -1.89967 0
M  V30 1590 H 154.427 -2.36509 -1.02085 0
M  V30 1591 H 154.385 -1.72646 -2.62756 0
M  V30 1592 N 158.157 -0.370918 -1.53173 0
M  V30 1593 C 159.067 0.480823 -2.2962 0
M  V30 1594 C 160.083 1.08789 -1.35798 0
M  V30 1595 O 161.259 1.09768 -1.68858 0
M  V30 1596 C 158.324 1.60227 -3.07454 0
M  V30 1597 C 157.385 1.0222 -4.16953 0
M  V30 1598 C 156.618 2.0902 -4.91066 0
M  V30 1599 O 156.841 3.30222 -4.65091 0
M  V30 1600 O 155.775 1.71778 -5.76867 0
M  V30 1601 H 159.601 -0.141421 -3.03371 0
M  V30 1602 H 157.186 -0.135146 -1.48787 0
M  V30 1603 H 159.068 2.25417 -3.56041 0
M  V30 1604 H 157.743 2.20982 -2.36535 0
M  V30 1605 H 156.65 0.334064 -3.72605 0
M  V30 1606 H 157.983 0.459131 -4.90054 0
M  V30 1607 N 159.635 1.57281 -0.100228 0
M  V30 1608 C 160.912 1.86014 0.604812 0
M  V30 1609 C 161.292 0.998025 1.86018 0
M  V30 1610 O 160.64 0.0718184 2.28387 0
M  V30 1611 C 160.85 3.36784 0.915278 0
M  V30 1612 C 162.198 4.04957 1.27651 0
M  V30 1613 O 163.222 3.41695 1.00613 0
M  V30 1614 O 162.081 5.16593 1.7831 0
M  V30 1615 H 159.175 0.76942 0.303185 0
M  V30 1616 H 161.721 1.69176 -0.133313 0
M  V30 1617 H 160.493 3.91292 0.0248896 0
M  V30 1618 H 160.116 3.58987 1.70921 0
M  V30 1619 N 161.113 -0.173488 1.56642 0
M  V30 1620 C 162.076 -1.19859 1.95362 0
M  V30 1621 C 163.076 -1.37296 0.83704 0
M  V30 1622 O 164.266 -1.34739 1.10413 0
M  V30 1623 C 161.398 -2.56405 2.24654 0
M  V30 1624 H 162.591 -0.867062 2.87092 0
M  V30 1625 H 160.144 -0.415853 1.50666 0
M  V30 1626 H 160.879 -2.94576 1.35631 0
M  V30 1627 H 160.664 -2.45115 3.06041 0
M  V30 1628 H 162.154 -3.30287 2.5554 0
M  V30 1629 N 162.591 -1.51276 -0.441967 0
M  V30 1630 C 164.002 -1.56244 -1.02199 0
M  V30 1631 C 164.353 -0.383149 -1.92422 0
M  V30 1632 O 163.478 0.500613 -2.1053 0
M  V30 1633 C 164.073 -2.83162 -1.86024 0
M  V30 1634 C 162.632 -2.90716 -2.39084 0
M  V30 1635 C 161.779 -2.50858 -1.18175 0
M  V30 1636 H 164.73 -1.5712 -0.223416 0
M  V30 1637 H 164.751 -2.66663 -2.71425 0
M  V30 1638 H 164.263 -3.68974 -1.20331 0
M  V30 1639 H 162.364 -2.09323 -3.08244 0
M  V30 1640 H 162.477 -3.94266 -2.72198 0
M  V30 1641 H 160.841 -2.03951 -1.52565 0
M  V30 1642 H 161.624 -3.3901 -0.541001 0
M  V30 1643 N 164.069 0.697108 -1.41344 0
M  V30 1644 C 165.315 1.4593 -1.40827 0
M  V30 1645 C 165.648 1.94193 -0.0167098 0
M  V30 1646 O 164.923 1.69425 0.955263 0
M  V30 1647 C 165.206 2.67229 -2.41373 0
M  V30 1648 C 165.059 2.24741 -3.8963 0
M  V30 1649 C 166.378 3.69423 -2.39196 0
M  V30 1650 H 163.497 0.529303 -0.512842 0
M  V30 1651 H 166.139 0.794112 -1.72609 0
M  V30 1652 H 164.289 3.23982 -2.14401 0
M  V30 1653 H 165.961 1.73327 -4.27499 0
M  V30 1654 H 164.204 1.56542 -4.0457 0
M  V30 1655 H 164.875 3.1177 -4.55525 0
M  V30 1656 H 167.351 3.2234 -2.63128 0
M  V30 1657 H 166.227 4.51907 -3.11563 0
M  V30 1658 H 166.488 4.19012 -1.41001 0
M  V30 1659 N 165.547 1.27147 0.931209 0
M  V30 1660 C 166.795 1.13055 1.6752 0
M  V30 1661 C 167.116 -0.324791 1.92276 0
M  V30 1662 O 166.386 -1.22775 1.52654 0
M  V30 1663 H 164.966 0.415391 0.620854 0
M  V30 1664 H 167.628 1.59623 1.11833 0
M  V30 1665 H 166.724 1.65694 2.64485 0
M  V30 1666 N 167.025 -1.13721 1.09112 0
M  V30 1667 C 168.253 -1.88773 0.846899 0
M  V30 1668 C 168.668 -1.7896 -0.601572 0
M  V30 1669 O 168.025 -1.15394 -1.41388 0
M  V30 1670 C 168.076 -3.3849 1.26913 0
M  V30 1671 O 167.797 -3.48043 2.66079 0
M  V30 1672 C 169.298 -4.30518 1.05682 0
M  V30 1673 H 166.518 -0.59772 0.304914 0
M  V30 1674 H 169.062 -1.43977 1.45227 0
M  V30 1675 H 167.217 -3.80881 0.707723 0
M  V30 1676 H 167.631 -4.4109 2.83795 0
M  V30 1677 H 169.105 -5.3391 1.40156 0
M  V30 1678 H 169.582 -4.392 -0.00563416 0
M  V30 1679 H 170.188 -3.93893 1.60402 0
M  V30 1680 N 168.503 -0.877838 -1.30888 0
M  V30 1681 C 169.466 -0.344265 -2.266 0
M  V30 1682 C 170.466 0.50922 -1.52524 0
M  V30 1683 O 171.656 0.317398 -1.71284 0
M  V30 1684 C 168.788 0.510198 -3.37061 0
M  V30 1685 H 169.981 -1.1893 -2.7531 0
M  V30 1686 H 167.534 -0.654088 -1.41956 0
M  V30 1687 H 168.269 1.37612 -2.93655 0
M  V30 1688 H 168.054 -0.101047 -3.9197 0
M  V30 1689 H 169.544 0.875537 -4.08319 0
M  V30 1690 N 169.982 1.44106 -0.638065 0
M  V30 1691 C 171.228 2.02277 -0.145546 0
M  V30 1692 C 171.561 1.50125 1.23191 0
M  V30 1693 O 170.836 0.688133 1.8192 0
M  V30 1694 C 171.119 3.59829 -0.139791 0
M  V30 1695 C 170.972 4.22247 -1.55008 0
M  V30 1696 C 172.291 4.36873 0.531966 0
M  V30 1697 H 169.41 0.734992 -0.0543632 0
M  V30 1698 H 172.052 1.71592 -0.815863 0
M  V30 1699 H 170.202 3.86102 0.431007 0
M  V30 1700 H 171.874 4.07057 -2.1703 0
M  V30 1701 H 170.117 3.79476 -2.10191 0
M  V30 1702 H 170.788 5.31284 -1.49804 0
M  V30 1703 H 173.264 4.16074 0.0464781 0
M  V30 1704 H 172.14 5.4657 0.505206 0
M  V30 1705 H 172.401 4.11995 1.60352 0
M  V30 1706 N 171.46 0.379036 1.52974 0
M  V30 1707 C 172.39 -0.452706 2.29069 0
M  V30 1708 C 173.371 -1.07237 1.32039 0
M  V30 1709 O 174.556 -1.08708 1.60923 0
M  V30 1710 C 171.686 -1.5856 3.08992 0
M  V30 1711 C 170.64 -1.0925 4.13822 0
M  V30 1712 C 169.966 -2.31668 4.81907 0
M  V30 1713 C 171.266 -0.167702 5.22031 0
M  V30 1714 H 172.96 0.182181 2.98845 0
M  V30 1715 H 170.506 0.0890592 1.43724 0
M  V30 1716 H 172.459 -2.1742 3.6098 0
M  V30 1717 H 171.183 -2.24792 2.36931 0
M  V30 1718 H 169.842 -0.526494 3.628 0
M  V30 1719 H 169.49 -2.96386 4.06404 0
M  V30 1720 H 169.19 -1.9934 5.52754 0
M  V30 1721 H 170.714 -2.91189 5.36695 0
M  V30 1722 H 172.128 -0.664186 5.6944 0
M  V30 1723 H 170.525 0.0653265 6.00064 0
M  V30 1724 H 171.595 0.786347 4.78482 0
M  V30 1725 N 172.938 -1.57226 0.108567 0
M  V30 1726 C 174.168 -1.9889 -0.559142 0
M  V30 1727 C 174.576 -0.986889 -1.61422 0
M  V30 1728 O 173.919 0.0298705 -1.83676 0
M  V30 1729 C 173.981 -3.36952 -1.25315 0
M  V30 1730 C 173.645 -4.55679 -0.347248 0
M  V30 1731 C 174.642 -5.18281 0.409996 0
M  V30 1732 C 172.327 -5.0162 -0.261367 0
M  V30 1733 C 174.321 -6.25203 1.24096 0
M  V30 1734 C 172.008 -6.08405 0.573238 0
M  V30 1735 C 173.006 -6.70063 1.32304 0
M  V30 1736 O 172.694 -7.74788 2.14381 0
M  V30 1737 H 172.426 -0.658343 -0.153492 0
M  V30 1738 H 174.98 -2.04532 0.188584 0
M  V30 1739 H 173.21 -3.28032 -2.04773 0
M  V30 1740 H 174.899 -3.62974 -1.81673 0
M  V30 1741 H 175.665 -4.8371 0.353457 0
M  V30 1742 H 171.544 -4.53381 -0.834656 0
M  V30 1743 H 175.088 -6.73259 1.82669 0
M  V30 1744 H 170.985 -6.42406 0.631208 0
M  V30 1745 H 171.753 -7.91837 2.07209 0
M  V30 1746 N 174.416 0.165178 -1.56732 0
M  V30 1747 C 175.346 1.20651 -1.99914 0
M  V30 1748 C 176.327 1.45827 -0.875705 0
M  V30 1749 O 177.512 1.57057 -1.14223 0
M  V30 1750 C 174.642 2.54401 -2.36427 0
M  V30 1751 C 173.596 2.43782 -3.51787 0
M  V30 1752 C 172.922 3.82078 -3.7406 0
M  V30 1753 C 174.222 1.93732 -4.85041 0
M  V30 1754 H 175.916 0.847534 -2.87154 0
M  V30 1755 H 173.462 0.40625 -1.38151 0
M  V30 1756 H 175.415 3.27458 -2.65234 0
M  V30 1757 H 174.139 2.92098 -1.46103 0
M  V30 1758 H 172.798 1.73178 -3.23117 0
M  V30 1759 H 172.446 4.17179 -2.81017 0
M  V30 1760 H 172.146 3.7584 -4.51684 0
M  V30 1761 H 173.67 4.56712 -4.05274 0
M  V30 1762 H 175.084 2.56569 -5.12684 0
M  V30 1763 H 173.481 1.98428 -5.66345 0
M  V30 1764 H 174.551 0.891962 -4.76626 0
M  V30 1765 N 175.894 1.51508 0.433938 0
M  V30 1766 C 177.122 1.68157 1.20543 0
M  V30 1767 C 177.537 0.380362 1.84929 0
M  V30 1768 O 176.894 -0.641446 1.70856 0
M  V30 1769 C 176.945 2.79965 2.28696 0
M  V30 1770 O 176.666 4.05045 1.66943 0
M  V30 1771 C 178.167 3.07912 3.18912 0
M  V30 1772 H 175.387 0.56421 0.363191 0
M  V30 1773 H 177.931 1.97941 0.513754 0
M  V30 1774 H 176.086 2.5277 2.93574 0
M  V30 1775 H 176.5 4.67165 2.38448 0
M  V30 1776 H 177.974 3.89719 3.90926 0
M  V30 1777 H 178.451 2.20456 3.79863 0
M  V30 1778 H 179.057 3.36779 2.59731 0
M  V30 1779 N 177.372 -0.689602 1.41712 0
M  V30 1780 C 178.62 -1.4468 1.4111 0
M  V30 1781 C 178.941 -1.94986 0.0232196 0
M  V30 1782 O 178.211 -1.72097 -0.935913 0
M  V30 1783 H 176.791 -0.536847 0.519427 0
M  V30 1784 H 179.453 -0.815825 1.77004 0
M  V30 1785 H 178.549 -2.30706 2.10193 0
M  V30 1786 N 178.85 -1.27639 -0.924453 0
M  V30 1787 C 180.099 -1.13549 -1.66702 0
M  V30 1788 C 180.412 0.317487 -1.93006 0
M  V30 1789 O 181.618 0.579333 -2.65247 0
M  V30 1790 C 180.074 -1.98426 -3.00259 0
M  V30 1791 C 179.682 -3.484 -2.81641 0
M  V30 1792 C 181.426 -1.92993 -3.78092 0
M  V30 1793 C 179.333 -4.25464 -4.10773 0
M  V30 1794 H 178.263 -0.421351 -0.625283 0
M  V30 1795 H 180.914 -1.52085 -1.02676 0
M  V30 1796 H 179.296 -1.52736 -3.6536 0
M  V30 1797 H 180.47 -4.01973 -2.25287 0
M  V30 1798 H 178.785 -3.55245 -2.17232 0
M  V30 1799 H 181.382 -2.47844 -4.7379 0
M  V30 1800 H 181.725 -0.904281 -4.0636 0
M  V30 1801 H 182.258 -2.36595 -3.19793 0
M  V30 1802 H 178.997 -5.28566 -3.87683 0
M  V30 1803 H 178.517 -3.76667 -4.66779 0
M  V30 1804 H 180.196 -4.34812 -4.79111 0
M  V30 1805 N 180.328 1.1314 -1.09713 0
M  V30 1806 C 181.238 2.22242 -0.751367 0
M  V30 1807 C 182.254 1.72224 0.247938 0
M  V30 1808 O 183.43 2.01205 0.0885463 0
M  V30 1809 C 180.495 3.46231 -0.180274 0
M  V30 1810 C 179.556 4.11125 -1.2359 0
M  V30 1811 C 178.789 5.29195 -0.691966 0
M  V30 1812 O 179.012 5.68342 0.48414 0
M  V30 1813 O 177.946 5.84214 -1.44838 0
M  V30 1814 H 181.772 2.54197 -1.66186 0
M  V30 1815 H 179.357 1.21331 -0.871735 0
M  V30 1816 H 181.239 4.21185 0.134739 0
M  V30 1817 H 179.914 3.1597 0.703185 0
M  V30 1818 H 178.821 3.37985 -1.60366 0
M  V30 1819 H 180.154 4.45524 -2.09211 0
M  V30 1820 N 181.806 0.884767 1.30421 0
M  V30 1821 C 183.052 0.503851 1.96441 0
M  V30 1822 C 183.385 -0.944518 1.69684 0
M  V30 1823 O 182.66 -1.66737 1.00145 0
M  V30 1824 C 182.943 0.779085 3.51571 0
M  V30 1825 C 182.796 2.27807 3.87846 0
M  V30 1826 C 184.115 0.255452 4.39358 0
M  V30 1827 H 181.234 0.184533 0.713524 0
M  V30 1828 H 183.876 1.10872 1.54297 0
M  V30 1829 H 182.026 0.264274 3.876 0
M  V30 1830 H 183.698 2.86127 3.61841 0
M  V30 1831 H 181.941 2.74479 3.35922 0
M  V30 1832 H 182.612 2.42125 4.96064 0
M  V30 1833 H 185.088 0.696079 4.10236 0
M  V30 1834 H 183.964 0.477361 5.4682 0
M  V30 1835 H 184.225 -0.843293 4.33983 0
M  V30 1836 N 183.284 -1.43765 0.645699 0
M  V30 1837 C 184.509 -2.06767 0.161883 0
M  V30 1838 C 184.934 -1.48034 -1.16049 0
M  V30 1839 O 184.292 -0.587369 -1.71522 0
M  V30 1840 C 184.34 -3.60519 0.0762003 0
M  V30 1841 O 183.444 -4.00982 -0.963721 0
M  V30 1842 H 182.785 -0.657675 0.091429 0
M  V30 1843 H 185.315 -1.84397 0.886499 0
M  V30 1844 H 185.325 -4.07853 -0.109604 0
M  V30 1845 H 184 -4.02646 1.04157 0
M  V30 1846 H 182.577 -3.65253 -0.751312 0
M  V30 1847 N 184.763 -0.387143 -1.52771 0
M  V30 1848 C 185.693 0.440551 -2.29306 0
M  V30 1849 C 186.674 1.06535 -1.32606 0
M  V30 1850 O 187.859 1.07853 -1.61497 0
M  V30 1851 C 184.989 1.56919 -3.09829 0
M  V30 1852 C 183.943 1.07054 -4.14395 0
M  V30 1853 C 183.269 2.29109 -4.83129 0
M  V30 1854 C 184.569 0.140015 -5.22112 0
M  V30 1855 H 186.263 -0.198026 -2.98744 0
M  V30 1856 H 183.809 -0.09668 -1.43675 0
M  V30 1857 H 185.762 2.15503 -3.62128 0
M  V30 1858 H 184.486 2.23532 -2.3812 0
M  V30 1859 H 183.145 0.507247 -3.63074 0
M  V30 1860 H 182.793 2.94227 -4.0797 0
M  V30 1861 H 182.493 1.96406 -5.53804 0
M  V30 1862 H 184.017 2.88339 -5.38231 0
M  V30 1863 H 185.431 0.633978 -5.69784 0
M  V30 1864 H 183.828 -0.0971485 -6.00021 0
M  V30 1865 H 184.898 -0.811711 -4.78058 0
M  V30 1866 N 186.241 1.57166 -0.116904 0
M  V30 1867 C 187.151 2.18745 0.847812 0
M  V30 1868 C 188.167 1.163 1.29423 0
M  V30 1869 O 189.343 1.48761 1.35765 0
M  V30 1870 C 186.408 2.77307 2.0809 0
M  V30 1871 C 185.469 3.94781 1.68661 0
M  V30 1872 C 184.702 4.50541 2.86091 0
M  V30 1873 O 184.925 4.05202 4.01456 0
M  V30 1874 O 183.859 5.41256 2.63298 0
M  V30 1875 H 187.685 3.01632 0.353778 0
M  V30 1876 H 185.27 1.49005 0.108599 0
M  V30 1877 H 187.152 3.14647 2.80313 0
M  V30 1878 H 185.827 1.97452 2.56504 0
M  V30 1879 H 184.734 3.62214 0.935518 0
M  V30 1880 H 186.067 4.76065 1.24991 0
M  V30 1881 N 187.719 -0.156864 1.56817 0
M  V30 1882 C 188.965 -0.872416 1.83076 0
M  V30 1883 C 189.298 -1.81261 0.697001 0
M  V30 1884 O 188.573 -1.92171 -0.30008 0
M  V30 1885 C 188.856 -1.65551 3.19789 0
M  V30 1886 C 188.709 -0.737467 4.43713 0
M  V30 1887 C 190.028 -2.62012 3.53606 0
M  V30 1888 H 187.147 -0.315715 0.665953 0
M  V30 1889 H 189.789 -0.138004 1.89498 0
M  V30 1890 H 187.939 -2.28159 3.14445 0
M  V30 1891 H 189.611 -0.123143 4.61136 0
M  V30 1892 H 187.854 -0.0464067 4.33775 0
M  V30 1893 H 188.525 -1.32122 5.35955 0
M  V30 1894 H 191.001 -2.09525 3.59497 0
M  V30 1895 H 189.877 -3.13861 4.50314 0
M  V30 1896 H 190.138 -3.42902 2.79053 0
M  V30 1897 N 189.197 -1.51736 -0.425897 0
M  V30 1898 C 190.474 -1.55519 -1.1863 0
M  V30 1899 C 190.854 -0.326219 -2.08564 0
M  V30 1900 O 190.202 0.688012 -2.17896 0
M  V30 1901 C 190.412 -2.87521 -1.9782 0
M  V30 1902 C 191.76 -3.39899 -2.54468 0
M  V30 1903 O 192.784 -2.89148 -2.08019 0
M  V30 1904 O 191.643 -4.2848 -3.39215 0
M  V30 1905 H 188.737 -0.625739 -0.540721 0
M  V30 1906 H 191.283 -1.64055 -0.434038 0
M  V30 1907 H 190.055 -3.68422 -1.31836 0
M  V30 1908 H 189.678 -2.822 -2.80088 0
M  V30 1909 N 190.675 0.682077 -1.42076 0
M  V30 1910 C 191.924 1.43786 -1.41451 0
M  V30 1911 C 192.237 1.95574 -0.0317074 0
M  V30 1912 O 193.443 2.71326 0.0971462 0
M  V30 1913 C 191.899 2.60071 -2.48779 0
M  V30 1914 C 191.507 2.15013 -3.93031 0
M  V30 1915 C 193.251 3.37626 -2.57311 0
M  V30 1916 C 191.158 3.28336 -4.91883 0
M  V30 1917 H 190.088 0.540143 -0.526082 0
M  V30 1918 H 192.739 0.739157 -1.67955 0
M  V30 1919 H 191.121 3.32275 -2.15429 0
M  V30 1920 H 192.295 1.5001 -4.35699 0
M  V30 1921 H 190.61 1.50416 -3.88284 0
M  V30 1922 H 193.207 4.22012 -3.28345 0
M  V30 1923 H 193.55 3.83727 -1.61429 0
M  V30 1924 H 194.083 2.72488 -2.89819 0
M  V30 1925 H 190.822 2.87234 -5.89217 0
M  V30 1926 H 190.342 3.92145 -4.53853 0
M  V30 1927 H 192.021 3.93913 -5.13265 0
M  V30 1928 N 192.153 1.28127 0.917671 0
M  V30 1929 C 193.383 1.17722 1.6978 0
M  V30 1930 C 193.791 -0.267261 1.87303 0
M  V30 1931 O 193.134 -1.19286 1.39702 0
M  V30 1932 C 193.196 1.79958 3.11216 0
M  V30 1933 C 192.86 3.29187 3.16993 0
M  V30 1934 C 193.857 4.25679 2.98485 0
M  V30 1935 C 191.542 3.70075 3.39632 0
M  V30 1936 C 193.536 5.61035 3.02521 0
M  V30 1937 C 191.223 5.05557 3.433 0
M  V30 1938 C 192.221 6.00847 3.24764 0
M  V30 1939 O 191.909 7.33859 3.28187 0
M  V30 1940 H 191.641 0.409788 0.537634 0
M  V30 1941 H 194.195 1.69694 1.15728 0
M  V30 1942 H 192.425 1.22475 3.66793 0
M  V30 1943 H 194.114 1.64125 3.71238 0
M  V30 1944 H 194.88 3.95426 2.80826 0
M  V30 1945 H 190.759 2.96373 3.53106 0
M  V30 1946 H 194.303 6.35388 2.87971 0
M  V30 1947 H 190.2 5.35462 3.60486 0
M  V30 1948 H 190.968 7.42436 3.44575 0
M  V30 1949 N 193.631 -1.12557 1.10312 0
M  V30 1950 C 195.047 -1.36036 0.834649 0
M  V30 1951 C 195.247 -1.93946 -0.546539 0
M  V30 1952 O 194.303 -2.16484 -1.29966 0
M  V30 1953 C 195.616 -2.30312 1.9333 0
M  V30 1954 C 197.164 -2.43906 1.9616 0
M  V30 1955 C 197.639 -3.41496 3.05195 0
M  V30 1956 N 199.13 -3.49053 3.04494 0
M  V30 1957 C 199.865 -4.24471 3.85502 0
M  V30 1958 N 199.361 -5.02966 4.76442 0
M  V30 1959 N 201.154 -4.19864 3.73725 0
M  V30 1960 H 193.305 -0.733246 1.99342 0
M  V30 1961 H 195.568 -0.385234 0.866198 0
M  V30 1962 H 195.274 -1.94933 2.92735 0
M  V30 1963 H 195.148 -3.30421 1.81939 0
M  V30 1964 H 197.535 -2.78567 0.973886 0
M  V30 1965 H 197.616 -1.4369 2.11629 0
M  V30 1966 H 197.26 -3.07565 4.04186 0
M  V30 1967 H 197.19 -4.41539 2.86968 0
M  V30 1968 H 199.681 -2.93053 2.38596 0
M  V30 1969 H 199.994 -5.57846 5.34815 0
M  V30 1970 H 198.339 -5.02167 4.80472 0
M  V30 1971 H 201.53 -3.57623 3.02032 0
M  V30 1972 H 201.703 -4.78386 4.37093 0
M  V30 1973 N 195.109 -0.891671 -1.2995 0
M  V30 1974 C 196.057 -0.353066 -2.29905 0
M  V30 1975 C 197.051 0.543509 -1.60444 0
M  V30 1976 O 198.257 0.4272 -1.74857 0
M  V30 1977 H 194.632 -0.095531 -0.745907 0
M  V30 1978 H 196.603 -1.20961 -2.72784 0
M  V30 1979 C 195.352 0.411475 -3.45257 0
M  V30 1980 H 194.675 -0.269182 -3.98893 0
M  V30 1981 H 196.115 0.753328 -4.17254 0
M  V30 1982 C 194.574 1.6111 -2.9588 0
M  V30 1983 O 195.104 2.71045 -2.96475 0
M  V30 1984 N 193.31 1.45054 -2.51809 0
M  V30 1985 H 192.857 0.556175 -2.51524 0
M  V30 1986 H 192.815 2.25453 -2.1913 0
M  V30 1987 N 196.587 1.43421 -0.653314 0
M  V30 1988 C 197.835 2.01414 -0.166415 0
M  V30 1989 C 198.156 1.51803 1.22397 0
M  V30 1990 O 197.426 0.730693 1.81763 0
M  V30 1991 H 196.006 0.744703 -0.0585319 0
M  V30 1992 H 198.668 1.75629 -0.845003 0
M  V30 1993 H 197.764 3.11734 -0.151111 0
M  V30 1994 N 198.065 0.39524 1.52563 0
M  V30 1995 C 198.997 -0.472201 2.24283 0
M  V30 1996 C 200.01 -1.02178 1.26742 0
M  V30 1997 O 201.199 -0.923097 1.52778 0
M  V30 1998 C 198.299 -1.66775 2.95024 0
M  V30 1999 C 197.472 -1.2445 4.19322 0
M  V30 2000 C 196.531 -2.30539 4.7301 0
M  V30 2001 O 195.557 -1.91702 5.35947 0
M  V30 2002 N 196.759 -3.6253 4.53379 0
M  V30 2003 H 199.524 0.142282 2.99362 0
M  V30 2004 H 197.085 0.2219 1.60372 0
M  V30 2005 H 199.077 -2.37283 3.27839 0
M  V30 2006 H 197.647 -2.18845 2.23217 0
M  V30 2007 H 196.867 -0.368069 3.92478 0
M  V30 2008 H 198.155 -0.938457 5.0007 0
M  V30 2009 H 197.553 -3.96841 4.03154 0
M  V30 2010 H 196.11 -4.29055 4.90668 0
M  V30 2011 N 199.544 -1.57102 0.125237 0
M  V30 2012 C 200.79 -1.95697 -0.532035 0
M  V30 2013 C 201.123 -1.009 -1.6593 0
M  V30 2014 O 200.398 -0.047347 -1.94442 0
M  V30 2015 C 200.681 -3.44181 -1.05884 0
M  V30 2016 C 200.534 -4.49752 0.0654392 0
M  V30 2017 C 201.853 -3.94655 -1.9477 0
M  V30 2018 H 198.972 -0.711571 -0.191925 0
M  V30 2019 H 201.614 -1.88923 0.20206 0
M  V30 2020 H 199.764 -3.50085 -1.68442 0
M  V30 2021 H 201.436 -4.55943 0.700982 0
M  V30 2022 H 199.679 -4.27653 0.727709 0
M  V30 2023 H 200.35 -5.50924 -0.344505 0
M  V30 2024 H 202.826 -3.91094 -1.42074 0
M  V30 2025 H 201.702 -4.99057 -2.28546 0
M  V30 2026 H 201.963 -3.35718 -2.87656 0
M  V30 2027 N 201.022 0.148545 -1.56898 0
M  V30 2028 C 201.932 1.20293 -2.01412 0
M  V30 2029 C 202.948 1.47107 -0.929273 0
M  V30 2030 O 204.124 1.58807 -1.23863 0
M  V30 2031 C 201.189 2.51682 -2.38447 0
M  V30 2032 C 200.25 2.32529 -3.60872 0
M  V30 2033 C 199.483 3.57653 -3.96132 0
M  V30 2034 O 199.706 4.63771 -3.32073 0
M  V30 2035 O 198.64 3.50408 -4.89385 0
M  V30 2036 H 202.466 0.855025 -2.91416 0
M  V30 2037 H 200.051 0.357151 -1.45068 0
M  V30 2038 H 201.933 3.29147 -2.63135 0
M  V30 2039 H 200.608 2.86006 -1.51599 0
M  V30 2040 H 199.515 1.53019 -3.41373 0
M  V30 2041 H 200.848 2.03121 -4.48333 0
M  V30 2042 N 202.5 1.5196 0.417844 0
M  V30 2043 C 203.433 1.69387 1.52916 0
M  V30 2044 C 204.411 0.541419 1.53321 0
M  V30 2045 O 205.595 0.767695 1.72159 0
M  V30 2046 C 202.722 1.72525 2.91467 0
M  V30 2047 C 201.768 2.93967 3.09008 0
M  V30 2048 S 202.601 4.54461 2.83242 0
M  V30 2049 C 203.757 4.60372 4.24038 0
M  V30 2050 H 203.99 2.63382 1.37903 0
M  V30 2051 H 201.523 1.41889 0.608845 0
M  V30 2052 H 203.481 1.75018 3.7132 0
M  V30 2053 H 202.142 0.796733 3.03827 0
M  V30 2054 H 201.335 2.92619 4.10353 0
M  V30 2055 H 200.937 2.89316 2.37007 0
M  V30 2056 H 203.229 4.37213 5.17544 0
M  V30 2057 H 204.172 5.62273 4.30412 0
M  V30 2058 H 204.58 3.89492 4.08602 0
M  V30 2059 N 203.978 -0.674533 1.42435 0
M  V30 2060 C 205.203 -1.46784 1.46524 0
M  V30 2061 C 205.628 -1.87938 0.078066 0
M  V30 2062 O 204.986 -1.56014 -0.92354 0
M  V30 2063 C 205.034 -2.69307 2.39805 0
M  V30 2064 O 204.138 -3.67587 1.86959 0
M  V30 2065 H 203.479 -0.440959 0.496439 0
M  V30 2066 H 206.009 -0.827326 1.87127 0
M  V30 2067 H 206.019 -3.17374 2.56393 0
M  V30 2068 H 204.694 -2.38692 3.40586 0
M  V30 2069 H 203.271 -3.2662 1.79927 0
M  V30 2070 N 205.456 -1.28612 -0.910864 0
M  V30 2071 C 206.681 -1.1891 -1.69927 0
M  V30 2072 C 207.106 0.248372 -1.86453 0
M  V30 2073 O 206.464 1.17961 -1.37676 0
M  V30 2074 C 206.512 -1.89578 -3.06745 0
M  V30 2075 O 205.616 -1.20521 -3.94396 0
M  V30 2076 H 204.957 -0.412632 -0.520222 0
M  V30 2077 H 207.487 -1.69985 -1.1387 0
M  V30 2078 H 207.497 -1.97597 -3.56958 0
M  V30 2079 H 206.172 -2.94136 -2.94035 0
M  V30 2080 H 204.749 -1.20684 -3.52831 0
M  V30 2081 N 206.934 1.1197 -1.10907 0
M  V30 2082 C 208.211 1.79959 -0.766432 0
M  V30 2083 C 208.591 1.97466 0.746363 0
M  V30 2084 O 207.939 1.55491 1.67436 0
M  V30 2085 C 208.149 3.14009 -1.52314 0
M  V30 2086 C 209.497 3.89134 -1.69883 0
M  V30 2087 O 210.521 3.2368 -1.48692 0
M  V30 2088 O 209.38 5.06572 -2.05054 0
M  V30 2089 H 206.474 0.779208 -0.277062 0
M  V30 2090 H 209.02 1.18762 -1.21217 0
M  V30 2091 H 207.792 2.96587 -2.55249 0
M  V30 2092 H 207.415 3.82915 -1.07059 0
M  V30 2093 N 208.412 0.89855 1.29475 0
M  V30 2094 C 209.359 0.373819 2.27753 0
M  V30 2095 C 210.329 -0.543444 1.56958 0
M  V30 2096 O 211.514 -0.468934 1.84948 0
M  V30 2097 C 208.654 -0.393648 3.42848 0
M  V30 2098 C 207.767 0.554379 4.28428 0
M  V30 2099 C 206.902 -0.230026 5.30702 0
M  V30 2100 C 205.941 0.712599 6.07938 0
M  V30 2101 N 205.078 -0.0373283 7.0209 0
M  V30 2102 H 209.918 1.21699 2.72017 0
M  V30 2103 H 207.455 0.611456 1.33789 0
M  V30 2104 H 209.413 -0.85466 4.08352 0
M  V30 2105 H 208.043 -1.20128 2.99615 0
M  V30 2106 H 207.095 1.13391 3.63107 0
M  V30 2107 H 208.407 1.27597 4.82204 0
M  V30 2108 H 207.561 -0.752288 6.02018 0
M  V30 2109 H 206.3 -0.984758 4.77654 0
M  V30 2110 H 205.305 1.24637 5.35486 0
M  V30 2111 H 206.53 1.46664 6.63074 0
M  V30 2112 H 204.476 -0.774348 6.51414 0
M  V30 2113 H 204.393 0.624374 7.53417 0
M  V30 2114 H 205.661 -0.539891 7.77628 0
M  V30 2115 N 209.89 -1.43072 0.660911 0
M  V30 2116 C 210.822 -2.29108 -0.0647641 0
M  V30 2117 C 211.835 -1.42928 -0.779448 0
M  V30 2118 O 213.024 -1.66788 -0.635921 0
M  V30 2119 C 210.124 -3.20032 -1.11503 0
M  V30 2120 C 209.297 -4.34792 -0.476955 0
M  V30 2121 C 208.356 -5.06534 -1.42513 0
M  V30 2122 O 207.382 -5.61538 -0.930771 0
M  V30 2123 N 208.584 -5.1075 -2.75889 0
M  V30 2124 H 211.349 -2.92029 0.673731 0
M  V30 2125 H 208.91 -1.53846 0.50427 0
M  V30 2126 H 210.902 -3.64892 -1.75032 0
M  V30 2127 H 209.472 -2.58658 -1.75541 0
M  V30 2128 H 208.692 -3.92752 0.337572 0
M  V30 2129 H 209.98 -5.0879 -0.0318525 0
M  V30 2130 H 209.378 -4.67447 -3.18606 0
M  V30 2131 H 207.935 -5.59302 -3.347 0
M  V30 2132 N 211.368 -0.403325 -1.52352 0
M  V30 2133 C 212.331 0.413051 -2.25447 0
M  V30 2134 C 213.331 0.978513 -1.276 0
M  V30 2135 O 214.521 0.858305 -1.51587 0
M  V30 2136 C 211.653 1.58087 -3.02029 0
M  V30 2137 H 212.846 -0.227094 -2.99039 0
M  V30 2138 H 210.399 -0.155722 -1.55522 0
M  V30 2139 H 211.134 2.25804 -2.32772 0
M  V30 2140 H 210.919 1.18195 -3.73861 0
M  V30 2141 H 212.409 2.1585 -3.57489 0
M  V30 2142 N 212.846 1.57033 -0.133567 0
M  V30 2143 C 213.793 2.16074 0.811208 0
M  V30 2144 C 214.763 1.08979 1.2535 0
M  V30 2145 O 215.948 1.36958 1.32843 0
M  V30 2146 C 213.088 2.77595 2.05024 0
M  V30 2147 C 212.201 3.99042 1.65498 0
M  V30 2148 C 211.336 4.48603 2.84479 0
M  V30 2149 C 210.375 5.62547 2.41262 0
M  V30 2150 N 209.512 6.06787 3.53206 0
M  V30 2151 H 214.352 2.96477 0.300906 0
M  V30 2152 H 211.889 1.46462 0.136822 0
M  V30 2153 H 213.847 3.11402 2.77642 0
M  V30 2154 H 212.477 1.99859 2.53488 0
M  V30 2155 H 211.529 3.71302 0.826981 0
M  V30 2156 H 212.841 4.81629 1.29748 0
M  V30 2157 H 211.995 4.84395 3.65303 0
M  V30 2158 H 210.734 3.64995 3.23465 0
M  V30 2159 H 209.739 5.26345 1.58874 0
M  V30 2160 H 210.964 6.47931 2.03377 0
M  V30 2161 H 208.91 5.26117 3.91838 0
M  V30 2162 H 208.827 6.84266 3.21427 0
M  V30 2163 H 210.095 6.4722 4.34427 0
M  V30 2164 N 214.325 -0.140222 1.56975 0
M  V30 2165 C 215.272 -1.17292 1.98774 0
M  V30 2166 C 216.242 -1.4232 0.856408 0
M  V30 2167 O 217.427 -1.54541 1.119 0
M  V30 2168 C 214.567 -2.49973 2.37923 0
M  V30 2169 C 213.68 -2.32062 3.64378 0
M  V30 2170 C 212.815 -3.57825 3.926 0
M  V30 2171 C 211.854 -3.3498 5.12303 0
M  V30 2172 N 210.991 -4.52891 5.36502 0
M  V30 2173 H 215.831 -0.809472 2.86795 0
M  V30 2174 H 213.368 -0.388237 1.41884 0
M  V30 2175 H 215.326 -3.27346 2.58652 0
M  V30 2176 H 213.956 -2.84252 1.52972 0
M  V30 2177 H 213.008 -1.45711 3.51387 0
M  V30 2178 H 214.32 -2.11145 4.51906 0
M  V30 2179 H 213.474 -4.43624 4.13863 0
M  V30 2180 H 212.213 -3.81753 3.03506 0
M  V30 2181 H 211.218 -2.4757 4.90906 0
M  V30 2182 H 212.443 -3.12444 6.02956 0
M  V30 2183 H 210.389 -4.76979 4.50363 0
M  V30 2184 H 210.306 -4.35001 6.18312 0
M  V30 2185 H 211.574 -5.39884 5.62268 0
M  V30 2186 N 215.803 -1.52179 -0.40978 0
M  V30 2187 C 216.75 -1.75475 -1.49924 0
M  V30 2188 C 217.72 -0.597175 -1.54994 0
M  V30 2189 O 218.905 -0.834655 -1.71575 0
M  V30 2190 C 216.045 -1.9107 -2.87378 0
M  V30 2191 C 215.158 -3.18717 -2.91622 0
M  V30 2192 C 214.293 -3.24747 -4.20372 0
M  V30 2193 C 213.332 -4.46598 -4.18588 0
M  V30 2194 N 212.469 -4.50025 -5.38908 0
M  V30 2195 H 217.309 -2.68458 -1.29361 0
M  V30 2196 H 214.846 -1.33024 -0.627934 0
M  V30 2197 H 216.804 -1.98096 -3.6717 0
M  V30 2198 H 215.434 -1.01469 -3.06437 0
M  V30 2199 H 214.486 -3.20866 -2.04326 0
M  V30 2200 H 215.798 -4.08544 -2.86169 0
M  V30 2201 H 214.952 -3.30841 -5.08556 0
M  V30 2202 H 213.691 -2.32857 -4.28519 0
M  V30 2203 H 212.696 -4.40652 -3.28794 0
M  V30 2204 H 213.921 -5.39783 -4.12081 0
M  V30 2205 H 211.867 -3.61017 -5.47725 0
M  V30 2206 H 211.784 -5.33697 -5.35447 0
M  V30 2207 H 213.052 -4.60347 -6.29048 0
M  V30 2208 N 217.281 0.66697 -1.42791 0
M  V30 2209 C 218.527 1.42754 -1.44889 0
M  V30 2210 C 218.882 1.92283 -0.0669755 0
M  V30 2211 O 218.175 1.68494 0.912154 0
M  V30 2212 C 218.369 2.6349 -2.4147 0
M  V30 2213 C 218.198 2.25776 -3.88915 0
M  V30 2214 C 216.968 2.1476 -4.57391 0
M  V30 2215 C 219.166 1.86927 -4.79127 0
M  V30 2216 N 217.148 1.70232 -5.89826 0
M  V30 2217 C 218.519 1.53378 -6.00729 0
M  V30 2218 C 220.574 1.73989 -4.66511 0
M  V30 2219 C 219.277 1.08187 -7.11117 0
M  V30 2220 C 221.303 1.30203 -5.76889 0
M  V30 2221 C 220.665 0.975818 -6.97608 0
M  V30 2222 H 216.764 0.518559 -0.585338 0
M  V30 2223 H 219.348 0.768906 -1.78874 0
M  V30 2224 H 217.519 3.27033 -2.09533 0
M  V30 2225 H 219.251 3.30123 -2.34096 0
M  V30 2226 H 216.006 2.3408 -4.11708 0
M  V30 2227 H 216.43 1.50369 -6.6009 0
M  V30 2228 H 221.072 1.97853 -3.7365 0
M  V30 2229 H 218.79 0.830701 -8.03819 0
M  V30 2230 H 222.376 1.20701 -5.69142 0
M  V30 2231 H 221.256 0.642157 -7.81566 0
M  V30 2232 N 218.759 1.29093 0.90403 0
M  V30 2233 C 220.008 1.16187 1.64874 0
M  V30 2234 C 220.321 -0.286742 1.93487 0
M  V30 2235 O 221.527 -0.537062 2.66135 0
M  V30 2236 C 219.983 2.03177 2.97064 0
M  V30 2237 C 219.591 3.52836 2.76062 0
M  V30 2238 C 221.335 1.98984 3.74974 0
M  V30 2239 C 219.242 4.31945 4.03952 0
M  V30 2240 H 218.172 0.431246 0.618501 0
M  V30 2241 H 220.823 1.53699 1.00243 0
M  V30 2242 H 219.205 1.5853 3.62883 0
M  V30 2243 H 220.379 4.05507 2.18863 0
M  V30 2244 H 218.694 3.58656 2.11553 0
M  V30 2245 H 221.291 2.55351 4.69787 0
M  V30 2246 H 221.634 0.968815 4.0487 0
M  V30 2247 H 222.167 2.41652 3.15989 0
M  V30 2248 H 218.906 5.34667 3.79225 0
M  V30 2249 H 218.426 3.84045 4.60727 0
M  V30 2250 H 220.105 4.42379 4.72133 0
M  V30 2251 N 220.237 -1.11381 1.11499 0
M  V30 2252 C 221.483 -1.83597 0.875423 0
M  V30 2253 C 221.838 -1.83048 -0.592555 0
M  V30 2254 O 221.131 -1.27304 -1.43193 0
M  V30 2255 C 221.325 -3.30026 1.37177 0
M  V30 2256 C 221.154 -3.44837 2.88647 0
M  V30 2257 C 219.924 -3.57825 3.56776 0
M  V30 2258 C 222.122 -3.3907 3.86699 0
M  V30 2259 N 220.104 -3.61113 4.96458 0
M  V30 2260 C 221.475 -3.48986 5.12454 0
M  V30 2261 C 223.53 -3.22605 3.7925 0
M  V30 2262 C 222.233 -3.44135 6.31636 0
M  V30 2263 C 224.259 -3.19072 4.97943 0
M  V30 2264 C 223.621 -3.29559 6.22551 0
M  V30 2265 H 219.72 -0.687044 0.37349 0
M  V30 2266 H 222.304 -1.33265 1.41946 0
M  V30 2267 H 220.475 -3.78874 0.854919 0
M  V30 2268 H 222.207 -3.90153 1.07529 0
M  V30 2269 H 218.962 -3.60414 3.07244 0
M  V30 2270 H 219.386 -3.66394 5.69284 0
M  V30 2271 H 224.028 -3.13382 2.83816 0
M  V30 2272 H 221.746 -3.52126 7.27347 0
M  V30 2273 H 225.332 -3.07498 4.93899 0
M  V30 2274 H 224.212 -3.26815 7.12855 0
M  V30 2275 N 221.715 -0.905404 -1.28997 0
M  V30 2276 C 222.963 -0.533192 -1.9494 0
M  V30 2277 C 223.284 0.924618 -1.71685 0
M  V30 2278 O 222.554 1.65268 -1.05183 0
M  V30 2279 H 221.134 -0.194194 -0.721317 0
M  V30 2280 H 223.796 -1.15294 -1.57141 0
M  V30 2281 H 222.892 -0.72059 -3.03667 0
M  V30 2282 N 223.193 1.4272 -0.668489 0
M  V30 2283 C 224.604 1.84793 -0.266151 0
M  V30 2284 C 224.955 1.55959 1.19043 0
M  V30 2285 O 224.08 1.01622 1.91055 0
M  V30 2286 C 224.675 3.35436 -0.476271 0
M  V30 2287 C 223.234 3.76182 -0.128113 0
M  V30 2288 C 222.381 2.66344 -0.771777 0
M  V30 2289 H 225.332 1.32656 -0.871098 0
M  V30 2290 H 225.353 3.79515 0.273561 0
M  V30 2291 H 224.865 3.5639 -1.53647 0
M  V30 2292 H 222.966 3.60836 0.928891 0
M  V30 2293 H 223.079 4.75766 -0.564231 0
M  V30 2294 H 221.443 2.53885 -0.203652 0
M  V30 2295 H 222.226 2.90123 -1.83531 0
M  V30 2296 N 224.671 0.411399 1.52136 0
M  V30 2297 C 225.896 -0.165538 2.06738 0
M  V30 2298 C 226.321 -1.379 1.27926 0
M  V30 2299 O 225.679 -1.78628 0.310114 0
M  V30 2300 C 225.727 -0.492124 3.57226 0
M  V30 2301 O 224.831 -1.58276 3.80818 0
M  V30 2302 H 224.172 -0.0132132 0.663869 0
M  V30 2303 H 226.702 0.585253 1.96051 0
M  V30 2304 H 226.712 -0.750104 4.01045 0
M  V30 2305 H 225.387 0.394922 4.14021 0
M  V30 2306 H 223.964 -1.31677 3.48877 0
M  V30 2307 N 226.149 -1.5696 0.141893 0
M  V30 2308 C 227.397 -1.95573 -0.509484 0
M  V30 2309 C 227.718 -1.02746 -1.65736 0
M  V30 2310 O 226.988 -0.0880311 -1.95702 0
M  V30 2311 H 225.568 -0.722115 -0.191205 0
M  V30 2312 H 228.23 -1.93697 0.216196 0
M  V30 2313 H 227.326 -2.99171 -0.889 0
M  V30 2314 N 227.627 0.131896 -1.57047 0
M  V30 2315 C 228.873 0.838268 -1.85323 0
M  V30 2316 C 229.228 1.78098 -0.727937 0
M  V30 2317 O 228.521 1.89645 0.27304 0
M  V30 2318 C 228.715 1.63703 -3.17704 0
M  V30 2319 C 228.544 0.773167 -4.43004 0
M  V30 2320 C 227.314 0.432956 -5.03442 0
M  V30 2321 C 229.512 0.0966216 -5.14209 0
M  V30 2322 N 227.494 -0.442924 -6.123 0
M  V30 2323 C 228.865 -0.638778 -6.16701 0
M  V30 2324 C 230.92 0.018861 -4.97896 0
M  V30 2325 C 229.623 -1.44462 -7.04644 0
M  V30 2326 C 231.649 -0.773762 -5.86316 0
M  V30 2327 C 231.011 -1.4974 -6.883 0
M  V30 2328 H 227.11 0.284086 -0.728573 0
M  V30 2329 H 229.694 0.102731 -1.94429 0
M  V30 2330 H 227.865 2.3437 -3.09718 0
M  V30 2331 H 229.597 2.28774 -3.33833 0
M  V30 2332 H 226.352 0.772237 -4.67262 0
M  V30 2333 H 226.776 -0.872332 -6.71356 0
M  V30 2334 H 231.418 0.56397 -4.19022 0
M  V30 2335 H 229.136 -2.00093 -7.82936 0
M  V30 2336 H 232.722 -0.83612 -5.75761 0
M  V30 2337 H 231.602 -2.10087 -7.55535 0
M  V30 2338 N 229.106 1.52395 0.401703 0
M  V30 2339 C 230.354 1.66488 1.14569 0
M  V30 2340 C 230.675 0.400897 1.90835 0
M  V30 2341 O 229.945 -0.584415 1.8698 0
M  V30 2342 H 228.525 0.613672 0.425929 0
M  V30 2343 H 231.187 1.89464 0.457093 0
M  V30 2344 H 230.283 2.50942 1.85566 0
M  V30 2345 N 230.584 -0.659388 1.43143 0
M  V30 2346 C 231.547 -1.75432 1.47501 0
M  V30 2347 C 232.547 -1.56707 0.360512 0
M  V30 2348 O 233.737 -1.62717 0.622002 0
M  V30 2349 C 230.869 -3.14239 1.32162 0
M  V30 2350 H 232.062 -1.7295 2.45006 0
M  V30 2351 H 229.615 -0.870469 1.29817 0
M  V30 2352 H 230.35 -3.22336 0.356401 0
M  V30 2353 H 230.135 -3.29235 2.12948 0
M  V30 2354 H 231.625 -3.94094 1.3813 0
M  V30 2355 N 232.062 -1.29571 -0.897171 0
M  V30 2356 C 233.311 -1.1706 -1.64256 0
M  V30 2357 C 233.624 0.276476 -1.93636 0
M  V30 2358 O 234.83 0.52294 -2.66416 0
M  V30 2359 C 233.286 -2.0475 -2.95982 0
M  V30 2360 C 232.894 -3.54295 -2.74187 0
M  V30 2361 C 234.638 -2.0097 -3.73914 0
M  V30 2362 C 232.545 -4.34081 -4.01656 0
M  V30 2363 H 231.475 -0.43452 -0.616205 0
M  V30 2364 H 234.126 -1.54229 -0.994268 0
M  V30 2365 H 232.508 -1.60452 -3.62038 0
M  V30 2366 H 233.682 -4.06662 -2.1671 0
M  V30 2367 H 231.997 -3.59773 -2.09648 0
M  V30 2368 H 234.594 -2.57838 -4.68427 0
M  V30 2369 H 234.937 -0.990273 -4.0435 0
M  V30 2370 H 235.47 -2.43325 -3.14703 0
M  V30 2371 H 232.209 -5.36671 -3.76384 0
M  V30 2372 H 231.729 -3.86483 -4.58684 0
M  V30 2373 H 233.408 -4.44877 -4.69781 0
M  V30 2374 N 233.54 1.10788 -1.12088 0
M  V30 2375 C 234.47 2.19083 -0.807755 0
M  V30 2376 C 235.451 1.6858 0.226859 0
M  V30 2377 O 236.636 1.93997 0.0888475 0
M  V30 2378 C 233.766 3.46344 -0.257576 0
M  V30 2379 C 232.72 4.101 -1.22483 0
M  V30 2380 C 232.046 5.32016 -0.535052 0
M  V30 2381 C 233.346 4.54236 -2.57811 0
M  V30 2382 H 235.04 2.45534 -1.71328 0
M  V30 2383 H 232.586 1.1801 -0.825205 0
M  V30 2384 H 234.539 4.21392 -0.0262679 0
M  V30 2385 H 233.263 3.19373 0.683278 0
M  V30 2386 H 231.922 3.37054 -1.44189 0
M  V30 2387 H 231.57 5.01319 0.410827 0
M  V30 2388 H 231.27 5.75625 -1.18024 0
M  V30 2389 H 232.794 6.09799 -0.312695 0
M  V30 2390 H 234.208 5.20575 -2.40155 0
M  V30 2391 H 232.605 5.08682 -3.18375 0
M  V30 2392 H 233.675 3.6734 -3.16528 0
M  V30 2393 N 235.018 0.912232 1.28515 0
M  V30 2394 C 235.948 0.416403 2.29757 0
M  V30 2395 C 236.929 -0.515194 1.6211 0
M  V30 2396 O 238.114 -0.423253 1.89532 0
M  V30 2397 C 235.244 -0.34572 3.45575 0
M  V30 2398 C 234.198 0.496599 4.25109 0
M  V30 2399 C 233.524 -0.393771 5.33248 0
M  V30 2400 C 234.824 1.75307 4.92001 0
M  V30 2401 H 236.518 1.26249 2.7148 0
M  V30 2402 H 234.064 0.608515 1.30511 0
M  V30 2403 H 236.017 -0.703422 4.15488 0
M  V30 2404 H 234.741 -1.2257 3.02728 0
M  V30 2405 H 233.4 0.8368 3.56922 0
M  V30 2406 H 233.048 -1.27225 4.86644 0
M  V30 2407 H 232.748 0.166209 5.87365 0
M  V30 2408 H 234.272 -0.747389 6.06009 0
M  V30 2409 H 235.686 1.46437 5.54283 0
M  V30 2410 H 234.083 2.25534 5.56106 0
M  V30 2411 H 235.153 2.48176 4.16577 0
M  V30 2412 N 236.496 -1.42363 0.676048 0
M  V30 2413 C 237.742 -2.0182 0.199125 0
M  V30 2414 C 238.075 -1.53339 -1.19168 0
M  V30 2415 O 237.35 -0.736124 -1.80032 0
M  V30 2416 C 237.633 -3.59331 0.235144 0
M  V30 2417 C 237.486 -4.17989 1.66149 0
M  V30 2418 C 238.805 -4.3813 -0.41595 0
M  V30 2419 H 235.924 -0.733293 0.0738311 0
M  V30 2420 H 238.566 -1.69368 0.86107 0
M  V30 2421 H 236.716 -3.87109 -0.328487 0
M  V30 2422 H 238.388 -4.0116 2.27747 0
M  V30 2423 H 236.631 -3.7377 2.20178 0
M  V30 2424 H 237.302 -5.27126 1.63837 0
M  V30 2425 H 239.778 -4.16051 0.0638529 0
M  V30 2426 H 238.654 -5.47717 -0.360115 0
M  V30 2427 H 238.915 -4.16101 -1.49373 0
M  V30 2428 N 237.974 -0.419461 -1.51915 0
M  V30 2429 C 238.922 0.415502 -2.28859 0
M  V30 2430 C 239.916 1.03674 -1.3397 0
M  V30 2431 O 241.122 0.973757 -1.51387 0
M  V30 2432 H 237.497 0.152786 -0.736315 0
M  V30 2433 H 239.468 -0.254531 -2.97312 0
M  V30 2434 C 238.217 1.51425 -3.12995 0
M  V30 2435 H 237.54 1.04556 -3.85886 0
M  V30 2436 H 238.98 2.07208 -3.6992 0
M  V30 2437 C 237.439 2.48745 -2.27217 0
M  V30 2438 O 237.969 3.52871 -1.9195 0
M  V30 2439 N 236.175 2.19202 -1.90785 0
M  V30 2440 H 235.722 1.34556 -2.19664 0
M  V30 2441 H 235.68 2.84561 -1.33687 0
M  V30 2442 N 239.452 1.56882 -0.150215 0
M  V30 2443 C 240.692 1.98119 0.502804 0
M  V30 2444 C 241.056 1.03327 1.61826 0
M  V30 2445 O 242.257 1.33621 2.33236 0
M  V30 2446 C 240.528 3.43329 0.992988 0
M  V30 2447 S 242.087 4.0659 1.65015 0
M  V30 2448 H 238.905 0.692189 0.162467 0
M  V30 2449 H 241.507 1.93988 -0.242689 0
M  V30 2450 H 240.211 4.10046 0.170436 0
M  V30 2451 H 239.742 3.5118 1.77303 0
M  V30 2452 H 241.757 3.99906 2.93752 0
M  V30 2453 N 240.93 -0.123565 1.57115 0
M  V30 2454 C 241.878 -1.17082 2.00984 0
M  V30 2455 C 242.872 -1.43136 0.906009 0
M  V30 2456 O 244.078 -1.43152 1.09121 0
M  V30 2457 H 240.453 -0.394653 0.64012 0
M  V30 2458 H 242.424 -0.774292 2.88179 0
M  V30 2459 C 241.173 -2.49057 2.42623 0
M  V30 2460 H 240.496 -2.29846 3.27125 0
M  V30 2461 H 241.936 -3.20906 2.7712 0
M  V30 2462 C 240.395 -3.11305 1.28805 0
M  V30 2463 O 240.925 -3.97171 0.60153 0
M  V30 2464 N 239.131 -2.71111 1.04628 0
M  V30 2465 H 238.678 -2.01382 1.60634 0
M  V30 2466 H 238.636 -3.1309 0.286685 0
M  V30 2467 N 242.408 -1.52605 -0.393616 0
M  V30 2468 C 243.819 -1.59417 -0.971761 0
M  V30 2469 C 244.17 -0.444173 -1.91106 0
M  V30 2470 O 243.295 0.433382 -2.12016 0
M  V30 2471 C 243.89 -2.88936 -1.76921 0
M  V30 2472 C 242.449 -2.98175 -2.29714 0
M  V30 2473 C 241.596 -2.54491 -1.10135 0
M  V30 2474 H 244.547 -1.57751 -0.173317 0
M  V30 2475 H 244.568 -2.75163 -2.62804 0
M  V30 2476 H 244.08 -3.72616 -1.08532 0
M  V30 2477 H 242.181 -2.19024 -3.01429 0
M  V30 2478 H 242.294 -4.02726 -2.59517 0
M  V30 2479 H 240.658 -2.08702 -1.45999 0
M  V30 2480 H 241.441 -3.4056 -0.432874 0
M  V30 2481 N 243.887 0.651787 -1.4349 0
M  V30 2482 C 244.85 1.74647 -1.48429 0
M  V30 2483 C 245.85 1.56513 -0.368817 0
M  V30 2484 O 247.04 1.62385 -0.630623 0
M  V30 2485 C 244.172 3.13533 -1.33827 0
M  V30 2486 H 245.365 1.71649 -2.4592 0
M  V30 2487 H 242.918 0.863573 -1.30277 0
M  V30 2488 H 243.653 3.22142 -0.37349 0
M  V30 2489 H 243.438 3.28101 -2.14691 0
M  V30 2490 H 244.928 3.93356 -1.40218 0
M  V30 2491 N 245.365 1.30045 0.890287 0
M  V30 2492 C 246.642 1.09227 1.62262 0
M  V30 2493 C 247.022 -0.360305 2.08002 0
M  V30 2494 O 246.37 -1.35084 1.84295 0
M  V30 2495 C 246.58 2.08835 2.79623 0
M  V30 2496 C 247.928 2.40266 3.50082 0
M  V30 2497 O 248.952 2.07104 2.89804 0
M  V30 2498 O 247.811 2.96967 4.58773 0
M  V30 2499 H 244.905 0.419132 0.712922 0
M  V30 2500 H 247.451 1.41451 0.937529 0
M  V30 2501 H 246.223 3.06633 2.43089 0
M  V30 2502 H 245.846 1.77397 3.55832 0
M  V30 2503 N 246.843 -1.10192 1.12674 0
M  V30 2504 C 248.089 -1.82475 0.884915 0
M  V30 2505 C 248.422 -1.85093 -0.58773 0
M  V30 2506 O 247.697 -1.3134 -1.43457 0
M  V30 2507 C 247.98 -3.29018 1.46353 0
M  V30 2508 C 247.833 -3.34718 3.00473 0
M  V30 2509 C 249.152 -4.25473 1.12519 0
M  V30 2510 H 246.271 -0.662492 0.322915 0
M  V30 2511 H 248.913 -1.2913 1.39375 0
M  V30 2512 H 247.063 -3.74576 1.03077 0
M  V30 2513 H 248.735 -2.97622 3.52447 0
M  V30 2514 H 246.978 -2.74541 3.35872 0
M  V30 2515 H 247.649 -4.37918 3.36053 0
M  V30 2516 H 250.125 -3.88161 1.499 0
M  V30 2517 H 249.001 -5.26365 1.55663 0
M  V30 2518 H 249.262 -4.42084 0.0377407 0
M  V30 2519 N 248.321 -0.919034 -1.28029 0
M  V30 2520 C 249.569 -0.553838 -1.94363 0
M  V30 2521 C 249.89 0.906357 -1.72656 0
M  V30 2522 O 249.16 1.64143 -1.0693 0
M  V30 2523 H 247.74 -0.201834 -0.719216 0
M  V30 2524 H 250.402 -1.16954 -1.55909 0
M  V30 2525 H 249.498 -0.752758 -3.02886 0
M  V30 2526 N 249.799 1.42003 -0.683588 0
M  V30 2527 C 250.731 2.29183 0.0283068 0
M  V30 2528 C 251.744 1.4415 0.756611 0
M  V30 2529 O 252.933 1.67779 0.609306 0
M  V30 2530 C 250.033 3.21765 1.06398 0
M  V30 2531 C 249.206 4.35496 0.407723 0
M  V30 2532 C 248.265 5.08737 1.34437 0
M  V30 2533 O 247.291 5.62948 0.841318 0
M  V30 2534 N 248.493 5.15075 2.67728 0
M  V30 2535 H 251.258 2.9092 -0.720105 0
M  V30 2536 H 248.819 1.53025 -0.528682 0
M  V30 2537 H 250.811 3.6763 1.69204 0
M  V30 2538 H 249.381 2.61418 1.71404 0
M  V30 2539 H 248.601 3.92165 -0.400012 0
M  V30 2540 H 249.889 5.08776 -0.0490956 0
M  V30 2541 H 249.287 4.72457 3.11129 0
M  V30 2542 H 247.844 5.64556 3.2576 0
M  V30 2543 N 251.277 0.427512 1.51691 0
M  V30 2544 C 252.209 -0.424521 2.25234 0
M  V30 2545 C 253.222 -0.994671 1.2888 0
M  V30 2546 O 254.411 -0.890483 1.54702 0
M  V30 2547 C 251.511 -1.60479 2.98496 0
M  V30 2548 C 250.684 -1.15527 4.21868 0
M  V30 2549 C 249.743 -2.20454 4.77793 0
M  V30 2550 O 248.769 -1.8029 5.39893 0
M  V30 2551 N 249.971 -3.52831 4.60967 0
M  V30 2552 H 252.736 0.205749 2.98993 0
M  V30 2553 H 250.297 0.255867 1.59865 0
M  V30 2554 H 252.289 -2.30276 3.32799 0
M  V30 2555 H 250.859 -2.14061 2.27809 0
M  V30 2556 H 250.079 -0.284736 3.9317 0
M  V30 2557 H 251.367 -0.832173 5.01949 0
M  V30 2558 H 250.765 -3.88201 4.11481 0
M  V30 2559 H 249.322 -4.18551 4.99658 0
M  V30 2560 N 252.755 -1.56801 0.158532 0
M  V30 2561 C 253.685 -2.20347 -0.772609 0
M  V30 2562 C 254.666 -1.15518 -1.24859 0
M  V30 2563 O 255.851 -1.43902 -1.30406 0
M  V30 2564 C 252.981 -2.83417 -2.00729 0
M  V30 2565 C 251.935 -3.94174 -1.66765 0
M  V30 2566 C 251.261 -4.44233 -2.97592 0
M  V30 2567 C 252.561 -5.14392 -0.905447 0
M  V30 2568 H 254.255 -2.98413 -0.242959 0
M  V30 2569 H 251.801 -1.43537 -0.115419 0
M  V30 2570 H 253.754 -3.26543 -2.6636 0
M  V30 2571 H 252.478 -2.02701 -2.56086 0
M  V30 2572 H 251.137 -3.51684 -1.03508 0
M  V30 2573 H 250.785 -3.60325 -3.50963 0
M  V30 2574 H 250.485 -5.18945 -2.75626 0
M  V30 2575 H 252.009 -4.90037 -3.64274 0
M  V30 2576 H 253.423 -5.5429 -1.46408 0
M  V30 2577 H 251.82 -5.9494 -0.7853 0
M  V30 2578 H 252.89 -4.84795 0.100668 0
M  V30 2579 N 254.233 0.115231 -1.57178 0
M  V30 2580 C 255.143 1.15994 -2.03918 0
M  V30 2581 C 256.159 1.45103 -0.960268 0
M  V30 2582 O 257.335 1.56144 -1.27204 0
M  V30 2583 C 254.4 2.46568 -2.43732 0
M  V30 2584 C 253.461 2.24822 -3.65723 0
M  V30 2585 C 252.694 3.4917 -4.03629 0
M  V30 2586 O 252.917 4.56623 -3.41835 0
M  V30 2587 O 251.851 3.39949 -4.96708 0
M  V30 2588 H 255.677 0.793019 -2.93164 0
M  V30 2589 H 253.262 0.3263 -1.45793 0
M  V30 2590 H 255.144 3.23492 -2.70057 0
M  V30 2591 H 253.819 2.82726 -1.57631 0
M  V30 2592 H 252.726 1.45744 -3.44542 0
M  V30 2593 H 254.059 1.93566 -4.52541 0
M  V30 2594 N 255.711 1.52812 0.385517 0
M  V30 2595 C 256.988 1.5861 1.14465 0
M  V30 2596 C 257.368 0.381402 2.07626 0
M  V30 2597 O 256.716 -0.629999 2.19643 0
M  V30 2598 C 256.926 2.92664 1.90128 0
M  V30 2599 C 258.274 3.46526 2.45367 0
M  V30 2600 O 259.298 2.94562 2.0028 0
M  V30 2601 O 258.157 4.37323 3.27736 0
M  V30 2602 H 255.251 0.639855 0.523941 0
M  V30 2603 H 257.797 1.65149 0.390389 0
M  V30 2604 H 256.569 3.71788 1.22022 0
M  V30 2605 H 256.192 2.89527 2.72507 0
M  V30 2606 N 257.189 -0.644168 1.43834 0
M  V30 2607 C 258.136 -1.75671 1.49694 0
M  V30 2608 C 259.106 -1.6246 0.345809 0
M  V30 2609 O 260.291 -1.82573 0.554234 0
M  V30 2610 C 257.431 -3.13867 1.43463 0
M  V30 2611 C 256.544 -3.38147 2.6885 0
M  V30 2612 C 255.679 -4.66241 2.54544 0
M  V30 2613 C 254.718 -4.83657 3.75157 0
M  V30 2614 N 253.855 -6.03016 3.59605 0
M  V30 2615 H 258.695 -1.69998 2.44754 0
M  V30 2616 H 256.232 -0.829458 1.21484 0
M  V30 2617 H 258.19 -3.9377 1.37843 0
M  V30 2618 H 256.82 -3.18588 0.519783 0
M  V30 2619 H 255.872 -2.52276 2.84712 0
M  V30 2620 H 257.184 -3.46899 3.58417 0
M  V30 2621 H 256.338 -5.54285 2.46683 0
M  V30 2622 H 255.077 -4.59826 1.62516 0
M  V30 2623 H 254.082 -3.94046 3.83416 0
M  V30 2624 H 255.307 -4.91896 4.68204 0
M  V30 2625 H 253.253 -5.97715 2.7032 0
M  V30 2626 H 253.17 -6.12766 4.42779 0
M  V30 2627 H 254.438 -6.93657 3.55613 0
M  V30 2628 N 258.668 -1.30515 -0.883378 0
M  V30 2629 C 259.615 -1.17032 -1.98927 0
M  V30 2630 C 260.585 -0.0594241 -1.65994 0
M  V30 2631 O 261.77 -0.229895 -1.8941 0
M  V30 2632 C 258.91 -0.869777 -3.33959 0
M  V30 2633 C 258.023 -2.06271 -3.79574 0
M  V30 2634 C 257.158 -1.70011 -5.03259 0
M  V30 2635 C 256.197 -2.8579 -5.41286 0
M  V30 2636 N 255.334 -2.49816 -6.56153 0
M  V30 2637 H 260.174 -2.1164 -2.09792 0
M  V30 2638 H 257.711 -1.05296 -1.02719 0
M  V30 2639 H 259.669 -0.676138 -4.11685 0
M  V30 2640 H 258.299 0.0394332 -3.22776 0
M  V30 2641 H 257.351 -2.36755 -2.97744 0
M  V30 2642 H 258.663 -2.92971 -4.03694 0
M  V30 2643 H 257.817 -1.47032 -5.88614 0
M  V30 2644 H 256.556 -0.804829 -4.81013 0
M  V30 2645 H 255.561 -3.09434 -4.54456 0
M  V30 2646 H 256.786 -3.76008 -5.65504 0
M  V30 2647 H 254.732 -1.62795 -6.35479 0
M  V30 2648 H 254.649 -3.30048 -6.8015 0
M  V30 2649 H 255.917 -2.30197 -7.44735 0
M  V30 2650 N 260.146 1.09593 -1.13257 0
M  V30 2651 C 261.374 1.855 -0.916378 0
M  V30 2652 C 261.789 1.81069 0.534738 0
M  V30 2653 O 261.146 1.20562 1.37007 0
M  V30 2654 C 261.197 3.33546 -1.39388 0
M  V30 2655 O 260.918 3.37927 -2.78813 0
M  V30 2656 C 262.419 4.26299 -1.21588 0
M  V30 2657 H 259.639 0.585991 -0.326887 0
M  V30 2658 H 262.183 1.38488 -1.5047 0
M  V30 2659 H 260.338 3.77992 -0.848597 0
M  V30 2660 H 260.752 4.30254 -2.9997 0
M  V30 2661 H 262.226 5.28341 -1.59876 0
M  V30 2662 H 262.703 4.38918 -0.157376 0
M  V30 2663 H 263.309 3.87668 -1.7491 0
M  V30 2664 N 261.624 0.925811 1.2754 0
M  V30 2665 C 262.571 0.422045 2.26908 0
M  V30 2666 C 263.541 -0.510029 1.58076 0
M  V30 2667 O 264.726 -0.429599 1.85901 0
M  V30 2668 C 261.866 -0.320837 3.43605 0
M  V30 2669 C 260.979 0.64513 4.27156 0
M  V30 2670 C 260.114 -0.117405 5.3107 0
M  V30 2671 C 259.153 0.841391 6.0629 0
M  V30 2672 N 258.29 0.111604 7.02011 0
M  V30 2673 H 263.13 1.27441 2.69375 0
M  V30 2674 H 260.667 0.639697 1.32462 0
M  V30 2675 H 262.625 -0.76785 4.10073 0
M  V30 2676 H 261.255 -1.13745 3.02096 0
M  V30 2677 H 260.307 1.21067 3.6062 0
M  V30 2678 H 261.619 1.37797 4.79389 0
M  V30 2679 H 260.773 -0.624422 6.03478 0
M  V30 2680 H 259.512 -0.883219 4.79636 0
M  V30 2681 H 258.517 1.35967 5.32722 0
M  V30 2682 H 259.742 1.60696 6.59813 0
M  V30 2683 H 257.688 -0.635999 6.5291 0
M  V30 2684 H 257.605 0.784044 7.51923 0
M  V30 2685 H 258.873 -0.374823 7.78598 0
M  V30 2686 N 263.102 -1.41638 0.69111 0
M  V30 2687 C 264.049 -2.30789 0.0229705 0
M  V30 2688 C 265.019 -1.46863 -0.775911 0
M  V30 2689 O 266.204 -1.75661 -0.74485 0
M  V30 2690 C 263.344 -3.32868 -0.910666 0
M  V30 2691 C 262.457 -4.31875 -0.103874 0
M  V30 2692 C 261.592 -5.21024 -1.03475 0
M  V30 2693 C 260.631 -6.11702 -0.220598 0
M  V30 2694 N 259.768 -6.93349 -1.10504 0
M  V30 2695 H 264.608 -2.87366 0.788978 0
M  V30 2696 H 262.145 -1.41535 0.400794 0
M  V30 2697 H 264.103 -3.90596 -1.46597 0
M  V30 2698 H 262.733 -2.77851 -1.64312 0
M  V30 2699 H 261.785 -3.76131 0.568285 0
M  V30 2700 H 263.097 -4.96003 0.527504 0
M  V30 2701 H 262.251 -5.83565 -1.65943 0
M  V30 2702 H 260.99 -4.57112 -1.69999 0
M  V30 2703 H 259.995 -5.48215 0.417187 0
M  V30 2704 H 261.22 -6.77668 0.440784 0
M  V30 2705 H 259.166 -6.3205 -1.75638 0
M  V30 2706 H 259.083 -7.54146 -0.529125 0
M  V30 2707 H 260.351 -7.60362 -1.71667 0
M  V30 2708 N 264.58 -0.43555 -1.51462 0
M  V30 2709 C 265.826 0.131709 -2.02372 0
M  V30 2710 C 266.159 1.42516 -1.3192 0
M  V30 2711 O 265.434 1.89606 -0.433573 0
M  V30 2712 C 265.717 0.352301 -3.58373 0
M  V30 2713 C 265.57 -0.959676 -4.39443 0
M  V30 2714 C 266.889 1.12286 -4.25535 0
M  V30 2715 H 264.008 0.0463936 -0.735538 0
M  V30 2716 H 266.65 -0.574197 -1.81116 0
M  V30 2717 H 264.8 0.9536 -3.76615 0
M  V30 2718 H 266.472 -1.59482 -4.32855 0
M  V30 2719 H 264.715 -1.56468 -4.04599 0
M  V30 2720 H 265.386 -0.759394 -5.46752 0
M  V30 2721 H 267.862 0.613545 -4.11552 0
M  V30 2722 H 266.738 1.24598 -5.34571 0
M  V30 2723 H 266.999 2.15048 -3.86273 0
M  V30 2724 N 266.058 1.56714 -0.166846 0
M  V30 2725 C 267.307 1.95922 0.479318 0
M  V30 2726 C 267.62 1.05529 1.6469 0
M  V30 2727 O 268.826 1.34399 2.35901 0
M  V30 2728 C 267.282 3.48359 0.90412 0
M  V30 2729 C 266.89 4.47369 -0.237621 0
M  V30 2730 C 268.634 3.96394 1.51896 0
M  V30 2731 C 266.541 5.91039 0.206561 0
M  V30 2732 H 265.471 0.731495 0.18284 0
M  V30 2733 H 268.122 1.81728 -0.254363 0
M  V30 2734 H 266.504 3.57955 1.69365 0
M  V30 2735 H 267.678 4.49485 -1.01489 0
M  V30 2736 H 265.993 4.09366 -0.762128 0
M  V30 2737 H 268.59 5.01186 1.86325 0
M  V30 2738 H 268.933 3.39075 2.41524 0
M  V30 2739 H 269.466 3.89796 0.79395 0
M  V30 2740 H 266.205 6.52221 -0.654834 0
M  V30 2741 H 265.725 5.9224 0.949282 0
M  V30 2742 H 267.404 6.43707 0.651939 0
M  V30 2743 N 267.536 -0.106894 1.57237 0
M  V30 2744 C 268.783 -0.812526 1.85484 0
M  V30 2745 C 269.111 -1.79304 0.753687 0
M  V30 2746 O 268.366 -1.94047 -0.253853 0
M  V30 2747 C 268.665 -1.58628 3.20268 0
M  V30 2748 C 268.331 -0.748967 4.44636 0
M  V30 2749 C 266.993 -0.518104 4.78403 0
M  V30 2750 C 269.345 -0.166122 5.20935 0
M  V30 2751 C 266.673 0.305659 5.85903 0
M  V30 2752 C 269.025 0.644899 6.29304 0
M  V30 2753 C 267.689 0.885965 6.61594 0
M  V30 2754 H 266.959 -0.297324 0.678734 0
M  V30 2755 H 269.606 -0.0744332 1.91355 0
M  V30 2756 H 267.911 -2.39562 3.10028 0
M  V30 2757 H 269.608 -2.13643 3.39349 0
M  V30 2758 H 266.198 -0.939006 4.18187 0
M  V30 2759 H 270.382 -0.33167 4.95191 0
M  V30 2760 H 265.638 0.501528 6.0934 0
M  V30 2761 H 269.812 1.10345 6.87602 0
M  V30 2762 H 267.439 1.52609 7.44725 0
M  V30 2763 N 269.014 -1.53014 -0.377408 0
M  V30 2764 C 270.239 -1.72818 -1.14668 0
M  V30 2765 C 270.664 -0.450725 -1.8262 0
M  V30 2766 O 270.022 0.59439 -1.7128 0
M  V30 2767 C 270.07 -2.88627 -2.16164 0
M  V30 2768 O 269.174 -2.56409 -3.22998 0
M  V30 2769 H 268.515 -0.574301 -0.333278 0
M  V30 2770 H 271.045 -1.99853 -0.438152 0
M  V30 2771 H 271.055 -3.14455 -2.59966 0
M  V30 2772 H 269.73 -3.81294 -1.66095 0
M  V30 2773 H 268.307 -2.4136 -2.84253 0
M  V30 2774 N 270.492 0.636531 -1.44174 0
M  V30 2775 C 271.402 1.77754 -1.53103 0
M  V30 2776 C 272.418 1.68928 -0.417034 0
M  V30 2777 O 273.594 1.89801 -0.6736 0
M  V30 2778 C 270.659 3.14115 -1.46741 0
M  V30 2779 C 269.72 3.34612 -2.68948 0
M  V30 2780 C 268.953 4.64467 -2.6288 0
M  V30 2781 O 269.176 5.44919 -1.68581 0
M  V30 2782 O 268.11 4.87049 -3.53648 0
M  V30 2783 H 271.936 1.73174 -2.49489 0
M  V30 2784 H 269.521 0.79709 -1.2636 0
M  V30 2785 H 271.403 3.95412 -1.45696 0
M  V30 2786 H 270.078 3.19249 -0.534975 0
M  V30 2787 H 268.985 2.53014 -2.75562 0
M  V30 2788 H 270.318 3.34336 -3.61221 0
M  V30 2789 N 271.97 1.30982 0.876444 0
M  V30 2790 C 272.88 1.2003 2.01569 0
M  V30 2791 C 273.896 0.11838 1.73597 0
M  V30 2792 O 275.072 0.33495 1.98595 0
M  V30 2793 C 272.137 0.901637 3.34771 0
M  V30 2794 C 271.198 2.06979 3.76109 0
M  V30 2795 C 270.431 1.78529 5.02954 0
M  V30 2796 O 270.654 0.717296 5.65872 0
M  V30 2797 O 269.588 2.64019 5.40905 0
M  V30 2798 H 273.414 2.15753 2.13739 0
M  V30 2799 H 270.999 1.10658 1.00375 0
M  V30 2800 H 272.881 0.750645 4.1466 0
M  V30 2801 H 271.556 -0.0256141 3.2369 0
M  V30 2802 H 270.463 2.27616 2.96887 0
M  V30 2803 H 271.796 2.97907 3.91807 0
M  V30 2804 N 273.449 -1.08991 1.13837 0
M  V30 2805 C 274.698 -1.80631 0.897509 0
M  V30 2806 C 275.011 -1.86872 -0.57777 0
M  V30 2807 O 276.217 -2.54866 -0.935701 0
M  V30 2808 C 274.673 -3.24517 1.55618 0
M  V30 2809 C 274.281 -3.26529 3.0673 0
M  V30 2810 C 276.025 -4.00882 1.3962 0
M  V30 2811 C 273.932 -4.64965 3.65461 0
M  V30 2812 H 272.862 -0.67691 0.332129 0
M  V30 2813 H 275.513 -1.2246 1.3666 0
M  V30 2814 H 273.895 -3.82778 1.01476 0
M  V30 2815 H 275.069 -2.78008 3.67489 0
M  V30 2816 H 273.384 -2.63656 3.22296 0
M  V30 2817 H 275.981 -5.03167 1.80906 0
M  V30 2818 H 276.324 -4.14896 0.341578 0
M  V30 2819 H 276.857 -3.49075 1.90766 0
M  V30 2820 H 273.596 -4.56153 4.70749 0
M  V30 2821 H 273.116 -5.13792 3.09481 0
M  V30 2822 H 274.795 -5.3394 3.654 0
M  V30 2823 N 274.927 -0.932562 -1.27047 0
M  V30 2824 C 276.155 -0.592031 -1.98249 0
M  V30 2825 C 276.57 0.831062 -1.69525 0
M  V30 2826 O 275.927 1.55299 -0.958561 0
M  V30 2827 C 275.978 -0.814279 -3.5221 0
M  V30 2828 O 275.699 -2.18139 -3.7993 0
M  V30 2829 C 277.2 -0.483121 -4.4066 0
M  V30 2830 H 274.42 -0.223896 -0.632544 0
M  V30 2831 H 276.964 -1.25091 -1.61779 0
M  V30 2832 H 275.119 -0.20213 -3.86872 0
M  V30 2833 H 275.533 -2.235 -4.74498 0
M  V30 2834 H 277.007 -0.689298 -5.47679 0
M  V30 2835 H 277.484 0.581546 -4.35333 0
M  V30 2836 H 278.09 -1.07362 -4.11526 0
M  V30 2837 N 276.405 1.4127 -0.698611 0
M  V30 2838 C 277.353 2.32588 -0.023855 0
M  V30 2839 C 278.347 1.51128 0.765292 0
M  V30 2840 O 279.553 1.67043 0.670571 0
M  V30 2841 H 275.928 0.751918 0.0110871 0
M  V30 2842 H 277.899 2.87167 -0.811031 0
M  V30 2843 C 276.648 3.35947 0.896369 0
M  V30 2844 H 275.971 3.98684 0.298548 0
M  V30 2845 H 277.411 4.02376 1.33676 0
M  V30 2846 C 275.87 2.70076 2.01396 0
M  V30 2847 O 276.4 2.55093 3.10307 0
M  V30 2848 N 274.606 2.28724 1.79259 0
M  V30 2849 H 274.153 2.4111 0.906841 0
M  V30 2850 H 274.111 1.84986 2.54219 0
M  V30 2851 N 277.883 0.443576 1.51229 0
M  V30 2852 C 278.813 -0.355142 2.30783 0
M  V30 2853 C 279.794 -1.0154 1.36468 0
M  V30 2854 O 280.979 -1.01785 1.65389 0
M  V30 2855 C 278.109 -1.45312 3.15439 0
M  V30 2856 C 277.063 -0.916002 4.18083 0
M  V30 2857 C 276.389 -2.1102 4.91299 0
M  V30 2858 C 277.689 0.0538602 5.22272 0
M  V30 2859 H 279.383 0.308767 2.97804 0
M  V30 2860 H 276.929 0.149937 1.43217 0
M  V30 2861 H 278.882 -2.01914 3.69876 0
M  V30 2862 H 277.606 -2.14541 2.46252 0
M  V30 2863 H 276.265 -0.372145 3.64706 0
M  V30 2864 H 275.913 -2.78882 4.18609 0
M  V30 2865 H 275.613 -1.75717 5.60712 0
M  V30 2866 H 277.137 -2.68164 5.48562 0
M  V30 2867 H 278.551 -0.422069 5.71744 0
M  V30 2868 H 276.948 0.319776 5.99247 0
M  V30 2869 H 278.018 0.98858 4.74716 0
M  V30 2870 N 279.361 -1.56624 0.175154 0
M  V30 2871 C 280.586 -2.01813 -0.478137 0
M  V30 2872 C 281.011 -1.05457 -1.55757 0
M  V30 2873 O 280.369 -0.0347439 -1.81267 0
M  V30 2874 C 280.417 -3.45581 -1.02987 0
M  V30 2875 O 279.521 -3.52305 -2.14371 0
M  V30 2876 H 278.862 -0.65413 -0.114059 0
M  V30 2877 H 281.392 -2.02673 0.280173 0
M  V30 2878 H 281.402 -3.84965 -1.35151 0
M  V30 2879 H 280.077 -4.1521 -0.239556 0
M  V30 2880 H 278.654 -3.24783 -1.83222 0
M  V30 2881 N 280.839 0.0985539 -1.57292 0
M  V30 2882 C 281.771 1.14595 -1.98496 0
M  V30 2883 C 282.784 1.36512 -0.887031 0
M  V30 2884 O 283.973 1.35225 -1.16518 0
M  V30 2885 C 281.073 2.50216 -2.28572 0
M  V30 2886 C 280.246 2.48624 -3.59868 0
M  V30 2887 C 279.305 3.66146 -3.7792 0
M  V30 2888 O 278.331 3.48795 -4.49812 0
M  V30 2889 N 279.533 4.85496 -3.18235 0
M  V30 2890 H 282.298 0.795277 -2.88956 0
M  V30 2891 H 279.859 0.287579 -1.59325 0
M  V30 2892 H 281.851 3.27432 -2.37845 0
M  V30 2893 H 280.421 2.77387 -1.44136 0
M  V30 2894 H 279.641 1.56978 -3.61596 0
M  V30 2895 H 280.929 2.44635 -4.46129 0
M  V30 2896 H 280.327 5.02497 -2.59833 0
M  V30 2897 H 278.884 5.60317 -3.32999 0
M  V30 2898 N 282.317 1.53212 0.369288 0
M  V30 2899 C 283.25 1.74166 1.4745 0
M  V30 2900 C 284.228 0.589923 1.51521 0
M  V30 2901 O 285.412 0.822078 1.69629 0
M  V30 2902 C 282.539 1.81711 2.8583 0
M  V30 2903 C 281.585 3.03649 2.99499 0
M  V30 2904 S 282.418 4.63242 2.6864 0
M  V30 2905 C 283.574 4.7363 4.09177 0
M  V30 2906 H 283.807 2.67636 1.29454 0
M  V30 2907 H 281.34 1.43754 0.563396 0
M  V30 2908 H 283.298 1.86743 3.65564 0
M  V30 2909 H 281.959 0.89299 3.01139 0
M  V30 2910 H 281.152 3.05526 4.00836 0
M  V30 2911 H 280.754 2.9671 2.27683 0
M  V30 2912 H 283.046 4.53456 5.03372 0
M  V30 2913 H 283.989 5.75682 4.12306 0
M  V30 2914 H 284.397 4.02295 3.96004 0
M  V30 2915 N 283.795 -0.628877 1.44509 0
M  V30 2916 C 285.023 -1.41554 1.50897 0
M  V30 2917 C 285.438 -1.8832 0.134564 0
M  V30 2918 O 284.795 -1.60969 -0.859965 0
M  V30 2919 C 284.846 -2.63435 2.47556 0
M  V30 2920 O 284.567 -2.18619 3.79654 0
M  V30 2921 C 286.068 -3.56537 2.63431 0
M  V30 2922 H 283.288 -0.434044 0.511709 0
M  V30 2923 H 285.832 -0.768895 1.89495 0
M  V30 2924 H 283.987 -3.24187 2.12089 0
M  V30 2925 H 284.401 -2.97652 4.31861 0
M  V30 2926 H 285.875 -4.38657 3.35088 0
M  V30 2927 H 286.352 -4.05493 1.68738 0
M  V30 2928 H 286.958 -3.01653 2.9981 0
M  V30 2929 N 285.273 -1.31445 -0.869486 0
M  V30 2930 C 286.203 -1.21727 -1.99261 0
M  V30 2931 C 287.184 -0.104359 -1.6978 0
M  V30 2932 O 288.369 -0.289038 -1.92037 0
M  V30 2933 C 285.499 -0.924317 -3.34774 0
M  V30 2934 C 284.453 -1.99685 -3.78563 0
M  V30 2935 C 283.779 -1.55658 -5.11541 0
M  V30 2936 C 285.079 -3.41003 -3.95619 0
M  V30 2937 H 286.773 -2.1569 -2.07649 0
M  V30 2938 H 284.319 -1.03839 -0.997675 0
M  V30 2939 H 286.272 -0.842934 -4.12883 0
M  V30 2940 H 284.996 0.0509793 -3.2656 0
M  V30 2941 H 283.655 -2.06813 -3.02694 0
M  V30 2942 H 283.303 -0.569132 -4.9977 0
M  V30 2943 H 283.003 -2.27409 -5.41811 0
M  V30 2944 H 284.527 -1.48928 -5.92159 0
M  V30 2945 H 285.941 -3.36547 -4.64122 0
M  V30 2946 H 284.338 -4.10975 -4.37286 0
M  V30 2947 H 285.408 -3.81754 -2.98985 0
M  V30 2948 N 286.751 1.08385 -1.14413 0
M  V30 2949 C 287.699 2.17406 -0.826888 0
M  V30 2950 C 288.693 1.6827 0.195312 0
M  V30 2951 O 289.899 1.79927 0.0513892 0
M  V30 2952 H 286.274 0.70934 -0.249681 0
M  V30 2953 H 288.245 2.41388 -1.75426 0
M  V30 2954 C 286.994 3.46215 -0.320979 0
M  V30 2955 H 286.317 3.84401 -1.0989 0
M  V30 2956 H 287.757 4.23777 -0.137549 0
M  V30 2957 C 286.216 3.23067 0.955472 0
M  V30 2958 O 286.746 3.4668 2.02918 0
M  V30 2959 N 284.952 2.7661 0.890798 0
M  V30 2960 H 284.499 2.57594 0.0168815 0
M  V30 2961 H 284.457 2.61501 1.74542 0
M  V30 2962 N 288.23 0.939286 1.26551 0
M  V30 2963 C 289.476 0.586715 1.94128 0
M  V30 2964 C 289.809 -0.8717 1.73537 0
M  V30 2965 O 289.084 -1.62339 1.07127 0
M  V30 2966 C 289.367 0.927497 3.4795 0
M  V30 2967 C 289.22 2.44052 3.77834 0
M  V30 2968 C 290.539 0.441569 4.37879 0
M  V30 2969 H 287.658 0.21463 0.705055 0
M  V30 2970 H 290.3 1.17316 1.49455 0
M  V30 2971 H 288.45 0.428431 3.8613 0
M  V30 2972 H 290.122 3.01216 3.4938 0
M  V30 2973 H 288.365 2.8848 3.23978 0
M  V30 2974 H 289.036 2.62947 4.85348 0
M  V30 2975 H 291.512 0.869448 4.06915 0
M  V30 2976 H 290.388 0.708856 5.44304 0
M  V30 2977 H 290.649 -0.658467 4.37169 0
M  V30 2978 N 289.708 -1.40897 0.706093 0
M  V30 2979 C 290.64 -2.29199 0.00815776 0
M  V30 2980 C 291.653 -1.45336 -0.733582 0
M  V30 2981 O 292.842 -1.68727 -0.582537 0
M  V30 2982 C 289.942 -3.23417 -1.01265 0
M  V30 2983 C 289.115 -4.36089 -0.338387 0
M  V30 2984 C 288.174 -5.10811 -1.26326 0
M  V30 2985 O 287.2 -5.64215 -0.751651 0
M  V30 2986 N 288.402 -5.19269 -2.595 0
M  V30 2987 H 291.167 -2.89738 0.766297 0
M  V30 2988 H 288.728 -1.52164 0.55296 0
M  V30 2989 H 290.72 -3.70276 -1.63334 0
M  V30 2990 H 289.29 -2.64112 -1.67223 0
M  V30 2991 H 288.51 -3.91479 0.462352 0
M  V30 2992 H 289.798 -5.08634 0.130031 0
M  V30 2993 H 289.196 -4.77347 -3.03573 0
M  V30 2994 H 287.753 -5.69667 -3.16737 0
M  V30 2995 N 291.186 -0.45159 -1.50991 0
M  V30 2996 C 292.434 0.109857 -2.01801 0
M  V30 2997 C 292.755 1.41958 -1.3369 0
M  V30 2998 O 292.025 1.9003 -0.475951 0
M  V30 2999 H 290.605 0.0435884 -0.745727 0
M  V30 3000 H 293.267 -0.597557 -1.85514 0
M  V30 3001 H 292.363 0.275489 -3.10882 0
M  V30 3002 N 292.664 1.56529 -0.183458 0
M  V30 3003 C 294.075 1.83739 0.331177 0
M  V30 3004 C 294.426 1.10373 1.62211 0
M  V30 3005 O 293.551 0.36071 2.13373 0
M  V30 3006 C 294.146 3.33306 0.607646 0
M  V30 3007 C 292.705 3.60969 1.06668 0
M  V30 3008 C 291.852 2.77086 0.109029 0
M  V30 3009 H 294.803 1.53379 -0.407484 0
M  V30 3010 H 294.824 3.51444 1.45832 0
M  V30 3011 H 294.336 3.86677 -0.332086 0
M  V30 3012 H 292.437 3.13021 2.0211 0
M  V30 3013 H 292.55 4.69231 0.967447 0
M  V30 3014 H 290.914 2.47319 0.608714 0
M  V30 3015 H 291.697 3.33241 -0.82494 0
M  V30 3016 N 294.142 -0.090211 1.57342 0
M  V30 3017 C 295.367 -0.810082 1.90925 0
M  V30 3018 C 295.792 -1.71248 0.778187 0
M  V30 3019 O 295.15 -1.79278 -0.269991 0
M  V30 3020 C 295.198 -1.59529 3.23393 0
M  V30 3021 O 294.302 -2.70461 3.11327 0
M  V30 3022 H 293.643 -0.222231 0.625707 0
M  V30 3023 H 296.173 -0.0639716 2.045 0
M  V30 3024 H 296.183 -1.97847 3.5682 0
M  V30 3025 H 294.858 -0.933055 4.05299 0
M  V30 3026 H 293.435 -2.35135 2.89423 0
M  V30 3027 N 295.62 -1.53406 -0.361157 0
M  V30 3028 C 296.86 -1.71507 -1.11197 0
M  V30 3029 C 297.224 -0.459337 -1.86425 0
M  V30 3030 O 298.425 -0.517102 -2.63779 0
M  V30 3031 C 296.696 -2.93307 -2.0422 0
M  V30 3032 S 298.255 -3.32135 -2.86761 0
M  V30 3033 H 295.073 -0.603448 -0.375995 0
M  V30 3034 H 297.675 -1.91516 -0.392642 0
M  V30 3035 H 296.379 -3.82891 -1.47724 0
M  V30 3036 H 295.91 -2.75712 -2.80618 0
M  V30 3037 H 297.925 -2.84493 -4.06544 0
M  V30 3038 N 297.098 0.621204 -1.44841 0
M  V30 3039 C 298.347 1.37658 -1.47422 0
M  V30 3040 C 298.66 1.95264 -0.114629 0
M  V30 3041 O 299.866 2.71494 -0.0180199 0
M  V30 3042 C 298.322 2.49285 -2.59586 0
M  V30 3043 C 297.93 1.98149 -4.01797 0
M  V30 3044 C 299.674 3.26409 -2.71399 0
M  V30 3045 C 297.581 3.07178 -5.05367 0
M  V30 3046 H 296.511 0.517344 -0.548517 0
M  V30 3047 H 299.162 0.667257 -1.70938 0
M  V30 3048 H 297.544 3.22839 -2.29328 0
M  V30 3049 H 298.718 1.31395 -4.41669 0
M  V30 3050 H 297.033 1.33812 -3.94314 0
M  V30 3051 H 299.63 4.07706 -3.45948 0
M  V30 3052 H 299.973 3.76535 -1.77559 0
M  V30 3053 H 300.506 2.5995 -3.01116 0
M  V30 3054 H 297.245 2.61985 -6.00869 0
M  V30 3055 H 296.765 3.72542 -4.70077 0
M  V30 3056 H 298.444 3.71789 -5.29511 0
M  V30 3057 N 298.576 1.31904 0.862503 0
M  V30 3058 C 299.506 1.22782 1.98612 0
M  V30 3059 C 300.487 0.113362 1.69722 0
M  V30 3060 O 301.672 0.299218 1.91881 0
M  V30 3061 C 298.802 0.942058 3.34279 0
M  V30 3062 C 297.756 2.0169 3.77499 0
M  V30 3063 C 297.082 1.58369 5.10709 0
M  V30 3064 C 298.382 3.43096 3.93805 0
M  V30 3065 H 300.076 2.16788 2.06502 0
M  V30 3066 H 297.622 1.04366 0.992154 0
M  V30 3067 H 299.575 0.864818 4.1243 0
M  V30 3068 H 298.299 -0.0336603 3.26583 0
M  V30 3069 H 296.958 2.08416 3.01593 0
M  V30 3070 H 296.606 0.595628 4.99461 0
M  V30 3071 H 296.306 2.30279 5.40597 0
M  V30 3072 H 297.83 1.52067 5.91361 0
M  V30 3073 H 299.244 3.39003 4.62331 0
M  V30 3074 H 297.641 4.13288 4.35101 0
M  V30 3075 H 298.711 3.83334 2.96957 0
M  V30 3076 N 300.054 -1.07777 1.14986 0
M  V30 3077 C 301.001 -2.14867 0.842672 0
M  V30 3078 C 301.971 -1.6486 -0.202552 0
M  V30 3079 O 303.156 -1.90668 -0.0710568 0
M  V30 3080 C 300.296 -3.43486 0.333363 0
M  V30 3081 C 299.409 -4.07306 1.43965 0
M  V30 3082 C 298.544 -5.23744 0.886914 0
M  V30 3083 C 297.583 -5.79517 1.97043 0
M  V30 3084 N 296.72 -6.87291 1.4344 0
M  V30 3085 H 301.56 -2.40485 1.75986 0
M  V30 3086 H 299.097 -1.1801 0.878179 0
M  V30 3087 H 301.055 -4.17195 0.0198163 0
M  V30 3088 H 299.685 -3.18133 -0.546916 0
M  V30 3089 H 298.737 -3.31293 1.86946 0
M  V30 3090 H 300.049 -4.44771 2.25788 0
M  V30 3091 H 299.203 -6.04419 0.525651 0
M  V30 3092 H 297.942 -4.87685 0.0377957 0
M  V30 3093 H 296.947 -4.97491 2.34057 0
M  V30 3094 H 298.172 -6.17632 2.82325 0
M  V30 3095 H 296.118 -6.5318 0.607567 0
M  V30 3096 H 296.035 -7.23617 2.18895 0
M  V30 3097 H 297.303 -7.71682 1.10124 0
M  V30 3098 N 301.532 -0.945985 -1.26051 0
M  V30 3099 C 302.479 -0.45809 -2.26208 0
M  V30 3100 C 303.449 0.484816 -1.58867 0
M  V30 3101 O 304.634 0.399969 -1.86561 0
M  V30 3102 C 301.774 0.266131 -3.44072 0
M  V30 3103 C 300.887 -0.713005 -4.26075 0
M  V30 3104 C 300.022 0.0329013 -5.3119 0
M  V30 3105 C 299.061 -0.93774 -6.04874 0
M  V30 3106 N 298.198 -0.223274 -7.01745 0
M  V30 3107 H 303.038 -1.3171 -2.67313 0
M  V30 3108 H 300.575 -0.66069 -1.31428 0
M  V30 3109 H 302.533 0.702514 -4.11243 0
M  V30 3110 H 301.163 1.08925 -3.03867 0
M  V30 3111 H 300.215 -1.26789 -3.58648 0
M  V30 3112 H 301.527 -1.45406 -4.77136 0
M  V30 3113 H 300.681 0.528335 -6.04395 0
M  V30 3114 H 299.42 0.806801 -4.8098 0
M  V30 3115 H 298.425 -1.44425 -5.30492 0
M  V30 3116 H 299.65 -1.71172 -6.57173 0
M  V30 3117 H 297.596 0.532046 -6.53839 0
M  V30 3118 H 297.513 -0.90357 -7.50581 0
M  V30 3119 H 298.781 0.250907 -7.79096 0
M  V30 3120 N 303.011 1.40521 -0.713556 0
M  V30 3121 C 304.241 2.0494 -0.261395 0
M  V30 3122 C 304.649 1.53861 1.10107 0
M  V30 3123 O 303.992 0.689321 1.70276 0
M  V30 3124 C 304.054 3.59138 -0.161227 0
M  V30 3125 C 303.718 4.33096 -1.45865 0
M  V30 3126 C 304.715 4.61182 -2.40016 0
M  V30 3127 C 302.4 4.72043 -1.71701 0
M  V30 3128 C 304.394 5.27196 -3.58251 0
M  V30 3129 C 302.081 5.37789 -2.90218 0
M  V30 3130 C 303.079 5.65295 -3.83315 0
M  V30 3131 O 302.767 6.29683 -4.99754 0
M  V30 3132 H 302.499 0.666041 -0.115608 0
M  V30 3133 H 305.053 1.80954 -0.971849 0
M  V30 3134 H 303.283 3.81936 0.605153 0
M  V30 3135 H 304.972 4.05091 0.256105 0
M  V30 3136 H 305.738 4.31559 -2.21318 0
M  V30 3137 H 301.617 4.50003 -1.00092 0
M  V30 3138 H 305.161 5.48582 -4.30934 0
M  V30 3139 H 301.058 5.66831 -3.08825 0
M  V30 3140 H 301.826 6.4818 -4.99805 0
M  V30 3141 N 304.489 0.459591 1.5075 0
M  V30 3142 C 305.905 0.113092 1.59199 0
M  V30 3143 C 306.105 -1.37951 1.46874 0
M  V30 3144 O 305.161 -2.15168 1.32132 0
M  V30 3145 C 306.474 0.653043 2.93523 0
M  V30 3146 C 308.022 0.615449 3.0689 0
M  V30 3147 C 308.497 1.13275 4.43771 0
M  V30 3148 N 309.988 1.09167 4.50152 0
M  V30 3149 C 310.723 1.46256 5.54434 0
M  V30 3150 N 310.219 1.90739 6.66026 0
M  V30 3151 N 312.012 1.37932 5.44914 0
M  V30 3152 H 304.163 1.43049 1.57005 0
M  V30 3153 H 306.426 0.590861 0.741341 0
M  V30 3154 H 306.132 1.69822 3.07983 0
M  V30 3155 H 306.006 0.0902132 3.77092 0
M  V30 3156 H 308.393 -0.420793 2.92084 0
M  V30 3157 H 308.474 1.21495 2.25106 0
M  V30 3158 H 308.118 2.16757 4.59324 0
M  V30 3159 H 308.048 0.509576 5.24129 0
M  V30 3160 H 310.539 0.76528 3.7007 0
M  V30 3161 H 310.852 2.17218 7.41644 0
M  V30 3162 H 309.197 1.94683 6.67176 0
M  V30 3163 H 312.388 1.0303 4.56621 0
M  V30 3164 H 312.561 1.67164 6.26067 0
M  V30 3165 N 305.967 -1.56429 0.191757 0
M  V30 3166 C 306.897 -2.21937 -0.725696 0
M  V30 3167 C 307.878 -1.1814 -1.2238 0
M  V30 3168 O 309.063 -1.46636 -1.27325 0
M  V30 3169 C 306.193 -2.87611 -1.94672 0
M  V30 3170 C 305.147 -3.97623 -1.58366 0
M  V30 3171 C 304.473 -4.50446 -2.88102 0
M  V30 3172 C 305.773 -5.16197 -0.796133 0
M  V30 3173 H 307.467 -2.98861 -0.179606 0
M  V30 3174 H 305.013 -1.43749 -0.0849464 0
M  V30 3175 H 306.966 -3.3212 -2.59373 0
M  V30 3176 H 305.69 -2.08087 -2.51728 0
M  V30 3177 H 304.349 -3.53801 -0.960247 0
M  V30 3178 H 303.997 -3.67688 -3.43241 0
M  V30 3179 H 303.697 -5.24675 -2.64556 0
M  V30 3180 H 305.221 -4.97654 -3.53798 0
M  V30 3181 H 306.635 -5.57271 -1.34618 0
M  V30 3182 H 305.032 -5.96471 -0.658928 0
M  V30 3183 H 306.102 -4.84473 0.203478 0
M  V30 3184 N 307.445 0.0818655 -1.57387 0
M  V30 3185 C 308.691 0.784074 -1.8703 0
M  V30 3186 C 309.024 1.77729 -0.782689 0
M  V30 3187 O 308.299 1.93384 0.208051 0
M  V30 3188 C 308.582 1.50105 -3.27323 0
M  V30 3189 C 308.435 0.524925 -4.46727 0
M  V30 3190 C 309.754 2.44843 -3.65705 0
M  V30 3191 H 306.873 0.283582 -0.680257 0
M  V30 3192 H 309.515 0.0474352 -1.89941 0
M  V30 3193 H 307.665 2.12897 -3.24972 0
M  V30 3194 H 309.337 -0.0970111 -4.61198 0
M  V30 3195 H 307.58 -0.160606 -4.33503 0
M  V30 3196 H 308.251 1.064 -5.41648 0
M  V30 3197 H 310.727 1.92135 -3.69085 0
M  V30 3198 H 309.603 2.92018 -4.64776 0
M  V30 3199 H 309.864 3.29197 -2.95096 0
M  V30 3200 N 308.923 1.53595 0.353017 0
M  V30 3201 C 309.853 1.83902 1.43883 0
M  V30 3202 C 310.834 0.693421 1.55324 0
M  V30 3203 O 312.019 0.944452 1.69687 0
M  V30 3204 C 309.149 2.04016 2.8106 0
M  V30 3205 C 308.103 3.19814 2.84434 0
M  V30 3206 C 307.429 3.25244 4.24406 0
M  V30 3207 C 308.729 4.58133 2.50822 0
M  V30 3208 H 310.423 2.74835 1.1877 0
M  V30 3209 H 307.969 1.32242 0.569917 0
M  V30 3210 H 309.922 2.238 3.57059 0
M  V30 3211 H 308.646 1.09804 3.07588 0
M  V30 3212 H 307.305 2.9987 2.10887 0
M  V30 3213 H 306.953 2.28646 4.48029 0
M  V30 3214 H 306.653 4.03054 4.27576 0
M  V30 3215 H 308.177 3.47228 5.0226 0
M  V30 3216 H 309.591 4.77995 3.16534 0
M  V30 3217 H 307.988 5.38276 2.6529 0
M  V30 3218 H 309.058 4.62387 1.46034 0
M  V30 3219 N 310.401 -0.613514 1.45168 0
M  V30 3220 C 311.351 -1.71871 1.49815 0
M  V30 3221 C 312.335 -1.56774 0.362021 0
M  V30 3222 O 313.527 -1.66212 0.608493 0
M  V30 3223 C 310.656 -3.1061 1.46207 0
M  V30 3224 C 309.742 -3.31114 2.64999 0
M  V30 3225 N 310.133 -3.21904 3.90143 0
M  V30 3226 C 308.431 -3.61966 2.6057 0
M  V30 3227 C 309.132 -3.43577 4.69393 0
M  V30 3228 N 308.108 -3.67287 4.00751 0
M  V30 3229 H 311.91 -1.63235 2.444 0
M  V30 3230 H 309.424 -0.816577 1.40377 0
M  V30 3231 H 311.421 -3.8989 1.4762 0
M  V30 3232 H 310.081 -3.20399 0.52673 0
M  V30 3233 H 311.092 -3.00436 4.21852 0
M  V30 3234 H 307.769 -3.78629 1.75916 0
M  V30 3235 H 309.159 -3.41901 5.78406 0
M  V30 3236 N 311.879 -1.3236 -0.855495 0
M  V30 3237 C 313.107 -1.2587 -1.64208 0
M  V30 3238 C 313.522 0.173457 -1.88002 0
M  V30 3239 O 312.879 1.11027 -1.44842 0
M  V30 3240 C 312.93 -2.01424 -3.00184 0
M  V30 3241 O 312.651 -3.39051 -2.77445 0
M  V30 3242 C 314.152 -2.01948 -3.94629 0
M  V30 3243 H 311.372 -0.434318 -0.511477 0
M  V30 3244 H 313.916 -1.74469 -1.0668 0
M  V30 3245 H 312.071 -1.56549 -3.5436 0
M  V30 3246 H 312.485 -3.77711 -3.63916 0
M  V30 3247 H 313.959 -2.59297 -4.87308 0
M  V30 3248 H 314.436 -1.00554 -4.27534 0
M  V30 3249 H 315.042 -2.46767 -3.4639 0
M  V30 3250 N 313.357 1.07166 -1.15556 0
M  V30 3251 C 314.582 1.84053 -0.955988 0
M  V30 3252 C 315.007 1.81586 0.490739 0
M  V30 3253 O 314.365 1.21018 1.34997 0
M  V30 3254 C 314.413 3.28957 -1.47714 0
M  V30 3255 O 313.517 4.06795 -0.677593 0
M  V30 3256 H 312.858 0.569842 -0.340847 0
M  V30 3257 H 315.388 1.35178 -1.53584 0
M  V30 3258 H 315.398 3.79788 -1.4908 0
M  V30 3259 H 314.073 3.30068 -2.53037 0
M  V30 3260 H 312.65 3.6561 -0.733721 0
M  V30 3261 N 314.835 0.952656 1.25548 0
M  V30 3262 C 315.782 0.47008 2.25962 0
M  V30 3263 C 316.752 -0.476384 1.59122 0
M  V30 3264 O 317.937 -0.39007 1.8677 0
M  V30 3265 C 315.077 -0.247881 3.44209 0
M  V30 3266 C 314.19 0.735591 4.25691 0
M  V30 3267 C 313.325 -0.0047306 5.312 0
M  V30 3268 C 312.364 0.969805 6.04368 0
M  V30 3269 N 311.501 0.260486 7.01617 0
M  V30 3270 H 316.341 1.33126 2.66611 0
M  V30 3271 H 313.878 0.66765 1.31076 0
M  V30 3272 H 315.836 -0.680695 4.1161 0
M  V30 3273 H 314.466 -1.07312 3.0444 0
M  V30 3274 H 313.518 1.28689 3.57971 0
M  V30 3275 H 314.83 1.47934 4.76358 0
M  V30 3276 H 313.984 -0.496275 6.04667 0
M  V30 3277 H 312.723 -0.781282 4.81401 0
M  V30 3278 H 311.728 1.47237 5.29718 0
M  V30 3279 H 312.953 1.74655 6.56256 0
M  V30 3280 H 310.899 -0.497364 6.54112 0
M  V30 3281 H 310.816 0.943362 7.50091 0
M  V30 3282 H 312.084 -0.209587 7.79218 0
M  V30 3283 N 316.313 -1.40141 0.720998 0
M  V30 3284 C 317.223 -2.34486 0.0731031 0
M  V30 3285 C 318.239 -1.57587 -0.737723 0
M  V30 3286 O 319.415 -1.89949 -0.669429 0
M  V30 3287 C 316.48 -3.36528 -0.833656 0
M  V30 3288 C 315.541 -4.29298 -0.0121673 0
M  V30 3289 C 314.774 -5.26466 -0.875742 0
M  V30 3290 O 314.997 -5.29745 -2.11485 0
M  V30 3291 O 313.931 -6.01092 -0.31185 0
M  V30 3292 H 317.757 -2.9152 0.851444 0
M  V30 3293 H 315.342 -1.41427 0.481527 0
M  V30 3294 H 317.224 -3.99093 -1.35289 0
M  V30 3295 H 315.899 -2.81899 -1.59105 0
M  V30 3296 H 314.806 -3.70001 0.552262 0
M  V30 3297 H 316.139 -4.87094 0.707129 0
M  V30 3298 N 317.792 -0.46758 -1.50504 0
M  V30 3299 C 318.702 0.33382 -2.32213 0
M  V30 3300 C 319.718 0.999323 -1.42441 0
M  V30 3301 O 320.894 0.988068 -1.75497 0
M  V30 3302 C 317.959 1.4035 -3.17022 0
M  V30 3303 C 317.02 0.754961 -4.2261 0
M  V30 3304 C 316.253 1.77367 -5.03365 0
M  V30 3305 O 316.476 2.99976 -4.8515 0
M  V30 3306 O 315.41 1.34744 -5.86624 0
M  V30 3307 H 319.236 -0.334067 -3.01857 0
M  V30 3308 H 316.821 -0.229496 -1.47627 0
M  V30 3309 H 318.703 2.02318 -3.69656 0
M  V30 3310 H 317.378 2.05492 -2.5011 0
M  V30 3311 H 316.285 0.0964244 -3.73976 0
M  V30 3312 H 317.618 0.146545 -4.91982 0
M  V30 3313 N 319.27 1.56325 -0.20005 0
M  V30 3314 C 320.495 2.02548 0.44597 0
M  V30 3315 C 320.92 1.07922 1.5406 0
M  V30 3316 O 320.278 0.0635775 1.81188 0
M  V30 3317 C 320.326 3.47175 0.974761 0
M  V30 3318 O 319.43 3.55671 2.08739 0
M  V30 3319 H 318.771 0.655862 0.103638 0
M  V30 3320 H 321.301 2.02201 -0.312381 0
M  V30 3321 H 321.311 3.87067 1.2901 0
M  V30 3322 H 319.986 4.15538 0.17347 0
M  V30 3323 H 318.563 3.27657 1.78032 0
M  V30 3324 N 320.748 -0.0735177 1.57428 0
M  V30 3325 C 321.695 -1.08756 2.0357 0
M  V30 3326 C 322.665 -1.38559 0.916 0
M  V30 3327 O 323.85 -1.49656 1.18354 0
M  V30 3328 C 320.99 -2.39657 2.48311 0
M  V30 3329 C 320.103 -2.16399 3.73892 0
M  V30 3330 C 319.238 -3.40852 4.07423 0
M  V30 3331 C 318.277 -3.1295 5.2605 0
M  V30 3332 N 317.414 -4.29729 5.55228 0
M  V30 3333 H 322.254 -0.687104 2.8997 0
M  V30 3334 H 319.791 -0.327709 1.43403 0
M  V30 3335 H 321.749 -3.16081 2.72303 0
M  V30 3336 H 320.379 -2.77508 1.64891 0
M  V30 3337 H 319.431 -1.30676 3.57251 0
M  V30 3338 H 320.743 -1.91788 4.60455 0
M  V30 3339 H 319.897 -4.25671 4.32306 0
M  V30 3340 H 318.636 -3.68537 3.19425 0
M  V30 3341 H 317.641 -2.26526 5.00965 0
M  V30 3342 H 318.866 -2.86589 6.15665 0
M  V30 3343 H 316.812 -4.57448 4.70188 0
M  V30 3344 H 316.729 -4.08385 6.36206 0
M  V30 3345 H 317.997 -5.1555 5.84661 0
M  V30 3346 N 322.226 -1.5378 -0.344866 0
M  V30 3347 C 323.173 -1.81676 -1.42346 0
M  V30 3348 C 324.143 -0.662376 -1.52321 0
M  V30 3349 O 325.328 -0.906675 -1.67881 0
M  V30 3350 C 322.468 -2.03087 -2.79015 0
M  V30 3351 C 321.581 -3.30799 -2.77842 0
M  V30 3352 C 320.716 -3.42285 -4.0622 0
M  V30 3353 C 319.755 -4.6395 -3.9927 0
M  V30 3354 N 318.892 -4.72477 -5.19336 0
M  V30 3355 H 323.732 -2.73703 -1.17858 0
M  V30 3356 H 321.269 -1.35568 -0.570949 0
M  V30 3357 H 323.227 -2.1349 -3.58438 0
M  V30 3358 H 321.857 -1.14375 -3.01858 0
M  V30 3359 H 320.909 -3.29244 -1.90533 0
M  V30 3360 H 322.221 -4.20314 -2.68584 0
M  V30 3361 H 321.375 -3.52113 -4.94066 0
M  V30 3362 H 320.114 -2.50823 -4.18258 0
M  V30 3363 H 319.119 -4.54201 -3.09809 0
M  V30 3364 H 320.344 -5.56775 -3.88817 0
M  V30 3365 H 318.29 -3.83924 -5.3192 0
M  V30 3366 H 318.207 -5.55927 -5.12329 0
M  V30 3367 H 319.475 -4.86613 -6.08957 0
M  V30 3368 N 323.704 0.605807 -1.45491 0
M  V30 3369 C 324.667 1.69836 -1.5391 0
M  V30 3370 C 325.667 1.55261 -0.418424 0
M  V30 3371 O 326.857 1.60296 -0.681965 0
M  V30 3372 C 323.989 3.09117 -1.43734 0
M  V30 3373 H 325.182 1.63738 -2.51257 0
M  V30 3374 H 322.735 0.821689 -1.32959 0
M  V30 3375 H 323.47 3.20791 -0.475788 0
M  V30 3376 H 323.255 3.21104 -2.25021 0
M  V30 3377 H 324.745 3.88696 -1.52661 0
M  V30 3378 N 325.182 1.32811 0.848464 0
M  V30 3379 C 326.598 1.11937 1.13764 0
M  V30 3380 C 326.798 -0.0960789 2.01271 0
M  V30 3381 O 325.854 -0.779165 2.40178 0
M  V30 3382 C 327.167 2.402 1.809 0
M  V30 3383 C 328.715 2.46016 1.93508 0
M  V30 3384 C 329.19 3.74215 2.64059 0
M  V30 3385 N 330.681 3.75232 2.71579 0
M  V30 3386 C 331.416 4.71134 3.26833 0
M  V30 3387 N 330.912 5.77406 3.8285 0
M  V30 3388 N 332.705 4.58623 3.24995 0
M  V30 3389 H 324.856 2.1073 0.265855 0
M  V30 3390 H 327.119 0.930671 0.180431 0
M  V30 3391 H 326.825 3.29093 1.24058 0
M  V30 3392 H 326.699 2.51628 2.81004 0
M  V30 3393 H 329.086 1.57577 2.49506 0
M  V30 3394 H 329.167 2.38536 0.923811 0
M  V30 3395 H 328.811 4.63031 2.08722 0
M  V30 3396 H 328.741 3.78968 3.65637 0
M  V30 3397 H 331.232 2.98423 2.31845 0
M  V30 3398 H 331.545 6.46632 4.23187 0
M  V30 3399 H 329.89 5.81152 3.81165 0
M  V30 3400 H 333.081 3.74762 2.80484 0
M  V30 3401 H 333.254 5.33535 3.67756 0
M  V30 3402 N 326.66 -1.06551 1.16123 0
M  V30 3403 C 327.906 -1.79567 0.94252 0
M  V30 3404 C 328.239 -1.86869 -0.528547 0
M  V30 3405 O 327.514 -1.35838 -1.39206 0
M  V30 3406 C 327.797 -3.24195 1.56747 0
M  V30 3407 C 327.65 -3.24989 3.10969 0
M  V30 3408 C 328.969 -4.21678 1.25998 0
M  V30 3409 H 326.088 -0.651883 0.343828 0
M  V30 3410 H 328.73 -1.2463 1.43413 0
M  V30 3411 H 326.88 -3.71107 1.14942 0
M  V30 3412 H 328.552 -2.86258 3.61737 0
M  V30 3413 H 326.795 -2.63716 3.44436 0
M  V30 3414 H 327.466 -4.27005 3.49815 0
M  V30 3415 H 329.942 -3.83196 1.62174 0
M  V30 3416 H 328.818 -5.21146 1.7233 0
M  V30 3417 H 329.079 -4.4174 0.178367 0
M  V30 3418 N 328.138 -0.959301 -1.25041 0
M  V30 3419 C 329.368 -0.63303 -1.96663 0
M  V30 3420 C 329.776 0.800031 -1.71453 0
M  V30 3421 O 329.119 1.54736 -0.99008 0
M  V30 3422 C 329.181 -0.817523 -3.50081 0
M  V30 3423 C 328.845 -2.22863 -3.98975 0
M  V30 3424 C 329.842 -3.20569 -4.09306 0
M  V30 3425 C 327.527 -2.55407 -4.32519 0
M  V30 3426 C 329.521 -4.4891 -4.52503 0
M  V30 3427 C 327.208 -3.83976 -4.754 0
M  V30 3428 C 328.206 -4.8054 -4.85356 0
M  V30 3429 O 327.894 -6.06817 -5.27284 0
M  V30 3430 H 327.626 -0.235866 -0.633516 0
M  V30 3431 H 330.18 -1.2874 -1.60047 0
M  V30 3432 H 328.41 -0.105992 -3.86555 0
M  V30 3433 H 330.099 -0.491604 -4.02912 0
M  V30 3434 H 330.865 -2.96753 -3.83618 0
M  V30 3435 H 326.744 -1.8097 -4.23994 0
M  V30 3436 H 330.288 -5.24283 -4.60188 0
M  V30 3437 H 326.185 -4.07596 -5.00535 0
M  V30 3438 H 326.953 -6.10262 -5.45457 0
M  V30 3439 N 329.616 1.39756 -0.72842 0
M  V30 3440 C 330.862 2.01425 -0.282761 0
M  V30 3441 C 331.217 1.56754 1.11561 0
M  V30 3442 O 330.51 0.783482 1.74849 0
M  V30 3443 C 330.704 3.56002 -0.315776 0
M  V30 3444 C 330.533 4.1568 -1.71582 0
M  V30 3445 C 329.303 4.48555 -2.32651 0
M  V30 3446 C 331.501 4.39667 -2.66829 0
M  V30 3447 N 329.483 4.93698 -3.64877 0
M  V30 3448 C 330.854 4.86942 -3.8378 0
M  V30 3449 C 332.909 4.21724 -2.64675 0
M  V30 3450 C 331.612 5.18158 -4.98904 0
M  V30 3451 C 333.638 4.54049 -3.78937 0
M  V30 3452 C 333 5.01525 -4.94623 0
M  V30 3453 H 329.099 0.76756 -0.149583 0
M  V30 3454 H 331.683 1.69784 -0.952976 0
M  V30 3455 H 329.854 3.87046 0.324057 0
M  V30 3456 H 331.586 4.0443 0.147808 0
M  V30 3457 H 328.341 4.36128 -1.84633 0
M  V30 3458 H 328.765 5.20635 -4.32744 0
M  V30 3459 H 333.407 3.84228 -1.76433 0
M  V30 3460 H 331.125 5.54562 -5.87781 0
M  V30 3461 H 334.711 4.41795 -3.78561 0
M  V30 3462 H 333.591 5.26065 -5.81572 0
M  V30 3463 N 331.094 0.475555 1.50254 0
M  V30 3464 C 332.505 0.0215174 1.86688 0
M  V30 3465 C 332.856 -1.38467 1.39001 0
M  V30 3466 O 331.981 -2.02732 0.756894 0
M  V30 3467 C 332.576 0.0322715 3.38785 0
M  V30 3468 C 331.135 -0.366314 3.74613 0
M  V30 3469 C 330.282 0.415832 2.74164 0
M  V30 3470 H 333.233 0.689612 1.42934 0
M  V30 3471 H 333.254 -0.76889 3.7265 0
M  V30 3472 H 332.766 1.05584 3.73462 0
M  V30 3473 H 330.867 -1.39406 3.45538 0
M  V30 3474 H 330.98 -0.064555 4.79057 0
M  V30 3475 H 329.344 -0.131048 2.54363 0
M  V30 3476 H 330.127 1.43899 3.11686 0
M  V30 3477 N 332.573 -1.56217 0.208337 0
M  V30 3478 C 333.505 -2.1695 -0.739276 0
M  V30 3479 C 334.518 -1.13492 -1.1672 0
M  V30 3480 O 335.707 -1.40529 -1.10063 0
M  V30 3481 C 332.807 -2.72755 -2.01142 0
M  V30 3482 C 331.98 -4.0125 -1.74118 0
M  V30 3483 C 331.039 -4.41749 -2.85909 0
M  V30 3484 O 330.065 -5.08912 -2.54946 0
M  V30 3485 N 331.267 -4.06342 -4.14568 0
M  V30 3486 H 334.032 -2.98893 -0.219837 0
M  V30 3487 H 331.593 -1.61878 0.0268445 0
M  V30 3488 H 333.585 -2.96826 -2.75094 0
M  V30 3489 H 332.155 -1.95191 -2.4417 0
M  V30 3490 H 331.375 -3.85173 -0.838775 0
M  V30 3491 H 332.663 -4.851 -1.53477 0
M  V30 3492 H 332.061 -3.52345 -4.42571 0
M  V30 3493 H 330.618 -4.35335 -4.85105 0
M  V30 3494 N 334.051 0.0651679 -1.57465 0
M  V30 3495 C 334.998 1.07675 -2.04144 0
M  V30 3496 C 335.968 1.38071 -0.923335 0
M  V30 3497 O 337.153 1.49026 -1.19146 0
M  V30 3498 C 334.293 2.38337 -2.49579 0
M  V30 3499 C 333.406 2.14413 -3.75035 0
M  V30 3500 C 332.541 3.38686 -4.09225 0
M  V30 3501 C 331.58 3.10156 -5.27702 0
M  V30 3502 N 330.717 4.26778 -5.57499 0
M  V30 3503 H 335.557 0.671716 -2.90331 0
M  V30 3504 H 333.094 0.3201 -1.43575 0
M  V30 3505 H 335.052 3.14632 -2.73975 0
M  V30 3506 H 333.682 2.7663 -1.6636 0
M  V30 3507 H 332.734 1.2878 -3.57939 0
M  V30 3508 H 334.046 1.89344 -4.61466 0
M  V30 3509 H 333.2 4.23373 -4.34558 0
M  V30 3510 H 331.939 3.66837 -3.21374 0
M  V30 3511 H 330.944 2.23866 -5.02159 0
M  V30 3512 H 332.169 2.8332 -6.17176 0
M  V30 3513 H 330.115 4.54948 -4.72608 0
M  V30 3514 H 330.032 4.05005 -6.38362 0
M  V30 3515 H 331.3 5.12443 -5.87386 0
M  V30 3516 N 335.529 1.53961 0.336706 0
M  V30 3517 C 336.806 1.62171 1.09361 0
M  V30 3518 C 337.186 0.447263 2.06307 0
M  V30 3519 O 336.534 -0.559802 2.21537 0
M  V30 3520 C 336.744 2.98565 1.80721 0
M  V30 3521 C 338.092 3.54157 2.34218 0
M  V30 3522 O 339.116 3.00784 1.90807 0
M  V30 3523 O 337.975 4.47528 3.13657 0
M  V30 3524 H 335.069 0.6562 0.503319 0
M  V30 3525 H 337.615 1.66307 0.33765 0
M  V30 3526 H 336.387 3.75482 1.10132 0
M  V30 3527 H 336.01 2.9805 2.63158 0
M  V30 3528 N 337.007 -0.598083 1.45811 0
M  V30 3529 C 337.955 -1.72932 1.55555 0
M  V30 3530 C 338.949 -1.63984 0.424921 0
M  V30 3531 O 340.155 -1.69663 0.601205 0
M  V30 3532 H 336.53 -0.571489 0.488779 0
M  V30 3533 H 338.501 -1.61842 2.50699 0
M  V30 3534 C 337.25 -3.11318 1.54843 0
M  V30 3535 H 336.573 -3.18867 2.41172 0
M  V30 3536 H 338.013 -3.90274 1.65717 0
M  V30 3537 C 336.472 -3.3578 0.274427 0
M  V30 3538 O 337.002 -3.9654 -0.641778 0
M  V30 3539 N 335.208 -2.90119 0.167139 0
M  V30 3540 H 334.755 -2.40855 0.913596 0
M  V30 3541 H 334.713 -3.0686 -0.684435 0
M  V30 3542 N 338.485 -1.33259 -0.841409 0
M  V30 3543 C 339.71 -1.2775 -1.63385 0
M  V30 3544 C 340.135 0.149188 -1.87507 0
M  V30 3545 O 339.493 1.10498 -1.43736 0
M  V30 3546 C 339.541 -2.05571 -2.96265 0
M  V30 3547 O 338.645 -1.41257 -3.87453 0
M  V30 3548 H 337.986 -0.439627 -0.497618 0
M  V30 3549 H 340.516 -1.75782 -1.04699 0
M  V30 3550 H 340.526 -2.16241 -3.45982 0
M  V30 3551 H 339.201 -3.09309 -2.7803 0
M  V30 3552 H 337.778 -1.39217 -3.45938 0
M  V30 3553 N 339.963 1.05934 -1.16686 0
M  V30 3554 C 341.188 1.83029 -0.975455 0
M  V30 3555 C 341.613 1.82096 0.471452 0
M  V30 3556 O 340.971 1.22443 1.33706 0
M  V30 3557 C 341.019 3.27372 -1.51195 0
M  V30 3558 O 340.123 4.06054 -0.720701 0
M  V30 3559 H 339.464 0.566194 -0.346872 0
M  V30 3560 H 341.994 1.33541 -1.55009 0
M  V30 3561 H 342.004 3.78186 -1.53099 0
M  V30 3562 H 340.679 3.27366 -2.56523 0
M  V30 3563 H 339.256 3.64812 -0.772458 0
M  V30 3564 N 341.441 0.965919 1.2453 0
M  V30 3565 C 342.669 0.644385 1.96609 0
M  V30 3566 C 343.084 -0.785823 1.71669 0
M  V30 3567 O 342.441 -1.52703 0.999399 0
M  V30 3568 C 342.492 0.907375 3.49927 0
M  V30 3569 O 342.213 2.28136 3.74013 0
M  V30 3570 C 343.714 0.599784 4.39224 0
M  V30 3571 H 340.934 0.240588 0.626385 0
M  V30 3572 H 343.478 1.29337 1.58405 0
M  V30 3573 H 341.633 0.304631 3.862 0
M  V30 3574 H 342.047 2.36002 4.68405 0
M  V30 3575 H 343.521 0.834263 5.45659 0
M  V30 3576 H 343.998 -0.465921 4.36722 0
M  V30 3577 H 344.604 1.18235 4.08535 0
M  V30 3578 N 342.919 -1.39368 0.735821 0
M  V30 3579 C 344.166 -2.00497 0.284123 0
M  V30 3580 C 344.494 -1.58387 -1.12889 0
M  V30 3581 O 343.749 -0.804359 -1.78406 0
M  V30 3582 C 344.048 -3.5583 0.334651 0
M  V30 3583 C 343.714 -4.17593 1.7008 0
M  V30 3584 C 342.376 -4.34176 2.07472 0
M  V30 3585 C 344.728 -4.51848 2.59775 0
M  V30 3586 C 342.056 -4.82304 3.34065 0
M  V30 3587 C 344.408 -5.01384 3.85741 0
M  V30 3588 C 343.072 -5.16175 4.23225 0
M  V30 3589 H 342.342 -0.73367 0.103968 0
M  V30 3590 H 344.989 -1.66683 0.942825 0
M  V30 3591 H 343.294 -3.89674 -0.407625 0
M  V30 3592 H 344.991 -4.00986 -0.0329927 0
M  V30 3593 H 341.581 -4.05087 1.40008 0
M  V30 3594 H 345.765 -4.38653 2.32157 0
M  V30 3595 H 341.021 -4.91941 3.63049 0
M  V30 3596 H 345.195 -5.26863 4.55399 0
M  V30 3597 H 342.822 -5.5323 5.21384 0
M  V30 3598 N 344.397 -0.483516 -1.5 0
M  V30 3599 C 345.307 0.309172 -2.32554 0
M  V30 3600 C 346.323 0.984159 -1.43493 0
M  V30 3601 O 347.499 0.969399 -1.76535 0
M  V30 3602 C 344.564 1.36979 -3.18493 0
M  V30 3603 C 343.625 0.710095 -4.23387 0
M  V30 3604 C 342.858 1.72018 -5.05218 0
M  V30 3605 O 343.081 2.94813 -4.88305 0
M  V30 3606 O 342.015 1.28515 -5.8802 0
M  V30 3607 H 345.841 -0.366064 -3.01486 0
M  V30 3608 H 343.426 -0.24514 -1.47375 0
M  V30 3609 H 345.308 1.98385 -3.71781 0
M  V30 3610 H 343.983 2.02828 -2.52275 0
M  V30 3611 H 342.89 0.0567539 -3.74057 0
M  V30 3612 H 344.223 0.0943557 -4.9211 0
M  V30 3613 N 345.875 1.56104 -0.216619 0
M  V30 3614 C 346.805 2.23063 0.690296 0
M  V30 3615 C 347.786 1.20072 1.20485 0
M  V30 3616 O 348.971 1.48643 1.24976 0
M  V30 3617 C 346.101 2.90672 1.90072 0
M  V30 3618 C 345.055 4.00092 1.5202 0
M  V30 3619 C 344.381 4.54972 2.80899 0
M  V30 3620 C 345.681 5.17398 0.71391 0
M  V30 3621 H 347.375 2.99109 0.132038 0
M  V30 3622 H 344.921 1.43866 0.0620664 0
M  V30 3623 H 346.874 3.36204 2.54057 0
M  V30 3624 H 345.598 2.12066 2.48386 0
M  V30 3625 H 344.257 3.55283 0.903839 0
M  V30 3626 H 343.905 3.73102 3.37348 0
M  V30 3627 H 343.605 5.28817 2.56176 0
M  V30 3628 H 345.129 5.0322 3.45836 0
M  V30 3629 H 346.543 5.59342 1.25735 0
M  V30 3630 H 344.94 5.97444 0.563951 0
M  V30 3631 H 346.01 4.84088 -0.280527 0
M  V30 3632 N 347.353 -0.0568162 1.57498 0
M  V30 3633 C 348.599 -0.75422 1.88253 0
M  V30 3634 C 348.932 -1.76461 0.810865 0
M  V30 3635 O 348.207 -1.93691 -0.177259 0
M  V30 3636 C 348.49 -1.44878 3.2967 0
M  V30 3637 C 348.343 -0.453789 4.47505 0
M  V30 3638 C 349.662 -2.38994 3.69554 0
M  V30 3639 H 346.781 -0.272724 0.684683 0
M  V30 3640 H 349.423 -0.0172113 1.89992 0
M  V30 3641 H 347.573 -2.077 3.28318 0
M  V30 3642 H 349.245 0.170371 4.60985 0
M  V30 3643 H 347.488 0.229552 4.33192 0
M  V30 3644 H 348.159 -0.977699 5.43273 0
M  V30 3645 H 350.635 -1.86239 3.72095 0
M  V30 3646 H 349.511 -2.84587 4.69363 0
M  V30 3647 H 349.772 -3.24461 3.00296 0
M  V30 3648 N 348.832 -1.54138 -0.328536 0
M  V30 3649 C 349.762 -1.86167 -1.40939 0
M  V30 3650 C 350.743 -0.718044 -1.54202 0
M  V30 3651 O 351.928 -0.971328 -1.68163 0
M  V30 3652 C 349.058 -2.08461 -2.77779 0
M  V30 3653 C 348.012 -3.24299 -2.7931 0
M  V30 3654 C 347.338 -3.31955 -4.19178 0
M  V30 3655 C 348.638 -4.62065 -2.43502 0
M  V30 3656 H 350.332 -2.76689 -1.14383 0
M  V30 3657 H 347.878 -1.33132 -0.548806 0
M  V30 3658 H 349.831 -2.29453 -3.53454 0
M  V30 3659 H 348.555 -1.14684 -3.05802 0
M  V30 3660 H 347.214 -3.03187 -2.0609 0
M  V30 3661 H 346.862 -2.35745 -4.44335 0
M  V30 3662 H 346.562 -4.09805 -4.2111 0
M  V30 3663 H 348.086 -3.55175 -4.96672 0
M  V30 3664 H 349.5 -4.8297 -3.08889 0
M  V30 3665 H 347.897 -5.42429 -2.56693 0
M  V30 3666 H 348.967 -4.64652 -1.38659 0
M  V30 3667 N 350.31 0.590341 -1.46126 0
M  V30 3668 C 351.558 1.34616 -1.50742 0
M  V30 3669 C 351.879 1.94363 -0.157486 0
M  V30 3670 O 351.149 1.78136 0.815136 0
M  V30 3671 H 349.729 0.499789 -0.555175 0
M  V30 3672 H 352.391 0.691953 -1.82203 0
M  V30 3673 H 351.487 2.15678 -2.25587 0
M  V30 3674 N 351.788 1.33704 0.83433 0
M  V30 3675 C 353.199 1.22813 1.4062 0
M  V30 3676 C 353.55 -0.151107 1.95617 0
M  V30 3677 O 352.675 -1.05092 1.89168 0
M  V30 3678 C 353.27 2.22355 2.55624 0
M  V30 3679 C 351.829 2.1529 3.08751 0
M  V30 3680 C 350.976 2.09589 1.8157 0
M  V30 3681 H 353.927 1.45236 0.639702 0
M  V30 3682 H 353.948 1.83391 3.33389 0
M  V30 3683 H 353.46 3.22728 2.15566 0
M  V30 3684 H 351.561 1.18235 3.53343 0
M  V30 3685 H 351.674 3.06038 3.68616 0
M  V30 3686 H 350.038 1.55134 2.02004 0
M  V30 3687 H 350.821 3.11777 1.43701 0
M  V30 3688 N 353.266 -1.05314 1.17247 0
M  V30 3689 C 354.543 -1.75184 0.87005 0
M  V30 3690 C 354.923 -2.01481 -0.629965 0
M  V30 3691 O 354.271 -1.64988 -1.58086 0
M  V30 3692 C 354.481 -3.04594 1.70363 0
M  V30 3693 C 355.829 -3.78567 1.92281 0
M  V30 3694 O 356.853 -3.14461 1.67311 0
M  V30 3695 O 355.712 -4.93755 2.3424 0
M  V30 3696 H 352.806 -0.761729 0.322021 0
M  V30 3697 H 355.352 -1.11493 1.27935 0
M  V30 3698 H 354.124 -2.81201 2.72106 0
M  V30 3699 H 353.747 -3.76022 1.29202 0
M  V30 3700 N 354.744 -0.972509 -1.24016 0
M  V30 3701 C 355.676 -0.464375 -2.24446 0
M  V30 3702 C 356.689 0.4295 -1.57032 0
M  V30 3703 O 357.878 0.234902 -1.76948 0
M  V30 3704 C 354.978 0.348385 -3.37105 0
M  V30 3705 C 354.151 -0.53673 -4.34094 0
M  V30 3706 C 353.21 0.220838 -5.25736 0
M  V30 3707 O 352.236 -0.386867 -5.67884 0
M  V30 3708 N 353.438 1.50907 -5.60542 0
M  V30 3709 H 356.203 -1.32788 -2.68677 0
M  V30 3710 H 353.764 -0.844877 -1.38107 0
M  V30 3711 H 355.756 0.863341 -3.95384 0
M  V30 3712 H 354.326 1.11285 -2.92121 0
M  V30 3713 H 353.546 -1.23261 -3.74433 0
M  V30 3714 H 354.834 -1.14022 -4.95859 0
M  V30 3715 H 354.232 2.02444 -5.28236 0
M  V30 3716 H 352.789 1.96962 -6.21329 0
M  V30 3717 N 356.222 1.38976 -0.743202 0
M  V30 3718 C 357.172 2.27843 -0.084513 0
M  V30 3719 C 358.156 1.44677 0.704094 0
M  V30 3720 O 359.348 1.67511 0.571755 0
M  V30 3721 C 356.477 3.33466 0.815781 0
M  V30 3722 C 355.563 4.24095 0.0208844 0
M  V30 3723 N 355.954 4.95609 -1.0102 0
M  V30 3724 C 354.252 4.45303 0.249293 0
M  V30 3725 C 354.953 5.62287 -1.49024 0
M  V30 3726 N 353.929 5.37571 -0.807377 0
M  V30 3727 H 357.731 2.80593 -0.87436 0
M  V30 3728 H 355.245 1.51755 -0.578283 0
M  V30 3729 H 357.242 3.96008 1.30321 0
M  V30 3730 H 355.902 2.82276 1.6047 0
M  V30 3731 H 356.913 4.98849 -1.39176 0
M  V30 3732 H 353.59 4.0504 1.01237 0
M  V30 3733 H 354.98 6.29519 -2.34853 0
M  V30 3734 N 357.7 0.491464 1.49741 0
M  V30 3735 C 358.663 -0.280906 2.27472 0
M  V30 3736 C 359.663 -0.902454 1.33088 0
M  V30 3737 O 360.853 -0.768465 1.56334 0
M  V30 3738 C 357.985 -1.40209 3.10732 0
M  V30 3739 H 359.178 0.401056 2.97206 0
M  V30 3740 H 356.731 0.246131 1.5435 0
M  V30 3741 H 357.466 -2.11849 2.45541 0
M  V30 3742 H 357.251 -0.961969 3.80117 0
M  V30 3743 H 358.741 -1.9464 3.69466 0
M  V30 3744 N 359.178 -1.55987 0.224894 0
M  V30 3745 C 360.408 -2.02489 -0.41007 0
M  V30 3746 C 360.816 -1.10391 -1.53657 0
M  V30 3747 O 360.159 -0.106458 -1.83391 0
M  V30 3748 C 360.221 -3.45319 -0.999757 0
M  V30 3749 C 359.885 -4.56999 -0.00827976 0
M  V30 3750 C 360.882 -5.13812 0.793314 0
M  V30 3751 C 358.567 -5.02176 0.111442 0
M  V30 3752 C 360.561 -6.14276 1.7013 0
M  V30 3753 C 358.248 -6.02477 1.02296 0
M  V30 3754 C 359.246 -6.58403 1.81643 0
M  V30 3755 O 358.934 -7.56751 2.71262 0
M  V30 3756 H 358.666 -0.667915 -0.104235 0
M  V30 3757 H 361.22 -2.0257 0.339782 0
M  V30 3758 H 359.45 -3.42318 -1.79876 0
M  V30 3759 H 361.139 -3.7545 -1.54248 0
M  V30 3760 H 361.905 -4.79756 0.711288 0
M  V30 3761 H 357.784 -4.58323 -0.49605 0
M  V30 3762 H 361.328 -6.57854 2.32107 0
M  V30 3763 H 357.225 -6.35954 1.10599 0
M  V30 3764 H 357.993 -7.74286 2.65375 0
M  V30 3765 N 360.656 0.0484629 -1.57525 0
M  V30 3766 C 361.884 0.755421 -1.92616 0
M  V30 3767 C 362.299 1.69919 -0.822984 0
M  V30 3768 O 361.656 1.81378 0.202085 0
M  V30 3769 C 361.707 1.52915 -3.27566 0
M  V30 3770 O 361.428 0.62329 -4.33644 0
M  V30 3771 C 362.929 2.33502 -3.76818 0
M  V30 3772 H 360.149 0.213465 -0.63614 0
M  V30 3773 H 362.693 0.0117698 -2.04497 0
M  V30 3774 H 360.848 2.22486 -3.17142 0
M  V30 3775 H 361.262 1.16383 -5.11425 0
M  V30 3776 H 362.736 2.83214 -4.73808 0
M  V30 3777 H 363.213 3.14068 -3.07014 0
M  V30 3778 H 363.819 1.69043 -3.90262 0
M  V30 3779 N 362.134 1.5431 0.320358 0
M  V30 3780 C 363.064 1.86912 1.3995 0
M  V30 3781 C 364.045 0.726211 1.53819 0
M  V30 3782 O 365.23 0.980233 1.67646 0
M  V30 3783 C 362.36 2.09932 2.7667 0
M  V30 3784 C 361.314 3.25776 2.77586 0
M  V30 3785 C 360.64 3.34173 4.17412 0
M  V30 3786 C 361.94 4.6335 2.41048 0
M  V30 3787 H 363.634 2.77292 1.12914 0
M  V30 3788 H 361.18 1.33421 0.541738 0
M  V30 3789 H 363.133 2.31324 3.52232 0
M  V30 3790 H 361.857 1.16304 3.0519 0
M  V30 3791 H 360.516 3.04276 2.04479 0
M  V30 3792 H 360.164 2.38098 4.43078 0
M  V30 3793 H 359.864 4.12033 4.18931 0
M  V30 3794 H 361.388 3.57803 4.94782 0
M  V30 3795 H 362.802 4.84602 3.06324 0
M  V30 3796 H 361.199 5.43782 2.53813 0
M  V30 3797 H 362.269 4.65381 1.36193 0
M  V30 3798 N 363.613 -0.582584 1.46437 0
M  V30 3799 C 364.576 -1.67366 1.56592 0
M  V30 3800 C 365.576 -1.54575 0.443072 0
M  V30 3801 O 366.766 -1.59191 0.707381 0
M  V30 3802 C 363.898 -3.06791 1.48634 0
M  V30 3803 H 365.091 -1.5972 2.5383 0
M  V30 3804 H 362.644 -0.800432 1.34249 0
M  V30 3805 H 363.379 -3.19993 0.526763 0
M  V30 3806 H 363.164 -3.17484 2.30101 0
M  V30 3807 H 364.654 -3.86218 1.58826 0
M  V30 3808 N 365.091 -1.34144 -0.827227 0
M  V30 3809 C 366.021 -1.28005 -1.95287 0
M  V30 3810 C 367.002 -0.158321 -1.69362 0
M  V30 3811 O 368.187 -0.349987 -1.9102 0
M  V30 3812 C 365.317 -1.03036 -3.31664 0
M  V30 3813 C 364.271 -2.11628 -3.72019 0
M  V30 3814 C 363.597 -1.71854 -5.0633 0
M  V30 3815 C 364.897 -3.53417 -3.8457 0
M  V30 3816 H 366.591 -2.22187 -2.00682 0
M  V30 3817 H 364.137 -1.0696 -0.964135 0
M  V30 3818 H 366.09 -0.973863 -4.09993 0
M  V30 3819 H 364.814 -0.0529391 -3.26557 0
M  V30 3820 H 363.473 -2.16339 -2.95961 0
M  V30 3821 H 363.121 -0.727841 -4.97706 0
M  V30 3822 H 362.821 -2.44531 -5.34302 0
M  V30 3823 H 364.345 -1.67692 -5.87122 0
M  V30 3824 H 365.759 -3.51142 -4.5318 0
M  V30 3825 H 364.156 -4.24679 -4.2399 0
M  V30 3826 H 365.226 -3.91072 -2.86689 0
M  V30 3827 N 366.569 1.04691 -1.17803 0
M  V30 3828 C 367.499 2.14494 -0.92275 0
M  V30 3829 C 368.48 1.69546 0.137179 0
M  V30 3830 O 369.665 1.94195 -0.0141108 0
M  V30 3831 C 366.795 3.44491 -0.440803 0
M  V30 3832 C 365.749 4.03031 -1.4405 0
M  V30 3833 C 365.075 5.28432 -0.81631 0
M  V30 3834 C 366.375 4.39932 -2.81527 0
M  V30 3835 H 368.069 2.36107 -1.84103 0
M  V30 3836 H 365.615 1.1347 -0.886599 0
M  V30 3837 H 367.568 4.2066 -0.249602 0
M  V30 3838 H 366.292 3.22546 0.513025 0
M  V30 3839 H 364.951 3.28937 -1.61853 0
M  V30 3840 H 364.599 5.02792 0.144511 0
M  V30 3841 H 364.299 5.68559 -1.48371 0
M  V30 3842 H 365.823 6.07284 -0.635496 0
M  V30 3843 H 367.237 5.07113 -2.67412 0
M  V30 3844 H 365.634 4.9109 -3.44892 0
M  V30 3845 H 366.704 3.50045 -3.35554 0
M  V30 3846 N 368.047 0.979072 1.23499 0
M  V30 3847 C 369.295 0.645941 1.91499 0
M  V30 3848 C 369.616 -0.822948 1.76784 0
M  V30 3849 O 368.886 -1.58854 1.14639 0
M  V30 3850 H 367.466 0.235919 0.708767 0
M  V30 3851 H 370.128 1.2426 1.50152 0
M  V30 3852 H 369.224 0.896411 2.9895 0
M  V30 3853 N 369.525 -1.3858 0.750561 0
M  V30 3854 C 370.473 -2.32339 0.110162 0
M  V30 3855 C 371.467 -1.53864 -0.708674 0
M  V30 3856 O 372.673 -1.69417 -0.608112 0
M  V30 3857 H 369.048 -0.751812 0.0168275 0
M  V30 3858 H 371.019 -2.83959 0.917053 0
M  V30 3859 C 369.768 -3.39043 -0.771067 0
M  V30 3860 H 369.091 -3.99517 -0.150374 0
M  V30 3861 H 370.531 -4.07061 -1.1865 0
M  V30 3862 C 368.99 -2.77365 -1.91234 0
M  V30 3863 O 369.52 -2.66434 -3.00626 0
M  V30 3864 N 367.726 -2.35219 -1.70646 0
M  V30 3865 H 367.273 -2.4431 -0.81673 0
M  V30 3866 H 367.231 -1.94294 -2.47178 0
M  V30 3867 N 371.003 -0.499398 -1.49478 0
M  V30 3868 C 371.953 0.299103 -2.2603 0
M  V30 3869 C 372.937 0.936934 -1.30807 0
M  V30 3870 O 374.129 0.844798 -1.55538 0
M  V30 3871 C 371.258 1.36391 -3.15044 0
M  V30 3872 C 370.344 0.732398 -4.17728 0
M  V30 3873 N 370.735 -0.164028 -5.05534 0
M  V30 3874 C 369.033 0.993162 -4.34801 0
M  V30 3875 C 369.734 -0.525345 -5.79323 0
M  V30 3876 N 368.71 0.106348 -5.43496 0
M  V30 3877 H 372.512 -0.391003 -2.91287 0
M  V30 3878 H 370.026 -0.31537 -1.59308 0
M  V30 3879 H 372.023 1.94939 -3.68516 0
M  V30 3880 H 370.683 2.05571 -2.51338 0
M  V30 3881 H 371.694 -0.534736 -5.15132 0
M  V30 3882 H 368.371 1.67783 -3.82302 0
M  V30 3883 H 369.761 -1.25862 -6.60006 0
M  V30 3884 N 372.481 1.55866 -0.233164 0
M  V30 3885 C 373.411 2.23783 0.666599 0
M  V30 3886 C 374.392 1.21343 1.19205 0
M  V30 3887 O 375.577 1.4996 1.23392 0
M  V30 3888 C 372.707 2.92671 1.86978 0
M  V30 3889 C 371.661 4.01682 1.47768 0
M  V30 3890 C 370.987 4.57926 2.76058 0
M  V30 3891 C 372.287 5.18126 0.658993 0
M  V30 3892 H 373.981 2.99232 0.100306 0
M  V30 3893 H 371.527 1.43924 0.046804 0
M  V30 3894 H 373.48 3.3888 2.50476 0
M  V30 3895 H 372.204 2.14688 2.46123 0
M  V30 3896 H 370.863 3.56222 0.866106 0
M  V30 3897 H 370.511 3.76659 3.33372 0
M  V30 3898 H 370.211 5.31505 2.50552 0
M  V30 3899 H 371.735 5.06859 3.40479 0
M  V30 3900 H 373.149 5.60644 1.19795 0
M  V30 3901 H 371.546 5.98009 0.500552 0
M  V30 3902 H 372.616 4.83763 -0.331856 0
M  V30 3903 N 373.959 -0.0401083 1.57549 0
M  V30 3904 C 374.906 -1.04413 2.05831 0
M  V30 3905 C 375.876 -1.36585 0.945184 0
M  V30 3906 O 377.061 -1.47112 1.21502 0
M  V30 3907 C 374.201 -2.34336 2.53339 0
M  V30 3908 C 373.314 -2.08419 3.78398 0
M  V30 3909 C 372.449 -3.32133 4.14561 0
M  V30 3910 C 371.488 -3.01721 5.3257 0
M  V30 3911 N 370.625 -4.17855 5.64218 0
M  V30 3912 H 375.465 -0.625442 2.91363 0
M  V30 3913 H 373.002 -0.297218 1.44066 0
M  V30 3914 H 374.96 -3.10234 2.78946 0
M  V30 3915 H 373.59 -2.73948 1.7074 0
M  V30 3916 H 372.642 -1.23069 3.59942 0
M  V30 3917 H 373.954 -1.81978 4.64419 0
M  V30 3918 H 373.108 -4.16406 4.41238 0
M  V30 3919 H 371.847 -3.61678 3.2717 0
M  V30 3920 H 370.852 -2.15849 5.05657 0
M  V30 3921 H 372.077 -2.73466 6.21605 0
M  V30 3922 H 370.023 -4.47372 4.79786 0
M  V30 3923 H 369.94 -3.94798 6.44725 0
M  V30 3924 H 371.208 -5.03033 5.95465 0
M  V30 3925 N 375.437 -1.54477 -0.31217 0
M  V30 3926 C 376.347 -1.87695 -1.4074 0
M  V30 3927 C 377.363 -0.769975 -1.56036 0
M  V30 3928 O 378.539 -1.06537 -1.70915 0
M  V30 3929 C 375.604 -2.10755 -2.75287 0
M  V30 3930 C 374.665 -3.34514 -2.69071 0
M  V30 3931 C 373.898 -3.56465 -3.97201 0
M  V30 3932 O 374.121 -2.81637 -4.96021 0
M  V30 3933 O 373.055 -4.49964 -3.9977 0
M  V30 3934 H 376.881 -2.80849 -1.15574 0
M  V30 3935 H 374.466 -1.40526 -0.507228 0
M  V30 3936 H 376.348 -2.27188 -3.54913 0
M  V30 3937 H 375.023 -1.20788 -3.0032 0
M  V30 3938 H 373.93 -3.23456 -1.87955 0
M  V30 3939 H 375.263 -4.24575 -2.48992 0
M  V30 3940 N 376.915 0.57481 -1.46744 0
M  V30 3941 C 378.143 1.35856 -1.56047 0
M  V30 3942 C 378.558 1.87691 -0.204365 0
M  V30 3943 O 377.915 1.64049 0.79963 0
M  V30 3944 C 377.966 2.54066 -2.57163 0
M  V30 3945 O 377.687 2.04377 -3.87507 0
M  V30 3946 C 379.188 3.46514 -2.76483 0
M  V30 3947 H 376.408 0.414754 -0.527466 0
M  V30 3948 H 378.952 0.698035 -1.92218 0
M  V30 3949 H 377.107 3.16092 -2.23974 0
M  V30 3950 H 377.521 2.81419 -4.4261 0
M  V30 3951 H 378.995 4.25919 -3.51137 0
M  V30 3952 H 379.472 3.98951 -1.83671 0
M  V30 3953 H 380.078 2.90318 -3.10799 0
M  V30 3954 N 378.394 1.34581 0.820102 0
M  V30 3955 C 379.641 1.27096 1.57648 0
M  V30 3956 C 379.969 -0.158317 1.93855 0
M  V30 3957 O 379.224 -1.12028 1.60463 0
M  V30 3958 C 379.523 2.10997 2.8847 0
M  V30 3959 C 379.189 3.59966 2.71543 0
M  V30 3960 C 377.851 4.00575 2.66634 0
M  V30 3961 C 380.203 4.54548 2.55021 0
M  V30 3962 C 377.531 5.33953 2.43128 0
M  V30 3963 C 379.883 5.88109 2.33047 0
M  V30 3964 C 378.547 6.27878 2.26552 0
M  V30 3965 H 377.817 0.465078 0.576874 0
M  V30 3966 H 380.464 1.6635 0.948671 0
M  V30 3967 H 378.769 1.6458 3.55557 0
M  V30 3968 H 380.466 2.0255 3.46084 0
M  V30 3969 H 377.056 3.27733 2.76205 0
M  V30 3970 H 381.24 4.24069 2.57835 0
M  V30 3971 H 376.496 5.63781 2.3656 0
M  V30 3972 H 380.67 6.60985 2.19251 0
M  V30 3973 H 378.297 7.31162 2.081 0
M  V30 3974 N 379.872 -1.04064 1.18357 0
M  V30 3975 C 381.102 -1.80654 1.00238 0
M  V30 3976 C 381.51 -1.83713 -0.452362 0
M  V30 3977 O 380.853 -1.27135 -1.32599 0
M  V30 3978 C 380.915 -3.27582 1.48088 0
M  V30 3979 C 380.579 -3.48184 2.96002 0
M  V30 3980 C 381.576 -3.39372 3.93856 0
M  V30 3981 C 379.261 -3.7478 3.34433 0
M  V30 3982 C 381.255 -3.5686 5.28138 0
M  V30 3983 C 378.942 -3.91915 4.68877 0
M  V30 3984 C 379.94 -3.82956 5.65539 0
M  V30 3985 O 379.628 -3.996 6.97549 0
M  V30 3986 H 379.36 -0.575751 0.354241 0
M  V30 3987 H 381.914 -1.32044 1.57333 0
M  V30 3988 H 380.144 -3.77161 0.853588 0
M  V30 3989 H 381.833 -3.8573 1.2636 0
M  V30 3990 H 382.599 -3.18789 3.65511 0
M  V30 3991 H 378.478 -3.80852 2.59756 0
M  V30 3992 H 382.022 -3.49783 6.03571 0
M  V30 3993 H 377.919 -4.11992 4.96923 0
M  V30 3994 H 378.687 -4.1676 7.04452 0
M  V30 3995 N 381.35 -0.985608 -1.22978 0
M  V30 3996 C 382.596 -0.65836 -1.91816 0
M  V30 3997 C 382.929 0.806692 -1.76653 0
M  V30 3998 O 382.204 1.58252 -1.13078 0
M  V30 3999 C 382.487 -1.056 -3.44268 0
M  V30 4000 C 382.34 -2.57906 -3.68516 0
M  V30 4001 C 383.659 -0.603781 -4.35939 0
M  V30 4002 H 380.778 -0.24065 -0.696604 0
M  V30 4003 H 383.42 -1.22783 -1.44998 0
M  V30 4004 H 381.57 -0.571445 -3.84274 0
M  V30 4005 H 383.242 -3.13976 -3.3796 0
M  V30 4006 H 381.485 -3.00305 -3.13048 0
M  V30 4007 H 382.156 -2.80779 -4.75255 0
M  V30 4008 H 384.632 -1.01987 -4.03408 0
M  V30 4009 H 383.508 -0.910383 -5.41298 0
M  V30 4010 H 383.769 0.495761 -4.39312 0
M  V30 4011 N 382.828 1.3818 -0.7579 0
M  V30 4012 C 383.738 2.3421 -0.135247 0
M  V30 4013 C 384.754 1.59487 0.695683 0
M  V30 4014 O 385.93 1.91657 0.618832 0
M  V30 4015 C 382.995 3.3862 0.744139 0
M  V30 4016 C 382.056 4.2918 -0.101658 0
M  V30 4017 C 381.289 5.28603 0.735851 0
M  V30 4018 O 381.512 5.35166 1.97366 0
M  V30 4019 O 380.446 6.01707 0.152372 0
M  V30 4020 H 384.272 2.8916 -0.928436 0
M  V30 4021 H 381.857 1.40101 -0.518855 0
M  V30 4022 H 383.739 4.02539 1.2466 0
M  V30 4023 H 382.414 2.86019 1.51575 0
M  V30 4024 H 381.321 3.68407 -0.650167 0
M  V30 4025 H 382.654 4.85048 -0.836024 0
M  V30 4026 N 384.306 0.507319 1.49211 0
M  V30 4027 C 385.269 -0.256763 2.27757 0
M  V30 4028 C 386.269 -0.888287 1.34038 0
M  V30 4029 O 387.459 -0.751841 1.5714 0
M  V30 4030 C 384.591 -1.36905 3.12202 0
M  V30 4031 H 385.784 0.432557 2.96764 0
M  V30 4032 H 383.337 0.262488 1.5408 0
M  V30 4033 H 384.072 -2.09233 2.47775 0
M  V30 4034 H 383.857 -0.921599 3.81115 0
M  V30 4035 H 385.347 -1.9071 3.7151 0
M  V30 4036 N 385.784 -1.5574 0.241426 0
M  V30 4037 C 387.033 -1.97986 -0.385295 0
M  V30 4038 C 387.346 -1.13267 -1.59468 0
M  V30 4039 O 388.552 -1.45501 -2.2922 0
M  V30 4040 C 387.008 -3.52275 -0.736884 0
M  V30 4041 C 386.616 -4.45726 0.450796 0
M  V30 4042 C 388.36 -4.03189 -1.3281 0
M  V30 4043 C 386.267 -5.91352 0.0756662 0
M  V30 4044 H 385.197 -0.739386 -0.147731 0
M  V30 4045 H 387.848 -1.80308 0.340779 0
M  V30 4046 H 386.23 -3.65628 -1.52094 0
M  V30 4047 H 387.404 -4.44131 1.22819 0
M  V30 4048 H 385.719 -4.05264 0.956573 0
M  V30 4049 H 388.316 -5.09505 -1.62201 0
M  V30 4050 H 388.659 -3.50212 -2.25071 0
M  V30 4051 H 389.192 -3.93141 -0.607069 0
M  V30 4052 H 385.931 -6.48354 0.965272 0
M  V30 4053 H 385.451 -5.96095 -0.665635 0
M  V30 4054 H 387.13 -6.46084 -0.344075 0
M  V30 4055 N 387.262 0.0317525 -1.57568 0
M  V30 4056 C 388.225 1.01783 -2.0536 0
M  V30 4057 C 389.225 1.29203 -0.957253 0
M  V30 4058 O 390.415 1.24251 -1.22095 0
M  V30 4059 C 387.547 2.35137 -2.46827 0
M  V30 4060 H 388.74 0.605062 -2.93733 0
M  V30 4061 H 386.293 0.278514 -1.53799 0
M  V30 4062 H 387.028 2.81168 -1.61602 0
M  V30 4063 H 386.813 2.16566 -3.26866 0
M  V30 4064 H 388.303 3.05938 -2.84239 0
M  V30 4065 N 388.74 1.54641 0.303973 0
M  V30 4066 C 389.987 1.7378 1.03955 0
M  V30 4067 C 390.315 0.521986 1.87365 0
M  V30 4068 O 389.57 -0.496099 1.89308 0
M  V30 4069 C 389.869 2.97753 1.97681 0
M  V30 4070 C 389.535 4.31671 1.30271 0
M  V30 4071 C 388.197 4.68075 1.11619 0
M  V30 4072 C 390.549 5.147 0.82055 0
M  V30 4073 C 387.877 5.8509 0.434304 0
M  V30 4074 C 390.229 6.32416 0.152395 0
M  V30 4075 C 388.893 6.67484 -0.0461067 0
M  V30 4076 H 388.163 0.635908 0.380398 0
M  V30 4077 H 390.81 1.88896 0.314718 0
M  V30 4078 H 389.115 2.77406 2.76682 0
M  V30 4079 H 390.812 3.09756 2.54661 0
M  V30 4080 H 387.402 4.03041 1.45795 0
M  V30 4081 H 391.586 4.87077 0.952374 0
M  V30 4082 H 386.842 6.10806 0.269495 0
M  V30 4083 H 391.016 6.96023 -0.229126 0
M  V30 4084 H 388.643 7.58011 -0.576494 0
M  V30 4085 N 390.218 -0.567019 1.47046 0
M  V30 4086 C 391.629 -1.14916 1.47143 0
M  V30 4087 C 391.98 -1.94954 0.220767 0
M  V30 4088 O 391.105 -2.05602 -0.67505 0
M  V30 4089 C 391.7 -2.09069 2.666 0
M  V30 4090 C 390.259 -2.62575 2.69687 0
M  V30 4091 C 389.406 -1.38755 2.40088 0
M  V30 4092 H 392.357 -0.354126 1.54699 0
M  V30 4093 H 392.378 -2.92789 2.43011 0
M  V30 4094 H 391.89 -1.50789 3.57609 0
M  V30 4095 H 389.991 -3.24681 1.82792 0
M  V30 4096 H 390.104 -3.04239 3.70102 0
M  V30 4097 H 388.468 -1.69098 1.90468 0
M  V30 4098 H 389.251 -0.822822 3.33293 0
M  V30 4099 N 391.696 -1.35014 -0.812953 0
M  V30 4100 C 392.921 -1.31187 -1.60639 0
M  V30 4101 C 393.346 0.109382 -1.87782 0
M  V30 4102 O 392.704 1.07424 -1.46047 0
M  V30 4103 C 392.752 -2.11809 -2.91838 0
M  V30 4104 O 391.856 -1.49444 -3.8437 0
M  V30 4105 H 391.197 -0.450084 -0.488181 0
M  V30 4106 H 393.727 -1.77963 -1.00947 0
M  V30 4107 H 393.737 -2.23531 -3.41318 0
M  V30 4108 H 392.412 -3.15137 -2.71407 0
M  V30 4109 H 390.989 -1.46524 -3.42907 0
M  V30 4110 N 393.175 1.03435 -1.18907 0
M  V30 4111 C 394.138 2.09756 -0.923844 0
M  V30 4112 C 395.138 1.60528 0.093416 0
M  V30 4113 O 396.328 1.73631 -0.140727 0
M  V30 4114 C 393.46 3.38692 -0.387354 0
M  V30 4115 H 394.653 2.34719 -1.86674 0
M  V30 4116 H 392.206 1.19959 -1.00197 0
M  V30 4117 H 392.941 3.19396 0.561845 0
M  V30 4118 H 392.726 3.75742 -1.12074 0
M  V30 4119 H 394.216 4.17016 -0.220694 0
M  V30 4120 N 394.653 0.992116 1.22453 0
M  V30 4121 C 395.563 0.55065 2.28046 0
M  V30 4122 C 396.579 -0.400189 1.69335 0
M  V30 4123 O 397.755 -0.267215 1.99619 0
M  V30 4124 C 394.82 -0.128496 3.46462 0
M  V30 4125 C 393.881 0.865208 4.20491 0
M  V30 4126 C 393.114 0.218377 5.33253 0
M  V30 4127 O 393.337 -0.987894 5.6178 0
M  V30 4128 O 392.271 0.922845 5.94783 0
M  V30 4129 H 396.097 1.4291 2.67975 0
M  V30 4130 H 393.682 0.760326 1.28606 0
M  V30 4131 H 395.564 -0.508947 4.18315 0
M  V30 4132 H 394.239 -0.981526 3.0846 0
M  V30 4133 H 393.146 1.29658 3.50913 0
M  V30 4134 H 394.479 1.68741 4.62371 0
M  V30 4135 N 396.131 -1.37776 0.765217 0
M  V30 4136 C 397.378 -1.99849 0.326588 0
M  V30 4137 C 397.706 -1.60746 -1.09504 0
M  V30 4138 O 396.961 -0.84202 -1.76659 0
M  V30 4139 C 397.26 -3.5504 0.410053 0
M  V30 4140 C 396.926 -4.13891 1.78899 0
M  V30 4141 C 395.588 -4.29678 2.16635 0
M  V30 4142 C 397.94 -4.46236 2.69301 0
M  V30 4143 C 395.268 -4.7511 3.44221 0
M  V30 4144 C 397.62 -4.93089 3.9629 0
M  V30 4145 C 396.284 -5.07082 4.34078 0
M  V30 4146 H 395.554 -0.7313 0.119507 0
M  V30 4147 H 398.201 -1.64645 0.977968 0
M  V30 4148 H 396.506 -3.90451 -0.324878 0
M  V30 4149 H 398.203 -4.00966 0.0520699 0
M  V30 4150 H 394.793 -4.02026 1.48569 0
M  V30 4151 H 398.977 -4.3363 2.41409 0
M  V30 4152 H 394.233 -4.84129 3.73402 0
M  V30 4153 H 398.407 -5.17084 4.66472 0
M  V30 4154 H 396.034 -5.42046 5.33001 0
M  V30 4155 N 397.609 -0.515225 -1.4894 0
M  V30 4156 C 398.834 0.022727 -2.07388 0
M  V30 4157 C 399.259 1.2876 -1.37122 0
M  V30 4158 O 398.617 1.76067 -0.432431 0
M  V30 4159 C 398.665 0.244869 -3.59768 0
M  V30 4160 O 397.769 1.31667 -3.90817 0
M  V30 4161 H 397.11 -0.0325506 -0.663202 0
M  V30 4162 H 399.64 -0.718918 -1.91553 0
M  V30 4163 H 399.65 0.47205 -4.0526 0
M  V30 4164 H 398.325 -0.679194 -4.10317 0
M  V30 4165 H 396.902 1.07331 -3.5712 0
M  V30 4166 N 399.087 1.5561 -0.249682 0
M  V30 4167 C 400.335 1.98618 0.373548 0
M  V30 4168 C 400.656 1.13919 1.58264 0
M  V30 4169 O 399.926 0.222637 1.94631 0
M  V30 4170 H 398.506 0.733571 0.141006 0
M  V30 4171 H 401.168 1.91748 -0.349117 0
M  V30 4172 H 400.264 3.04584 0.680796 0
M  V30 4173 N 400.565 -0.0233959 1.57583 0
M  V30 4174 C 401.495 -1.02162 2.09965 0
M  V30 4175 C 402.476 -1.3735 1.00344 0
M  V30 4176 O 403.661 -1.46135 1.27899 0
M  V30 4177 C 400.791 -2.32081 2.58371 0
M  V30 4178 C 399.745 -2.1112 3.72307 0
M  V30 4179 C 399.071 -3.46848 4.06941 0
M  V30 4180 C 400.371 -1.49276 5.00514 0
M  V30 4181 H 402.065 -0.585557 2.93618 0
M  V30 4182 H 399.611 -0.280218 1.41247 0
M  V30 4183 H 401.564 -3.02249 2.93639 0
M  V30 4184 H 400.288 -2.77758 1.71808 0
M  V30 4185 H 398.947 -1.43384 3.37397 0
M  V30 4186 H 398.595 -3.90184 3.17436 0
M  V30 4187 H 398.295 -3.33646 4.83688 0
M  V30 4188 H 399.819 -4.18369 4.44747 0
M  V30 4189 H 401.233 -2.09368 5.33702 0
M  V30 4190 H 399.63 -1.46632 5.8191 0
M  V30 4191 H 400.7 -0.459217 4.82721 0
M  V30 4192 N 402.043 -1.548 -0.295768 0
M  V30 4193 C 403.292 -1.73538 -1.02798 0
M  V30 4194 C 403.605 -0.531159 -1.8825 0
M  V30 4195 O 404.811 -0.600458 -2.64777 0
M  V30 4196 C 403.267 -3.07051 -1.87744 0
M  V30 4197 C 402.875 -4.34968 -1.07269 0
M  V30 4198 C 404.619 -3.35146 -2.60533 0
M  V30 4199 C 402.526 -5.5953 -1.91521 0
M  V30 4200 H 401.456 -0.646794 -0.387522 0
M  V30 4201 H 404.107 -1.81278 -0.284718 0
M  V30 4202 H 402.489 -2.93289 -2.66078 0
M  V30 4203 H 403.663 -4.5958 -0.335117 0
M  V30 4204 H 401.978 -4.13847 -0.460384 0
M  V30 4205 H 404.575 -4.2541 -3.23929 0
M  V30 4206 H 404.918 -2.54255 -3.29636 0
M  V30 4207 H 405.451 -3.49902 -1.89244 0
M  V30 4208 H 402.19 -6.43103 -1.26878 0
M  V30 4209 H 401.71 -5.39096 -2.62937 0
M  V30 4210 H 403.389 -5.96982 -2.49442 0
M  V30 4211 N 403.521 0.559213 -1.47345 0
M  V30 4212 C 404.746 1.34676 -1.57725 0
M  V30 4213 C 405.171 1.86723 -0.227164 0
M  V30 4214 O 404.529 1.6286 0.796642 0
M  V30 4215 C 404.577 2.49399 -2.60447 0
M  V30 4216 O 403.681 3.51567 -2.15578 0
M  V30 4217 H 403.022 0.400115 -0.52991 0
M  V30 4218 H 405.552 0.676009 -1.93109 0
M  V30 4219 H 405.562 2.95996 -2.80803 0
M  V30 4220 H 404.237 2.10873 -3.58477 0
M  V30 4221 H 402.814 3.11289 -2.05313 0
M  V30 4222 N 404.999 1.35443 0.805782 0
M  V30 4223 C 406.229 1.31687 1.59192 0
M  V30 4224 C 406.637 -0.10756 1.88894 0
M  V30 4225 O 405.98 -1.07017 1.49309 0
M  V30 4226 C 406.042 2.05686 2.94845 0
M  V30 4227 C 405.706 3.54868 2.87954 0
M  V30 4228 C 406.703 4.49444 2.61335 0
M  V30 4229 C 404.388 3.97528 3.07046 0
M  V30 4230 C 406.382 5.84655 2.53885 0
M  V30 4231 C 404.069 5.32833 2.99219 0
M  V30 4232 C 405.067 6.26209 2.72674 0
M  V30 4233 O 404.755 7.59032 2.64811 0
M  V30 4234 H 404.487 0.453878 0.50097 0
M  V30 4235 H 407.041 1.78892 1.0093 0
M  V30 4236 H 405.271 1.5312 3.55093 0
M  V30 4237 H 406.96 1.94998 3.55993 0
M  V30 4238 H 407.726 4.17804 2.46303 0
M  V30 4239 H 403.605 3.25233 3.26718 0
M  V30 4240 H 407.149 6.57508 2.33086 0
M  V30 4241 H 403.046 5.64087 3.13809 0
M  V30 4242 H 403.814 7.68967 2.80413 0
M  V30 4243 N 406.477 -1.02803 1.19454 0
M  V30 4244 C 407.702 -1.80378 1.02364 0
M  V30 4245 C 408.127 -1.83282 -0.423007 0
M  V30 4246 O 407.485 -1.25945 -1.30413 0
M  V30 4247 C 407.533 -3.23248 1.59821 0
M  V30 4248 O 406.637 -4.04 0.828105 0
M  V30 4249 H 405.978 -0.556799 0.361761 0
M  V30 4250 H 408.508 -1.29385 1.58495 0
M  V30 4251 H 408.518 -3.73994 1.63073 0
M  V30 4252 H 407.193 -3.2045 2.65113 0
M  V30 4253 H 405.77 -3.62635 0.86891 0
M  V30 4254 N 407.956 -0.998596 -1.21925 0
M  V30 4255 C 409.202 -0.678667 -1.91107 0
M  V30 4256 C 409.535 0.78791 -1.77498 0
M  V30 4257 O 408.81 1.57043 -1.1475 0
M  V30 4258 C 409.093 -1.09245 -3.43129 0
M  V30 4259 C 408.946 -2.61801 -3.6576 0
M  V30 4260 C 410.265 -0.649984 -4.35274 0
M  V30 4261 H 407.384 -0.248025 -0.694012 0
M  V30 4262 H 410.026 -1.24314 -1.43688 0
M  V30 4263 H 408.176 -0.612171 -3.83647 0
M  V30 4264 H 409.848 -3.17543 -3.34611 0
M  V30 4265 H 408.091 -3.03609 -3.09845 0
M  V30 4266 H 408.762 -2.85804 -4.7225 0
M  V30 4267 H 411.238 -1.0626 -4.02303 0
M  V30 4268 H 410.114 -0.967743 -5.40302 0
M  V30 4269 H 410.375 0.449139 -4.39813 0
M  V30 4270 N 409.434 1.37368 -0.772513 0
M  V30 4271 C 410.659 2.0447 -0.347386 0
M  V30 4272 C 411.084 1.57882 1.0225 0
M  V30 4273 O 410.442 0.73941 1.65537 0
M  V30 4274 C 410.49 3.58369 -0.400479 0
M  V30 4275 O 409.594 4.0803 0.598789 0
M  V30 4276 H 408.935 0.646773 -0.15027 0
M  V30 4277 H 411.465 1.75667 -1.04892 0
M  V30 4278 H 411.475 4.07183 -0.258045 0
M  V30 4279 H 410.15 3.91633 -1.39986 0
M  V30 4280 H 408.727 3.70534 0.419411 0
M  V30 4281 N 410.912 0.523116 1.48665 0
M  V30 4282 C 411.842 -0.23231 2.32342 0
M  V30 4283 C 412.823 -0.941637 1.41659 0
M  V30 4284 O 414.008 -0.928751 1.70552 0
M  V30 4285 C 411.138 -1.28387 3.22698 0
M  V30 4286 C 410.092 -0.693098 4.22351 0
M  V30 4287 C 409.418 -1.8468 5.01794 0
M  V30 4288 C 410.718 0.33063 5.21252 0
M  V30 4289 H 412.412 0.466192 2.95748 0
M  V30 4290 H 409.958 0.225643 1.42221 0
M  V30 4291 H 411.911 -1.82024 3.80059 0
M  V30 4292 H 410.635 -2.01186 2.57278 0
M  V30 4293 H 409.294 -0.178299 3.66166 0
M  V30 4294 H 408.942 -2.56301 4.32804 0
M  V30 4295 H 408.642 -1.45747 5.69238 0
M  V30 4296 H 410.166 -2.38709 5.62006 0
M  V30 4297 H 411.58 -0.118407 5.73178 0
M  V30 4298 H 409.977 0.636974 5.9671 0
M  V30 4299 H 411.047 1.23883 4.68808 0
M  V30 4300 N 412.39 -1.55475 0.257931 0
M  V30 4301 C 413.636 -1.99502 -0.364266 0
M  V30 4302 C 413.969 -1.146 -1.56782 0
M  V30 4303 O 413.244 -0.211968 -1.93342 0
M  V30 4304 C 413.527 -3.51917 -0.763333 0
M  V30 4305 C 413.38 -4.4758 0.446371 0
M  V30 4306 C 414.699 -4.09742 -1.60623 0
M  V30 4307 H 411.818 -0.725277 -0.130929 0
M  V30 4308 H 414.46 -1.8653 0.361446 0
M  V30 4309 H 412.61 -3.63101 -1.38166 0
M  V30 4310 H 414.282 -4.48362 1.08487 0
M  V30 4311 H 412.525 -4.19947 1.08753 0
M  V30 4312 H 413.196 -5.51862 0.123645 0
M  V30 4313 H 415.672 -4.01727 -1.08418 0
M  V30 4314 H 414.548 -5.16631 -1.85429 0
M  V30 4315 H 414.809 -3.58889 -2.58169 0
M  V30 4316 N 413.868 0.0150385 -1.57593 0
M  V30 4317 C 414.778 1.02791 -2.10882 0
M  V30 4318 C 415.794 1.38702 -1.0506 0
M  V30 4319 O 416.97 1.47739 -1.36877 0
M  V30 4320 C 414.035 2.30568 -2.58919 0
M  V30 4321 C 413.096 2.01108 -3.79281 0
M  V30 4322 C 412.329 3.22794 -4.25018 0
M  V30 4323 O 412.552 4.33959 -3.70183 0
M  V30 4324 O 411.486 3.07672 -5.17322 0
M  V30 4325 H 415.312 0.604973 -2.97613 0
M  V30 4326 H 412.897 0.23292 -1.47573 0
M  V30 4327 H 414.779 3.05662 -2.90084 0
M  V30 4328 H 413.454 2.72129 -1.75293 0
M  V30 4329 H 412.361 1.23537 -3.53114 0
M  V30 4330 H 413.694 1.64394 -4.63935 0
M  V30 4331 N 415.346 1.54954 0.287554 0
M  V30 4332 C 416.256 1.8991 1.37736 0
M  V30 4333 C 417.272 0.794701 1.54792 0
M  V30 4334 O 418.448 1.09243 1.69198 0
M  V30 4335 C 415.513 2.15108 2.71899 0
M  V30 4336 C 414.574 3.38752 2.63715 0
M  V30 4337 C 413.807 3.62739 3.91479 0
M  V30 4338 O 414.03 2.89492 4.91478 0
M  V30 4339 O 412.964 4.56267 3.92561 0
M  V30 4340 H 416.79 2.82652 1.11092 0
M  V30 4341 H 414.375 1.41315 0.484807 0
M  V30 4342 H 416.257 2.32806 3.51254 0
M  V30 4343 H 414.932 1.25551 2.9836 0
M  V30 4344 H 413.839 3.26405 1.82786 0
M  V30 4345 H 415.172 4.28483 2.42205 0
M  V30 4346 N 416.824 -0.551391 1.4764 0
M  V30 4347 C 418.049 -1.33837 1.58437 0
M  V30 4348 C 418.474 -1.866 0.237063 0
M  V30 4349 O 417.832 -1.6328 -0.787994 0
M  V30 4350 C 417.88 -2.48014 2.61766 0
M  V30 4351 O 416.984 -3.50419 2.1744 0
M  V30 4352 H 416.325 -0.397299 0.532024 0
M  V30 4353 H 418.855 -0.665759 1.93465 0
M  V30 4354 H 418.865 -2.94503 2.82369 0
M  V30 4355 H 417.54 -2.08969 3.5959 0
M  V30 4356 H 416.117 -3.10196 2.06961 0
M  V30 4357 N 418.302 -1.35869 -0.798587 0
M  V30 4358 C 419.234 -1.25305 -1.91915 0
M  V30 4359 C 420.247 -0.174548 -1.61862 0
M  V30 4360 O 421.436 -0.428499 -1.73281 0
M  V30 4361 C 418.536 -0.9086 -3.26493 0
M  V30 4362 C 417.709 -2.08711 -3.84394 0
M  V30 4363 C 416.768 -1.71717 -4.97393 0
M  V30 4364 O 415.794 -2.43692 -5.14396 0
M  V30 4365 N 416.996 -0.645473 -5.769 0
M  V30 4366 H 419.761 -2.21849 -2.01502 0
M  V30 4367 H 417.322 -1.29143 -0.976408 0
M  V30 4368 H 419.314 -0.642455 -3.99568 0
M  V30 4369 H 417.884 -0.0325815 -3.12583 0
M  V30 4370 H 417.104 -2.51659 -3.03416 0
M  V30 4371 H 418.392 -2.87468 -4.19809 0
M  V30 4372 H 417.79 -0.047648 -5.6568 0
M  V30 4373 H 416.347 -0.43913 -6.50319 0
M  V30 4374 N 419.78 1.02168 -1.19998 0
M  V30 4375 C 421.057 1.72816 -0.916191 0
M  V30 4376 C 421.437 2.03081 0.576325 0
M  V30 4377 O 420.785 1.69122 1.53656 0
M  V30 4378 C 420.995 2.9997 -1.78378 0
M  V30 4379 C 422.343 3.73336 -2.02251 0
M  V30 4380 O 423.367 3.09914 -1.75589 0
M  V30 4381 O 422.226 4.87371 -2.47249 0
M  V30 4382 H 419.32 0.752924 -0.342103 0
M  V30 4383 H 421.866 1.08062 -1.30846 0
M  V30 4384 H 420.638 2.73888 -2.79466 0
M  V30 4385 H 420.261 3.72464 -1.39126 0
M  V30 4386 N 421.258 1.00505 1.21394 0
M  V30 4387 C 422.669 0.721082 1.72213 0
M  V30 4388 C 423.02 -0.761263 1.80829 0
M  V30 4389 O 422.145 -1.59464 1.46288 0
M  V30 4390 C 422.74 1.30228 3.12772 0
M  V30 4391 C 421.299 1.06743 3.60947 0
M  V30 4392 C 420.446 1.41507 2.38477 0
M  V30 4393 H 423.397 1.17594 1.06571 0
M  V30 4394 H 423.418 0.686955 3.74247 0
M  V30 4395 H 422.93 2.38115 3.06468 0
M  V30 4396 H 421.031 0.00572162 3.726 0
M  V30 4397 H 421.144 1.73936 4.46411 0
M  V30 4398 H 419.508 0.833852 2.40664 0
M  V30 4399 H 420.291 2.50424 2.34824 0
M  V30 4400 N 422.737 -1.36956 0.779787 0
M  V30 4401 C 423.962 -2.04283 0.358224 0
M  V30 4402 C 424.387 -1.58422 -1.01411 0
M  V30 4403 O 423.745 -0.748179 -1.65142 0
M  V30 4404 C 423.793 -3.58152 0.419479 0
M  V30 4405 O 422.897 -4.08342 -0.577142 0
M  V30 4406 H 422.238 -0.645967 0.153698 0
M  V30 4407 H 424.768 -1.75108 1.05822 0
M  V30 4408 H 424.778 -4.07041 0.279636 0
M  V30 4409 H 423.453 -3.90886 1.42061 0
M  V30 4410 H 422.03 -3.70751 -0.399755 0
M  V30 4411 N 424.215 -0.530993 -1.48385 0
M  V30 4412 C 425.464 0.00474348 -2.01699 0
M  V30 4413 C 425.777 1.35227 -1.41325 0
M  V30 4414 O 426.983 1.97643 -1.86144 0
M  V30 4415 C 425.439 0.0588473 -3.59852 0
M  V30 4416 C 425.047 -1.28385 -4.2921 0
M  V30 4417 C 426.791 0.543358 -4.21008 0
M  V30 4418 C 424.698 -1.19028 -5.79298 0
M  V30 4419 H 423.628 0.00554317 -0.75398 0
M  V30 4420 H 426.279 -0.674924 -1.70637 0
M  V30 4421 H 424.661 0.803612 -3.8776 0
M  V30 4422 H 425.835 -2.04426 -4.12973 0
M  V30 4423 H 424.15 -1.70418 -3.7993 0
M  V30 4424 H 426.747 0.631351 -5.3096 0
M  V30 4425 H 427.09 1.54937 -3.86394 0
M  V30 4426 H 427.623 -0.145754 -3.97533 0
M  V30 4427 H 424.362 -2.17147 -6.18488 0
M  V30 4428 H 423.882 -0.471246 -5.97946 0
M  V30 4429 H 425.561 -0.881365 -6.40969 0
M  V30 4430 N 425.693 1.55336 -0.266172 0
M  V30 4431 C 427.104 1.85236 0.233315 0
M  V30 4432 C 427.455 1.18816 1.56132 0
M  V30 4433 O 426.58 0.473307 2.11161 0
M  V30 4434 C 427.175 3.36059 0.430113 0
M  V30 4435 C 425.734 3.66116 0.873842 0
M  V30 4436 C 424.881 2.77274 -0.0380016 0
M  V30 4437 H 427.832 1.51004 -0.488214 0
M  V30 4438 H 427.853 3.58681 1.26998 0
M  V30 4439 H 427.365 3.84373 -0.536588 0
M  V30 4440 H 425.466 3.23295 1.85233 0
M  V30 4441 H 425.579 4.73699 0.717358 0
M  V30 4442 H 423.943 2.50198 0.476759 0
M  V30 4443 H 424.726 3.284 -1.00042 0
M  V30 4444 N 427.171 -0.0066808 1.57599 0
M  V30 4445 C 428.081 -1.01671 2.11424 0
M  V30 4446 C 429.097 -1.38143 1.05795 0
M  V30 4447 O 430.273 -1.47011 1.37658 0
M  V30 4448 C 427.338 -2.29192 2.60139 0
M  V30 4449 C 426.399 -1.99094 3.80342 0
M  V30 4450 C 425.632 -3.20535 4.26724 0
M  V30 4451 O 425.855 -4.3199 3.72479 0
M  V30 4452 O 424.789 -3.04924 5.18946 0
M  V30 4453 H 428.615 -0.589181 2.9793 0
M  V30 4454 H 426.2 -0.225091 1.47695 0
M  V30 4455 H 428.082 -3.0412 2.917 0
M  V30 4456 H 426.757 -2.71195 1.76733 0
M  V30 4457 H 425.664 -1.21663 3.53764 0
M  V30 4458 H 426.997 -1.61931 4.648 0
M  V30 4459 N 428.649 -1.55105 -0.279332 0
M  V30 4460 C 429.877 -1.7943 -1.03017 0
M  V30 4461 C 430.292 -0.564456 -1.80165 0
M  V30 4462 O 429.649 0.466326 -1.76442 0
M  V30 4463 C 429.7 -3.0155 -1.99374 0
M  V30 4464 O 429.421 -4.19784 -1.25352 0
M  V30 4465 C 430.922 -3.3843 -2.86321 0
M  V30 4466 H 428.142 -0.597882 -0.304594 0
M  V30 4467 H 430.686 -2.02105 -0.312035 0
M  V30 4468 H 428.841 -2.81019 -2.66659 0
M  V30 4469 H 429.255 -4.88781 -1.90246 0
M  V30 4470 H 430.729 -4.27066 -3.49741 0
M  V30 4471 H 431.206 -2.57549 -3.5576 0
M  V30 4472 H 431.812 -3.61197 -2.24536 0
M  V30 4473 N 430.127 0.543554 -1.4793 0
M  V30 4474 C 431.373 1.30201 -1.55485 0
M  V30 4475 C 431.706 1.92925 -0.222201 0
M  V30 4476 O 430.981 1.78586 0.77053 0
M  V30 4477 C 431.264 2.40174 -2.68307 0
M  V30 4478 C 431.117 1.8223 -4.11233 0
M  V30 4479 C 432.436 3.42024 -2.76961 0
M  V30 4480 H 429.555 0.472036 -0.565996 0
M  V30 4481 H 432.197 0.606914 -1.80046 0
M  V30 4482 H 430.347 2.99463 -2.47495 0
M  V30 4483 H 432.019 1.27096 -4.43446 0
M  V30 4484 H 430.262 1.12832 -4.18869 0
M  V30 4485 H 430.933 2.61793 -4.85972 0
M  V30 4486 H 433.409 2.92672 -2.95774 0
M  V30 4487 H 432.285 4.16383 -3.57654 0
M  V30 4488 H 432.546 4.0173 -1.84568 0
M  V30 4489 N 431.605 1.3629 0.791371 0
M  V30 4490 C 432.535 1.33137 1.91825 0
M  V30 4491 C 433.516 0.203168 1.68882 0
M  V30 4492 O 434.701 0.400509 1.90025 0
M  V30 4493 C 431.831 1.11793 3.28816 0
M  V30 4494 C 430.785 2.21417 3.66277 0
M  V30 4495 C 430.111 1.85218 5.01596 0
M  V30 4496 C 431.411 3.63489 3.75064 0
M  V30 4497 H 433.105 2.2743 1.9472 0
M  V30 4498 H 430.651 1.09479 0.935437 0
M  V30 4499 H 432.604 1.08222 4.07266 0
M  V30 4500 H 431.328 0.139501 3.26302 0
M  V30 4501 H 429.987 2.2411 2.90121 0
M  V30 4502 H 429.635 0.859544 4.95602 0
M  V30 4503 H 429.335 2.58611 5.27631 0
M  V30 4504 H 430.859 1.832 5.82469 0
M  V30 4505 H 432.273 3.63034 4.43711 0
M  V30 4506 H 430.67 4.35771 4.12582 0
M  V30 4507 H 431.74 3.98536 2.76219 0
M  V30 4508 N 433.083 -1.0153 1.20538 0
M  V30 4509 C 434.313 -1.78487 1.04048 0
M  V30 4510 C 434.721 -1.84631 -0.413292 0
M  V30 4511 O 434.064 -1.29919 -1.29872 0
M  V30 4512 C 434.126 -3.24367 1.55003 0
M  V30 4513 C 433.79 -3.41827 3.0332 0
M  V30 4514 C 434.787 -3.30941 4.00966 0
M  V30 4515 C 432.472 -3.67602 3.42307 0
M  V30 4516 C 434.466 -3.45577 5.35589 0
M  V30 4517 C 432.153 -3.81881 4.77085 0
M  V30 4518 C 433.151 -3.70874 5.73534 0
M  V30 4519 O 432.839 -3.84714 7.05868 0
M  V30 4520 H 432.571 -0.568108 0.366373 0
M  V30 4521 H 435.125 -1.28677 1.60098 0
M  V30 4522 H 433.355 -3.75266 0.933397 0
M  V30 4523 H 435.044 -3.82963 1.34514 0
M  V30 4524 H 435.81 -3.10964 3.72191 0
M  V30 4525 H 431.689 -3.75256 2.67776 0
M  V30 4526 H 435.233 -3.36902 6.10854 0
M  V30 4527 H 431.13 -4.01359 5.0555 0
M  V30 4528 H 431.898 -4.01724 7.13134 0
M  V30 4529 N 434.561 -1.01147 -1.20859 0
M  V30 4530 C 435.508 -0.577354 -2.23462 0
M  V30 4531 C 436.478 0.399922 -1.61214 0
M  V30 4532 O 437.663 0.300515 -1.88419 0
M  V30 4533 C 434.803 0.083372 -3.44999 0
M  V30 4534 C 433.916 -0.937856 -4.21697 0
M  V30 4535 C 433.051 -0.248717 -5.30617 0
M  V30 4536 C 432.09 -1.25705 -5.99053 0
M  V30 4537 N 431.227 -0.594939 -6.99575 0
M  V30 4538 H 436.067 -1.45695 -2.59956 0
M  V30 4539 H 433.604 -0.729428 -1.27741 0
M  V30 4540 H 435.562 0.483535 -4.14388 0
M  V30 4541 H 434.192 0.926645 -3.09214 0
M  V30 4542 H 433.244 -1.45622 -3.51423 0
M  V30 4543 H 434.556 -1.70493 -4.68757 0
M  V30 4544 H 433.71 0.207215 -6.06346 0
M  V30 4545 H 432.449 0.55071 -4.84581 0
M  V30 4546 H 431.454 -1.72343 -5.2209 0
M  V30 4547 H 432.679 -2.05767 -6.47176 0
M  V30 4548 H 430.625 0.184713 -6.5574 0
M  V30 4549 H 430.542 -1.30017 -7.44736 0
M  V30 4550 H 431.81 -0.162427 -7.79331 0
M  V30 4551 N 436.039 1.36541 -0.78704 0
M  V30 4552 C 437.316 1.9355 -0.282424 0
M  V30 4553 C 437.696 1.71919 1.22503 0
M  V30 4554 O 437.044 1.07677 2.01539 0
M  V30 4555 C 437.254 3.4246 -0.672462 0
M  V30 4556 C 438.602 4.19582 -0.650863 0
M  V30 4557 O 439.626 3.50889 -0.612789 0
M  V30 4558 O 438.485 5.42106 -0.691623 0
M  V30 4559 H 435.579 0.824091 -0.0693 0
M  V30 4560 H 438.125 1.45736 -0.869423 0
M  V30 4561 H 436.897 3.51851 -1.71221 0
M  V30 4562 H 436.52 3.97556 -0.0592211 0
M  V30 4563 N 437.518 0.538854 1.48102 0
M  V30 4564 C 438.746 0.0123136 2.06896 0
M  V30 4565 C 439.161 -1.27312 1.39417 0
M  V30 4566 O 438.518 -1.75949 0.484582 0
M  V30 4567 C 438.569 -0.206118 3.60912 0
M  V30 4568 O 438.29 1.0284 4.25859 0
M  V30 4569 C 439.791 -0.772033 4.36526 0
M  V30 4570 H 437.011 0.0375239 0.66995 0
M  V30 4571 H 439.555 0.747032 1.90367 0
M  V30 4572 H 437.71 -0.89091 3.77017 0
M  V30 4573 H 438.124 0.814654 5.18135 0
M  V30 4574 H 439.598 -0.874251 5.45033 0
M  V30 4575 H 440.075 -1.77904 4.01555 0
M  V30 4576 H 440.681 -0.123526 4.25121 0
M  V30 4577 N 438.996 -1.55193 0.274407 0
M  V30 4578 C 440.242 -1.99877 -0.343086 0
M  V30 4579 C 440.575 -1.16256 -1.55558 0
M  V30 4580 O 439.85 -0.232462 -1.93106 0
M  V30 4581 C 440.133 -3.52706 -0.725965 0
M  V30 4582 C 439.986 -4.47081 0.493818 0
M  V30 4583 C 441.305 -4.11422 -1.56268 0
M  V30 4584 H 438.424 -0.726625 -0.123229 0
M  V30 4585 H 441.066 -1.86136 0.38121 0
M  V30 4586 H 439.216 -3.64546 -1.34307 0
M  V30 4587 H 440.888 -4.47186 1.13237 0
M  V30 4588 H 439.131 -4.1877 1.13201 0
M  V30 4589 H 439.802 -5.51699 0.18217 0
M  V30 4590 H 442.278 -4.02855 -1.04151 0
M  V30 4591 H 441.154 -5.18568 -1.79939 0
M  V30 4592 H 441.415 -3.61607 -2.54348 0
M  V30 4593 N 440.474 -0.00167713 -1.576 0
M  V30 4594 C 441.72 0.683832 -1.90923 0
M  V30 4595 C 442.053 1.7333 -0.875799 0
M  V30 4596 O 441.328 1.94215 0.10525 0
M  V30 4597 C 441.611 1.32543 -3.3482 0
M  V30 4598 C 441.464 0.287387 -4.48881 0
M  V30 4599 C 442.783 2.25114 -3.78169 0
M  V30 4600 H 439.902 0.247125 -0.694333 0
M  V30 4601 H 442.544 -0.0533149 -1.89925 0
M  V30 4602 H 440.694 1.95372 -3.35801 0
M  V30 4603 H 442.366 -0.341346 -4.60035 0
M  V30 4604 H 440.609 -0.39017 -4.32042 0
M  V30 4605 H 441.28 0.775393 -5.46527 0
M  V30 4606 H 443.756 1.723 -3.7875 0
M  V30 4607 H 442.632 2.66971 -4.79602 0
M  V30 4608 H 442.893 3.13092 -3.12131 0
M  V30 4609 N 441.952 1.55251 0.271103 0
M  V30 4610 C 443.199 1.75946 1.00245 0
M  V30 4611 C 443.527 0.561611 1.86215 0
M  V30 4612 O 442.782 -0.455832 1.90317 0
M  V30 4613 C 443.081 3.01879 1.91321 0
M  V30 4614 C 442.747 4.34337 1.21086 0
M  V30 4615 C 441.409 4.70338 1.01666 0
M  V30 4616 C 443.761 5.16325 0.71119 0
M  V30 4617 C 441.089 5.8588 0.310099 0
M  V30 4618 C 443.441 6.32597 0.0182157 0
M  V30 4619 C 442.105 6.67236 -0.18768 0
M  V30 4620 H 441.375 0.643833 0.366824 0
M  V30 4621 H 444.022 1.89521 0.27458 0
M  V30 4622 H 442.327 2.83212 2.70736 0
M  V30 4623 H 444.024 3.15088 2.48033 0
M  V30 4624 H 440.614 4.06043 1.37213 0
M  V30 4625 H 444.798 4.88987 0.848844 0
M  V30 4626 H 440.054 6.1124 0.139873 0
M  V30 4627 H 444.228 6.9538 -0.376711 0
M  V30 4628 H 441.855 7.56618 -0.73715 0
M  V30 4629 N 443.43 -0.535701 1.48216 0
M  V30 4630 C 444.846 -0.863701 1.3421 0
M  V30 4631 C 445.046 -1.98458 0.34879 0
M  V30 4632 O 444.102 -2.51432 -0.23204 0
M  V30 4633 C 445.415 -1.23662 2.74095 0
M  V30 4634 C 446.963 -1.34683 2.82541 0
M  V30 4635 C 447.438 -1.75322 4.23115 0
M  V30 4636 N 448.929 -1.82434 4.2576 0
M  V30 4637 C 449.664 -2.15252 5.31464 0
M  V30 4638 N 449.16 -2.46533 6.47452 0
M  V30 4639 N 450.953 -2.16209 5.18855 0
M  V30 4640 H 443.104 0.203965 2.11418 0
M  V30 4641 H 445.367 0.0286033 0.947568 0
M  V30 4642 H 445.073 -0.486674 3.48316 0
M  V30 4643 H 444.947 -2.18805 3.07253 0
M  V30 4644 H 447.334 -2.08756 2.08579 0
M  V30 4645 H 447.415 -0.376756 2.5301 0
M  V30 4646 H 447.059 -1.01812 4.97591 0
M  V30 4647 H 446.989 -2.7337 4.50085 0
M  V30 4648 H 449.48 -1.6056 3.42095 0
M  V30 4649 H 449.793 -2.70662 7.23852 0
M  V30 4650 H 448.138 -2.44065 6.50736 0
M  V30 4651 H 451.329 -1.91224 4.2726 0
M  V30 4652 H 451.502 -2.41453 6.01335 0
M  V30 4653 N 444.908 -1.36708 -0.784132 0
M  V30 4654 C 446.154 -1.31426 -1.54451 0
M  V30 4655 C 446.487 0.10476 -1.93917 0
M  V30 4656 O 445.762 1.05934 -1.6312 0
M  V30 4657 C 446.045 -2.24189 -2.818 0
M  V30 4658 C 445.898 -3.74813 -2.48667 0
M  V30 4659 C 447.217 -2.15626 -3.83658 0
M  V30 4660 H 444.336 -0.478739 -0.560337 0
M  V30 4661 H 446.978 -1.67305 -0.900498 0
M  V30 4662 H 445.128 -1.93722 -3.36755 0
M  V30 4663 H 446.8 -4.15823 -1.99722 0
M  V30 4664 H 445.043 -3.93989 -1.81535 0
M  V30 4665 H 445.714 -4.35138 -3.39646 0
M  V30 4666 H 448.19 -2.42456 -3.38163 0
M  V30 4667 H 447.066 -2.82694 -4.70506 0
M  V30 4668 H 447.327 -1.14522 -4.27009 0
M  V30 4669 N 446.386 1.0089 -1.21074 0
M  V30 4670 C 447.349 2.0775 -0.968129 0
M  V30 4671 C 448.349 1.6069 0.0593445 0
M  V30 4672 O 449.539 1.73293 -0.177525 0
M  V30 4673 C 446.671 3.37794 -0.459108 0
M  V30 4674 H 447.864 2.30707 -1.9161 0
M  V30 4675 H 445.417 1.17807 -1.02719 0
M  V30 4676 H 446.152 3.20516 0.49397 0
M  V30 4677 H 445.937 3.7328 -1.20019 0
M  V30 4678 H 447.427 4.16454 -0.309099 0
M  V30 4679 N 447.864 1.01787 1.20321 0
M  V30 4680 C 449.275 0.739307 1.71438 0
M  V30 4681 C 449.626 -0.742041 1.81627 0
M  V30 4682 O 448.751 -1.57903 1.47971 0
M  V30 4683 C 449.346 1.33538 3.11373 0
M  V30 4684 C 447.905 1.10566 3.59795 0
M  V30 4685 C 447.052 1.44028 2.36962 0
M  V30 4686 H 450.003 1.18718 1.05317 0
M  V30 4687 H 450.024 0.726611 3.73498 0
M  V30 4688 H 449.536 2.41352 3.03926 0
M  V30 4689 H 447.637 0.0452405 3.72573 0
M  V30 4690 H 447.75 1.78661 4.44542 0
M  V30 4691 H 446.114 0.85933 2.39766 0
M  V30 4692 H 446.897 2.52901 2.32155 0
M  V30 4693 N 449.342 -1.36122 0.79427 0
M  V30 4694 C 450.582 -2.00942 0.374376 0
M  V30 4695 C 450.946 -1.61666 -1.03577 0
M  V30 4696 O 452.147 -2.19113 -1.55701 0
M  V30 4697 C 450.418 -3.53323 0.538327 0
M  V30 4698 S 451.977 -4.38311 0.20703 0
M  V30 4699 H 448.795 -0.696515 0.142785 0
M  V30 4700 H 451.397 -1.65929 1.03382 0
M  V30 4701 H 450.101 -3.79395 1.56484 0
M  V30 4702 H 449.632 -3.93162 -0.136882 0
M  V30 4703 H 451.647 -4.8623 -0.989695 0
M  V30 4704 N 450.82 -0.546701 -1.47814 0
M  V30 4705 C 452.066 -0.0187684 -2.02791 0
M  V30 4706 C 452.399 1.32338 -1.42128 0
M  V30 4707 O 451.674 1.85867 -0.573023 0
M  V30 4708 C 451.957 0.0854985 -3.59998 0
M  V30 4709 C 451.81 -1.283 -4.31114 0
M  V30 4710 C 453.129 0.80412 -4.32691 0
M  V30 4711 H 450.248 -0.0082946 -0.736953 0
M  V30 4712 H 452.89 -0.706962 -1.76358 0
M  V30 4713 H 451.04 0.671609 -3.82651 0
M  V30 4714 H 452.712 -1.91151 -4.19832 0
M  V30 4715 H 450.955 -1.86049 -3.91878 0
M  V30 4716 H 451.626 -1.16287 -5.39612 0
M  V30 4717 H 454.102 0.306576 -4.14969 0
M  V30 4718 H 452.978 0.846011 -5.42341 0
M  V30 4719 H 453.239 1.85802 -4.01161 0
M  V30 4720 N 452.299 1.55045 -0.282633 0
M  V30 4721 C 453.546 1.9976 0.33199 0
M  V30 4722 C 453.874 1.17105 1.55295 0
M  V30 4723 O 453.129 0.230599 1.94337 0
M  V30 4724 C 453.428 3.49422 0.750938 0
M  V30 4725 C 453.094 4.4941 -0.366228 0
M  V30 4726 C 451.756 4.76471 -0.672964 0
M  V30 4727 C 454.108 5.09054 -1.11864 0
M  V30 4728 C 451.436 5.60442 -1.73556 0
M  V30 4729 C 453.788 5.9418 -2.17102 0
M  V30 4730 C 452.452 6.19558 -2.48402 0
M  V30 4731 H 451.722 0.730974 0.121484 0
M  V30 4732 H 454.369 1.8732 -0.39791 0
M  V30 4733 H 452.674 3.59377 1.56063 0
M  V30 4734 H 454.371 3.81432 1.23736 0
M  V30 4735 H 450.961 4.2844 -0.117041 0
M  V30 4736 H 455.145 4.88165 -0.894925 0
M  V30 4737 H 450.401 5.78349 -1.983 0
M  V30 4738 H 454.575 6.39427 -2.75873 0
M  V30 4739 H 452.202 6.84417 -3.30874 0
M  V30 4740 N 453.777 0.010035 1.57597 0
M  V30 4741 C 455.026 -0.671945 1.90178 0
M  V30 4742 C 455.339 -1.74376 0.886131 0
M  V30 4743 O 456.545 -2.48107 1.10252 0
M  V30 4744 C 455.001 -1.24636 3.3763 0
M  V30 4745 C 454.609 -0.208838 4.47513 0
M  V30 4746 C 456.353 -1.90595 3.79307 0
M  V30 4747 C 454.26 -0.793814 5.86048 0
M  V30 4748 H 453.19 -0.25474 0.709665 0
M  V30 4749 H 455.841 0.0722206 1.83358 0
M  V30 4750 H 454.223 -2.04152 3.3932 0
M  V30 4751 H 455.397 0.562463 4.57354 0
M  V30 4752 H 453.712 0.350889 4.14919 0
M  V30 4753 H 456.309 -2.35284 4.80151 0
M  V30 4754 H 456.652 -2.74074 3.13352 0
M  V30 4755 H 457.185 -1.17798 3.79958 0
M  V30 4756 H 453.924 0.00240855 6.555 0
M  V30 4757 H 453.444 -1.53404 5.79851 0
M  V30 4758 H 455.123 -1.2894 6.34022 0
M  V30 4759 N 455.255 -1.55392 -0.262866 0
M  V30 4760 C 456.666 -1.67079 -0.833158 0
M  V30 4761 C 457.017 -0.604539 -1.86654 0
M  V30 4762 O 456.142 0.252138 -2.14926 0
M  V30 4763 C 456.737 -3.02891 -1.51797 0
M  V30 4764 C 455.296 -3.16571 -2.03617 0
M  V30 4765 C 454.443 -2.62909 -0.881701 0
M  V30 4766 H 457.394 -1.58652 -0.0389986 0
M  V30 4767 H 457.415 -2.96445 -2.38538 0
M  V30 4768 H 456.927 -3.80473 -0.765619 0
M  V30 4769 H 455.028 -2.43782 -2.81782 0
M  V30 4770 H 455.141 -4.23271 -2.24452 0
M  V30 4771 H 453.505 -2.20324 -1.27786 0
M  V30 4772 H 454.288 -3.43003 -0.14269 0
M  V30 4773 N 456.733 0.527833 -1.48498 0
M  V30 4774 C 457.973 1.29401 -1.58224 0
M  V30 4775 C 458.337 1.90348 -0.251327 0
M  V30 4776 O 459.538 2.67868 -0.223588 0
M  V30 4777 C 457.809 2.35266 -2.69044 0
M  V30 4778 S 459.368 3.2158 -2.98549 0
M  V30 4779 H 456.186 0.440138 -0.558391 0
M  V30 4780 H 458.788 0.601079 -1.8603 0
M  V30 4781 H 457.492 1.88975 -3.64303 0
M  V30 4782 H 457.023 3.09263 -2.43146 0
M  V30 4783 H 459.038 4.35391 -2.38011 0
M  V30 4784 N 458.211 1.37122 0.776871 0
M  V30 4785 C 459.439 1.3523 1.5659 0
M  V30 4786 C 459.854 -0.0635518 1.88693 0
M  V30 4787 O 459.211 -1.02394 1.51069 0
M  V30 4788 C 459.262 2.18583 2.8793 0
M  V30 4789 O 458.983 3.5465 2.57206 0
M  V30 4790 C 460.484 2.24612 3.82183 0
M  V30 4791 H 457.704 0.4634 0.485285 0
M  V30 4792 H 460.248 1.80392 0.963266 0
M  V30 4793 H 458.403 1.76943 3.4463 0
M  V30 4794 H 458.817 3.98286 3.41275 0
M  V30 4795 H 460.291 2.87267 4.71361 0
M  V30 4796 H 460.768 1.25309 4.20944 0
M  V30 4797 H 461.374 2.66543 3.31414 0
M  V30 4798 N 459.689 -1.00246 1.21608 0
M  V30 4799 C 460.621 -2.09244 0.935401 0
M  V30 4800 C 461.634 -1.62592 -0.0823594 0
M  V30 4801 O 462.823 -1.77865 0.150456 0
M  V30 4802 C 459.923 -3.36724 0.383453 0
M  V30 4803 C 459.096 -4.1245 1.45615 0
M  V30 4804 C 458.155 -5.18219 0.912991 0
M  V30 4805 O 457.181 -5.46337 1.59701 0
M  V30 4806 N 458.383 -5.7987 -0.270478 0
M  V30 4807 H 461.148 -2.33905 1.87373 0
M  V30 4808 H 458.709 -1.16748 1.12167 0
M  V30 4809 H 460.701 -4.047 0.00562157 0
M  V30 4810 H 459.271 -3.09201 -0.459758 0
M  V30 4811 H 458.491 -3.39241 2.00772 0
M  V30 4812 H 459.779 -4.59819 2.17817 0
M  V30 4813 H 459.177 -5.59381 -0.843195 0
M  V30 4814 H 457.734 -6.49126 -0.589794 0
M  V30 4815 N 461.167 -1.02423 -1.1978 0
M  V30 4816 C 462.413 -0.719051 -1.89625 0
M  V30 4817 C 462.746 0.750083 -1.7913 0
M  V30 4818 O 462.021 1.54574 -1.18056 0
M  V30 4819 C 462.304 -1.16499 -3.40735 0
M  V30 4820 C 462.157 -2.695 -3.60125 0
M  V30 4821 C 463.476 -0.742166 -4.33797 0
M  V30 4822 H 460.595 -0.26269 -0.688595 0
M  V30 4823 H 463.237 -1.27333 -1.41018 0
M  V30 4824 H 461.387 -0.69341 -3.82262 0
M  V30 4825 H 463.059 -3.24569 -3.278 0
M  V30 4826 H 461.302 -3.10113 -3.03336 0
M  V30 4827 H 461.973 -2.95757 -4.66081 0
M  V30 4828 H 464.449 -1.1477 -3.99959 0
M  V30 4829 H 463.325 -1.08213 -5.38127 0
M  V30 4830 H 463.586 0.355747 -4.40666 0
M  V30 4831 N 462.645 1.35699 -0.801477 0
M  V30 4832 C 464.056 1.81415 -0.441073 0
M  V30 4833 C 464.407 1.66595 1.03636 0
M  V30 4834 O 463.532 1.19369 1.80499 0
M  V30 4835 C 464.127 3.29369 -0.793819 0
M  V30 4836 C 462.686 3.73248 -0.486083 0
M  V30 4837 C 461.833 2.57775 -1.02213 0
M  V30 4838 H 464.784 1.23749 -0.993572 0
M  V30 4839 H 464.805 3.80395 -0.0894158 0
M  V30 4840 H 464.317 3.40123 -1.86917 0
M  V30 4841 H 462.418 3.68046 0.580735 0
M  V30 4842 H 462.531 4.68222 -1.01513 0
M  V30 4843 H 460.895 2.50788 -0.444712 0
M  V30 4844 H 461.678 2.71309 -2.10348 0
M  V30 4845 N 464.123 0.554532 1.47522 0
M  V30 4846 C 465.053 -0.182974 2.32782 0
M  V30 4847 C 466.034 -0.911377 1.43624 0
M  V30 4848 O 467.219 -0.892366 1.72483 0
M  V30 4849 C 464.349 -1.21513 3.25349 0
M  V30 4850 C 463.303 -0.603355 4.23726 0
M  V30 4851 C 462.629 -1.73995 5.05598 0
M  V30 4852 C 463.929 0.441121 5.20434 0
M  V30 4853 H 465.623 0.52882 2.94693 0
M  V30 4854 H 463.169 0.255759 1.41711 0
M  V30 4855 H 465.122 -1.73922 3.83835 0
M  V30 4856 H 463.846 -1.95683 2.61487 0
M  V30 4857 H 462.505 -0.10059 3.66462 0
M  V30 4858 H 462.153 -2.47063 4.38143 0
M  V30 4859 H 461.853 -1.3364 5.72201 0
M  V30 4860 H 463.377 -2.26735 5.66942 0
M  V30 4861 H 464.791 0.00319931 5.733 0
M  V30 4862 H 463.188 0.763402 5.95224 0
M  V30 4863 H 464.258 1.33799 4.66075 0
M  V30 4864 N 465.601 -1.54893 0.290851 0
M  V30 4865 C 466.511 -2.26812 -0.59945 0
M  V30 4866 C 467.527 -1.29963 -1.15696 0
M  V30 4867 O 468.703 -1.62928 -1.18391 0
M  V30 4868 C 465.768 -2.98716 -1.75982 0
M  V30 4869 C 464.829 -4.1108 -1.2374 0
M  V30 4870 C 464.062 -4.79546 -2.34246 0
M  V30 4871 O 464.285 -4.47309 -3.53936 0
M  V30 4872 O 463.219 -5.67165 -2.01512 0
M  V30 4873 H 467.045 -3.03696 -0.0163561 0
M  V30 4874 H 464.63 -1.49289 0.0576755 0
M  V30 4875 H 466.512 -3.43851 -2.43607 0
M  V30 4876 H 465.187 -2.24737 -2.3297 0
M  V30 4877 H 464.094 -3.70367 -0.527163 0
M  V30 4878 H 465.427 -4.87007 -0.71307 0
M  V30 4879 N 467.08 -0.0183926 -1.57589 0
M  V30 4880 C 468.326 0.663543 -1.91638 0
M  V30 4881 C 468.659 1.72392 -0.894134 0
M  V30 4882 O 467.934 1.94316 0.0846449 0
M  V30 4883 C 468.217 1.28984 -3.36207 0
M  V30 4884 C 468.07 0.239761 -4.49161 0
M  V30 4885 C 469.389 2.2109 -3.80536 0
M  V30 4886 H 466.508 0.239746 -0.696915 0
M  V30 4887 H 469.15 -0.073456 -1.89858 0
M  V30 4888 H 467.3 1.91799 -3.37854 0
M  V30 4889 H 468.972 -0.390119 -4.59647 0
M  V30 4890 H 467.215 -0.435972 -4.31604 0
M  V30 4891 H 467.886 0.717383 -5.47319 0
M  V30 4892 H 470.362 1.68273 -3.80557 0
M  V30 4893 H 469.238 2.61869 -4.82406 0
M  V30 4894 H 469.499 3.09764 -3.15434 0
M  V30 4895 N 468.558 1.5553 0.254621 0
M  V30 4896 C 469.788 1.80784 1.00004 0
M  V30 4897 C 470.196 0.59071 1.79742 0
M  V30 4898 O 469.539 -0.449988 1.78103 0
M  V30 4899 C 469.601 2.99268 1.99196 0
M  V30 4900 C 469.265 4.35595 1.38224 0
M  V30 4901 C 470.262 5.13884 0.788611 0
M  V30 4902 C 467.947 4.82281 1.40393 0
M  V30 4903 C 469.941 6.37004 0.224783 0
M  V30 4904 C 467.628 6.05351 0.836243 0
M  V30 4905 C 468.626 6.82551 0.24769 0
M  V30 4906 O 468.314 8.03297 -0.311249 0
M  V30 4907 H 468.046 0.60565 0.300274 0
M  V30 4908 H 470.6 2.03411 0.285143 0
M  V30 4909 H 468.83 2.72377 2.74496 0
M  V30 4910 H 470.519 3.11682 2.60018 0
M  V30 4911 H 471.285 4.78938 0.764423 0
M  V30 4912 H 467.164 4.22189 1.85142 0
M  V30 4913 H 470.708 6.97203 -0.235235 0
M  V30 4914 H 466.605 6.39776 0.857733 0
M  V30 4915 H 467.373 8.1825 -0.20237 0
M  V30 4916 N 470.036 -0.519951 1.48776 0
M  V30 4917 C 470.966 -1.63253 1.66945 0
M  V30 4918 C 471.947 -1.62014 0.518224 0
M  V30 4919 O 473.132 -1.79053 0.751919 0
M  V30 4920 C 470.262 -3.0181 1.71836 0
M  V30 4921 C 469.216 -3.17911 2.8656 0
M  V30 4922 C 468.542 -4.5763 2.76548 0
M  V30 4923 C 469.842 -2.99729 4.27738 0
M  V30 4924 H 471.536 -1.48302 2.6009 0
M  V30 4925 H 469.082 -0.712026 1.25165 0
M  V30 4926 H 471.035 -3.79525 1.83135 0
M  V30 4927 H 469.759 -3.17806 0.752775 0
M  V30 4928 H 468.418 -2.42616 2.74833 0
M  V30 4929 H 468.066 -4.70476 1.77937 0
M  V30 4930 H 467.766 -4.69346 3.53536 0
M  V30 4931 H 469.29 -5.37431 2.89828 0
M  V30 4932 H 470.704 -3.67228 4.40246 0
M  V30 4933 H 469.101 -3.22932 5.05801 0
M  V30 4934 H 470.171 -1.96047 4.43502 0
M  V30 4935 N 471.514 -1.37532 -0.769588 0
M  V30 4936 C 472.754 -1.34261 -1.54122 0
M  V30 4937 C 473.118 0.0717222 -1.91866 0
M  V30 4938 O 474.319 0.22918 -2.67821 0
M  V30 4939 C 472.59 -2.2574 -2.77086 0
M  V30 4940 S 474.149 -2.40339 -3.67127 0
M  V30 4941 H 470.967 -0.476595 -0.527615 0
M  V30 4942 H 473.569 -1.73303 -0.90479 0
M  V30 4943 H 472.273 -3.27417 -2.4744 0
M  V30 4944 H 471.804 -1.87789 -3.45686 0
M  V30 4945 H 473.819 -1.61558 -4.69163 0
M  V30 4946 N 472.992 0.995999 -1.22138 0
M  V30 4947 C 474.408 1.25917 -0.980667 0
M  V30 4948 C 474.608 1.98819 0.327604 0
M  V30 4949 O 473.664 2.29587 1.05101 0
M  V30 4950 C 474.977 2.07399 -2.17729 0
M  V30 4951 C 476.525 2.20594 -2.22052 0
M  V30 4952 C 477 3.05462 -3.41258 0
M  V30 4953 N 478.491 3.13049 -3.41401 0
M  V30 4954 C 479.226 3.78997 -4.30289 0
M  V30 4955 N 478.722 4.46899 -5.2939 0
M  V30 4956 N 480.515 3.75728 -4.18073 0
M  V30 4957 H 472.666 0.507158 -2.06256 0
M  V30 4958 H 474.929 0.28658 -0.903646 0
M  V30 4959 H 474.635 1.61191 -3.12586 0
M  V30 4960 H 474.509 3.08154 -2.17534 0
M  V30 4961 H 476.896 2.66017 -1.27745 0
M  V30 4962 H 476.977 1.1928 -2.26287 0
M  V30 4963 H 476.621 2.60739 -4.35864 0
M  V30 4964 H 476.551 4.06911 -3.34262 0
M  V30 4965 H 479.042 2.64721 -2.69688 0
M  V30 4966 H 479.355 4.94952 -5.935 0
M  V30 4967 H 477.7 4.45657 -5.33306 0
M  V30 4968 H 480.891 3.2184 -3.39907 0
M  V30 4969 H 481.064 4.26845 -4.87553 0
M  V30 4970 N 474.47 1.03057 1.19235 0
M  V30 4971 C 475.38 0.622922 2.26179 0
M  V30 4972 C 476.396 -0.346113 1.70523 0
M  V30 4973 O 477.572 -0.203572 2.00369 0
M  V30 4974 C 474.637 -0.0182063 3.46695 0
M  V30 4975 C 473.698 0.998546 4.17526 0
M  V30 4976 C 472.931 0.387917 5.32288 0
M  V30 4977 O 473.154 -0.808668 5.64639 0
M  V30 4978 O 472.088 1.1116 5.91546 0
M  V30 4979 H 475.914 1.51363 2.63292 0
M  V30 4980 H 473.499 0.800856 1.26122 0
M  V30 4981 H 475.381 -0.375606 4.19723 0
M  V30 4982 H 474.056 -0.882895 3.11427 0
M  V30 4983 H 472.963 1.40756 3.4661 0
M  V30 4984 H 474.296 1.83366 4.56769 0
M  V30 4985 N 475.948 -1.35272 0.808662 0
M  V30 4986 C 476.878 -2.32315 0.234981 0
M  V30 4987 C 477.859 -1.57572 -0.64071 0
M  V30 4988 O 479.044 -1.8563 -0.570551 0
M  V30 4989 C 476.174 -3.41801 -0.615601 0
M  V30 4990 C 475.128 -4.27694 0.161767 0
M  V30 4991 C 474.454 -5.28519 -0.810649 0
M  V30 4992 C 475.754 -5.04231 1.36193 0
M  V30 4993 H 477.448 -2.80543 1.04575 0
M  V30 4994 H 474.994 -1.3488 0.504315 0
M  V30 4995 H 476.947 -4.08693 -1.02702 0
M  V30 4996 H 475.671 -2.92186 -1.45928 0
M  V30 4997 H 474.33 -3.62384 0.554382 0
M  V30 4998 H 473.978 -4.75171 -1.64988 0
M  V30 4999 H 473.678 -5.8686 -0.294822 0
M  V30 5000 H 475.202 -5.98283 -1.22023 0
M  V30 5001 H 476.616 -5.64058 1.02528 0
M  V30 5002 H 475.013 -5.72077 1.81239 0
M  V30 5003 H 476.083 -4.34753 2.14751 0
M  V30 5004 N 477.426 -0.562348 -1.47226 0
M  V30 5005 C 478.358 0.220011 -2.28142 0
M  V30 5006 C 479.371 0.874596 -1.37312 0
M  V30 5007 O 480.56 0.747583 -1.62091 0
M  V30 5008 C 477.66 1.32953 -3.11732 0
M  V30 5009 C 476.833 0.770759 -4.30556 0
M  V30 5010 C 475.892 1.76541 -4.95701 0
M  V30 5011 O 474.918 1.3095 -5.53932 0
M  V30 5012 N 476.12 3.09896 -4.90861 0
M  V30 5013 H 478.885 -0.474107 -2.95926 0
M  V30 5014 H 476.446 -0.398761 -1.56912 0
M  V30 5015 H 478.438 1.99378 -3.5218 0
M  V30 5016 H 477.008 1.92681 -2.46156 0
M  V30 5017 H 476.228 -0.0704056 -3.94137 0
M  V30 5018 H 477.516 0.376872 -5.07402 0
M  V30 5019 H 476.914 3.49577 -4.44761 0
M  V30 5020 H 475.471 3.71865 -5.35313 0
M  V30 5021 N 478.904 1.54736 -0.299062 0
M  V30 5022 C 479.834 2.26409 0.571085 0
M  V30 5023 C 480.815 1.2629 1.13951 0
M  V30 5024 O 482 1.55059 1.16921 0
M  V30 5025 C 479.13 3.00338 1.74396 0
M  V30 5026 C 478.084 4.07588 1.30599 0
M  V30 5027 C 477.41 4.69222 2.56387 0
M  V30 5028 C 478.71 5.20455 0.438645 0
M  V30 5029 H 480.404 2.99388 -0.0266991 0
M  V30 5030 H 477.95 1.43993 -0.0142812 0
M  V30 5031 H 479.903 3.49198 2.35878 0
M  V30 5032 H 478.627 2.24934 2.36796 0
M  V30 5033 H 477.286 3.59575 0.71424 0
M  V30 5034 H 476.934 3.9046 3.17097 0
M  V30 5035 H 476.634 5.41653 2.27784 0
M  V30 5036 H 478.158 5.20844 3.18675 0
M  V30 5037 H 479.572 5.65221 0.959085 0
M  V30 5038 H 477.969 5.99594 0.246466 0
M  V30 5039 H 479.039 4.8192 -0.536738 0
M  V30 5040 N 480.382 0.0267497 1.57577 0
M  V30 5041 C 481.314 -0.984594 2.06974 0
M  V30 5042 C 482.327 -1.29032 0.992705 0
M  V30 5043 O 483.516 -1.25539 1.26895 0
M  V30 5044 C 480.616 -2.31262 2.47732 0
M  V30 5045 C 479.789 -2.1924 3.78487 0
M  V30 5046 C 478.848 -3.34956 4.05821 0
M  V30 5047 O 477.874 -3.11948 4.76106 0
M  V30 5048 N 479.076 -4.58672 3.55809 0
M  V30 5049 H 481.841 -0.563143 2.94362 0
M  V30 5050 H 479.402 -0.160061 1.61107 0
M  V30 5051 H 481.394 -3.07496 2.63112 0
M  V30 5052 H 479.964 -2.65056 1.65723 0
M  V30 5053 H 479.184 -1.27747 3.72927 0
M  V30 5054 H 480.472 -2.08409 4.64158 0
M  V30 5055 H 479.87 -4.8026 2.98942 0
M  V30 5056 H 478.427 -5.32083 3.76472 0
M  V30 5057 N 481.861 -1.55662 -0.24637 0
M  V30 5058 C 483.109 -1.77168 -0.972411 0
M  V30 5059 C 483.43 -0.590827 -1.85834 0
M  V30 5060 O 482.7 0.393365 -1.9191 0
M  V30 5061 H 481.28 -0.653405 -0.362038 0
M  V30 5062 H 483.942 -1.93101 -0.264189 0
M  V30 5063 H 483.038 -2.68335 -1.59382 0
M  V30 5064 N 483.339 0.512053 -1.4905 0
M  V30 5065 C 484.586 1.26686 -1.57978 0
M  V30 5066 C 484.914 1.92733 -0.261553 0
M  V30 5067 O 484.169 1.80772 0.749667 0
M  V30 5068 C 484.468 2.36446 -2.68008 0
M  V30 5069 C 484.134 1.87932 -4.09869 0
M  V30 5070 C 482.796 1.74419 -4.48477 0
M  V30 5071 C 485.148 1.5149 -4.98698 0
M  V30 5072 C 482.476 1.22827 -5.73699 0
M  V30 5073 C 484.828 1.01355 -6.24428 0
M  V30 5074 C 483.492 0.864735 -6.61875 0
M  V30 5075 H 482.762 0.463577 -0.578081 0
M  V30 5076 H 485.409 0.569421 -1.82838 0
M  V30 5077 H 483.714 3.11933 -2.37076 0
M  V30 5078 H 485.411 2.9453 -2.72127 0
M  V30 5079 H 482.001 1.99405 -3.79389 0
M  V30 5080 H 486.185 1.60782 -4.69535 0
M  V30 5081 H 481.441 1.10008 -6.01422 0
M  V30 5082 H 485.615 0.722351 -6.92644 0
M  V30 5083 H 483.242 0.462777 -7.5879 0
M  V30 5084 N 484.817 1.37938 0.762283 0
M  V30 5085 C 486.063 1.33866 1.52341 0
M  V30 5086 C 486.396 -0.0738961 1.94059 0
M  V30 5087 O 485.671 -1.03326 1.64785 0
M  V30 5088 C 485.954 2.28644 2.78197 0
M  V30 5089 C 485.807 3.78722 2.42672 0
M  V30 5090 C 487.126 2.21702 3.80179 0
M  V30 5091 H 484.245 0.487593 0.55265 0
M  V30 5092 H 486.887 1.68717 0.873767 0
M  V30 5093 H 485.037 1.99055 3.33631 0
M  V30 5094 H 486.709 4.18948 1.93081 0
M  V30 5095 H 484.952 3.96827 1.75244 0
M  V30 5096 H 485.623 4.40486 3.3268 0
M  V30 5097 H 488.099 2.47805 3.34263 0
M  V30 5098 H 486.975 2.90143 4.65949 0
M  V30 5099 H 487.236 1.21301 4.25133 0
M  V30 5100 N 486.295 -0.989507 1.22664 0
M  V30 5101 C 487.572 -1.70326 0.961688 0
M  V30 5102 C 487.952 -2.04537 -0.522279 0
M  V30 5103 O 487.3 -1.73136 -1.49118 0
M  V30 5104 C 487.51 -2.95135 1.86269 0
M  V30 5105 C 488.858 -3.67842 2.12078 0
M  V30 5106 O 489.882 -3.0515 1.83745 0
M  V30 5107 O 488.741 -4.80644 2.60083 0
M  V30 5108 H 485.835 -0.743589 0.361946 0
M  V30 5109 H 488.381 -1.04555 1.33665 0
M  V30 5110 H 487.153 -2.66382 2.8663 0
M  V30 5111 H 486.776 -3.68645 1.48952 0
M  V30 5112 N 487.773 -1.03688 -1.18687 0
M  V30 5113 C 489.001 -0.757918 -1.92518 0
M  V30 5114 C 489.416 0.684398 -1.75959 0
M  V30 5115 O 488.773 1.46617 -1.08673 0
M  V30 5116 C 488.824 -1.10985 -3.44042 0
M  V30 5117 O 488.545 -2.49554 -3.60076 0
M  V30 5118 C 490.046 -0.854844 -4.3498 0
M  V30 5119 H 487.266 -0.276699 -0.611293 0
M  V30 5120 H 489.81 -1.38352 -1.50595 0
M  V30 5121 H 487.965 -0.529279 -3.83767 0
M  V30 5122 H 488.379 -2.6291 -4.53849 0
M  V30 5123 H 489.853 -1.15098 -5.39867 0
M  V30 5124 H 490.33 0.210507 -4.38695 0
M  V30 5125 H 490.936 -1.41853 -4.00946 0
M  V30 5126 N 489.251 1.34841 -0.815825 0
M  V30 5127 C 490.497 1.98793 -0.401129 0
M  V30 5128 C 490.83 1.64548 1.03139 0
M  V30 5129 O 490.105 0.913487 1.71714 0
M  V30 5130 C 490.388 3.55143 -0.595409 0
M  V30 5131 C 490.241 3.99155 -2.07352 0
M  V30 5132 C 491.56 4.40092 -0.0268823 0
M  V30 5133 H 488.679 0.722146 -0.14722 0
M  V30 5134 H 491.321 1.59847 -1.02707 0
M  V30 5135 H 489.471 3.8845 -0.0625779 0
M  V30 5136 H 491.143 3.76216 -2.66945 0
M  V30 5137 H 489.386 3.49726 -2.56659 0
M  V30 5138 H 490.057 5.07971 -2.1603 0
M  V30 5139 H 492.533 4.13298 -0.482042 0
M  V30 5140 H 491.409 5.48562 -0.19267 0
M  V30 5141 H 491.67 4.29016 1.06759 0
M  V30 5142 N 490.729 0.570148 1.46925 0
M  V30 5143 C 491.957 0.0561966 2.06824 0
M  V30 5144 C 492.372 -1.24326 1.42086 0
M  V30 5145 O 491.729 -1.74882 0.521794 0
M  V30 5146 C 491.78 -0.129517 3.61268 0
M  V30 5147 O 491.501 1.1185 4.23581 0
M  V30 5148 C 493.002 -0.679266 4.38065 0
M  V30 5149 H 490.222 0.0517261 0.669003 0
M  V30 5150 H 492.766 0.787243 1.8874 0
M  V30 5151 H 490.921 -0.810739 3.78822 0
M  V30 5152 H 491.335 0.924375 5.1629 0
M  V30 5153 H 492.809 -0.758445 5.46765 0
M  V30 5154 H 493.286 -1.69346 4.05239 0
M  V30 5155 H 493.892 -0.0333237 4.25287 0
M  V30 5156 N 492.207 -1.54576 0.307264 0
M  V30 5157 C 493.154 -2.23751 -0.56604 0
M  V30 5158 C 494.124 -1.22235 -1.12462 0
M  V30 5159 O 495.309 -1.50873 -1.16799 0
M  V30 5160 C 492.449 -2.98661 -1.72903 0
M  V30 5161 C 491.562 -4.14963 -1.20124 0
M  V30 5162 C 490.697 -4.77441 -2.3286 0
M  V30 5163 C 489.736 -5.85875 -1.77247 0
M  V30 5164 N 488.873 -6.42282 -2.8358 0
M  V30 5165 H 493.713 -2.97984 0.0304578 0
M  V30 5166 H 491.25 -1.47076 0.0268015 0
M  V30 5167 H 493.208 -3.40329 -2.41313 0
M  V30 5168 H 491.838 -2.26793 -2.29706 0
M  V30 5169 H 490.89 -3.78193 -0.409198 0
M  V30 5170 H 492.202 -4.93066 -0.754171 0
M  V30 5171 H 491.356 -5.21993 -3.09205 0
M  V30 5172 H 490.095 -3.98684 -2.80896 0
M  V30 5173 H 489.1 -5.40741 -0.993926 0
M  V30 5174 H 490.325 -6.6652 -1.30107 0
M  V30 5175 H 488.271 -5.66406 -3.30939 0
M  V30 5176 H 488.188 -7.1575 -2.43388 0
M  V30 5177 H 489.456 -6.91492 -3.59804 0
M  V30 5178 N 493.685 -0.035106 -1.57561 0
M  V30 5179 C 494.615 0.942993 -2.13612 0
M  V30 5180 C 495.596 1.33531 -1.05373 0
M  V30 5181 O 496.781 1.41287 -1.33235 0
M  V30 5182 C 493.911 2.22332 -2.66807 0
M  V30 5183 C 492.865 1.97156 -3.79886 0
M  V30 5184 C 492.191 3.31506 -4.19533 0
M  V30 5185 C 493.491 1.30596 -5.05709 0
M  V30 5186 H 495.185 0.476179 -2.95589 0
M  V30 5187 H 492.731 0.227602 -1.4219 0
M  V30 5188 H 494.684 2.91142 -3.04654 0
M  V30 5189 H 493.408 2.7119 -1.81999 0
M  V30 5190 H 492.067 1.30763 -3.42486 0
M  V30 5191 H 491.715 3.78134 -3.31698 0
M  V30 5192 H 491.415 3.15465 -4.95738 0
M  V30 5193 H 492.939 4.01574 -4.59968 0
M  V30 5194 H 494.353 1.89416 -5.41105 0
M  V30 5195 H 492.75 1.24934 -5.86951 0
M  V30 5196 H 493.82 0.279742 -4.84092 0
M  V30 5197 N 495.163 1.55791 0.238111 0
M  V30 5198 C 496.388 1.8244 0.986432 0
M  V30 5199 C 496.813 0.613314 1.7782 0
M  V30 5200 O 496.171 -0.437767 1.75935 0
M  V30 5201 C 496.219 3.06917 1.893 0
M  V30 5202 O 495.323 2.84449 2.98601 0
M  V30 5203 H 494.664 0.601975 0.280218 0
M  V30 5204 H 497.194 2.02987 0.256437 0
M  V30 5205 H 497.204 3.36583 2.30598 0
M  V30 5206 H 495.879 3.947 1.31091 0
M  V30 5207 H 494.456 2.65972 2.61368 0
M  V30 5208 N 496.642 -0.504142 1.49319 0
M  V30 5209 C 497.552 -1.63248 1.68486 0
M  V30 5210 C 498.568 -1.64488 0.567432 0
M  V30 5211 O 499.744 -1.82966 0.841749 0
M  V30 5212 C 496.809 -2.99627 1.74426 0
M  V30 5213 C 495.87 -3.09039 2.97982 0
M  V30 5214 C 495.103 -4.38913 3.0363 0
M  V30 5215 O 495.326 -5.27528 2.16958 0
M  V30 5216 O 494.26 -4.53231 3.96062 0
M  V30 5217 H 498.086 -1.50008 2.64067 0
M  V30 5218 H 495.671 -0.680086 1.33023 0
M  V30 5219 H 497.553 -3.80689 1.80705 0
M  V30 5220 H 496.228 -3.13136 0.820233 0
M  V30 5221 H 495.135 -2.27177 2.97223 0
M  V30 5222 H 496.468 -3.00456 3.89855 0
M  V30 5223 N 498.12 -1.38341 -0.754957 0
M  V30 5224 C 499.067 -1.3546 -1.86867 0
M  V30 5225 C 500.037 -0.217369 -1.64672 0
M  V30 5226 O 501.222 -0.409383 -1.86356 0
M  V30 5227 C 498.362 -1.18413 -3.24149 0
M  V30 5228 C 497.475 -2.41511 -3.58185 0
M  V30 5229 C 496.61 -2.17205 -4.84763 0
M  V30 5230 C 495.649 -3.36081 -5.11582 0
M  V30 5231 N 494.786 -3.11219 -6.29354 0
M  V30 5232 H 499.626 -2.30672 -1.88664 0
M  V30 5233 H 497.163 -1.14607 -0.922154 0
M  V30 5234 H 499.121 -1.06545 -4.03366 0
M  V30 5235 H 497.751 -0.268397 -3.21682 0
M  V30 5236 H 496.803 -2.64056 -2.73822 0
M  V30 5237 H 498.115 -3.30115 -3.73932 0
M  V30 5238 H 497.269 -2.02465 -5.7192 0
M  V30 5239 H 496.008 -1.25964 -4.71152 0
M  V30 5240 H 495.013 -3.51341 -4.22894 0
M  V30 5241 H 496.238 -4.28196 -5.27091 0
M  V30 5242 H 494.184 -2.22624 -6.17069 0
M  V30 5243 H 494.101 -3.93373 -6.45596 0
M  V30 5244 H 495.369 -3.00132 -7.19403 0
M  V30 5245 N 499.598 0.982988 -1.23187 0
M  V30 5246 C 500.823 1.76455 -1.08988 0
M  V30 5247 C 501.248 1.84726 0.354691 0
M  V30 5248 O 500.606 1.30699 1.25649 0
M  V30 5249 C 500.654 3.17094 -1.71708 0
M  V30 5250 O 499.758 4.00648 -0.977477 0
M  V30 5251 H 499.099 0.542988 -0.382177 0
M  V30 5252 H 501.629 1.23413 -1.63188 0
M  V30 5253 H 501.639 3.67684 -1.76841 0
M  V30 5254 H 500.314 3.10389 -2.76823 0
M  V30 5255 H 498.891 3.59161 -1.0029 0
M  V30 5256 N 501.076 1.04316 1.18135 0
M  V30 5257 C 502.024 0.630175 2.23901 0
M  V30 5258 C 503.018 -0.344254 1.65865 0
M  V30 5259 O 504.224 -0.211273 1.78756 0
M  V30 5260 H 500.599 0.185578 0.728742 0
M  V30 5261 H 502.57 1.53253 2.56039 0
M  V30 5262 C 501.319 0.011666 3.47698 0
M  V30 5263 H 500.642 0.752526 3.92654 0
M  V30 5264 H 502.082 -0.240046 4.2332 0
M  V30 5265 C 500.541 -1.23913 3.13285 0
M  V30 5266 O 501.071 -2.32959 3.27251 0
M  V30 5267 N 499.277 -1.13338 2.67587 0
M  V30 5268 H 498.824 -0.246006 2.56423 0
M  V30 5269 H 498.782 -1.97116 2.44934 0
M  V30 5270 N 502.554 -1.34406 0.822964 0
M  V30 5271 C 503.779 -2.0304 0.423034 0
M  V30 5272 C 504.204 -1.61568 -0.963196 0
M  V30 5273 O 503.562 -0.800339 -1.62678 0
M  V30 5274 C 503.61 -3.56636 0.53321 0
M  V30 5275 O 502.714 -4.09971 -0.446939 0
M  V30 5276 H 502.055 -0.64075 0.174171 0
M  V30 5277 H 504.585 -1.71653 1.11339 0
M  V30 5278 H 504.595 -4.05945 0.408991 0
M  V30 5279 H 503.27 -3.86168 1.54425 0
M  V30 5280 H 501.847 -3.71835 -0.281601 0
M  V30 5281 N 504.032 -0.577932 -1.46621 0
M  V30 5282 C 504.964 0.195801 -2.28362 0
M  V30 5283 C 505.977 0.859983 -1.38232 0
M  V30 5284 O 507.166 0.730349 -1.62875 0
M  V30 5285 C 504.266 1.29639 -3.13124 0
M  V30 5286 C 503.439 0.725049 -4.31349 0
M  V30 5287 C 502.498 1.71274 -4.97546 0
M  V30 5288 O 501.524 1.25067 -5.5529 0
M  V30 5289 N 502.726 3.04672 -4.94121 0
M  V30 5290 H 505.491 -0.505468 -2.95407 0
M  V30 5291 H 503.052 -0.415381 -1.56481 0
M  V30 5292 H 505.044 1.95631 -3.54275 0
M  V30 5293 H 503.614 1.90059 -2.48186 0
M  V30 5294 H 502.834 -0.112205 -3.9404 0
M  V30 5295 H 504.122 0.323034 -5.07774 0
M  V30 5296 H 503.52 3.4484 -4.48444 0
M  V30 5297 H 502.077 3.66166 -5.39227 0
M  V30 5298 N 505.51 1.54411 -0.315457 0
M  V30 5299 C 506.756 2.00716 0.289972 0
M  V30 5300 C 507.089 1.2034 1.5242 0
M  V30 5301 O 506.364 0.283579 1.92422 0
M  V30 5302 C 506.647 3.54507 0.632196 0
M  V30 5303 C 506.5 4.45615 -0.61218 0
M  V30 5304 C 507.819 4.15421 1.45305 0
M  V30 5305 H 504.938 0.729637 0.10392 0
M  V30 5306 H 507.58 1.8506 -0.430427 0
M  V30 5307 H 505.73 3.67979 1.24595 0
M  V30 5308 H 507.402 4.44026 -1.25053 0
M  V30 5309 H 505.645 4.15621 -1.24264 0
M  V30 5310 H 506.316 5.51022 -0.328379 0
M  V30 5311 H 508.792 4.05474 0.934331 0
M  V30 5312 H 507.668 5.23157 1.66127 0
M  V30 5313 H 507.929 3.68223 2.44671 0
M  V30 5314 N 506.988 0.0434614 1.5754 0
M  V30 5315 C 507.951 -0.918696 2.09982 0
M  V30 5316 C 508.951 -1.24488 1.01781 0
M  V30 5317 O 510.141 -1.18284 1.27885 0
M  V30 5318 C 507.273 -2.23093 2.57764 0
M  V30 5319 H 508.466 -0.464229 2.96285 0
M  V30 5320 H 506.019 -0.204818 1.54952 0
M  V30 5321 H 506.754 -2.73137 1.74832 0
M  V30 5322 H 506.539 -2.00724 3.36827 0
M  V30 5323 H 508.029 -2.92028 2.98512 0
M  V30 5324 N 508.466 -1.55915 -0.229846 0
M  V30 5325 C 509.691 -1.8296 -0.976743 0
M  V30 5326 C 510.116 -0.622735 -1.77493 0
M  V30 5327 O 509.474 0.428431 -1.76165 0
M  V30 5328 C 509.522 -3.07916 -1.8767 0
M  V30 5329 O 508.626 -2.86028 -2.97088 0
M  V30 5330 H 507.967 -0.603453 -0.277021 0
M  V30 5331 H 510.497 -2.0312 -0.245669 0
M  V30 5332 H 510.507 -3.37802 -2.2881 0
M  V30 5333 H 509.182 -3.95389 -1.28996 0
M  V30 5334 H 507.759 -2.67355 -2.59954 0
M  V30 5335 N 509.944 0.496216 -1.49584 0
M  V30 5336 C 511.19 1.25189 -1.59548 0
M  V30 5337 C 511.523 1.9212 -0.283466 0
M  V30 5338 O 510.798 1.80947 0.713324 0
M  V30 5339 C 511.081 2.31516 -2.75812 0
M  V30 5340 C 510.934 1.69054 -4.16822 0
M  V30 5341 C 512.253 3.3304 -2.87702 0
M  V30 5342 H 509.372 0.45379 -0.580727 0
M  V30 5343 H 512.014 0.549327 -1.81886 0
M  V30 5344 H 510.164 2.91438 -2.56897 0
M  V30 5345 H 511.836 1.12923 -4.47265 0
M  V30 5346 H 510.079 0.994485 -4.22247 0
M  V30 5347 H 510.75 2.462 -4.94054 0
M  V30 5348 H 513.226 2.83114 -3.04936 0
M  V30 5349 H 512.102 4.04794 -3.7072 0
M  V30 5350 H 512.363 3.95655 -1.97255 0
M  V30 5351 N 511.423 1.38739 0.74761 0
M  V30 5352 C 512.653 1.3832 1.53464 0
M  V30 5353 C 513.061 -0.0273464 1.8918 0
M  V30 5354 O 512.404 -1.00588 1.53713 0
M  V30 5355 C 512.466 2.18007 2.85855 0
M  V30 5356 C 512.13 3.66762 2.72644 0
M  V30 5357 C 513.127 4.60124 2.42037 0
M  V30 5358 C 510.812 4.10193 2.89909 0
M  V30 5359 C 512.806 5.94897 2.28859 0
M  V30 5360 C 510.493 5.45045 2.7635 0
M  V30 5361 C 511.491 6.37211 2.45869 0
M  V30 5362 O 511.179 7.69581 2.3238 0
M  V30 5363 H 510.911 0.474718 0.481268 0
M  V30 5364 H 513.465 1.83012 0.932518 0
M  V30 5365 H 511.695 1.68043 3.48279 0
M  V30 5366 H 513.384 2.09921 3.47402 0
M  V30 5367 H 514.15 4.27874 2.28361 0
M  V30 5368 H 510.029 3.38797 3.1263 0
M  V30 5369 H 513.573 6.66802 2.04989 0
M  V30 5370 H 509.47 5.76889 2.89601 0
M  V30 5371 H 510.238 7.80169 2.47546 0
M  V30 5372 N 512.901 -0.976442 1.23707 0
M  V30 5373 C 513.811 -2.10359 1.03856 0
M  V30 5374 C 514.827 -1.73991 -0.0180919 0
M  V30 5375 O 516.003 -2.0061 0.178211 0
M  V30 5376 C 513.068 -3.40809 0.636387 0
M  V30 5377 C 512.129 -3.91179 1.76854 0
M  V30 5378 C 511.362 -5.15404 1.38546 0
M  V30 5379 O 511.585 -5.69754 0.27142 0
M  V30 5380 O 510.519 -5.5994 2.20797 0
M  V30 5381 H 514.345 -2.29997 1.98331 0
M  V30 5382 H 511.93 -1.08742 1.02448 0
M  V30 5383 H 513.812 -4.19269 0.423223 0
M  V30 5384 H 512.487 -3.22493 -0.279322 0
M  V30 5385 H 511.394 -3.13819 2.03638 0
M  V30 5386 H 512.727 -4.13958 2.6627 0
M  V30 5387 N 514.379 -1.04941 -1.1758 0
M  V30 5388 C 515.656 -0.671918 -1.83697 0
M  V30 5389 C 516.036 0.847929 -1.93322 0
M  V30 5390 O 515.384 1.75287 -1.46583 0
M  V30 5391 C 515.594 -1.35797 -3.21497 0
M  V30 5392 C 516.942 -1.4944 -3.97433 0
M  V30 5393 O 517.966 -1.31678 -3.30967 0
M  V30 5394 O 516.825 -1.78463 -5.1654 0
M  V30 5395 H 513.919 -0.236212 -0.792548 0
M  V30 5396 H 516.465 -1.14884 -1.24899 0
M  V30 5397 H 515.237 -2.39498 -3.09446 0
M  V30 5398 H 514.86 -0.870236 -3.8796 0
M  V30 5399 N 515.857 1.33968 -0.830081 0
M  V30 5400 C 517.268 1.80439 -0.479455 0
M  V30 5401 C 517.619 1.68756 1.00079 0
M  V30 5402 O 516.744 1.23171 1.77927 0
M  V30 5403 C 517.339 3.27611 -0.863505 0
M  V30 5404 C 515.898 3.72133 -0.565145 0
M  V30 5405 C 515.045 2.55549 -1.07657 0
M  V30 5406 H 517.996 1.21614 -1.0196 0
M  V30 5407 H 518.017 3.8012 -0.170083 0
M  V30 5408 H 517.529 3.36082 -1.94089 0
M  V30 5409 H 515.63 3.69196 0.502536 0
M  V30 5410 H 515.743 4.65963 -1.11422 0
M  V30 5411 H 514.107 2.49788 -0.497807 0
M  V30 5412 H 514.89 2.66786 -2.16055 0
M  V30 5413 N 517.335 0.585699 1.46312 0
M  V30 5414 C 518.283 -0.158577 2.32059 0
M  V30 5415 C 519.277 -0.881427 1.44662 0
M  V30 5416 O 520.483 -0.799476 1.61271 0
M  V30 5417 H 516.858 -0.0700066 0.748734 0
M  V30 5418 H 518.829 0.583383 2.92642 0
M  V30 5419 C 517.578 -1.15701 3.27885 0
M  V30 5420 H 516.901 -0.610215 3.95116 0
M  V30 5421 H 518.341 -1.64812 3.90657 0
M  V30 5422 C 516.8 -2.21951 2.53455 0
M  V30 5423 O 517.33 -3.29352 2.29978 0
M  V30 5424 N 515.536 -1.9664 2.13965 0
M  V30 5425 H 515.083 -1.09309 2.33258 0
M  V30 5426 H 515.041 -2.6794 1.64485 0
M  V30 5427 N 518.813 -1.54241 0.323641 0
M  V30 5428 C 520.229 -1.59574 -0.0290018 0
M  V30 5429 C 520.429 -1.34017 -1.50472 0
M  V30 5430 O 519.485 -1.12464 -2.26071 0
M  V30 5431 C 520.798 -2.98169 0.389295 0
M  V30 5432 C 522.346 -3.11148 0.339958 0
M  V30 5433 C 522.821 -4.5209 0.733418 0
M  V30 5434 N 524.312 -4.5808 0.686827 0
M  V30 5435 C 525.047 -5.65248 0.963464 0
M  V30 5436 N 524.543 -6.80355 1.30724 0
M  V30 5437 N 526.336 -5.55025 0.88902 0
M  V30 5438 H 518.487 -1.6911 1.28512 0
M  V30 5439 H 520.75 -0.790972 0.522558 0
M  V30 5440 H 520.456 -3.21871 1.41746 0
M  V30 5441 H 520.33 -3.76399 -0.245657 0
M  V30 5442 H 522.717 -2.87182 -0.679002 0
M  V30 5443 H 522.798 -2.35023 1.00985 0
M  V30 5444 H 522.442 -4.76788 1.75029 0
M  V30 5445 H 522.372 -5.26584 0.0412189 0
M  V30 5446 H 524.863 -3.75411 0.43298 0
M  V30 5447 H 525.176 -7.58029 1.5037 0
M  V30 5448 H 523.521 -6.81851 1.3455 0
M  V30 5449 H 526.712 -4.63977 0.619939 0
M  V30 5450 H 526.885 -6.38458 1.10797 0
M  V30 5451 N 520.291 -0.0518155 -1.57515 0
M  V30 5452 C 521.221 0.920283 -2.146 0
M  V30 5453 C 522.202 1.32406 -1.06783 0
M  V30 5454 O 523.387 1.39866 -1.34726 0
M  V30 5455 C 520.517 2.1949 -2.6915 0
M  V30 5456 C 519.471 1.93116 -3.81956 0
M  V30 5457 C 518.797 3.27037 -4.23026 0
M  V30 5458 C 520.097 1.25225 -5.07066 0
M  V30 5459 H 521.791 0.444801 -2.96077 0
M  V30 5460 H 519.337 0.212508 -1.42423 0
M  V30 5461 H 521.29 2.87894 -3.07725 0
M  V30 5462 H 520.014 2.69244 -1.84865 0
M  V30 5463 H 518.673 1.27123 -3.43854 0
M  V30 5464 H 518.321 3.74595 -3.3569 0
M  V30 5465 H 518.021 3.10189 -4.99056 0
M  V30 5466 H 519.545 3.96673 -4.64202 0
M  V30 5467 H 520.959 1.83666 -5.43083 0
M  V30 5468 H 519.356 1.18702 -5.88243 0
M  V30 5469 H 520.426 0.228382 -4.84362 0
M  V30 5470 N 521.769 1.56035 0.221574 0
M  V30 5471 C 523.017 1.78693 0.944102 0
M  V30 5472 C 523.338 0.620317 1.8487 0
M  V30 5473 O 522.608 -0.362784 1.92512 0
M  V30 5474 H 521.188 0.659082 0.351597 0
M  V30 5475 H 523.85 1.93497 0.233435 0
M  V30 5476 H 522.946 2.70837 1.55093 0
M  V30 5477 N 523.247 -0.488276 1.49845 0
M  V30 5478 C 524.663 -0.820566 1.3689 0
M  V30 5479 C 524.863 -1.97248 0.411752 0
M  V30 5480 O 523.919 -2.52042 -0.151931 0
M  V30 5481 C 525.232 -1.1488 2.77891 0
M  V30 5482 C 526.78 -1.25626 2.86683 0
M  V30 5483 C 527.255 -1.61772 4.28479 0
M  V30 5484 N 528.746 -1.68797 4.31349 0
M  V30 5485 C 529.481 -1.98235 5.38043 0
M  V30 5486 N 528.977 -2.2581 6.54967 0
M  V30 5487 N 530.77 -1.99593 5.2547 0
M  V30 5488 H 522.921 0.271123 2.10662 0
M  V30 5489 H 525.184 0.058735 0.946179 0
M  V30 5490 H 524.89 -0.375614 3.49688 0
M  V30 5491 H 524.764 -2.08919 3.14058 0
M  V30 5492 H 527.151 -2.02014 2.15114 0
M  V30 5493 H 527.232 -0.296072 2.54081 0
M  V30 5494 H 526.876 -0.859295 5.00578 0
M  V30 5495 H 526.806 -2.58912 4.58554 0
M  V30 5496 H 529.297 -1.49595 3.4703 0
M  V30 5497 H 529.61 -2.47497 7.32096 0
M  V30 5498 H 527.955 -2.23239 6.58171 0
M  V30 5499 H 531.146 -1.77535 4.33127 0
M  V30 5500 H 531.319 -2.222 6.08713 0
M  V30 5501 N 524.725 -1.39134 -0.740242 0
M  V30 5502 C 525.971 -1.37278 -1.50088 0
M  V30 5503 C 526.326 0.0329967 -1.92372 0
M  V30 5504 O 525.619 0.998447 -1.63529 0
M  V30 5505 C 525.813 -2.27457 -2.75678 0
M  V30 5506 C 525.642 -3.76662 -2.45674 0
M  V30 5507 C 524.412 -4.45617 -2.38229 0
M  V30 5508 C 526.61 -4.6877 -2.11563 0
M  V30 5509 N 524.592 -5.80187 -2.00641 0
M  V30 5510 C 525.963 -5.91951 -1.84376 0
M  V30 5511 C 528.018 -4.56843 -1.97987 0
M  V30 5512 C 526.721 -7.04538 -1.4498 0
M  V30 5513 C 528.747 -5.69347 -1.59994 0
M  V30 5514 C 528.109 -6.91597 -1.33687 0
M  V30 5515 H 524.208 -0.557611 -0.548265 0
M  V30 5516 H 526.792 -1.74638 -0.860784 0
M  V30 5517 H 524.963 -1.92263 -3.37475 0
M  V30 5518 H 526.695 -2.16631 -3.41838 0
M  V30 5519 H 523.45 -3.98993 -2.5515 0
M  V30 5520 H 523.874 -6.51387 -1.84454 0
M  V30 5521 H 528.516 -3.62868 -2.16995 0
M  V30 5522 H 526.234 -7.98419 -1.24712 0
M  V30 5523 H 529.82 -5.62104 -1.50102 0
M  V30 5524 H 528.7 -7.77176 -1.04728 0
M  V30 5525 N 526.204 0.969867 -1.24223 0
M  V30 5526 C 527.134 2.08191 -1.05729 0
M  V30 5527 C 528.115 1.70075 0.0290765 0
M  V30 5528 O 529.3 1.93712 -0.137583 0
M  V30 5529 C 526.43 3.40991 -0.658995 0
M  V30 5530 C 525.384 3.93054 -1.69389 0
M  V30 5531 C 524.71 5.22171 -1.15072 0
M  V30 5532 C 526.01 4.21137 -3.08935 0
M  V30 5533 H 527.704 2.23921 -1.98746 0
M  V30 5534 H 525.25 1.07602 -0.956967 0
M  V30 5535 H 527.203 4.18221 -0.51662 0
M  V30 5536 H 525.927 3.25155 0.30686 0
M  V30 5537 H 524.586 3.17977 -1.82444 0
M  V30 5538 H 524.234 5.02694 -0.175539 0
M  V30 5539 H 523.934 5.57973 -1.84229 0
M  V30 5540 H 525.458 6.02013 -1.02042 0
M  V30 5541 H 526.872 4.8908 -2.99121 0
M  V30 5542 H 525.269 4.68163 -3.75425 0
M  V30 5543 H 526.339 3.27996 -3.57137 0
M  V30 5544 N 527.682 1.05563 1.17022 0
M  V30 5545 C 528.614 0.617888 2.20714 0
M  V30 5546 C 529.627 -0.320303 1.59618 0
M  V30 5547 O 530.816 -0.112449 1.78145 0
M  V30 5548 C 527.916 -0.115333 3.38704 0
M  V30 5549 C 527.089 0.834493 4.29366 0
M  V30 5550 C 526.148 0.141855 5.26009 0
M  V30 5551 O 525.174 0.777151 5.6387 0
M  V30 5552 N 526.376 -1.11934 5.69606 0
M  V30 5553 H 529.141 1.50981 2.58892 0
M  V30 5554 H 526.702 0.938008 1.31958 0
M  V30 5555 H 528.694 -0.588918 4.00392 0
M  V30 5556 H 527.264 -0.908967 2.99093 0
M  V30 5557 H 526.484 1.48762 3.65053 0
M  V30 5558 H 527.772 1.4791 4.86827 0
M  V30 5559 H 527.17 -1.65574 5.40927 0
M  V30 5560 H 525.727 -1.53692 6.33421 0
M  V30 5561 N 529.16 -1.33526 0.837174 0
M  V30 5562 C 530.437 -1.92369 0.354065 0
M  V30 5563 C 530.817 -1.76348 -1.16038 0
M  V30 5564 O 530.165 -1.15083 -1.97403 0
M  V30 5565 C 530.375 -3.39728 0.799101 0
M  V30 5566 C 531.723 -4.16877 0.806139 0
M  V30 5567 O 532.747 -3.48373 0.742597 0
M  V30 5568 O 531.606 -5.39166 0.892345 0
M  V30 5569 H 528.7 -0.820952 0.0998378 0
M  V30 5570 H 531.246 -1.42409 0.922913 0
M  V30 5571 H 530.018 -3.45254 1.84162 0
M  V30 5572 H 529.641 -3.97062 0.206731 0
M  V30 5573 N 530.638 -0.59345 -1.46 0
M  V30 5574 C 531.548 0.135817 -2.34207 0
M  V30 5575 C 532.564 0.875008 -1.50398 0
M  V30 5576 O 533.74 0.835778 -1.83239 0
M  V30 5577 C 530.805 1.12977 -3.27776 0
M  V30 5578 C 529.866 0.394081 -4.27487 0
M  V30 5579 C 529.099 1.34068 -5.16586 0
M  V30 5580 O 529.322 2.5778 -5.08828 0
M  V30 5581 O 528.256 0.845426 -5.95933 0
M  V30 5582 H 532.082 -0.588691 -2.9794 0
M  V30 5583 H 529.667 -0.353784 -1.45151 0
M  V30 5584 H 531.549 1.70261 -3.85473 0
M  V30 5585 H 530.224 1.83556 -2.66625 0
M  V30 5586 H 529.131 -0.220869 -3.73447 0
M  V30 5587 H 530.464 -0.270939 -4.91454 0
M  V30 5588 N 532.116 1.54067 -0.331816 0
M  V30 5589 C 533.049 2.20886 0.573127 0
M  V30 5590 C 534.027 1.18876 1.10938 0
M  V30 5591 O 535.211 1.47649 1.17184 0
M  V30 5592 C 532.338 2.87706 1.78726 0
M  V30 5593 C 531.384 4.03505 1.38152 0
M  V30 5594 S 532.217 5.33919 0.41123 0
M  V30 5595 C 533.373 6.04236 1.63246 0
M  V30 5596 H 533.606 2.97299 0.00555737 0
M  V30 5597 H 531.139 1.53964 -0.115893 0
M  V30 5598 H 533.097 3.26825 2.48386 0
M  V30 5599 H 531.758 2.1108 2.32603 0
M  V30 5600 H 530.951 4.49152 2.28645 0
M  V30 5601 H 530.553 3.66102 0.764524 0
M  V30 5602 H 532.845 6.26917 2.56869 0
M  V30 5603 H 533.788 6.97546 1.218 0
M  V30 5604 H 534.196 5.34247 1.82318 0
M  V30 5605 N 533.594 0.0601682 1.57485 0
M  V30 5606 C 534.557 -0.896373 2.10945 0
M  V30 5607 C 535.557 -1.23402 1.03095 0
M  V30 5608 O 536.747 -1.16921 1.29132 0
M  V30 5609 C 533.879 -2.20346 2.60116 0
M  V30 5610 H 535.072 -0.432778 2.96761 0
M  V30 5611 H 532.625 -0.188372 1.55161 0
M  V30 5612 H 533.36 -2.71268 1.7772 0
M  V30 5613 H 533.145 -1.9714 3.38937 0
M  V30 5614 H 534.635 -2.88846 3.01592 0
M  V30 5615 N 535.072 -1.5615 -0.213296 0
M  V30 5616 C 536.319 -1.79546 -0.936462 0
M  V30 5617 C 536.647 -0.630337 -1.84003 0
M  V30 5618 O 535.902 0.384883 -1.91878 0
M  V30 5619 C 536.201 -3.08772 -1.79985 0
M  V30 5620 C 535.867 -4.38532 -1.04882 0
M  V30 5621 C 534.529 -4.73787 -0.841393 0
M  V30 5622 C 536.881 -5.18609 -0.51907 0
M  V30 5623 C 534.209 -5.86627 -0.0924403 0
M  V30 5624 C 536.561 -6.32229 0.216581 0
M  V30 5625 C 535.225 -6.6608 0.435191 0
M  V30 5626 H 534.495 -0.657004 -0.342676 0
M  V30 5627 H 537.142 -1.9041 -0.204051 0
M  V30 5628 H 535.447 -2.93065 -2.60038 0
M  V30 5629 H 537.144 -3.24077 -2.36168 0
M  V30 5630 H 533.734 -4.10855 -1.22048 0
M  V30 5631 H 537.918 -4.91801 -0.666775 0
M  V30 5632 H 533.174 -6.11338 0.087081 0
M  V30 5633 H 537.348 -6.93503 0.634538 0
M  V30 5634 H 534.975 -7.5336 1.01746 0
M  V30 5635 N 536.55 0.480323 -1.50102 0
M  V30 5636 C 537.79 1.24301 -1.62261 0
M  V30 5637 C 538.154 1.89452 -0.311758 0
M  V30 5638 O 539.355 2.67022 -0.308696 0
M  V30 5639 C 537.626 2.26588 -2.76392 0
M  V30 5640 S 539.185 3.11919 -3.08629 0
M  V30 5641 H 536.003 0.42215 -0.57211 0
M  V30 5642 H 538.605 0.541591 -1.87848 0
M  V30 5643 H 537.309 1.7729 -3.70131 0
M  V30 5644 H 536.84 3.01371 -2.52862 0
M  V30 5645 H 538.855 4.27598 -2.51742 0
M  V30 5646 N 538.028 1.39524 0.732853 0
M  V30 5647 C 539.258 1.3994 1.51988 0
M  V30 5648 C 539.666 -0.00727973 1.89199 0
M  V30 5649 O 539.009 -0.989521 1.54771 0
M  V30 5650 C 539.071 2.21026 2.83527 0
M  V30 5651 C 538.735 3.69633 2.68738 0
M  V30 5652 C 539.732 4.62665 2.37143 0
M  V30 5653 C 537.417 4.13244 2.85542 0
M  V30 5654 C 539.411 5.97291 2.22536 0
M  V30 5655 C 537.098 5.47945 2.70554 0
M  V30 5656 C 538.096 6.39783 2.39097 0
M  V30 5657 O 537.784 7.72002 2.24204 0
M  V30 5658 H 537.516 0.479795 0.476206 0
M  V30 5659 H 540.07 1.8399 0.913054 0
M  V30 5660 H 538.3 1.71728 3.46477 0
M  V30 5661 H 539.989 2.13594 3.45156 0
M  V30 5662 H 540.755 4.30272 2.2381 0
M  V30 5663 H 536.634 3.42094 3.09019 0
M  V30 5664 H 540.178 6.68939 1.97905 0
M  V30 5665 H 536.075 5.79928 2.83466 0
M  V30 5666 H 536.843 7.8275 2.39258 0
M  V30 5667 N 539.506 -0.963266 1.24736 0
M  V30 5668 C 540.734 -1.74166 1.11686 0
M  V30 5669 C 541.149 -1.8589 -0.330187 0
M  V30 5670 O 540.506 -1.35042 -1.2276 0
M  V30 5671 C 540.557 -3.15989 1.75595 0
M  V30 5672 O 540.278 -3.04847 3.14642 0
M  V30 5673 C 541.779 -4.10145 1.68213 0
M  V30 5674 H 538.999 -0.546031 0.389989 0
M  V30 5675 H 541.543 -1.20907 1.64929 0
M  V30 5676 H 539.698 -3.66219 1.26343 0
M  V30 5677 H 540.112 -3.9425 3.4593 0
M  V30 5678 H 541.586 -5.07299 2.17604 0
M  V30 5679 H 542.063 -4.3445 0.644208 0
M  V30 5680 H 542.669 -3.65827 2.16912 0
M  V30 5681 N 540.985 -1.06182 -1.16461 0
M  V30 5682 C 541.917 -0.629584 -2.20383 0
M  V30 5683 C 542.93 0.311834 -1.59786 0
M  V30 5684 O 544.119 0.103 -1.78203 0
M  V30 5685 C 541.219 0.0973695 -3.3876 0
M  V30 5686 C 540.392 -0.857252 -4.28917 0
M  V30 5687 C 539.451 -0.169749 -5.25926 0
M  V30 5688 O 538.477 -0.807044 -5.6345 0
M  V30 5689 N 539.679 1.08911 -5.70192 0
M  V30 5690 H 542.444 -1.52352 -2.58087 0
M  V30 5691 H 540.005 -0.944993 -1.31459 0
M  V30 5692 H 541.997 0.567676 -4.00699 0
M  V30 5693 H 540.567 0.893093 -2.99571 0
M  V30 5694 H 539.787 -1.50696 -3.64259 0
M  V30 5695 H 541.075 -1.50489 -4.86035 0
M  V30 5696 H 540.473 1.62703 -5.41797 0
M  V30 5697 H 539.03 1.50331 -6.34227 0
M  V30 5698 N 542.463 1.3308 -0.844243 0
M  V30 5699 C 543.426 2.27403 -0.286485 0
M  V30 5700 C 544.426 1.51179 0.547872 0
M  V30 5701 O 545.616 1.70421 0.360886 0
M  V30 5702 C 542.748 3.35653 0.595813 0
M  V30 5703 H 543.941 2.78248 -1.11885 0
M  V30 5704 H 541.494 1.43574 -0.617749 0
M  V30 5705 H 542.229 2.90058 1.4504 0
M  V30 5706 H 542.014 3.921 -0.00125994 0
M  V30 5707 H 543.504 4.05958 0.979168 0
M  V30 5708 N 543.941 0.601185 1.45683 0
M  V30 5709 C 545.352 0.179659 1.85834 0
M  V30 5710 C 545.703 -1.26189 1.50236 0
M  V30 5711 O 544.828 -1.95587 0.925987 0
M  V30 5712 C 545.423 0.319277 3.37292 0
M  V30 5713 C 543.982 -0.0475092 3.7637 0
M  V30 5714 C 543.129 0.646692 2.69654 0
M  V30 5715 H 546.08 0.808268 1.36575 0
M  V30 5716 H 546.101 -0.4503 3.77826 0
M  V30 5717 H 545.613 1.36855 3.6317 0
M  V30 5718 H 543.714 -1.0962 3.5611 0
M  V30 5719 H 543.827 0.34168 4.7788 0
M  V30 5720 H 542.191 0.0849971 2.54558 0
M  V30 5721 H 542.974 1.69797 2.98369 0
M  V30 5722 N 545.419 -1.53889 0.339982 0
M  V30 5723 C 546.369 -2.2165 -0.534354 0
M  V30 5724 C 547.353 -1.20266 -1.06887 0
M  V30 5725 O 548.545 -1.45827 -1.00316 0
M  V30 5726 C 545.674 -2.99014 -1.68659 0
M  V30 5727 C 544.76 -4.07751 -1.16618 0
M  V30 5728 N 545.151 -5.04469 -0.366717 0
M  V30 5729 C 543.449 -4.21998 -1.4434 0
M  V30 5730 C 544.15 -5.81638 -0.0847275 0
M  V30 5731 N 543.126 -5.39388 -0.675391 0
M  V30 5732 H 546.928 -2.93781 0.0835562 0
M  V30 5733 H 544.442 -1.61736 0.146665 0
M  V30 5734 H 546.439 -3.46056 -2.32489 0
M  V30 5735 H 545.099 -2.28408 -2.30781 0
M  V30 5736 H 546.11 -5.17899 -0.00811038 0
M  V30 5737 H 542.787 -3.62612 -2.06928 0
M  V30 5738 H 544.177 -6.69563 0.559943 0
M  V30 5739 N 546.897 -0.0685191 -1.57451 0
M  V30 5740 C 547.844 0.899861 -2.12535 0
M  V30 5741 C 548.814 1.29749 -1.03703 0
M  V30 5742 O 549.999 1.38392 -1.31348 0
M  V30 5743 C 547.139 2.16328 -2.6888 0
M  V30 5744 C 546.252 1.81857 -3.91857 0
M  V30 5745 C 545.387 3.02786 -4.36457 0
M  V30 5746 C 544.426 2.64317 -5.5209 0
M  V30 5747 N 543.563 3.77994 -5.91663 0
M  V30 5748 H 548.403 0.423243 -2.94979 0
M  V30 5749 H 545.94 0.197268 -1.45771 0
M  V30 5750 H 547.898 2.90281 -2.99655 0
M  V30 5751 H 546.528 2.61536 -1.89206 0
M  V30 5752 H 545.58 0.979808 -3.67565 0
M  V30 5753 H 546.892 1.49553 -4.75852 0
M  V30 5754 H 546.046 3.85021 -4.68875 0
M  V30 5755 H 544.785 3.38281 -3.51308 0
M  V30 5756 H 543.79 1.80503 -5.19325 0
M  V30 5757 H 545.015 2.29995 -6.38967 0
M  V30 5758 H 542.961 4.13258 -5.09464 0
M  V30 5759 H 542.878 3.49447 -6.7039 0
M  V30 5760 H 544.146 4.60818 -6.28703 0
M  V30 5761 N 548.375 1.56261 0.205012 0
M  V30 5762 C 549.603 1.84141 0.943386 0
M  V30 5763 C 550.018 0.649772 1.77266 0
M  V30 5764 O 549.375 -0.381612 1.78466 0
M  V30 5765 C 549.426 3.10719 1.84759 0
M  V30 5766 O 549.147 4.25286 1.05181 0
M  V30 5767 C 550.648 3.51706 2.69848 0
M  V30 5768 H 547.868 0.611734 0.275721 0
M  V30 5769 H 550.412 2.03364 0.215253 0
M  V30 5770 H 548.567 2.93422 2.52947 0
M  V30 5771 H 548.981 4.97301 1.66709 0
M  V30 5772 H 550.455 4.43266 3.28967 0
M  V30 5773 H 550.932 2.7423 3.43067 0
M  V30 5774 H 551.538 3.71499 2.07047 0
M  V30 5775 N 549.853 -0.472356 1.50355 0
M  V30 5776 C 551.081 -1.24784 1.65035 0
M  V30 5777 C 551.496 -1.85837 0.333176 0
M  V30 5778 O 550.853 -1.69168 -0.68472 0
M  V30 5779 C 550.904 -2.35747 2.74054 0
M  V30 5780 O 550.625 -1.77197 4.00665 0
M  V30 5781 C 552.126 -3.26645 2.99696 0
M  V30 5782 H 549.346 -0.377432 0.554785 0
M  V30 5783 H 551.89 -0.563962 1.9657 0
M  V30 5784 H 550.045 -2.99912 2.45217 0
M  V30 5785 H 550.459 -2.5026 4.60945 0
M  V30 5786 H 551.933 -4.00718 3.79644 0
M  V30 5787 H 552.41 -3.8535 2.10718 0
M  V30 5788 H 553.016 -2.68218 3.3006 0
M  V30 5789 N 551.331 -1.39911 -0.725443 0
M  V30 5790 C 552.556 -1.41137 -1.5197 0
M  V30 5791 C 552.981 -0.010262 -1.88097 0
M  V30 5792 O 552.339 0.979184 -1.52583 0
M  V30 5793 C 552.387 -2.2994 -2.77777 0
M  V30 5794 O 551.491 -1.73586 -3.74088 0
M  V30 5795 H 550.832 -0.480219 -0.458569 0
M  V30 5796 H 553.362 -1.84023 -0.894249 0
M  V30 5797 H 553.372 -2.44785 -3.26411 0
M  V30 5798 H 552.047 -3.31759 -2.50816 0
M  V30 5799 H 550.624 -1.68035 -3.32894 0
M  V30 5800 N 552.809 0.956637 -1.25245 0
M  V30 5801 C 553.739 2.07058 -1.07931 0
M  V30 5802 C 554.72 1.70096 0.0110361 0
M  V30 5803 O 555.905 1.93555 -0.158121 0
M  V30 5804 C 553.035 3.40272 -0.695124 0
M  V30 5805 C 551.989 3.91235 -1.73549 0
M  V30 5806 C 551.315 5.20921 -1.20604 0
M  V30 5807 C 552.615 4.17837 -3.13385 0
M  V30 5808 H 554.309 2.218 -2.01109 0
M  V30 5809 H 551.855 1.06581 -0.968326 0
M  V30 5810 H 553.808 4.1765 -0.560949 0
M  V30 5811 H 552.532 3.25462 0.272355 0
M  V30 5812 H 551.191 3.16025 -1.85807 0
M  V30 5813 H 550.839 5.02479 -0.228846 0
M  V30 5814 H 550.539 5.55987 -1.90136 0
M  V30 5815 H 552.063 6.00897 -1.08421 0
M  V30 5816 H 553.477 4.8588 -3.04292 0
M  V30 5817 H 551.874 4.64154 -3.80369 0
M  V30 5818 H 552.944 3.2419 -3.60595 0
M  V30 5819 N 554.287 1.06798 1.15896 0
M  V30 5820 C 555.536 0.782796 1.8589 0
M  V30 5821 C 555.849 -0.693498 1.82893 0
M  V30 5822 O 557.055 -1.09325 2.48516 0
M  V30 5823 C 555.511 1.3502 3.33613 0
M  V30 5824 C 555.119 2.8571 3.45071 0
M  V30 5825 C 556.863 1.14278 4.08829 0
M  V30 5826 C 554.77 3.35669 4.86909 0
M  V30 5827 H 553.7 0.289149 0.696354 0
M  V30 5828 H 556.351 1.28734 1.30766 0
M  V30 5829 H 554.733 0.773407 3.88374 0
M  V30 5830 H 555.907 3.49385 3.00445 0
M  V30 5831 H 554.222 3.05178 2.83294 0
M  V30 5832 H 556.819 1.49087 5.13495 0
M  V30 5833 H 557.162 0.0814575 4.1622 0
M  V30 5834 H 557.695 1.68563 3.60321 0
M  V30 5835 H 554.434 4.41302 4.84698 0
M  V30 5836 H 553.954 2.76745 5.32139 0
M  V30 5837 H 555.633 3.31296 5.55745 0
M  V30 5838 N 555.766 -1.3263 0.851289 0
M  V30 5839 C 556.696 -2.31449 0.308771 0
M  V30 5840 C 557.677 -1.59531 -0.590255 0
M  V30 5841 O 558.862 -1.87351 -0.511205 0
M  V30 5842 C 555.992 -3.43586 -0.506548 0
M  V30 5843 C 554.946 -4.26963 0.297753 0
M  V30 5844 C 554.272 -5.30831 -0.642094 0
M  V30 5845 C 555.572 -4.99643 1.52166 0
M  V30 5846 H 557.266 -2.77074 1.13447 0
M  V30 5847 H 554.812 -1.33207 0.546971 0
M  V30 5848 H 556.765 -4.11754 -0.896474 0
M  V30 5849 H 555.489 -2.96681 -1.36558 0
M  V30 5850 H 554.148 -3.60437 0.669391 0
M  V30 5851 H 553.796 -4.8018 -1.49788 0
M  V30 5852 H 553.496 -5.87501 -0.107968 0
M  V30 5853 H 555.02 -6.01862 -1.02927 0
M  V30 5854 H 556.434 -5.6051 1.20421 0
M  V30 5855 H 554.831 -5.66022 1.99347 0
M  V30 5856 H 555.901 -4.27701 2.28474 0
M  V30 5857 N 557.244 -0.608902 -1.45362 0
M  V30 5858 C 558.521 -0.0365378 -1.95566 0
M  V30 5859 C 558.901 1.43169 -1.55131 0
M  V30 5860 O 558.249 2.1349 -0.814513 0
M  V30 5861 C 558.459 -0.236026 -3.48201 0
M  V30 5862 C 559.807 -0.117518 -4.24437 0
M  V30 5863 O 560.831 -0.166217 -3.55812 0
M  V30 5864 O 559.69 -0.00372127 -5.465 0
M  V30 5865 H 556.784 0.0349874 -0.82626 0
M  V30 5866 H 559.33 -0.679055 -1.55521 0
M  V30 5867 H 558.102 -1.25569 -3.70605 0
M  V30 5868 H 557.725 0.441691 -3.95139 0
M  V30 5869 N 558.722 1.53707 -0.348139 0
M  V30 5870 C 559.95 2.05406 0.248224 0
M  V30 5871 C 560.365 1.22282 1.43849 0
M  V30 5872 O 559.722 0.259244 1.80649 0
M  V30 5873 C 559.773 3.55446 0.658793 0
M  V30 5874 O 559.494 4.35417 -0.484149 0
M  V30 5875 C 560.995 4.23335 1.31539 0
M  V30 5876 H 558.215 0.669344 0.0471075 0
M  V30 5877 H 560.759 1.98257 -0.501456 0
M  V30 5878 H 558.914 3.62803 1.35841 0
M  V30 5879 H 559.328 5.24268 -0.155949 0
M  V30 5880 H 560.802 5.29692 1.55338 0
M  V30 5881 H 561.279 3.75967 2.27036 0
M  V30 5882 H 561.885 4.20184 0.657683 0
M  V30 5883 N 560.2 0.0768682 1.57412 0
M  V30 5884 C 561.611 -0.455037 1.8107 0
M  V30 5885 C 561.962 -1.69323 0.991162 0
M  V30 5886 O 561.087 -2.15328 0.215156 0
M  V30 5887 C 561.682 -0.832316 3.28417 0
M  V30 5888 C 560.241 -1.30906 3.52903 0
M  V30 5889 C 559.388 -0.296714 2.75708 0
M  V30 5890 H 562.339 0.302514 1.5579 0
M  V30 5891 H 562.36 -1.69333 3.40744 0
M  V30 5892 H 561.872 0.0690532 3.88039 0
M  V30 5893 H 559.973 -2.22875 2.98592 0
M  V30 5894 H 560.086 -1.28348 4.61588 0
M  V30 5895 H 558.45 -0.775059 2.42621 0
M  V30 5896 H 559.233 0.597015 3.38069 0
M  V30 5897 N 561.678 -1.56367 -0.196722 0
M  V30 5898 C 562.61 -1.90941 -1.26784 0
M  V30 5899 C 563.623 -0.799928 -1.41792 0
M  V30 5900 O 564.812 -1.07833 -1.42247 0
M  V30 5901 C 561.912 -2.12477 -2.6402 0
M  V30 5902 C 561.085 -3.43616 -2.70641 0
M  V30 5903 C 560.144 -3.54284 -3.89062 0
M  V30 5904 O 559.17 -4.2712 -3.76241 0
M  V30 5905 N 560.372 -2.87252 -5.04447 0
M  V30 5906 H 563.137 -2.83417 -0.974417 0
M  V30 5907 H 560.698 -1.57215 -0.386649 0
M  V30 5908 H 562.69 -2.16904 -3.41665 0
M  V30 5909 H 561.26 -1.26508 -2.85857 0
M  V30 5910 H 560.48 -3.51072 -1.79283 0
M  V30 5911 H 561.768 -4.29958 -2.72054 0
M  V30 5912 H 561.166 -2.27901 -5.17762 0
M  V30 5913 H 559.723 -2.97308 -5.80044 0
M  V30 5914 N 563.156 0.464375 -1.50603 0
M  V30 5915 C 564.119 1.54393 -1.69397 0
M  V30 5916 C 565.119 1.50566 -0.564504 0
M  V30 5917 O 566.309 1.53066 -0.831645 0
M  V30 5918 C 563.441 2.9401 -1.72543 0
M  V30 5919 H 564.634 1.39044 -2.65719 0
M  V30 5920 H 562.187 0.69122 -1.40185 0
M  V30 5921 H 562.922 3.14795 -0.77938 0
M  V30 5922 H 562.707 2.98195 -2.54602 0
M  V30 5923 H 564.197 3.72375 -1.89015 0
M  V30 5924 N 564.634 1.40294 0.718013 0
M  V30 5925 C 565.597 1.4012 1.81381 0
M  V30 5926 C 566.597 0.295405 1.58063 0
M  V30 5927 O 567.787 0.554187 1.6515 0
M  V30 5928 C 564.919 1.19056 3.19435 0
M  V30 5929 H 566.112 2.37645 1.82933 0
M  V30 5930 H 563.665 1.26107 0.923405 0
M  V30 5931 H 564.4 0.222809 3.23534 0
M  V30 5932 H 564.185 1.99152 3.37758 0
M  V30 5933 H 565.675 1.21716 3.99468 0
M  V30 5934 N 566.112 -0.949982 1.2575 0
M  V30 5935 C 567.389 -1.6718 1.01539 0
M  V30 5936 C 567.769 -2.06095 -0.456942 0
M  V30 5937 O 567.117 -1.77792 -1.43534 0
M  V30 5938 C 567.327 -2.8906 1.95564 0
M  V30 5939 C 568.675 -3.60909 2.23673 0
M  V30 5940 O 569.699 -2.9915 1.9336 0
M  V30 5941 O 568.558 -4.72127 2.75243 0
M  V30 5942 H 565.652 -0.731697 0.385419 0
M  V30 5943 H 568.198 -1.00249 1.36924 0
M  V30 5944 H 566.97 -2.57128 2.94959 0
M  V30 5945 H 566.593 -3.63719 1.60605 0
M  V30 5946 N 567.59 -1.07411 -1.15328 0
M  V30 5947 C 568.52 -0.716472 -2.22236 0
M  V30 5948 C 569.501 0.296373 -1.67498 0
M  V30 5949 O 570.686 0.168989 -1.93463 0
M  V30 5950 C 567.816 -0.114142 -3.47112 0
M  V30 5951 C 566.77 -1.05421 -4.14814 0
M  V30 5952 C 566.096 -0.314604 -5.33774 0
M  V30 5953 C 567.396 -2.38808 -4.64508 0
M  V30 5954 H 569.09 -1.61029 -2.52408 0
M  V30 5955 H 566.636 -0.775702 -1.21321 0
M  V30 5956 H 568.589 0.148001 -4.2114 0
M  V30 5957 H 567.313 0.814755 -3.16274 0
M  V30 5958 H 565.972 -1.30128 -3.42728 0
M  V30 5959 H 565.62 0.617772 -4.99192 0
M  V30 5960 H 565.32 -0.941209 -5.80013 0
M  V30 5961 H 566.844 -0.0602747 -6.1057 0
M  V30 5962 H 568.258 -2.18424 -5.3006 0
M  V30 5963 H 566.655 -2.97069 -5.21412 0
M  V30 5964 H 567.725 -3.01067 -3.80114 0
M  V30 5965 N 569.068 1.32177 -0.85831 0
M  V30 5966 C 570.345 1.91781 -0.384624 0
M  V30 5967 C 570.725 1.78171 1.13217 0
M  V30 5968 O 570.073 1.18209 1.95548 0
M  V30 5969 C 570.283 3.38414 -0.853047 0
M  V30 5970 C 571.631 4.15542 -0.872359 0
M  V30 5971 O 572.655 3.47148 -0.797926 0
M  V30 5972 O 571.514 5.37678 -0.978009 0
M  V30 5973 H 568.608 0.819259 -0.112886 0
M  V30 5974 H 571.154 1.40923 -0.945453 0
M  V30 5975 H 569.926 3.4228 -1.89632 0
M  V30 5976 H 569.549 3.96683 -0.269874 0
M  V30 5977 N 570.547 0.616602 1.45037 0
M  V30 5978 C 571.457 -0.0985401 2.34393 0
M  V30 5979 C 572.473 -0.850971 1.51771 0
M  V30 5980 O 573.649 -0.806521 1.84546 0
M  V30 5981 C 570.714 -1.07748 3.29532 0
M  V30 5982 C 569.775 -0.326022 4.2806 0
M  V30 5983 C 569.008 -1.25833 5.18654 0
M  V30 5984 O 569.231 -2.49652 5.12864 0
M  V30 5985 O 568.165 -0.750512 5.97203 0
M  V30 5986 H 571.991 0.636016 2.96966 0
M  V30 5987 H 569.576 0.376832 1.44569 0
M  V30 5988 H 571.458 -1.64107 3.88133 0
M  V30 5989 H 570.133 -1.79291 2.69512 0
M  V30 5990 H 569.04 0.280253 3.73049 0
M  V30 5991 H 570.373 0.349091 4.9096 0
M  V30 5992 N 572.025 -1.5352 0.356285 0
M  V30 5993 C 573.272 -2.01117 -0.236303 0
M  V30 5994 C 573.6 -1.24381 -1.49531 0
M  V30 5995 O 572.855 -0.323057 -1.93015 0
M  V30 5996 C 573.154 -3.52607 -0.583369 0
M  V30 5997 C 572.82 -4.47151 0.58023 0
M  V30 5998 C 571.482 -4.72718 0.899528 0
M  V30 5999 C 573.834 -5.03137 1.36024 0
M  V30 6000 C 571.162 -5.51523 2.00098 0
M  V30 6001 C 573.514 -5.83145 2.45204 0
M  V30 6002 C 572.178 -6.07001 2.77679 0
M  V30 6003 H 571.448 -0.735938 -0.0864695 0
M  V30 6004 H 574.095 -1.85209 0.48683 0
M  V30 6005 H 572.4 -3.66413 -1.38739 0
M  V30 6006 H 574.097 -3.86901 -1.05397 0
M  V30 6007 H 570.687 -4.27394 0.321322 0
M  V30 6008 H 574.871 -4.83339 1.12682 0
M  V30 6009 H 570.127 -5.68229 2.25668 0
M  V30 6010 H 574.301 -6.25537 3.06067 0
M  V30 6011 H 571.928 -6.67851 3.63151 0
M  V30 6012 N 573.503 -0.0852151 -1.57369 0
M  V30 6013 C 574.914 0.445428 -1.81309 0
M  V30 6014 C 575.265 1.68795 -1.00013 0
M  V30 6015 O 574.39 2.15211 -0.226573 0
M  V30 6016 C 574.985 0.814887 -3.28854 0
M  V30 6017 C 573.544 1.29032 -3.53592 0
M  V30 6018 C 572.691 0.282089 -2.75861 0
M  V30 6019 H 575.642 -0.310771 -1.55627 0
M  V30 6020 H 575.663 1.67524 -3.41637 0
M  V30 6021 H 575.175 -0.0896309 -3.87996 0
M  V30 6022 H 573.276 2.21289 -2.9977 0
M  V30 6023 H 573.389 1.25898 -4.62262 0
M  V30 6024 H 571.753 0.762182 -2.43029 0
M  V30 6025 H 572.536 -0.614936 -3.37748 0
M  V30 6026 N 574.981 1.5647 0.188427 0
M  V30 6027 C 575.914 1.90146 1.26173 0
M  V30 6028 C 576.892 0.762294 1.43624 0
M  V30 6029 O 578.076 1.01395 1.58907 0
M  V30 6030 C 575.203 2.13748 2.62735 0
M  V30 6031 C 574.249 3.36448 2.62116 0
M  V30 6032 S 575.082 4.91364 2.12889 0
M  V30 6033 C 576.238 5.18041 3.51261 0
M  V30 6034 H 576.471 2.80886 0.974192 0
M  V30 6035 H 574.004 1.49335 0.392226 0
M  V30 6036 H 575.962 2.28028 3.41341 0
M  V30 6037 H 574.623 1.23747 2.88696 0
M  V30 6038 H 573.816 3.50109 3.62546 0
M  V30 6039 H 573.418 3.21196 1.91596 0
M  V30 6040 H 575.71 5.0897 4.47164 0
M  V30 6041 H 576.653 6.19764 3.42489 0
M  V30 6042 H 577.061 4.45657 3.46482 0
M  V30 6043 N 576.459 -0.456382 1.50847 0
M  V30 6044 C 577.406 -1.55249 1.70782 0
M  V30 6045 C 578.376 -1.56757 0.549231 0
M  V30 6046 O 579.561 -1.74061 0.7815 0
M  V30 6047 C 576.701 -2.93118 1.82143 0
M  V30 6048 C 575.814 -3.01285 3.09598 0
M  V30 6049 C 574.949 -4.30159 3.11667 0
M  V30 6050 C 573.988 -4.32124 4.33515 0
M  V30 6051 N 573.125 -5.52492 4.3324 0
M  V30 6052 H 577.965 -1.37555 2.64353 0
M  V30 6053 H 575.502 -0.668543 1.3103 0
M  V30 6054 H 577.46 -3.73088 1.86711 0
M  V30 6055 H 576.09 -3.09413 0.919978 0
M  V30 6056 H 575.142 -2.14096 3.14431 0
M  V30 6057 H 576.454 -2.98597 3.99551 0
M  V30 6058 H 575.608 -5.18489 3.15046 0
M  V30 6059 H 574.347 -4.35477 2.1957 0
M  V30 6060 H 573.352 -3.42189 4.30333 0
M  V30 6061 H 574.577 -4.28485 5.26856 0
M  V30 6062 H 572.523 -5.58567 3.44004 0
M  V30 6063 H 572.44 -5.51605 5.16979 0
M  V30 6064 H 573.708 -6.42906 4.40786 0
M  V30 6065 N 577.937 -1.40673 -0.710563 0
M  V30 6066 C 579.167 -1.4234 -1.49742 0
M  V30 6067 C 579.575 -0.022821 -1.89186 0
M  V30 6068 O 578.918 0.964773 -1.56326 0
M  V30 6069 C 578.98 -2.25509 -2.79975 0
M  V30 6070 C 578.644 -3.73862 -2.62824 0
M  V30 6071 C 579.641 -4.66379 -2.29752 0
M  V30 6072 C 577.326 -4.17735 -2.78932 0
M  V30 6073 C 579.32 -6.00756 -2.13006 0
M  V30 6074 C 577.007 -5.5218 -2.61802 0
M  V30 6075 C 578.005 -6.43505 -2.28888 0
M  V30 6076 O 577.693 -7.75472 -2.11894 0
M  V30 6077 H 577.425 -0.487311 -0.468513 0
M  V30 6078 H 579.979 -1.8542 -0.883668 0
M  V30 6079 H 578.209 -1.77218 -3.43701 0
M  V30 6080 H 579.898 -2.19058 -3.41714 0
M  V30 6081 H 580.664 -4.33778 -2.16936 0
M  V30 6082 H 576.543 -3.46967 -3.03537 0
M  V30 6083 H 580.087 -6.72003 -1.87237 0
M  V30 6084 H 575.984 -5.84365 -2.74204 0
M  V30 6085 H 576.752 -7.86458 -2.26775 0
M  V30 6086 N 579.415 0.9433 -1.26252 0
M  V30 6087 C 580.64 1.72898 -1.14547 0
M  V30 6088 C 581.065 1.85761 0.295743 0
M  V30 6089 O 580.423 1.3463 1.21427 0
M  V30 6090 C 580.471 3.11471 -1.8171 0
M  V30 6091 O 579.575 3.97336 -1.10445 0
M  V30 6092 H 578.916 0.530555 -0.399259 0
M  V30 6093 H 581.446 1.18159 -1.67032 0
M  V30 6094 H 581.456 3.61872 -1.88449 0
M  V30 6095 H 580.131 3.01425 -2.86558 0
M  V30 6096 H 578.708 3.55788 -1.11666 0
M  V30 6097 N 580.893 1.08022 1.14757 0
M  V30 6098 C 581.823 0.728248 2.21853 0
M  V30 6099 C 582.804 -0.287486 1.67653 0
M  V30 6100 O 583.989 -0.158727 1.9355 0
M  V30 6101 C 581.119 0.132549 3.47047 0
M  V30 6102 C 580.073 1.07619 4.14249 0
M  V30 6103 C 579.399 0.342907 5.33599 0
M  V30 6104 C 580.699 2.41268 4.63235 0
M  V30 6105 H 582.393 1.62365 2.51551 0
M  V30 6106 H 579.939 0.782125 1.20908 0
M  V30 6107 H 581.892 -0.125665 4.21213 0
M  V30 6108 H 580.616 -0.797971 3.16702 0
M  V30 6109 H 579.275 1.31944 3.42033 0
M  V30 6110 H 578.923 -0.59129 4.99513 0
M  V30 6111 H 578.623 0.971955 5.79506 0
M  V30 6112 H 580.147 0.0926538 6.1053 0
M  V30 6113 H 581.561 2.21232 5.28894 0
M  V30 6114 H 579.958 2.9983 5.19829 0
M  V30 6115 H 581.028 3.03079 3.78512 0
M  V30 6116 N 582.371 -1.3172 0.865308 0
M  V30 6117 C 583.596 -2.01591 0.487415 0
M  V30 6118 C 584.021 -1.6455 -0.911307 0
M  V30 6119 O 583.379 -0.851689 -1.6005 0
M  V30 6120 C 583.427 -3.54759 0.646401 0
M  V30 6121 O 582.531 -4.11185 -0.316284 0
M  V30 6122 H 581.872 -0.634884 0.194468 0
M  V30 6123 H 584.402 -1.68024 1.16744 0
M  V30 6124 H 584.412 -4.04438 0.537932 0
M  V30 6125 H 583.087 -3.8106 1.66632 0
M  V30 6126 H 581.664 -3.72543 -0.163162 0
M  V30 6127 N 583.85 -0.624285 -1.44708 0
M  V30 6128 C 585.26 -0.2092 -1.85524 0
M  V30 6129 C 585.611 1.23783 -1.52225 0
M  V30 6130 O 584.736 1.94089 -0.956986 0
M  V30 6131 C 585.332 -0.372897 -3.36742 0
M  V30 6132 C 583.891 -0.012374 -3.76398 0
M  V30 6133 C 583.038 -0.68951 -2.68591 0
M  V30 6134 H 585.989 -0.829894 -1.35272 0
M  V30 6135 H 586.01 0.390134 -3.78495 0
M  V30 6136 H 585.522 -1.42615 -3.60947 0
M  V30 6137 H 583.623 1.03941 -3.57809 0
M  V30 6138 H 583.736 -0.417663 -4.77276 0
M  V30 6139 H 582.1 -0.125484 -2.54391 0
M  V30 6140 H 582.883 -1.74522 -2.9563 0
M  V30 6141 N 585.328 1.53329 -0.364422 0
M  V30 6142 C 586.576 2.00842 0.225189 0
M  V30 6143 C 586.897 1.25345 1.49378 0
M  V30 6144 O 586.167 0.366396 1.92443 0
M  V30 6145 H 584.747 0.742009 0.0862027 0
M  V30 6146 H 587.409 1.8863 -0.490389 0
M  V30 6147 H 586.505 3.08795 0.452987 0
M  V30 6148 N 586.806 0.0935595 1.57322 0
M  V30 6149 C 588.055 -0.570191 1.93473 0
M  V30 6150 C 588.368 -1.69434 0.977318 0
M  V30 6151 O 589.574 -2.41914 1.23248 0
M  V30 6152 C 588.03 -1.06564 3.43762 0
M  V30 6153 C 587.638 0.0286723 4.47991 0
M  V30 6154 C 589.382 -1.70221 3.88877 0
M  V30 6155 C 587.289 -0.482046 5.89432 0
M  V30 6156 H 586.219 -0.216764 0.72217 0
M  V30 6157 H 588.87 0.169313 1.82717 0
M  V30 6158 H 587.252 -1.85878 3.49664 0
M  V30 6159 H 588.426 0.804106 4.5373 0
M  V30 6160 H 586.741 0.570336 4.12476 0
M  V30 6161 H 589.338 -2.09502 4.91948 0
M  V30 6162 H 589.681 -2.57078 3.27439 0
M  V30 6163 H 590.214 -0.974919 3.85668 0
M  V30 6164 H 586.953 0.349871 6.54566 0
M  V30 6165 H 586.473 -1.22452 5.87167 0
M  V30 6166 H 588.152 -0.951508 6.39965 0
M  V30 6167 N 588.284 -1.56567 -0.180126 0
M  V30 6168 C 589.532 -1.81133 -0.896392 0
M  V30 6169 C 589.853 -0.669114 -1.83161 0
M  V30 6170 O 589.123 0.311616 -1.93406 0
M  V30 6171 H 587.703 -0.668172 -0.333999 0
M  V30 6172 H 590.365 -1.94048 -0.182051 0
M  V30 6173 H 589.461 -2.74854 -1.47857 0
M  V30 6174 N 589.762 0.448376 -1.51087 0
M  V30 6175 C 590.992 1.21965 -1.66757 0
M  V30 6176 C 591.4 1.85748 -0.359753 0
M  V30 6177 O 590.743 1.71022 0.670604 0
M  V30 6178 C 590.805 2.35284 -2.71812 0
M  V30 6179 C 590.469 1.91957 -4.1473 0
M  V30 6180 C 591.466 1.42921 -4.9987 0
M  V30 6181 C 589.151 1.99985 -4.60772 0
M  V30 6182 C 591.145 1.02485 -6.29107 0
M  V30 6183 C 588.832 1.5916 -5.90009 0
M  V30 6184 C 589.83 1.10491 -6.74004 0
M  V30 6185 O 589.518 0.702413 -8.00825 0
M  V30 6186 H 589.25 0.374125 -0.563034 0
M  V30 6187 H 591.804 0.538927 -1.98204 0
M  V30 6188 H 590.034 3.06599 -2.35657 0
M  V30 6189 H 591.723 2.97184 -2.76472 0
M  V30 6190 H 592.489 1.36123 -4.65506 0
M  V30 6191 H 588.368 2.36814 -3.95525 0
M  V30 6192 H 591.912 0.644271 -6.94619 0
M  V30 6193 H 587.809 1.65626 -6.2389 0
M  V30 6194 H 588.577 0.829248 -8.14288 0
M  V30 6195 N 591.24 1.41047 0.703093 0
M  V30 6196 C 592.173 1.36713 1.82715 0
M  V30 6197 C 593.151 0.235533 1.60885 0
M  V30 6198 O 594.335 0.421227 1.83733 0
M  V30 6199 C 591.462 1.13069 3.1927 0
M  V30 6200 C 590.508 2.28846 3.59905 0
M  V30 6201 S 591.341 3.91297 3.65578 0
M  V30 6202 C 592.497 3.69941 5.04871 0
M  V30 6203 H 592.73 2.31838 1.86114 0
M  V30 6204 H 590.263 1.27481 0.871083 0
M  V30 6205 H 592.221 1.00113 3.98105 0
M  V30 6206 H 590.882 0.195763 3.13489 0
M  V30 6207 H 590.075 2.07977 4.59088 0
M  V30 6208 H 589.677 2.3817 2.88359 0
M  V30 6209 H 591.969 3.29181 5.92154 0
M  V30 6210 H 592.912 4.68699 5.30779 0
M  V30 6211 H 593.32 3.03369 4.76054 0
M  V30 6212 N 592.718 -0.936591 1.26751 0
M  V30 6213 C 593.967 -1.67778 1.11953 0
M  V30 6214 C 594.28 -1.92694 -0.33589 0
M  V30 6215 O 595.486 -2.64682 -0.604618 0
M  V30 6216 C 593.942 -3.02138 1.95551 0
M  V30 6217 C 593.55 -2.84953 3.45696 0
M  V30 6218 C 595.294 -3.79917 1.89377 0
M  V30 6219 C 593.201 -4.14814 4.21525 0
M  V30 6220 H 592.131 -0.629275 0.415366 0
M  V30 6221 H 594.782 -1.04122 1.51099 0
M  V30 6222 H 593.164 -3.668 1.49243 0
M  V30 6223 H 594.338 -2.29112 3.99805 0
M  V30 6224 H 592.653 -2.20612 3.53156 0
M  V30 6225 H 595.25 -4.76134 2.43312 0
M  V30 6226 H 595.593 -4.07204 0.865464 0
M  V30 6227 H 596.126 -3.22037 2.33532 0
M  V30 6228 H 592.865 -3.92709 5.24843 0
M  V30 6229 H 592.385 -4.70352 3.72195 0
M  V30 6230 H 594.064 -4.83239 4.3022 0
M  V30 6231 N 594.196 -1.08629 -1.14182 0
M  V30 6232 C 595.128 -0.676189 -2.18998 0
M  V30 6233 C 596.141 0.277871 -1.60411 0
M  V30 6234 O 597.33 0.0651771 -1.78381 0
M  V30 6235 C 594.43 0.0254916 -3.3889 0
M  V30 6236 C 593.603 -0.948039 -4.27002 0
M  V30 6237 C 592.662 -0.281268 -5.25448 0
M  V30 6238 O 591.688 -0.926378 -5.61611 0
M  V30 6239 N 592.89 0.967923 -5.72374 0
M  V30 6240 H 595.655 -1.57792 -2.54798 0
M  V30 6241 H 593.216 -0.972665 -1.29425 0
M  V30 6242 H 595.208 0.482554 -4.01813 0
M  V30 6243 H 593.778 0.829348 -3.01398 0
M  V30 6244 H 592.998 -1.58388 -3.6098 0
M  V30 6245 H 594.286 -1.60765 -4.82734 0
M  V30 6246 H 593.684 1.51175 -5.45126 0
M  V30 6247 H 592.241 1.36844 -6.37273 0
M  V30 6248 N 595.674 1.31259 -0.872281 0
M  V30 6249 C 596.951 1.91362 -0.404943 0
M  V30 6250 C 597.331 1.79362 1.11321 0
M  V30 6251 O 596.679 1.20277 1.94283 0
M  V30 6252 C 596.889 3.3749 -0.888893 0
M  V30 6253 C 598.237 4.14593 -0.916384 0
M  V30 6254 O 599.261 3.46282 -0.834701 0
M  V30 6255 O 598.12 5.3661 -1.03498 0
M  V30 6256 H 595.214 0.818016 -0.121569 0
M  V30 6257 H 597.76 1.39912 -0.960346 0
M  V30 6258 H 596.532 3.40249 -1.93251 0
M  V30 6259 H 596.155 3.96375 -0.311932 0
M  V30 6260 N 597.152 0.631951 1.44375 0
M  V30 6261 C 598.38 0.143867 2.06399 0
M  V30 6262 C 598.795 -1.18188 1.47231 0
M  V30 6263 O 598.152 -1.72511 0.595498 0
M  V30 6264 C 598.203 0.0238253 3.61492 0
M  V30 6265 O 597.924 1.29715 4.18456 0
M  V30 6266 C 599.425 -0.492856 4.40552 0
M  V30 6267 H 596.645 0.0800542 0.666207 0
M  V30 6268 H 599.189 0.866586 1.85231 0
M  V30 6269 H 597.344 -0.649338 3.81919 0
M  V30 6270 H 597.758 1.14252 5.11905 0
M  V30 6271 H 599.232 -0.525861 5.49489 0
M  V30 6272 H 599.709 -1.52006 4.12057 0
M  V30 6273 H 600.315 0.147085 4.25046 0
M  V30 6274 N 598.631 -1.53133 0.372548 0
M  V30 6275 C 599.541 -2.29671 -0.478379 0
M  V30 6276 C 600.557 -1.35913 -1.08644 0
M  V30 6277 O 601.733 -1.68975 -1.09588 0
M  V30 6278 C 598.798 -3.07625 -1.599 0
M  V30 6279 C 597.859 -4.17061 -1.01776 0
M  V30 6280 C 597.092 -4.91289 -2.08497 0
M  V30 6281 O 597.315 -4.65442 -3.29727 0
M  V30 6282 O 596.249 -5.7705 -1.71164 0
M  V30 6283 H 600.075 -3.03355 0.144649 0
M  V30 6284 H 597.66 -1.48773 0.136729 0
M  V30 6285 H 599.542 -3.56281 -2.25038 0
M  V30 6286 H 598.217 -2.3677 -2.2073 0
M  V30 6287 H 597.124 -3.72641 -0.330098 0
M  V30 6288 H 598.457 -4.90102 -0.453915 0
M  V30 6289 N 600.109 -0.101901 -1.5727 0
M  V30 6290 C 601.386 0.602832 -1.86079 0
M  V30 6291 C 601.766 1.85912 -1 0
M  V30 6292 O 601.114 2.28379 -0.0742488 0
M  V30 6293 C 601.324 0.911694 -3.36881 0
M  V30 6294 C 602.672 1.2722 -4.05093 0
M  V30 6295 O 603.696 1.0025 -3.41802 0
M  V30 6296 O 602.555 1.7776 -5.16782 0
M  V30 6297 H 599.649 0.302366 -0.769743 0
M  V30 6298 H 602.195 -0.135113 -1.69161 0
M  V30 6299 H 600.967 0.0207256 -3.91295 0
M  V30 6300 H 600.59 1.70538 -3.59169 0
M  V30 6301 N 601.587 1.56661 0.17182 0
M  V30 6302 C 602.537 1.92781 1.21736 0
M  V30 6303 C 603.521 0.796065 1.39827 0
M  V30 6304 O 604.713 1.05924 1.41806 0
M  V30 6305 C 601.842 2.29079 2.55691 0
M  V30 6306 C 600.928 3.48765 2.41296 0
M  V30 6307 N 601.319 4.66022 1.96614 0
M  V30 6308 C 599.617 3.53362 2.72124 0
M  V30 6309 C 600.318 5.48159 1.94669 0
M  V30 6310 N 599.294 4.89189 2.37054 0
M  V30 6311 H 603.096 2.80926 0.863592 0
M  V30 6312 H 600.61 1.57889 0.380096 0
M  V30 6313 H 602.607 2.5315 3.31241 0
M  V30 6314 H 601.267 1.42272 2.91871 0
M  V30 6315 H 602.278 4.9025 1.66959 0
M  V30 6316 H 598.955 2.77033 3.12345 0
M  V30 6317 H 600.345 6.52121 1.61826 0
M  V30 6318 N 603.065 -0.440357 1.51323 0
M  V30 6319 C 604.012 -1.53429 1.72419 0
M  V30 6320 C 604.982 -1.56165 0.565826 0
M  V30 6321 O 606.167 -1.73222 0.799917 0
M  V30 6322 C 603.307 -2.91169 1.85242 0
M  V30 6323 C 602.42 -2.97985 3.12777 0
M  V30 6324 C 601.555 -4.26829 3.16212 0
M  V30 6325 C 600.594 -4.27501 4.38074 0
M  V30 6326 N 599.731 -5.47866 4.39076 0
M  V30 6327 H 604.571 -1.34743 2.65797 0
M  V30 6328 H 602.108 -0.654608 1.31732 0
M  V30 6329 H 604.066 -3.71087 1.90658 0
M  V30 6330 H 602.696 -3.0842 0.952744 0
M  V30 6331 H 601.748 -2.10749 3.16685 0
M  V30 6332 H 603.06 -2.94342 4.02696 0
M  V30 6333 H 602.214 -5.15118 3.20527 0
M  V30 6334 H 600.953 -4.33124 2.24176 0
M  V30 6335 H 599.958 -3.37606 4.33938 0
M  V30 6336 H 601.183 -4.22873 5.31371 0
M  V30 6337 H 599.129 -5.54887 3.49909 0
M  V30 6338 H 599.046 -5.46091 5.22801 0
M  V30 6339 H 600.314 -6.38195 4.4758 0
M  V30 6340 N 604.543 -1.41418 -0.695603 0
M  V30 6341 C 605.789 -1.40982 -1.4578 0
M  V30 6342 C 606.122 -0.0187763 -1.94191 0
M  V30 6343 O 605.397 0.95346 -1.69527 0
M  V30 6344 C 605.68 -2.41657 -2.66972 0
M  V30 6345 C 605.533 -3.89869 -2.24327 0
M  V30 6346 C 606.852 -2.39589 -3.69168 0
M  V30 6347 H 603.971 -0.513405 -0.528757 0
M  V30 6348 H 606.613 -1.72693 -0.792275 0
M  V30 6349 H 604.763 -2.14746 -3.23754 0
M  V30 6350 H 606.435 -4.27683 -1.72872 0
M  V30 6351 H 604.678 -4.04737 -1.56111 0
M  V30 6352 H 605.349 -4.55857 -3.11285 0
M  V30 6353 H 607.825 -2.63471 -3.2206 0
M  V30 6354 H 606.701 -3.12044 -4.51575 0
M  V30 6355 H 606.962 -1.41447 -4.18862 0
M  V30 6356 N 606.021 0.929856 -1.27246 0
M  V30 6357 C 606.984 2.01172 -1.09829 0
M  V30 6358 C 607.984 1.60743 -0.0429687 0
M  V30 6359 O 609.174 1.71813 -0.287373 0
M  V30 6360 C 606.306 3.34191 -0.673003 0
M  V30 6361 H 607.499 2.18054 -2.05895 0
M  V30 6362 H 605.052 1.11036 -1.10003 0
M  V30 6363 H 605.787 3.23009 0.289134 0
M  V30 6364 H 605.572 3.64892 -1.43515 0
M  V30 6365 H 607.062 4.13646 -0.573323 0
M  V30 6366 N 607.499 1.09233 1.13605 0
M  V30 6367 C 608.724 0.849067 1.89224 0
M  V30 6368 C 609.149 -0.593875 1.78479 0
M  V30 6369 O 608.507 -1.41703 1.13092 0
M  V30 6370 C 608.555 1.28642 3.36873 0
M  V30 6371 O 607.659 0.44363 4.10007 0
M  V30 6372 H 607 0.30767 0.588417 0
M  V30 6373 H 609.53 1.45595 1.43748 0
M  V30 6374 H 609.54 1.27096 3.87699 0
M  V30 6375 H 608.215 2.33729 3.44011 0
M  V30 6376 H 606.792 0.523241 3.69211 0
M  V30 6377 N 608.977 -1.30795 0.87923 0
M  V30 6378 C 609.91 -2.26396 0.286404 0
M  V30 6379 C 610.888 -1.51528 -0.589748 0
M  V30 6380 O 612.072 -1.80566 -0.541119 0
M  V30 6381 C 609.199 -3.33458 -0.593581 0
M  V30 6382 C 608.245 -4.2597 0.21247 0
M  V30 6383 S 609.078 -5.11132 1.59702 0
M  V30 6384 C 610.234 -6.21705 0.723408 0
M  V30 6385 H 610.467 -2.7633 1.09677 0
M  V30 6386 H 608 -1.38703 0.678305 0
M  V30 6387 H 609.958 -3.9561 -1.09557 0
M  V30 6388 H 608.619 -2.82259 -1.37799 0
M  V30 6389 H 607.812 -5.01907 -0.458822 0
M  V30 6390 H 607.414 -3.68363 0.646883 0
M  V30 6391 H 609.706 -6.77472 -0.0620739 0
M  V30 6392 H 610.649 -6.93007 1.4542 0
M  V30 6393 H 611.057 -5.63771 0.286855 0
M  V30 6394 N 610.455 -0.639598 -1.44038 0
M  V30 6395 C 611.732 -0.078012 -1.95444 0
M  V30 6396 C 612.112 1.39847 -1.58133 0
M  V30 6397 O 611.46 2.11714 -0.859614 0
M  V30 6398 C 611.67 -0.309832 -3.47622 0
M  V30 6399 C 613.018 -0.207521 -4.24093 0
M  V30 6400 O 614.042 -0.241653 -3.55379 0
M  V30 6401 O 612.901 -0.119641 -5.46369 0
M  V30 6402 H 609.995 0.0174534 -0.826816 0
M  V30 6403 H 612.541 -0.711891 -1.54046 0
M  V30 6404 H 611.313 -1.33401 -3.67858 0
M  V30 6405 H 610.936 0.357777 -3.95987 0
M  V30 6406 N 611.933 1.52934 -0.380664 0
M  V30 6407 C 613.158 2.06363 0.207157 0
M  V30 6408 C 613.583 1.25122 1.4045 0
M  V30 6409 O 612.941 0.274062 1.79217 0
M  V30 6410 C 612.989 3.56162 0.563996 0
M  V30 6411 O 612.093 3.77552 1.65917 0
M  V30 6412 H 611.434 0.663468 0.0265859 0
M  V30 6413 H 613.964 1.9719 -0.545635 0
M  V30 6414 H 613.974 3.99453 0.830752 0
M  V30 6415 H 612.649 4.14732 -0.311427 0
M  V30 6416 H 611.226 3.46154 1.3868 0
M  V30 6417 N 613.412 0.11024 1.57214 0
M  V30 6418 C 614.661 -0.549638 1.94067 0
M  V30 6419 C 614.974 -1.68388 0.995234 0
M  V30 6420 O 616.18 -2.40593 1.25807 0
M  V30 6421 C 614.636 -1.02912 3.44873 0
M  V30 6422 C 614.244 0.0761861 4.47935 0
M  V30 6423 C 615.988 -1.66087 3.9066 0
M  V30 6424 C 613.895 -0.419502 5.8991 0
M  V30 6425 H 612.825 -0.209092 0.724428 0
M  V30 6426 H 615.476 0.188683 1.82527 0
M  V30 6427 H 613.858 -1.82159 3.51616 0
M  V30 6428 H 615.032 0.852185 4.52851 0
M  V30 6429 H 613.347 0.614052 4.11847 0
M  V30 6430 H 615.944 -2.04272 4.94143 0
M  V30 6431 H 616.287 -2.53591 3.30148 0
M  V30 6432 H 616.82 -0.933959 3.86681 0
M  V30 6433 H 613.559 0.419277 6.54158 0
M  V30 6434 H 613.079 -1.16217 5.88433 0
M  V30 6435 H 614.758 -0.883577 6.40938 0
M  V30 6436 N 614.89 -1.56749 -0.16351 0
M  V30 6437 C 616.138 -1.82074 -0.87713 0
M  V30 6438 C 616.459 -0.688503 -1.82441 0
M  V30 6439 O 615.729 0.291085 -1.93725 0
M  V30 6440 H 614.309 -0.671677 -0.326893 0
M  V30 6441 H 616.971 -1.9423 -0.161459 0
M  V30 6442 H 616.067 -2.76407 -1.44934 0
M  V30 6443 N 616.368 0.432326 -1.51554 0
M  V30 6444 C 617.316 1.54572 -1.73811 0
M  V30 6445 C 618.31 1.58246 -0.604539 0
M  V30 6446 O 619.516 1.6193 -0.786041 0
M  V30 6447 H 615.891 0.513626 -0.549265 0
M  V30 6448 H 617.862 1.32977 -2.67132 0
M  V30 6449 C 616.611 2.92181 -1.88483 0
M  V30 6450 H 615.934 2.90088 -2.75116 0
M  V30 6451 H 617.374 3.69439 -2.08065 0
M  V30 6452 C 615.833 3.3065 -0.645909 0
M  V30 6453 O 616.363 4.01216 0.197093 0
M  V30 6454 N 614.569 2.86464 -0.488538 0
M  V30 6455 H 614.116 2.29209 -1.17562 0
M  V30 6456 H 614.074 3.12565 0.339156 0
M  V30 6457 N 617.846 1.41785 0.688094 0
M  V30 6458 C 618.776 1.47 1.8142 0
M  V30 6459 C 619.757 0.327881 1.6691 0
M  V30 6460 O 620.942 0.540362 1.86531 0
M  V30 6461 C 618.072 1.35876 3.19617 0
M  V30 6462 C 617.026 2.47976 3.48844 0
M  V30 6463 C 616.352 2.21915 4.86475 0
M  V30 6464 C 617.652 3.90309 3.47068 0
M  V30 6465 H 619.346 2.41247 1.77314 0
M  V30 6466 H 616.892 1.16116 0.851651 0
M  V30 6467 H 618.845 1.38134 3.98117 0
M  V30 6468 H 617.569 0.38116 3.24368 0
M  V30 6469 H 616.228 2.45013 2.72698 0
M  V30 6470 H 615.876 1.2248 4.8786 0
M  V30 6471 H 615.576 2.97037 5.06994 0
M  V30 6472 H 617.1 2.25901 5.67275 0
M  V30 6473 H 618.514 3.94947 4.1556 0
M  V30 6474 H 616.911 4.65175 3.7912 0
M  V30 6475 H 617.981 4.17927 2.45896 0
M  V30 6476 N 619.324 -0.923095 1.27737 0
M  V30 6477 C 620.257 -2.02515 1.05181 0
M  V30 6478 C 621.235 -1.62574 -0.0292204 0
M  V30 6479 O 622.419 -1.88137 0.116848 0
M  V30 6480 C 619.546 -3.33407 0.596468 0
M  V30 6481 C 618.592 -3.92328 1.67276 0
M  V30 6482 S 619.425 -4.24342 3.26641 0
M  V30 6483 C 620.581 -5.58308 2.82919 0
M  V30 6484 H 620.814 -2.21336 1.98488 0
M  V30 6485 H 618.347 -1.06679 1.1162 0
M  V30 6486 H 620.305 -4.09086 0.34044 0
M  V30 6487 H 618.966 -3.125 -0.316614 0
M  V30 6488 H 618.159 -4.86797 1.30556 0
M  V30 6489 H 617.761 -3.2325 1.8811 0
M  V30 6490 H 620.053 -6.37801 2.28509 0
M  V30 6491 H 620.996 -5.99931 3.7615 0
M  V30 6492 H 621.404 -5.19049 2.21919 0
M  V30 6493 N 620.802 -1.09834 -1.13024 0
M  V30 6494 C 622.048 -0.83819 -1.84668 0
M  V30 6495 C 622.381 0.634645 -1.83537 0
M  V30 6496 O 621.656 1.46753 -1.27647 0
M  V30 6497 C 621.939 -1.37933 -3.32636 0
M  V30 6498 C 621.792 -2.91857 -3.42257 0
M  V30 6499 C 623.111 -1.01654 -4.28199 0
M  V30 6500 H 620.23 -0.30595 -0.670495 0
M  V30 6501 H 622.872 -1.36044 -1.32635 0
M  V30 6502 H 621.022 -0.935111 -3.77078 0
M  V30 6503 H 622.694 -3.44759 -3.06495 0
M  V30 6504 H 620.937 -3.28776 -2.83 0
M  V30 6505 H 621.608 -3.24799 -4.46329 0
M  V30 6506 H 624.084 -1.39973 -3.9185 0
M  V30 6507 H 622.96 -1.42217 -5.30156 0
M  V30 6508 H 623.221 0.0747794 -4.42037 0
M  V30 6509 N 622.28 1.30327 -0.886154 0
M  V30 6510 C 623.505 2.0079 -0.519425 0
M  V30 6511 C 623.93 1.65979 0.885013 0
M  V30 6512 O 623.288 0.877043 1.58675 0
M  V30 6513 C 623.336 3.53686 -0.702758 0
M  V30 6514 O 622.44 4.11637 0.250828 0
M  V30 6515 H 621.781 0.63171 -0.204544 0
M  V30 6516 H 624.311 1.66145 -1.19402 0
M  V30 6517 H 624.321 4.03531 -0.602207 0
M  V30 6518 H 622.996 3.78361 -1.72673 0
M  V30 6519 H 621.573 3.72755 0.103873 0
M  V30 6520 N 623.758 0.647228 1.43697 0
M  V30 6521 C 625.169 0.238689 1.85168 0
M  V30 6522 C 625.52 -1.21345 1.54175 0
M  V30 6523 O 624.645 -1.92542 0.987743 0
M  V30 6524 C 625.24 0.426422 3.36106 0
M  V30 6525 C 623.799 0.0722541 3.76331 0
M  V30 6526 C 622.946 0.732153 2.6746 0
M  V30 6527 H 625.897 0.851309 1.33934 0
M  V30 6528 H 625.918 -0.32987 3.79067 0
M  V30 6529 H 625.43 1.48339 3.58632 0
M  V30 6530 H 623.531 -0.982355 3.59417 0
M  V30 6531 H 623.644 0.493541 4.76551 0
M  V30 6532 H 622.008 0.16594 2.54159 0
M  V30 6533 H 622.791 1.79204 2.92816 0
M  V30 6534 N 625.236 -1.5273 0.388769 0
M  V30 6535 C 626.647 -1.86505 -0.0853788 0
M  V30 6536 C 626.998 -1.30847 -1.46197 0
M  V30 6537 O 626.123 -0.639609 -2.06732 0
M  V30 6538 C 626.718 -3.38414 -0.161703 0
M  V30 6539 C 625.277 -3.71902 -0.580144 0
M  V30 6540 C 624.424 -2.76095 0.258218 0
M  V30 6541 H 627.375 -1.46647 0.606665 0
M  V30 6542 H 627.396 -3.67638 -0.980936 0
M  V30 6543 H 626.908 -3.78893 0.840333 0
M  V30 6544 H 625.009 -3.36992 -1.58957 0
M  V30 6545 H 625.122 -4.77902 -0.338663 0
M  V30 6546 H 623.486 -2.53195 -0.276432 0
M  V30 6547 H 624.269 -3.19411 1.25822 0
M  V30 6548 N 626.714 -0.118576 -1.57153 0
M  V30 6549 C 627.96 0.540326 -1.95469 0
M  V30 6550 C 628.293 1.66356 -1.00196 0
M  V30 6551 O 627.568 1.94461 -0.039104 0
M  V30 6552 C 627.851 1.07342 -3.43729 0
M  V30 6553 C 627.704 -0.0463732 -4.49776 0
M  V30 6554 C 629.023 1.96442 -3.93826 0
M  V30 6555 H 626.142 0.19494 -0.710751 0
M  V30 6556 H 628.784 -0.19405 -1.89006 0
M  V30 6557 H 626.934 1.69925 -3.49368 0
M  V30 6558 H 628.606 -0.681648 -4.56236 0
M  V30 6559 H 626.849 -0.709574 -4.27957 0
M  V30 6560 H 627.52 0.367856 -5.50773 0
M  V30 6561 H 629.996 1.43731 -3.90488 0
M  V30 6562 H 628.872 2.3066 -4.98084 0
M  V30 6563 H 629.133 2.89077 -3.34495 0
M  V30 6564 N 628.193 1.56834 0.155195 0
M  V30 6565 C 629.14 1.97646 1.19184 0
M  V30 6566 C 630.11 0.842788 1.4313 0
M  V30 6567 O 631.295 1.1042 1.55602 0
M  V30 6568 C 628.435 2.35527 2.52232 0
M  V30 6569 C 627.548 3.62147 2.35529 0
M  V30 6570 C 626.683 3.89167 3.61555 0
M  V30 6571 C 625.722 5.09084 3.39853 0
M  V30 6572 N 624.859 5.32156 4.5799 0
M  V30 6573 H 629.699 2.8601 0.836802 0
M  V30 6574 H 627.236 1.41507 0.401758 0
M  V30 6575 H 629.194 2.55516 3.29799 0
M  V30 6576 H 627.824 1.50253 2.85699 0
M  V30 6577 H 626.876 3.4998 1.49057 0
M  V30 6578 H 628.188 4.49871 2.15448 0
M  V30 6579 H 627.342 4.09611 4.47553 0
M  V30 6580 H 626.081 2.9985 3.84632 0
M  V30 6581 H 625.086 4.88522 2.52243 0
M  V30 6582 H 626.311 5.99947 3.18183 0
M  V30 6583 H 624.257 4.45791 4.81255 0
M  V30 6584 H 624.174 6.14133 4.40882 0
M  V30 6585 H 625.442 5.57091 5.45225 0
M  V30 6586 N 629.671 -0.424282 1.51781 0
M  V30 6587 C 630.917 -1.17434 1.6534 0
M  V30 6588 C 631.25 -1.90549 0.374806 0
M  V30 6589 O 630.525 -1.84145 -0.626179 0
M  V30 6590 C 630.808 -2.18093 2.86544 0
M  V30 6591 C 630.661 -1.48975 4.24413 0
M  V30 6592 C 631.98 -3.18934 3.03264 0
M  V30 6593 H 629.099 -0.425566 0.601716 0
M  V30 6594 H 631.741 -0.461921 1.84299 0
M  V30 6595 H 629.891 -2.78849 2.7051 0
M  V30 6596 H 631.563 -0.914551 4.52143 0
M  V30 6597 H 629.806 -0.791893 4.26511 0
M  V30 6598 H 630.477 -2.22347 5.05238 0
M  V30 6599 H 632.953 -2.68243 3.18096 0
M  V30 6600 H 631.829 -3.86645 3.89611 0
M  V30 6601 H 632.09 -3.85793 2.15908 0
M  V30 6602 N 631.149 -1.42148 -0.680565 0
M  V30 6603 C 632.081 -1.41119 -1.80605 0
M  V30 6604 C 633.094 -0.311099 -1.598 0
M  V30 6605 O 634.283 -0.573813 -1.69026 0
M  V30 6606 C 631.383 -1.18204 -3.17618 0
M  V30 6607 C 630.556 -2.40537 -3.65322 0
M  V30 6608 C 629.615 -2.13254 -4.8105 0
M  V30 6609 O 628.641 -2.8641 -4.91892 0
M  V30 6610 N 629.843 -1.13208 -5.69354 0
M  V30 6611 H 632.608 -2.38128 -1.81975 0
M  V30 6612 H 630.169 -1.36953 -0.863446 0
M  V30 6613 H 632.161 -0.97878 -3.92686 0
M  V30 6614 H 630.731 -0.29738 -3.11182 0
M  V30 6615 H 629.951 -2.76468 -2.80996 0
M  V30 6616 H 631.239 -3.22012 -3.93936 0
M  V30 6617 H 630.637 -0.526893 -5.63241 0
M  V30 6618 H 629.194 -0.988699 -6.44258 0
M  V30 6619 N 632.627 0.916307 -1.28225 0
M  V30 6620 C 633.875 1.6619 -1.15002 0
M  V30 6621 C 634.196 1.92642 0.302329 0
M  V30 6622 O 633.466 1.54076 1.20985 0
M  V30 6623 H 632.046 0.615964 -0.422608 0
M  V30 6624 H 634.708 1.09963 -1.60917 0
M  V30 6625 H 633.804 2.62533 -1.68769 0
M  V30 6626 N 634.105 1.10431 1.1244 0
M  V30 6627 C 635.052 0.753103 2.18167 0
M  V30 6628 C 636.022 -0.270549 1.63882 0
M  V30 6629 O 637.207 -0.149837 1.90211 0
M  V30 6630 C 634.347 0.191046 3.44571 0
M  V30 6631 C 633.46 1.26999 4.12911 0
M  V30 6632 C 632.595 0.669586 5.26963 0
M  V30 6633 C 631.634 1.72912 5.87169 0
M  V30 6634 N 630.771 1.14898 6.92635 0
M  V30 6635 H 635.611 1.65892 2.47556 0
M  V30 6636 H 633.148 0.828631 1.21541 0
M  V30 6637 H 635.106 -0.152712 4.1692 0
M  V30 6638 H 633.736 -0.677997 3.15599 0
M  V30 6639 H 632.788 1.73087 3.3874 0
M  V30 6640 H 634.1 2.07204 4.53727 0
M  V30 6641 H 633.254 0.275274 6.06075 0
M  V30 6642 H 631.993 -0.163895 4.87425 0
M  V30 6643 H 630.998 2.13286 5.06744 0
M  V30 6644 H 632.223 2.56544 6.28778 0
M  V30 6645 H 630.169 0.336956 6.55134 0
M  V30 6646 H 630.086 1.88786 7.32049 0
M  V30 6647 H 631.354 0.78121 7.75576 0
M  V30 6648 N 635.583 -1.29855 0.893053 0
M  V30 6649 C 636.493 -2.31661 0.370157 0
M  V30 6650 C 637.509 -1.65677 -0.531723 0
M  V30 6651 O 638.685 -1.9691 -0.422902 0
M  V30 6652 C 635.75 -3.44388 -0.399741 0
M  V30 6653 C 634.811 -4.2598 0.532861 0
M  V30 6654 C 634.044 -5.33324 -0.200388 0
M  V30 6655 O 634.267 -5.52305 -1.42531 0
M  V30 6656 O 633.201 -6.00188 0.453668 0
M  V30 6657 H 637.027 -2.78354 1.2146 0
M  V30 6658 H 634.612 -1.34171 0.657153 0
M  V30 6659 H 636.494 -4.13037 -0.835358 0
M  V30 6660 H 635.169 -2.99815 -1.22035 0
M  V30 6661 H 634.076 -3.59998 1.01746 0
M  V30 6662 H 635.409 -4.74178 1.3197 0
M  V30 6663 N 637.061 -0.65484 -1.43351 0
M  V30 6664 C 638.291 -0.176429 -2.05845 0
M  V30 6665 C 638.699 1.16375 -1.49176 0
M  V30 6666 O 638.042 1.72981 -0.618322 0
M  V30 6667 C 638.104 -0.0125844 -3.59498 0
M  V30 6668 C 637.768 -1.27831 -4.38758 0
M  V30 6669 C 638.765 -2.2074 -4.70712 0
M  V30 6670 C 636.45 -1.52035 -4.78739 0
M  V30 6671 C 638.444 -3.36145 -5.41558 0
M  V30 6672 C 636.131 -2.67732 -5.49329 0
M  V30 6673 C 637.129 -3.59612 -5.80662 0
M  V30 6674 O 636.817 -4.73289 -6.4981 0
M  V30 6675 H 636.549 -0.0879682 -0.670252 0
M  V30 6676 H 639.103 -0.896193 -1.84818 0
M  V30 6677 H 637.333 0.762567 -3.79107 0
M  V30 6678 H 639.022 0.423392 -4.03686 0
M  V30 6679 H 639.788 -2.03284 -4.40341 0
M  V30 6680 H 635.667 -0.813987 -4.53757 0
M  V30 6681 H 639.211 -4.07881 -5.65932 0
M  V30 6682 H 635.108 -2.85122 -5.79116 0
M  V30 6683 H 635.876 -4.72575 -6.68293 0
M  V30 6684 N 638.539 1.52521 -0.396863 0
M  V30 6685 C 639.95 1.86547 0.0754868 0
M  V30 6686 C 640.301 1.31621 1.45501 0
M  V30 6687 O 639.426 0.650563 2.0639 0
M  V30 6688 C 640.021 3.38495 0.143754 0
M  V30 6689 C 638.58 3.72205 0.560413 0
M  V30 6690 C 637.727 2.75954 -0.272856 0
M  V30 6691 H 640.678 1.46323 -0.614434 0
M  V30 6692 H 640.699 3.68153 0.961425 0
M  V30 6693 H 640.211 3.78442 -0.860415 0
M  V30 6694 H 638.312 3.3783 1.57167 0
M  V30 6695 H 638.425 4.78074 0.313314 0
M  V30 6696 H 636.789 2.53339 0.263 0
M  V30 6697 H 637.572 3.1874 -1.27515 0
M  V30 6698 N 640.017 0.126909 1.57088 0
M  V30 6699 C 640.947 -0.816847 2.18746 0
M  V30 6700 C 641.928 -1.27161 1.12979 0
M  V30 6701 O 643.113 -1.33279 1.41246 0
M  V30 6702 C 640.243 -2.06398 2.79315 0
M  V30 6703 C 639.197 -1.74673 3.90735 0
M  V30 6704 C 638.523 -3.06482 4.38147 0
M  V30 6705 C 639.823 -1.0089 5.12463 0
M  V30 6706 H 641.517 -0.303032 2.97863 0
M  V30 6707 H 639.063 -0.144314 1.43275 0
M  V30 6708 H 641.016 -2.72885 3.2111 0
M  V30 6709 H 639.74 -2.60118 1.975 0
M  V30 6710 H 638.399 -1.10572 3.49527 0
M  V30 6711 H 638.047 -3.58152 3.5318 0
M  V30 6712 H 637.747 -2.86025 5.13287 0
M  V30 6713 H 639.271 -3.74073 4.82599 0
M  V30 6714 H 640.685 -1.57546 5.51228 0
M  V30 6715 H 639.082 -0.905006 5.93237 0
M  V30 6716 H 640.152 0.00297335 4.849 0
M  V30 6717 N 641.495 -1.56914 -0.146875 0
M  V30 6718 C 642.743 -1.82994 -0.85777 0
M  V30 6719 C 643.064 -0.707814 -1.817 0
M  V30 6720 O 642.334 0.270521 -1.94023 0
M  V30 6721 H 640.914 -0.675106 -0.319751 0
M  V30 6722 H 643.576 -1.9439 -0.140849 0
M  V30 6723 H 642.672 -2.77928 -1.41994 0
M  V30 6724 N 642.974 0.416227 -1.52004 0
M  V30 6725 C 644.39 0.754319 -1.40649 0
M  V30 6726 C 644.59 1.95059 -0.505392 0
M  V30 6727 O 643.646 2.5248 0.0315057 0
M  V30 6728 C 644.959 1.0149 -2.83055 0
M  V30 6729 C 646.507 1.11805 -2.9235 0
M  V30 6730 C 646.982 1.41144 -4.35709 0
M  V30 6731 N 648.473 1.48024 -4.38911 0
M  V30 6732 C 649.208 1.72338 -5.46889 0
M  V30 6733 N 648.704 1.94303 -6.64995 0
M  V30 6734 N 650.497 1.74294 -5.34395 0
M  V30 6735 H 642.648 -0.371324 -2.09129 0
M  V30 6736 H 644.911 -0.103811 -0.942299 0
M  V30 6737 H 644.617 0.208345 -3.51082 0
M  V30 6738 H 644.491 1.93697 -3.23668 0
M  V30 6739 H 646.878 1.91521 -2.24508 0
M  V30 6740 H 646.959 0.17451 -2.55204 0
M  V30 6741 H 646.603 0.619484 -5.04108 0
M  V30 6742 H 646.533 2.36739 -4.70385 0
M  V30 6743 H 649.024 1.32868 -3.53772 0
M  V30 6744 H 649.337 2.12286 -7.43071 0
M  V30 6745 H 647.682 1.91582 -6.68073 0
M  V30 6746 H 650.873 1.56667 -4.41104 0
M  V30 6747 H 651.046 1.92904 -6.18621 0
M  V30 6748 N 644.452 1.42507 0.673017 0
M  V30 6749 C 645.698 1.43284 1.43519 0
M  V30 6750 C 646.031 0.049668 1.94136 0
M  V30 6751 O 645.306 -0.926369 1.71022 0
M  V30 6752 C 645.589 2.45874 2.63093 0
M  V30 6753 C 645.442 3.93388 2.18096 0
M  V30 6754 C 646.761 2.45431 3.6531 0
M  V30 6755 H 643.88 0.521752 0.520522 0
M  V30 6756 H 646.522 1.73932 0.764701 0
M  V30 6757 H 644.672 2.19869 3.20296 0
M  V30 6758 H 646.344 4.30379 1.66046 0
M  V30 6759 H 644.587 4.07169 1.49652 0
M  V30 6760 H 645.258 4.60752 3.03993 0
M  V30 6761 H 647.734 2.68561 3.17827 0
M  V30 6762 H 646.61 3.19189 4.46553 0
M  V30 6763 H 646.871 1.48092 4.16559 0
M  V30 6764 N 645.93 -0.909495 1.28709 0
M  V30 6765 C 646.86 -2.0291 1.15542 0
M  V30 6766 C 647.841 -1.7002 0.0521017 0
M  V30 6767 O 649.026 -1.92835 0.229849 0
M  V30 6768 C 646.156 -3.37458 0.820935 0
M  V30 6769 C 645.11 -3.84524 1.87949 0
M  V30 6770 C 644.436 -5.16086 1.39854 0
M  V30 6771 C 645.736 -4.05918 3.28676 0
M  V30 6772 H 647.43 -2.14183 2.09203 0
M  V30 6773 H 644.976 -1.02913 1.00722 0
M  V30 6774 H 646.929 -4.1528 0.715571 0
M  V30 6775 H 645.653 -3.26249 -0.151374 0
M  V30 6776 H 644.312 -3.08911 1.97408 0
M  V30 6777 H 643.96 -5.01284 0.41518 0
M  V30 6778 H 643.66 -5.48547 2.1064 0
M  V30 6779 H 645.184 -5.96459 1.30649 0
M  V30 6780 H 646.598 -4.74252 3.22115 0
M  V30 6781 H 644.995 -4.49717 3.97334 0
M  V30 6782 H 646.065 -3.10583 3.72379 0
M  V30 6783 N 647.408 -1.11026 -1.11852 0
M  V30 6784 C 648.657 -0.851249 -1.82857 0
M  V30 6785 C 648.97 0.62514 -1.85341 0
M  V30 6786 O 650.176 1.00026 -2.52403 0
M  V30 6787 C 648.632 -1.47309 -3.28372 0
M  V30 6788 C 648.24 -2.9832 -3.34229 0
M  V30 6789 C 649.984 -1.29373 -4.04306 0
M  V30 6790 C 647.891 -3.53509 -4.74115 0
M  V30 6791 H 646.821 -0.314794 -0.685143 0
M  V30 6792 H 649.472 -1.33499 -1.25898 0
M  V30 6793 H 647.854 -0.917017 -3.85236 0
M  V30 6794 H 649.028 -3.60295 -2.87271 0
M  V30 6795 H 647.343 -3.15482 -2.71772 0
M  V30 6796 H 649.94 -1.68042 -5.07608 0
M  V30 6797 H 650.283 -0.235879 -4.15631 0
M  V30 6798 H 650.816 -1.8182 -3.53817 0
M  V30 6799 H 647.555 -4.58987 -4.67986 0
M  V30 6800 H 647.075 -2.96305 -5.21501 0
M  V30 6801 H 648.754 -3.51693 -5.43066 0
M  V30 6802 N 648.886 1.2938 -0.899927 0
M  V30 6803 C 650.134 1.95164 -0.524924 0
M  V30 6804 C 650.455 1.71292 0.931888 0
M  V30 6805 O 649.725 1.04481 1.65712 0
M  V30 6806 H 648.305 0.722133 -0.191135 0
M  V30 6807 H 650.967 1.57628 -1.14627 0
M  V30 6808 H 650.063 3.0397 -0.707711 0
M  V30 6809 N 650.364 0.662433 1.43002 0
M  V30 6810 C 651.589 0.186003 2.06564 0
M  V30 6811 C 652.014 -1.14314 1.49379 0
M  V30 6812 O 651.372 -1.70824 0.607346 0
M  V30 6813 C 651.42 0.118269 3.60406 0
M  V30 6814 O 650.524 -0.916859 4.02079 0
M  V30 6815 H 649.865 0.0990981 0.656563 0
M  V30 6816 H 652.395 0.907958 1.8335 0
M  V30 6817 H 652.405 -0.0619981 4.07953 0
M  V30 6818 H 651.08 1.08849 4.01403 0
M  V30 6819 H 649.657 -0.708635 3.66105 0
M  V30 6820 N 651.842 -1.52309 0.404946 0
M  V30 6821 C 653.067 -2.06666 -0.1743 0
M  V30 6822 C 653.492 -1.27341 -1.38441 0
M  V30 6823 O 652.85 -0.302539 -1.78758 0
M  V30 6824 C 652.898 -3.57014 -0.507262 0
M  V30 6825 O 652.002 -3.80144 -1.59889 0
M  V30 6826 H 651.343 -0.663807 -0.0160273 0
M  V30 6827 H 653.873 -1.96297 0.576937 0
M  V30 6828 H 653.883 -4.00724 -0.767098 0
M  V30 6829 H 652.558 -4.14184 0.377368 0
M  V30 6830 H 651.135 -3.48316 -1.33155 0
M  V30 6831 N 653.32 -0.135238 -1.57019 0
M  V30 6832 C 654.567 0.518794 -1.95742 0
M  V30 6833 C 654.895 1.65642 -1.01947 0
M  V30 6834 O 654.15 1.95645 -0.0464016 0
M  V30 6835 C 654.449 1.07694 -3.40788 0
M  V30 6836 C 654.115 0.058992 -4.50861 0
M  V30 6837 C 652.777 -0.220872 -4.80693 0
M  V30 6838 C 655.129 -0.633856 -5.17331 0
M  V30 6839 C 652.457 -1.19959 -5.74305 0
M  V30 6840 C 654.809 -1.60131 -6.11997 0
M  V30 6841 C 653.473 -1.889 -6.40213 0
M  V30 6842 H 652.743 0.18984 -0.716269 0
M  V30 6843 H 655.39 -0.219581 -1.90237 0
M  V30 6844 H 653.695 1.89241 -3.43067 0
M  V30 6845 H 655.392 1.59137 -3.68071 0
M  V30 6846 H 651.982 0.287304 -4.27636 0
M  V30 6847 H 656.166 -0.430823 -4.94427 0
M  V30 6848 H 651.422 -1.42905 -5.94465 0
M  V30 6849 H 655.596 -2.14376 -6.62583 0
M  V30 6850 H 653.223 -2.64891 -7.12556 0
M  V30 6851 N 654.798 1.5699 0.138552 0
M  V30 6852 C 656.028 1.87704 0.863184 0
M  V30 6853 C 656.436 0.722411 1.74865 0
M  V30 6854 O 655.779 -0.316636 1.80951 0
M  V30 6855 C 655.841 3.13219 1.76449 0
M  V30 6856 C 655.505 4.44648 1.05532 0
M  V30 6857 C 656.502 5.18318 0.405252 0
M  V30 6858 C 654.187 4.91367 1.04231 0
M  V30 6859 C 656.181 6.36916 -0.24835 0
M  V30 6860 C 653.868 6.09887 0.384904 0
M  V30 6861 C 654.866 6.82508 -0.259292 0
M  V30 6862 O 654.554 7.98775 -0.906258 0
M  V30 6863 H 654.286 0.626255 0.254521 0
M  V30 6864 H 656.84 2.04966 0.133472 0
M  V30 6865 H 655.07 2.91988 2.53535 0
M  V30 6866 H 656.759 3.30111 2.36181 0
M  V30 6867 H 657.525 4.83289 0.407053 0
M  V30 6868 H 653.404 4.34759 1.53315 0
M  V30 6869 H 656.948 6.93538 -0.751755 0
M  V30 6870 H 652.845 6.44376 0.380799 0
M  V30 6871 H 653.613 8.14494 -0.80877 0
M  V30 6872 N 656.276 -0.40816 1.52223 0
M  V30 6873 C 657.687 -0.986929 1.58482 0
M  V30 6874 C 658.038 -1.91521 0.425917 0
M  V30 6875 O 657.163 -2.11593 -0.453593 0
M  V30 6876 C 657.758 -1.7967 2.87235 0
M  V30 6877 C 656.317 -2.32549 2.9597 0
M  V30 6878 C 655.464 -1.12558 2.53428 0
M  V30 6879 H 658.415 -0.188362 1.57578 0
M  V30 6880 H 658.436 -2.65417 2.72642 0
M  V30 6881 H 657.948 -1.12082 3.71563 0
M  V30 6882 H 656.049 -3.03505 2.16137 0
M  V30 6883 H 656.162 -2.63348 4.00231 0
M  V30 6884 H 654.526 -1.47984 2.07299 0
M  V30 6885 H 655.309 -0.465351 3.40131 0
M  V30 6886 N 657.755 -1.42862 -0.66545 0
M  V30 6887 C 658.98 -1.47456 -1.45848 0
M  V30 6888 C 659.405 -0.0900312 -1.87884 0
M  V30 6889 O 658.763 0.913587 -1.56599 0
M  V30 6890 C 658.811 -2.41514 -2.67774 0
M  V30 6891 O 657.915 -1.89296 -3.66389 0
M  V30 6892 H 657.256 -0.499236 -0.437789 0
M  V30 6893 H 659.786 -1.8765 -0.815394 0
M  V30 6894 H 659.796 -2.58409 -3.15735 0
M  V30 6895 H 658.471 -3.42099 -2.36519 0
M  V30 6896 H 657.048 -1.82003 -3.25468 0
M  V30 6897 N 659.233 0.902656 -1.29189 0
M  V30 6898 C 660.196 1.98797 -1.14071 0
M  V30 6899 C 661.196 1.60615 -0.0770549 0
M  V30 6900 O 662.386 1.71165 -0.323753 0
M  V30 6901 C 659.518 3.32688 -0.743739 0
M  V30 6902 H 660.711 2.13637 -2.10473 0
M  V30 6903 H 658.264 1.08678 -1.12334 0
M  V30 6904 H 658.999 3.23549 0.220554 0
M  V30 6905 H 658.784 3.61765 -1.51223 0
M  V30 6906 H 660.274 4.12337 -0.660935 0
M  V30 6907 N 660.711 1.11618 1.11262 0
M  V30 6908 C 661.621 0.78898 2.20935 0
M  V30 6909 C 662.637 -0.21867 1.7262 0
M  V30 6910 O 663.813 -0.0543826 2.01327 0
M  V30 6911 C 660.878 0.239014 3.45875 0
M  V30 6912 C 659.939 1.3055 4.08968 0
M  V30 6913 C 659.172 0.781687 5.27944 0
M  V30 6914 O 659.395 -0.387605 5.69082 0
M  V30 6915 O 658.329 1.54734 5.81671 0
M  V30 6916 H 662.155 1.70477 2.51339 0
M  V30 6917 H 659.74 0.892203 1.19834 0
M  V30 6918 H 661.622 -0.0632312 4.21353 0
M  V30 6919 H 660.297 -0.649454 3.17118 0
M  V30 6920 H 659.204 1.66079 3.35214 0
M  V30 6921 H 660.537 2.16743 4.41909 0
M  V30 6922 N 662.189 -1.289 0.906776 0
M  V30 6923 C 663.437 -1.94883 0.535266 0
M  V30 6924 C 663.758 -1.71784 -0.922791 0
M  V30 6925 O 663.028 -1.05359 -1.65156 0
M  V30 6926 H 661.608 -0.721109 0.194962 0
M  V30 6927 H 664.27 -1.57018 1.15461 0
M  V30 6928 H 663.366 -3.03591 0.723821 0
M  V30 6929 N 663.667 -0.670007 -1.42649 0
M  V30 6930 C 665.083 -0.33911 -1.55956 0
M  V30 6931 C 665.283 1.1558 -1.65056 0
M  V30 6932 O 664.339 1.94111 -1.61485 0
M  V30 6933 C 665.652 -1.06522 -2.812 0
M  V30 6934 C 667.2 -1.04708 -2.94966 0
M  V30 6935 C 667.675 -1.75442 -4.23065 0
M  V30 6936 N 669.166 -1.72286 -4.29967 0
M  V30 6937 C 669.901 -2.23877 -5.27889 0
M  V30 6938 N 669.397 -2.83829 -6.31991 0
M  V30 6939 N 671.19 -2.14279 -5.19654 0
M  V30 6940 H 663.341 -1.6399 -1.34986 0
M  V30 6941 H 665.604 -0.690603 -0.649439 0
M  V30 6942 H 665.31 -2.12033 -2.80597 0
M  V30 6943 H 665.184 -0.627398 -3.71946 0
M  V30 6944 H 667.571 -0.000315966 -2.951 0
M  V30 6945 H 667.652 -1.52374 -2.05465 0
M  V30 6946 H 667.296 -2.80084 -4.23693 0
M  V30 6947 H 667.226 -1.25229 -5.11493 0
M  V30 6948 H 669.717 -1.28554 -3.55362 0
M  V30 6949 H 670.03 -3.20827 -7.03057 0
M  V30 6950 H 668.375 -2.87896 -6.32567 0
M  V30 6951 H 671.566 -1.67135 -4.37245 0
M  V30 6952 H 671.739 -2.54792 -5.95806 0
M  V30 6953 N 665.145 1.52092 -0.413018 0
M  V30 6954 C 666.108 2.25706 0.398687 0
M  V30 6955 C 667.108 1.28221 0.970368 0
M  V30 6956 O 668.298 1.52131 0.848635 0
M  V30 6957 C 665.43 3.03029 1.5616 0
M  V30 6958 H 666.623 2.98888 -0.246131 0
M  V30 6959 H 664.176 1.5542 -0.165622 0
M  V30 6960 H 664.911 2.34205 2.24317 0
M  V30 6961 H 664.696 3.74606 1.15812 0
M  V30 6962 H 666.186 3.58857 2.13569 0
M  V30 6963 N 666.623 0.143563 1.56945 0
M  V30 6964 C 667.556 -0.835367 2.1236 0
M  V30 6965 C 668.534 -1.24466 1.04627 0
M  V30 6966 O 669.718 -1.34138 1.32436 0
M  V30 6967 C 666.845 -2.12123 2.64048 0
M  V30 6968 C 665.891 -1.85812 3.83896 0
M  V30 6969 S 666.724 -1.05222 5.25061 0
M  V30 6970 C 667.88 -2.34935 5.80135 0
M  V30 6971 H 668.113 -0.364109 2.95062 0
M  V30 6972 H 665.646 -0.0706601 1.54238 0
M  V30 6973 H 667.604 -2.85993 2.94479 0
M  V30 6974 H 666.265 -2.56364 1.81483 0
M  V30 6975 H 665.458 -2.81151 4.18294 0
M  V30 6976 H 665.06 -1.20052 3.54208 0
M  V30 6977 H 667.352 -3.3061 5.91357 0
M  V30 6978 H 668.295 -2.05046 6.77762 0
M  V30 6979 H 668.703 -2.45426 5.08356 0
M  V30 6980 N 668.101 -1.57061 -0.130224 0
M  V30 6981 C 669.326 -1.88802 -0.858409 0
M  V30 6982 C 669.751 -0.734353 -1.73173 0
M  V30 6983 O 669.109 0.315529 -1.78533 0
M  V30 6984 C 669.157 -3.19228 -1.67708 0
M  V30 6985 O 668.261 -3.04343 -2.78297 0
M  V30 6986 H 667.602 -0.619849 -0.238083 0
M  V30 6987 H 670.132 -2.04271 -0.115995 0
M  V30 6988 H 670.142 -3.51669 -2.06864 0
M  V30 6989 H 668.817 -4.02793 -1.0359 0
M  V30 6990 H 667.394 -2.83346 -2.42425 0
M  V30 6991 N 669.579 0.400081 -1.52437 0
M  V30 6992 C 670.526 1.48803 -1.76426 0
M  V30 6993 C 671.496 1.5461 -0.607032 0
M  V30 6994 O 672.681 1.71041 -0.845563 0
M  V30 6995 C 669.821 2.86156 -1.92896 0
M  V30 6996 C 668.934 2.89587 -3.20567 0
M  V30 6997 C 668.069 4.18296 -3.27417 0
M  V30 6998 C 667.108 4.15736 -4.49255 0
M  V30 6999 N 666.245 5.36032 -4.53447 0
M  V30 7000 H 671.085 1.27649 -2.69276 0
M  V30 7001 H 668.622 0.619451 -1.33421 0
M  V30 7002 H 670.58 3.65901 -2.00429 0
M  V30 7003 H 669.21 3.05785 -1.03418 0
M  V30 7004 H 668.262 2.02278 -3.22161 0
M  V30 7005 H 669.574 2.83562 -4.10358 0
M  V30 7006 H 668.728 5.06439 -3.34072 0
M  V30 7007 H 667.467 4.27028 -2.35581 0
M  V30 7008 H 666.472 3.25982 -4.42737 0
M  V30 7009 H 667.697 4.08636 -5.42396 0
M  V30 7010 H 665.643 5.45415 -3.64498 0
M  V30 7011 H 665.56 5.32038 -5.37096 0
M  V30 7012 H 666.828 6.26104 -4.64343 0
M  V30 7013 N 671.057 1.43213 0.657864 0
M  V30 7014 C 672.285 1.48015 1.44566 0
M  V30 7015 C 672.7 0.0965951 1.88553 0
M  V30 7016 O 672.057 -0.892221 1.59203 0
M  V30 7017 C 672.108 2.42199 2.68369 0
M  V30 7018 O 671.829 3.75173 2.26223 0
M  V30 7019 C 673.33 2.56195 3.61772 0
M  V30 7020 H 670.55 0.502861 0.444266 0
M  V30 7021 H 673.094 1.87907 0.806917 0
M  V30 7022 H 671.249 2.05514 3.28394 0
M  V30 7023 H 671.663 4.25776 3.06293 0
M  V30 7024 H 673.137 3.26182 4.4532 0
M  V30 7025 H 673.614 1.60534 4.0881 0
M  V30 7026 H 674.22 2.93671 3.07632 0
M  V30 7027 N 672.536 -0.895792 1.29666 0
M  V30 7028 C 673.466 -2.01673 1.17688 0
M  V30 7029 C 674.447 -1.69955 0.0701317 0
M  V30 7030 O 675.632 -1.9258 0.250289 0
M  V30 7031 C 672.762 -3.36568 0.856681 0
M  V30 7032 C 671.716 -3.82509 1.92017 0
M  V30 7033 C 671.042 -5.14574 1.4532 0
M  V30 7034 C 672.342 -4.02409 3.32963 0
M  V30 7035 H 674.036 -2.11953 2.11463 0
M  V30 7036 H 671.582 -1.01839 1.01807 0
M  V30 7037 H 673.535 -4.14498 0.759577 0
M  V30 7038 H 672.259 -3.26391 -0.116763 0
M  V30 7039 H 670.918 -3.068 2.00673 0
M  V30 7040 H 670.566 -5.00815 0.468325 0
M  V30 7041 H 670.266 -5.46283 2.16447 0
M  V30 7042 H 671.79 -5.9504 1.36968 0
M  V30 7043 H 673.204 -4.70808 3.27127 0
M  V30 7044 H 671.601 -4.45478 4.02082 0
M  V30 7045 H 672.671 -3.06616 3.75652 0
M  V30 7046 N 674.014 -1.12206 -1.10668 0
M  V30 7047 C 675.43 -0.857619 -1.346 0
M  V30 7048 C 675.63 0.513542 -1.94846 0
M  V30 7049 O 674.686 1.26273 -2.18658 0
M  V30 7050 C 675.999 -1.97212 -2.26998 0
M  V30 7051 C 677.547 -2.00272 -2.40542 0
M  V30 7052 C 678.022 -3.10948 -3.36267 0
M  V30 7053 N 679.513 -3.10375 -3.43834 0
M  V30 7054 C 680.248 -3.92651 -4.17867 0
M  V30 7055 N 679.744 -4.84911 -4.94807 0
M  V30 7056 N 681.537 -3.80798 -4.1346 0
M  V30 7057 H 673.688 -2.00558 -0.699306 0
M  V30 7058 H 675.951 -0.872612 -0.370477 0
M  V30 7059 H 675.657 -2.96002 -1.89936 0
M  V30 7060 H 675.531 -1.87521 -3.27286 0
M  V30 7061 H 677.918 -1.02103 -2.76874 0
M  V30 7062 H 677.999 -2.14037 -1.40077 0
M  V30 7063 H 677.643 -4.09348 -3.00661 0
M  V30 7064 H 677.573 -2.94421 -4.36605 0
M  V30 7065 H 680.064 -2.43536 -2.88961 0
M  V30 7066 H 680.377 -5.44207 -5.48688 0
M  V30 7067 H 678.722 -4.88926 -4.93939 0
M  V30 7068 H 681.913 -3.08058 -3.52445 0
M  V30 7069 H 682.086 -4.4515 -4.70898 0
M  V30 7070 N 675.492 1.28418 -0.913599 0
M  V30 7071 C 676.769 1.89977 -0.465619 0
M  V30 7072 C 677.149 1.82813 1.05559 0
M  V30 7073 O 676.497 1.26397 1.90358 0
M  V30 7074 C 676.707 3.34492 -0.995813 0
M  V30 7075 C 678.055 4.11468 -1.04782 0
M  V30 7076 O 679.079 3.43451 -0.944445 0
M  V30 7077 O 677.938 5.33046 -1.20518 0
M  V30 7078 H 675.032 0.813734 -0.147532 0
M  V30 7079 H 677.578 1.36786 -1.00437 0
M  V30 7080 H 676.35 3.33929 -2.03978 0
M  V30 7081 H 675.973 3.95181 -0.437878 0
M  V30 7082 N 676.97 0.677563 1.42291 0
M  V30 7083 C 678.217 0.200975 2.015 0
M  V30 7084 C 678.545 -1.19342 1.53583 0
M  V30 7085 O 677.8 -1.81579 0.7299 0
M  V30 7086 C 678.099 0.187229 3.56909 0
M  V30 7087 C 677.765 1.52667 4.24268 0
M  V30 7088 C 676.427 1.89341 4.42384 0
M  V30 7089 C 678.779 2.40869 4.62203 0
M  V30 7090 C 676.107 3.13836 4.95705 0
M  V30 7091 C 678.459 3.64679 5.16906 0
M  V30 7092 C 677.123 4.01519 5.33234 0
M  V30 7093 H 676.393 0.0735418 0.737342 0
M  V30 7094 H 679.04 0.873095 1.70439 0
M  V30 7095 H 677.345 -0.568407 3.87655 0
M  V30 7096 H 679.042 -0.198773 4.00507 0
M  V30 7097 H 675.632 1.23138 4.1053 0
M  V30 7098 H 679.816 2.1382 4.47878 0
M  V30 7099 H 675.072 3.42396 5.06532 0
M  V30 7100 H 679.246 4.33224 5.45243 0
M  V30 7101 H 676.873 4.98062 5.74316 0
M  V30 7102 N 678.448 -1.51871 0.421078 0
M  V30 7103 C 679.378 -2.30231 -0.389363 0
M  V30 7104 C 680.359 -1.34946 -1.03555 0
M  V30 7105 O 681.544 -1.63859 -1.04229 0
M  V30 7106 C 678.674 -3.13247 -1.49979 0
M  V30 7107 C 677.628 -4.16677 -0.977966 0
M  V30 7108 C 676.954 -4.88112 -2.1829 0
M  V30 7109 C 678.254 -5.22295 -0.0236775 0
M  V30 7110 H 679.948 -2.98229 0.264524 0
M  V30 7111 H 677.494 -1.43424 0.12866 0
M  V30 7112 H 679.447 -3.66838 -2.07383 0
M  V30 7113 H 678.171 -2.4304 -2.18173 0
M  V30 7114 H 676.83 -3.64114 -0.426245 0
M  V30 7115 H 676.478 -4.14423 -2.85066 0
M  V30 7116 H 676.178 -5.58041 -1.84021 0
M  V30 7117 H 677.702 -5.44521 -2.76278 0
M  V30 7118 H 679.116 -5.71055 -0.506899 0
M  V30 7119 H 677.513 -5.99656 0.230782 0
M  V30 7120 H 678.583 -4.76131 0.917999 0
M  V30 7121 N 679.926 -0.151884 -1.56866 0
M  V30 7122 C 681.156 0.504081 -2.00356 0
M  V30 7123 C 681.564 1.58639 -1.03103 0
M  V30 7124 O 680.907 1.83688 -0.0207931 0
M  V30 7125 C 680.969 1.15975 -3.40279 0
M  V30 7126 C 680.633 0.221453 -4.56463 0
M  V30 7127 C 681.63 -0.552766 -5.16953 0
M  V30 7128 C 679.315 0.122936 -5.0215 0
M  V30 7129 C 681.309 -1.4129 -6.21543 0
M  V30 7130 C 678.996 -0.740801 -6.06593 0
M  V30 7131 C 679.994 -1.50732 -6.6616 0
M  V30 7132 O 679.682 -2.35666 -7.68581 0
M  V30 7133 H 679.414 0.135279 -0.662326 0
M  V30 7134 H 681.968 -0.244916 -2.03935 0
M  V30 7135 H 680.198 1.95649 -3.33554 0
M  V30 7136 H 681.887 1.71594 -3.67846 0
M  V30 7137 H 682.653 -0.486716 -4.82552 0
M  V30 7138 H 678.532 0.70931 -4.5551 0
M  V30 7139 H 682.076 -2.01166 -6.67966 0
M  V30 7140 H 677.973 -0.808125 -6.40421 0
M  V30 7141 H 678.741 -2.28967 -7.85822 0
M  V30 7142 N 681.404 1.57128 0.121893 0
M  V30 7143 C 682.367 1.99197 1.13372 0
M  V30 7144 C 683.367 0.881728 1.3447 0
M  V30 7145 O 684.557 1.14783 1.31036 0
M  V30 7146 C 681.689 2.32963 2.4888 0
M  V30 7147 H 682.882 2.89788 0.772204 0
M  V30 7148 H 680.435 1.51952 0.366093 0
M  V30 7149 H 681.17 1.45243 2.89957 0
M  V30 7150 H 680.955 3.13934 2.34921 0
M  V30 7151 H 682.445 2.66261 3.21706 0
M  V30 7152 N 682.882 -0.391992 1.52647 0
M  V30 7153 C 683.814 -1.49811 1.73463 0
M  V30 7154 C 684.827 -1.50734 0.615078 0
M  V30 7155 O 686.016 -1.5469 0.890696 0
M  V30 7156 C 683.116 -2.88667 1.77552 0
M  V30 7157 C 682.289 -3.11743 3.06815 0
M  V30 7158 C 681.348 -4.30564 3.02491 0
M  V30 7159 O 680.374 -4.27014 3.76361 0
M  V30 7160 N 681.576 -5.36593 2.21468 0
M  V30 7161 H 684.341 -1.32343 2.68897 0
M  V30 7162 H 681.902 -0.581475 1.51098 0
M  V30 7163 H 683.894 -3.66251 1.7217 0
M  V30 7164 H 682.464 -2.99508 0.895181 0
M  V30 7165 H 681.684 -2.2205 3.25711 0
M  V30 7166 H 682.972 -3.24013 3.92292 0
M  V30 7167 H 682.37 -5.42332 1.60913 0
M  V30 7168 H 680.927 -6.12855 2.21928 0
M  V30 7169 N 684.36 -1.4356 -0.65026 0
M  V30 7170 C 685.292 -1.44918 -1.77571 0
M  V30 7171 C 686.305 -0.344925 -1.59104 0
M  V30 7172 O 687.494 -0.609537 -1.6777 0
M  V30 7173 C 684.594 -1.24914 -3.15039 0
M  V30 7174 C 683.767 -2.48232 -3.60138 0
M  V30 7175 C 682.826 -2.23409 -4.76419 0
M  V30 7176 O 681.852 -2.9678 -4.85706 0
M  V30 7177 N 683.054 -1.25259 -5.66825 0
M  V30 7178 H 685.819 -2.41935 -1.76883 0
M  V30 7179 H 683.38 -1.38754 -0.834202 0
M  V30 7180 H 685.372 -1.06185 -3.90521 0
M  V30 7181 H 683.942 -0.363319 -3.10481 0
M  V30 7182 H 683.162 -2.82366 -2.75069 0
M  V30 7183 H 684.45 -3.30296 -3.87017 0
M  V30 7184 H 683.848 -0.646246 -5.61997 0
M  V30 7185 H 682.405 -1.12513 -6.42016 0
M  V30 7186 N 685.838 0.888903 -1.30139 0
M  V30 7187 C 687.084 1.6428 -1.18912 0
M  V30 7188 C 687.417 1.92499 0.256477 0
M  V30 7189 O 686.692 1.54312 1.18397 0
M  V30 7190 C 686.975 2.9851 -2.01405 0
M  V30 7191 C 686.828 2.77288 -3.54163 0
M  V30 7192 C 688.147 3.99383 -1.84882 0
M  V30 7193 H 685.266 0.596148 -0.433333 0
M  V30 7194 H 687.908 1.0289 -1.5973 0
M  V30 7195 H 686.058 3.50907 -1.66722 0
M  V30 7196 H 687.73 2.31709 -3.98884 0
M  V30 7197 H 685.973 2.11867 -3.78543 0
M  V30 7198 H 686.644 3.72717 -4.07168 0
M  V30 7199 H 689.12 3.56132 -2.15196 0
M  V30 7200 H 687.996 4.91222 -2.44934 0
M  V30 7201 H 688.257 4.34674 -0.806902 0
M  V30 7202 N 687.317 1.12792 1.10072 0
M  V30 7203 C 688.249 0.757003 2.16338 0
M  V30 7204 C 689.262 -0.218144 1.61332 0
M  V30 7205 O 690.451 0.0010727 1.785 0
M  V30 7206 C 687.551 0.100303 3.38752 0
M  V30 7207 C 686.724 1.10586 4.2319 0
M  V30 7208 C 685.783 0.47609 5.24042 0
M  V30 7209 O 684.809 1.13418 5.57786 0
M  V30 7210 N 686.011 -0.754823 5.75572 0
M  V30 7211 H 688.776 1.6714 2.48766 0
M  V30 7212 H 686.337 1.02003 1.25726 0
M  V30 7213 H 688.329 -0.333092 4.03327 0
M  V30 7214 H 686.899 -0.716915 3.04268 0
M  V30 7215 H 686.119 1.71677 3.54853 0
M  V30 7216 H 687.407 1.78571 4.76435 0
M  V30 7217 H 686.805 -1.30838 5.50362 0
M  V30 7218 H 685.362 -1.13098 6.41913 0
M  V30 7219 N 688.795 -1.27931 0.920396 0
M  V30 7220 C 689.758 -2.25345 0.41858 0
M  V30 7221 C 690.758 -1.54116 -0.458798 0
M  V30 7222 O 691.948 -1.72235 -0.260912 0
M  V30 7223 C 689.08 -3.38556 -0.399104 0
M  V30 7224 H 690.273 -2.71251 1.27918 0
M  V30 7225 H 687.826 -1.39728 0.700406 0
M  V30 7226 H 688.561 -2.98021 -1.27882 0
M  V30 7227 H 688.346 -3.91426 0.229863 0
M  V30 7228 H 689.836 -4.10976 -0.740817 0
M  V30 7229 N 690.273 -0.685099 -1.4193 0
M  V30 7230 C 691.684 -0.287699 -1.8447 0
M  V30 7231 C 692.035 1.17215 -1.57338 0
M  V30 7232 O 691.16 1.89856 -1.03845 0
M  V30 7233 C 691.755 -0.515385 -3.34857 0
M  V30 7234 C 690.314 -0.172006 -3.76007 0
M  V30 7235 C 689.461 -0.802808 -2.65425 0
M  V30 7236 H 692.412 -0.88652 -1.3163 0
M  V30 7237 H 692.433 0.229251 -3.79809 0
M  V30 7238 H 691.945 -1.57796 -3.54573 0
M  V30 7239 H 690.046 0.886716 -3.61895 0
M  V30 7240 H 690.159 -0.619717 -4.75075 0
M  V30 7241 H 688.523 -0.233267 -2.5363 0
M  V30 7242 H 689.306 -1.86904 -2.87961 0
M  V30 7243 N 691.751 1.51645 -0.429126 0
M  V30 7244 C 692.997 2.02314 0.140286 0
M  V30 7245 C 693.33 1.31314 1.43074 0
M  V30 7246 O 692.605 0.425531 1.89788 0
M  V30 7247 C 692.888 3.5822 0.36749 0
M  V30 7248 C 692.741 4.39846 -0.941039 0
M  V30 7249 C 694.06 4.25055 1.14089 0
M  V30 7250 H 691.179 0.735335 0.0495112 0
M  V30 7251 H 693.821 1.81358 -0.566514 0
M  V30 7252 H 691.971 3.76207 0.969556 0
M  V30 7253 H 693.643 4.33527 -1.57646 0
M  V30 7254 H 691.886 4.05259 -1.54751 0
M  V30 7255 H 692.557 5.47069 -0.73621 0
M  V30 7256 H 695.033 4.11288 0.630986 0
M  V30 7257 H 693.909 5.34038 1.26863 0
M  V30 7258 H 694.17 3.85358 2.16683 0
M  V30 7259 N 693.229 0.160201 1.56784 0
M  V30 7260 C 694.139 -0.787167 2.21 0
M  V30 7261 C 695.155 -1.26167 1.19825 0
M  V30 7262 O 696.331 -1.31611 1.52448 0
M  V30 7263 C 693.396 -2.00364 2.8294 0
M  V30 7264 C 692.457 -1.5771 3.99282 0
M  V30 7265 C 691.69 -2.73558 4.58259 0
M  V30 7266 O 691.913 -3.90129 4.16119 0
M  V30 7267 O 690.847 -2.48271 5.48311 0
M  V30 7268 H 694.673 -0.270462 3.02493 0
M  V30 7269 H 692.258 -0.0674666 1.49248 0
M  V30 7270 H 694.14 -2.71529 3.22257 0
M  V30 7271 H 692.815 -2.50961 2.04451 0
M  V30 7272 H 691.722 -0.835274 3.64656 0
M  V30 7273 H 693.055 -1.11815 4.79331 0
M  V30 7274 N 694.707 -1.5719 -0.113559 0
M  V30 7275 C 695.637 -2.03772 -1.14013 0
M  V30 7276 C 696.618 -0.923176 -1.42869 0
M  V30 7277 O 697.803 -1.19325 -1.53216 0
M  V30 7278 C 694.933 -2.44663 -2.4649 0
M  V30 7279 C 693.887 -3.59612 -2.32085 0
M  V30 7280 C 693.213 -3.8642 -3.69573 0
M  V30 7281 C 694.513 -4.91149 -1.7768 0
M  V30 7282 H 696.207 -2.89785 -0.752665 0
M  V30 7283 H 693.753 -1.39412 -0.360609 0
M  V30 7284 H 695.706 -2.75857 -3.18561 0
M  V30 7285 H 694.43 -1.55628 -2.87137 0
M  V30 7286 H 693.089 -3.28636 -1.62461 0
M  V30 7287 H 692.737 -2.94581 -4.07715 0
M  V30 7288 H 692.437 -4.63797 -3.60786 0
M  V30 7289 H 693.961 -4.2007 -4.4314 0
M  V30 7290 H 695.375 -5.20843 -2.39574 0
M  V30 7291 H 693.772 -5.72562 -1.79701 0
M  V30 7292 H 694.842 -4.79301 -0.734776 0
M  V30 7293 N 696.185 0.383891 -1.52853 0
M  V30 7294 C 697.415 1.14783 -1.7178 0
M  V30 7295 C 697.823 1.84055 -0.438211 0
M  V30 7296 O 697.166 1.73713 0.597465 0
M  V30 7297 C 697.228 2.23543 -2.81547 0
M  V30 7298 C 696.892 1.74195 -4.22499 0
M  V30 7299 C 697.889 1.21591 -5.05481 0
M  V30 7300 C 695.574 1.80262 -4.6884 0
M  V30 7301 C 697.568 0.757104 -6.32888 0
M  V30 7302 C 695.255 1.33993 -5.96229 0
M  V30 7303 C 696.253 0.818049 -6.78083 0
M  V30 7304 O 695.941 0.362123 -8.03084 0
M  V30 7305 H 695.673 0.349908 -0.578395 0
M  V30 7306 H 698.227 0.454377 -2.00311 0
M  V30 7307 H 696.457 2.96328 -2.48449 0
M  V30 7308 H 698.146 2.8519 -2.88828 0
M  V30 7309 H 698.912 1.16257 -4.7086 0
M  V30 7310 H 694.791 2.19825 -4.05213 0
M  V30 7311 H 698.335 0.34908 -6.96726 0
M  V30 7312 H 694.232 1.39015 -6.30353 0
M  V30 7313 H 695 0.483134 -8.17073 0
M  V30 7314 N 697.663 1.43903 0.642637 0
M  V30 7315 C 698.888 1.49758 1.43483 0
M  V30 7316 C 699.313 0.119911 1.87717 0
M  V30 7317 O 698.671 -0.888558 1.58033 0
M  V30 7318 C 698.719 2.45744 2.63898 0
M  V30 7319 O 697.823 1.95101 3.63331 0
M  V30 7320 H 697.164 0.506138 0.429791 0
M  V30 7321 H 699.694 1.88923 0.785438 0
M  V30 7322 H 699.704 2.63399 3.11584 0
M  V30 7323 H 698.379 3.45818 2.31046 0
M  V30 7324 H 696.956 1.87158 3.22531 0
M  V30 7325 N 699.141 -0.881989 1.30609 0
M  V30 7326 C 700.418 -1.61563 1.10258 0
M  V30 7327 C 700.798 -2.08228 -0.347053 0
M  V30 7328 O 700.146 -1.85151 -1.33908 0
M  V30 7329 C 700.356 -2.78287 2.10612 0
M  V30 7330 C 701.704 -3.48545 2.4249 0
M  V30 7331 O 702.728 -2.88479 2.08945 0
M  V30 7332 O 701.587 -4.56873 2.99883 0
M  V30 7333 H 698.681 -0.710238 0.423663 0
M  V30 7334 H 701.227 -0.928503 1.42045 0
M  V30 7335 H 699.999 -2.41131 3.08174 0
M  V30 7336 H 699.622 -3.54695 1.79659 0
M  V30 7337 N 700.619 -1.13374 -1.09472 0
M  V30 7338 C 701.865 -0.906459 -1.82085 0
M  V30 7339 C 702.22 0.5614 -1.84027 0
M  V30 7340 O 701.513 1.41012 -1.29716 0
M  V30 7341 C 701.707 -1.42759 -3.2765 0
M  V30 7342 C 701.536 -2.94459 -3.39888 0
M  V30 7343 C 700.306 -3.62798 -3.51718 0
M  V30 7344 C 702.504 -3.92398 -3.32457 0
M  V30 7345 N 700.486 -5.02516 -3.52635 0
M  V30 7346 C 701.857 -5.18304 -3.40237 0
M  V30 7347 C 703.912 -3.84671 -3.16122 0
M  V30 7348 C 702.615 -6.37386 -3.33364 0
M  V30 7349 C 704.641 -5.03287 -3.10574 0
M  V30 7350 C 704.003 -6.28055 -3.18945 0
M  V30 7351 H 700.102 -0.385097 -0.680606 0
M  V30 7352 H 702.686 -1.44187 -1.30836 0
M  V30 7353 H 700.857 -0.919102 -3.77369 0
M  V30 7354 H 702.589 -1.14136 -3.88272 0
M  V30 7355 H 699.344 -3.13317 -3.55147 0
M  V30 7356 H 699.768 -5.75421 -3.56679 0
M  V30 7357 H 704.41 -2.89094 -3.0852 0
M  V30 7358 H 702.128 -7.33219 -3.3973 0
M  V30 7359 H 705.714 -4.99047 -2.9907 0
M  V30 7360 H 704.594 -7.18299 -3.14668 0
M  V30 7361 N 702.098 1.27442 -0.927168 0
M  V30 7362 C 703.028 2.29256 -0.443188 0
M  V30 7363 C 704.009 1.62701 0.49624 0
M  V30 7364 O 705.194 1.90013 0.401105 0
M  V30 7365 C 702.324 3.45955 0.305366 0
M  V30 7366 C 701.278 4.24501 -0.546178 0
M  V30 7367 C 700.604 5.33671 0.331512 0
M  V30 7368 C 701.904 4.89921 -1.81037 0
M  V30 7369 H 703.598 2.69988 -1.29409 0
M  V30 7370 H 701.144 1.29792 -0.623705 0
M  V30 7371 H 703.097 4.1628 0.654885 0
M  V30 7372 H 701.821 3.04138 1.19029 0
M  V30 7373 H 700.48 3.55921 -0.878398 0
M  V30 7374 H 700.128 4.88096 1.21537 0
M  V30 7375 H 699.828 5.87131 -0.234746 0
M  V30 7376 H 701.352 6.0684 0.676614 0
M  V30 7377 H 702.766 5.52536 -1.52895 0
M  V30 7378 H 701.163 5.53436 -2.32009 0
M  V30 7379 H 702.233 4.13652 -2.53021 0
M  V30 7380 N 703.576 0.692616 1.41565 0
M  V30 7381 C 704.509 -0.025063 2.28186 0
M  V30 7382 C 705.487 -0.790912 1.42068 0
M  V30 7383 O 706.671 -0.782344 1.71498 0
M  V30 7384 C 703.798 -1.04285 3.22246 0
M  V30 7385 C 702.844 -0.370515 4.24888 0
M  V30 7386 S 703.677 0.884942 5.28137 0
M  V30 7387 C 704.833 -0.131324 6.25762 0
M  V30 7388 H 705.066 0.709626 2.88707 0
M  V30 7389 H 702.599 0.482783 1.46658 0
M  V30 7390 H 704.557 -1.62493 3.7697 0
M  V30 7391 H 703.218 -1.7501 2.60827 0
M  V30 7392 H 702.411 -1.13911 4.90959 0
M  V30 7393 H 702.013 0.138411 3.73744 0
M  V30 7394 H 704.305 -0.985527 6.70294 0
M  V30 7395 H 705.248 0.495384 7.06365 0
M  V30 7396 H 705.656 -0.484777 5.62415 0
M  V30 7397 N 705.054 -1.51416 0.437162 0
M  V30 7398 C 706.282 -2.06503 -0.128045 0
M  V30 7399 C 706.697 -1.30461 -1.36475 0
M  V30 7400 O 706.054 -0.364127 -1.78831 0
M  V30 7401 C 706.105 -3.58683 -0.450437 0
M  V30 7402 O 705.826 -4.31853 0.737186 0
M  V30 7403 C 707.327 -4.30284 -1.06633 0
M  V30 7404 H 704.547 -0.670952 -0.00800269 0
M  V30 7405 H 707.091 -1.94996 0.616193 0
M  V30 7406 H 705.246 -3.70106 -1.14457 0
M  V30 7407 H 705.66 -5.22467 0.461347 0
M  V30 7408 H 707.134 -5.37848 -1.24191 0
M  V30 7409 H 707.611 -3.88564 -2.0473 0
M  V30 7410 H 708.217 -4.23304 -0.411585 0
M  V30 7411 N 706.532 -0.168513 -1.56696 0
M  V30 7412 C 707.78 0.476216 -1.96409 0
M  V30 7413 C 708.101 1.63968 -1.05544 0
M  V30 7414 O 707.371 1.95525 -0.121235 0
M  V30 7415 H 705.951 0.178921 -0.725256 0
M  V30 7416 H 708.613 -0.249042 -1.93302 0
M  V30 7417 H 707.709 0.838094 -3.00637 0
M  V30 7418 N 708.01 1.57248 0.105221 0
M  V30 7419 C 708.96 1.9777 1.1345 0
M  V30 7420 C 709.944 0.854654 1.36325 0
M  V30 7421 O 711.136 1.11844 1.37186 0
M  V30 7422 C 708.265 2.39717 2.45745 0
M  V30 7423 C 707.351 3.58686 2.26286 0
M  V30 7424 N 707.742 4.73942 1.76671 0
M  V30 7425 C 706.04 3.64586 2.56891 0
M  V30 7426 C 706.741 5.55923 1.71245 0
M  V30 7427 N 705.717 4.98803 2.16093 0
M  V30 7428 H 709.519 2.84336 0.743664 0
M  V30 7429 H 707.033 1.59359 0.312787 0
M  V30 7430 H 709.03 2.66971 3.20206 0
M  V30 7431 H 707.69 1.54523 2.85574 0
M  V30 7432 H 708.701 4.9689 1.46016 0
M  V30 7433 H 705.378 2.90031 3.00314 0
M  V30 7434 H 706.768 6.58398 1.34022 0
M  V30 7435 N 709.488 -0.375779 1.53054 0
M  V30 7436 C 710.734 -1.12114 1.68992 0
M  V30 7437 C 711.067 -1.8926 0.435238 0
M  V30 7438 O 710.342 -1.86044 -0.567278 0
M  V30 7439 C 710.625 -2.08867 2.93337 0
M  V30 7440 C 710.478 -1.35397 4.28938 0
M  V30 7441 C 711.797 -3.09124 3.13257 0
M  V30 7442 H 708.916 -0.406207 0.614951 0
M  V30 7443 H 711.558 -0.403054 1.85676 0
M  V30 7444 H 709.708 -2.70102 2.79244 0
M  V30 7445 H 711.38 -0.770242 4.54824 0
M  V30 7446 H 709.623 -0.655801 4.28814 0
M  V30 7447 H 710.294 -2.06161 5.12056 0
M  V30 7448 H 712.77 -2.57987 3.26469 0
M  V30 7449 H 711.646 -3.74054 4.01715 0
M  V30 7450 H 711.907 -3.78729 2.28072 0
M  V30 7451 N 710.966 -1.44241 -0.634997 0
M  V30 7452 C 712.243 -1.37296 -1.39317 0
M  V30 7453 C 712.623 -0.0297532 -2.11079 0
M  V30 7454 O 711.971 0.987524 -2.06059 0
M  V30 7455 C 712.181 -2.56853 -2.36279 0
M  V30 7456 C 713.529 -3.00747 -2.99728 0
M  V30 7457 O 714.553 -2.5703 -2.46605 0
M  V30 7458 O 713.412 -3.76533 -3.96087 0
M  V30 7459 H 710.506 -0.543503 -0.623325 0
M  V30 7460 H 713.052 -1.56324 -0.660376 0
M  V30 7461 H 711.824 -3.46228 -1.82324 0
M  V30 7462 H 711.447 -2.40019 -3.16981 0
M  V30 7463 N 712.444 0.87505 -1.31075 0
M  V30 7464 C 713.354 2.01441 -1.20244 0
M  V30 7465 C 714.37 1.73584 -0.120227 0
M  V30 7466 O 715.546 1.98559 -0.337063 0
M  V30 7467 C 712.611 3.34675 -0.905199 0
M  V30 7468 C 711.672 3.75889 -2.0738 0
M  V30 7469 C 710.905 5.02764 -1.79064 0
M  V30 7470 O 711.128 5.65795 -0.723318 0
M  V30 7471 O 710.062 5.40623 -2.64594 0
M  V30 7472 H 713.888 2.13509 -2.1598 0
M  V30 7473 H 711.473 1.00257 -1.10765 0
M  V30 7474 H 713.355 4.1458 -0.755057 0
M  V30 7475 H 712.03 3.23692 0.0221695 0
M  V30 7476 H 710.937 2.96645 -2.27931 0
M  V30 7477 H 712.27 3.91489 -2.98324 0
M  V30 7478 N 713.922 1.13953 1.08869 0
M  V30 7479 C 715.169 0.90481 1.81161 0
M  V30 7480 C 715.497 -0.568824 1.85996 0
M  V30 7481 O 714.752 -1.43723 1.32823 0
M  V30 7482 C 715.051 1.44495 3.26888 0
M  V30 7483 C 714.717 2.93641 3.42178 0
M  V30 7484 C 713.379 3.34361 3.46059 0
M  V30 7485 C 715.731 3.89568 3.46246 0
M  V30 7486 C 713.059 4.69681 3.51592 0
M  V30 7487 C 715.411 5.2474 3.53314 0
M  V30 7488 C 714.075 5.64979 3.55465 0
M  V30 7489 H 713.345 0.331094 0.662916 0
M  V30 7490 H 715.992 1.42242 1.28217 0
M  V30 7491 H 714.297 0.848169 3.82509 0
M  V30 7492 H 715.994 1.23934 3.81368 0
M  V30 7493 H 712.584 2.61156 3.39846 0
M  V30 7494 H 716.768 3.59192 3.42483 0
M  V30 7495 H 712.024 5.00224 3.51547 0
M  V30 7496 H 716.198 5.98882 3.55406 0
M  V30 7497 H 713.825 6.69821 3.59505 0
M  V30 7498 N 715.4 -1.26948 0.933913 0
M  V30 7499 C 716.333 -2.24977 0.382169 0
M  V30 7500 C 717.311 -1.53893 -0.524949 0
M  V30 7501 O 718.495 -1.82699 -0.464048 0
M  V30 7502 C 715.622 -3.35676 -0.451615 0
M  V30 7503 C 714.668 -4.24686 0.392947 0
M  V30 7504 S 715.501 -5.03898 1.81237 0
M  V30 7505 C 716.657 -6.18078 0.986443 0
M  V30 7506 H 716.89 -2.71429 1.21299 0
M  V30 7507 H 714.423 -1.35701 0.736523 0
M  V30 7508 H 716.381 -3.99901 -0.926797 0
M  V30 7509 H 715.042 -2.8785 -1.25703 0
M  V30 7510 H 714.235 -5.03402 -0.245533 0
M  V30 7511 H 713.837 -3.65288 0.802537 0
M  V30 7512 H 716.129 -6.77125 0.225321 0
M  V30 7513 H 717.072 -6.86216 1.74682 0
M  V30 7514 H 717.48 -5.62047 0.525711 0
M  V30 7515 N 716.879 -0.700114 -1.41195 0
M  V30 7516 C 718.119 -0.237223 -2.03019 0
M  V30 7517 C 718.483 1.14304 -1.54268 0
M  V30 7518 O 719.684 1.70204 -2.08048 0
M  V30 7519 C 717.955 -0.297442 -3.5616 0
M  V30 7520 S 719.514 0.0907367 -4.38706 0
M  V30 7521 H 716.332 -0.0952147 -0.704596 0
M  V30 7522 H 718.934 -0.918901 -1.72559 0
M  V30 7523 H 717.638 -1.30391 -3.89135 0
M  V30 7524 H 717.169 0.403233 -3.91328 0
M  V30 7525 H 719.184 1.31721 -4.78397 0
M  V30 7526 N 718.357 1.51182 -0.445186 0
M  V30 7527 C 719.604 2.02152 0.118645 0
M  V30 7528 C 719.932 1.32888 1.42025 0
M  V30 7529 O 719.187 0.435041 1.90803 0
M  V30 7530 C 719.486 3.55408 0.376797 0
M  V30 7531 C 719.152 4.43008 -0.839945 0
M  V30 7532 C 717.814 4.66669 -1.17361 0
M  V30 7533 C 720.166 4.9435 -1.65127 0
M  V30 7534 C 717.494 5.38919 -2.31913 0
M  V30 7535 C 719.846 5.67857 -2.78786 0
M  V30 7536 C 718.51 5.89779 -3.12597 0
M  V30 7537 H 717.78 0.739727 0.0434152 0
M  V30 7538 H 720.427 1.82055 -0.593984 0
M  V30 7539 H 718.732 3.73879 1.1714 0
M  V30 7540 H 720.429 3.92388 0.826602 0
M  V30 7541 H 717.019 4.24793 -0.569958 0
M  V30 7542 H 721.203 4.75947 -1.4067 0
M  V30 7543 H 716.459 5.54105 -2.58413 0
M  V30 7544 H 720.633 6.06628 -3.42017 0
M  V30 7545 H 718.26 6.45542 -4.01471 0
M  V30 7546 N 719.835 0.176821 1.56605 0
M  V30 7547 C 721.084 -0.466833 1.96223 0
M  V30 7548 C 721.397 -1.64015 1.06576 0
M  V30 7549 O 722.603 -2.3504 1.35898 0
M  V30 7550 C 721.059 -0.881921 3.48927 0
M  V30 7551 C 720.667 0.266102 4.47209 0
M  V30 7552 C 722.411 -1.49368 3.97353 0
M  V30 7553 C 720.318 -0.168923 5.91159 0
M  V30 7554 H 719.248 -0.178178 0.732645 0
M  V30 7555 H 721.899 0.265929 1.81563 0
M  V30 7556 H 720.281 -1.67082 3.59026 0
M  V30 7557 H 721.455 1.04349 4.4883 0
M  V30 7558 H 719.77 0.788178 4.08872 0
M  V30 7559 H 722.367 -1.8313 5.02362 0
M  V30 7560 H 722.71 -2.3936 3.40606 0
M  V30 7561 H 723.243 -0.769114 3.90294 0
M  V30 7562 H 719.982 0.696351 6.51791 0
M  V30 7563 H 719.502 -0.911552 5.92833 0
M  V30 7564 H 721.181 -0.610938 6.44109 0
M  V30 7565 N 721.313 -1.57302 -0.09688 0
M  V30 7566 C 722.724 -1.7496 -0.651595 0
M  V30 7567 C 723.075 -0.798746 -1.79205 0
M  V30 7568 O 722.2 0.0231858 -2.16388 0
M  V30 7569 C 722.795 -3.17259 -1.18878 0
M  V30 7570 C 721.354 -3.36348 -1.68958 0
M  V30 7571 C 720.501 -2.70766 -0.598413 0
M  V30 7572 H 723.452 -1.58173 0.12918 0
M  V30 7573 H 723.473 -3.20033 -2.05814 0
M  V30 7574 H 722.985 -3.8644 -0.358523 0
M  V30 7575 H 721.086 -2.72243 -2.5439 0
M  V30 7576 H 721.199 -4.44654 -1.7838 0
M  V30 7577 H 719.563 -2.32615 -1.03743 0
M  V30 7578 H 720.346 -3.42586 0.221238 0
M  V30 7579 N 722.791 0.367657 -1.53252 0
M  V30 7580 C 724.019 1.13119 -1.73239 0
M  V30 7581 C 724.434 1.831 -0.460404 0
M  V30 7582 O 723.791 1.73483 0.566557 0
M  V30 7583 C 723.842 2.16308 -2.89643 0
M  V30 7584 O 723.563 1.49175 -4.1192 0
M  V30 7585 C 725.064 3.05224 -3.21486 0
M  V30 7586 H 722.284 0.338318 -0.579467 0
M  V30 7587 H 724.828 0.42721 -1.99988 0
M  V30 7588 H 722.983 2.82307 -2.65295 0
M  V30 7589 H 723.397 2.17912 -4.7709 0
M  V30 7590 H 724.871 3.73613 -4.06346 0
M  V30 7591 H 725.348 3.69919 -2.36763 0
M  V30 7592 H 725.954 2.44843 -3.47753 0
M  V30 7593 N 724.269 1.44576 0.627338 0
M  V30 7594 C 725.546 1.38033 1.38586 0
M  V30 7595 C 725.926 0.0409468 2.1106 0
M  V30 7596 O 725.274 -0.976582 2.0658 0
M  V30 7597 C 725.484 2.58102 2.34913 0
M  V30 7598 C 726.832 3.02332 2.98129 0
M  V30 7599 O 727.856 2.58334 2.45238 0
M  V30 7600 O 726.715 3.78628 3.94085 0
M  V30 7601 H 723.809 0.546801 0.620434 0
M  V30 7602 H 726.355 1.56672 0.652077 0
M  V30 7603 H 725.127 3.4719 1.80485 0
M  V30 7604 H 724.75 2.41696 3.15703 0
M  V30 7605 N 725.747 -0.868086 1.31537 0
M  V30 7606 C 727.024 -1.60384 1.11965 0
M  V30 7607 C 727.404 -2.08584 -0.324949 0
M  V30 7608 O 726.752 -1.86561 -1.31937 0
M  V30 7609 C 726.962 -2.76038 2.13551 0
M  V30 7610 C 728.31 -3.45954 2.46173 0
M  V30 7611 O 729.334 -2.86247 2.11993 0
M  V30 7612 O 728.193 -4.53666 3.04711 0
M  V30 7613 H 725.287 -0.705705 0.431172 0
M  V30 7614 H 727.833 -0.913385 1.43022 0
M  V30 7615 H 726.605 -2.37849 3.10714 0
M  V30 7616 H 726.228 -3.52769 1.83411 0
M  V30 7617 N 727.225 -1.14528 -1.08264 0
M  V30 7618 C 728.172 -0.833556 -2.15222 0
M  V30 7619 C 729.142 0.209539 -1.64773 0
M  V30 7620 O 730.327 0.0791388 -1.90636 0
M  V30 7621 C 727.467 -0.318799 -3.43624 0
M  V30 7622 C 726.58 -1.42237 -4.07913 0
M  V30 7623 C 725.715 -0.864704 -5.24115 0
M  V30 7624 C 724.754 -1.94585 -5.80347 0
M  V30 7625 N 723.891 -1.40525 -6.87893 0
M  V30 7626 H 728.731 -1.74965 -2.41228 0
M  V30 7627 H 726.268 -0.873169 -1.18381 0
M  V30 7628 H 728.226 -0.00213088 -4.172 0
M  V30 7629 H 726.856 0.560397 -3.17898 0
M  V30 7630 H 725.908 -1.8554 -3.32083 0
M  V30 7631 H 727.22 -2.23901 -4.45724 0
M  V30 7632 H 726.374 -0.500025 -6.04636 0
M  V30 7633 H 725.113 -0.0171219 -4.87697 0
M  V30 7634 H 724.118 -2.31946 -4.98479 0
M  V30 7635 H 725.343 -2.79704 -6.18823 0
M  V30 7636 H 723.289 -0.579873 -6.53432 0
M  V30 7637 H 723.206 -2.15825 -7.24538 0
M  V30 7638 H 724.474 -1.06852 -7.72142 0
M  V30 7639 N 728.703 1.26451 -0.940633 0
M  V30 7640 C 729.651 2.28389 -0.440581 0
M  V30 7641 C 730.645 1.62402 0.481859 0
M  V30 7642 O 731.851 1.76361 0.360132 0
M  V30 7643 H 728.226 0.741716 -0.123938 0
M  V30 7644 H 730.197 2.67967 -1.31288 0
M  V30 7645 C 728.946 3.46576 0.279364 0
M  V30 7646 H 728.269 3.97574 -0.421274 0
M  V30 7647 H 729.709 4.19826 0.59348 0
M  V30 7648 C 728.168 3.01815 1.49697 0
M  V30 7649 O 728.698 3.06607 2.59529 0
M  V30 7650 N 726.904 2.57163 1.35334 0
M  V30 7651 H 726.451 2.53464 0.459743 0
M  V30 7652 H 726.409 2.27578 2.16923 0
M  V30 7653 N 730.181 0.707592 1.40822 0
M  V30 7654 C 731.091 0.0507246 2.34545 0
M  V30 7655 C 732.107 -0.752727 1.56876 0
M  V30 7656 O 733.283 -0.687524 1.89302 0
M  V30 7657 C 730.348 -0.865731 3.35717 0
M  V30 7658 C 729.409 -0.0531313 4.29267 0
M  V30 7659 C 728.642 -0.925939 5.25606 0
M  V30 7660 O 728.865 -2.16531 5.27703 0
M  V30 7661 O 727.799 -0.369194 6.00767 0
M  V30 7662 H 731.625 0.823587 2.9232 0
M  V30 7663 H 729.21 0.46801 1.4188 0
M  V30 7664 H 731.092 -1.39091 3.97783 0
M  V30 7665 H 729.767 -1.61788 2.80368 0
M  V30 7666 H 728.674 0.516931 3.70511 0
M  V30 7667 H 730.007 0.660617 4.87747 0
M  V30 7668 N 731.66 -1.50943 0.453197 0
M  V30 7669 C 732.908 -2.01813 -0.107709 0
M  V30 7670 C 733.229 -1.33841 -1.41816 0
M  V30 7671 O 732.499 -0.477973 -1.8998 0
M  V30 7672 H 731.079 -0.745773 -0.0427948 0
M  V30 7673 H 733.741 -1.8545 0.599531 0
M  V30 7674 H 732.837 -3.10911 -0.27218 0
M  V30 7675 N 733.138 -0.185124 -1.56509 0
M  V30 7676 C 734.085 0.739729 -2.18624 0
M  V30 7677 C 735.055 1.217 -1.13042 0
M  V30 7678 O 736.24 1.28268 -1.41251 0
M  V30 7679 C 733.38 1.95787 -2.84186 0
M  V30 7680 C 732.493 1.52289 -4.04267 0
M  V30 7681 C 731.628 2.69576 -4.57714 0
M  V30 7682 C 730.667 2.22636 -5.70175 0
M  V30 7683 N 729.804 3.33065 -6.18071 0
M  V30 7684 H 734.644 0.203269 -2.97306 0
M  V30 7685 H 732.181 0.0885946 -1.46833 0
M  V30 7686 H 734.139 2.67253 -3.20361 0
M  V30 7687 H 732.769 2.4678 -2.08085 0
M  V30 7688 H 731.821 0.704458 -3.7382 0
M  V30 7689 H 733.133 1.13843 -4.85635 0
M  V30 7690 H 732.287 3.4918 -4.96143 0
M  V30 7691 H 731.026 3.1129 -3.75433 0
M  V30 7692 H 730.031 1.41483 -5.31284 0
M  V30 7693 H 731.256 1.81964 -6.54267 0
M  V30 7694 H 729.202 3.74328 -5.38715 0
M  V30 7695 H 729.119 2.98756 -6.94464 0
M  V30 7696 H 730.387 4.12912 -6.61153 0
M  V30 7697 N 734.616 1.57351 0.0885366 0
M  V30 7698 C 735.563 2.02523 1.10693 0
M  V30 7699 C 736.533 0.902736 1.39427 0
M  V30 7700 O 737.718 1.16921 1.50779 0
M  V30 7701 C 734.858 2.46013 2.42016 0
M  V30 7702 C 733.971 3.7181 2.19957 0
M  V30 7703 C 733.106 4.04152 3.44724 0
M  V30 7704 C 732.145 5.2304 3.17956 0
M  V30 7705 N 731.282 5.51102 4.35007 0
M  V30 7706 H 736.122 2.89302 0.714742 0
M  V30 7707 H 733.659 1.43084 0.341378 0
M  V30 7708 H 735.617 2.69274 3.18665 0
M  V30 7709 H 734.247 1.62235 2.79069 0
M  V30 7710 H 733.299 3.55987 1.34079 0
M  V30 7711 H 734.611 4.58604 1.96173 0
M  V30 7712 H 733.765 4.28225 4.29777 0
M  V30 7713 H 732.504 3.15893 3.71568 0
M  V30 7714 H 731.509 4.98781 2.31296 0
M  V30 7715 H 732.734 6.12902 2.92451 0
M  V30 7716 H 730.68 4.65802 4.61914 0
M  V30 7717 H 730.597 6.3228 4.14437 0
M  V30 7718 H 731.865 5.79714 5.21106 0
M  V30 7719 N 736.094 -0.359525 1.53444 0
M  V30 7720 C 737.342 -1.09935 1.69584 0
M  V30 7721 C 737.663 -1.89656 0.453371 0
M  V30 7722 O 736.933 -1.8852 -0.53263 0
M  V30 7723 H 735.513 -0.408843 0.625185 0
M  V30 7724 H 738.175 -0.40467 1.90653 0
M  V30 7725 H 737.271 -1.78575 2.55964 0
M  V30 7726 N 737.572 -1.44907 -0.619662 0
M  V30 7727 C 738.819 -1.48292 -1.37898 0
M  V30 7728 C 739.147 -0.119933 -1.9413 0
M  V30 7729 O 738.402 0.879834 -1.74807 0
M  V30 7730 C 738.701 -2.50002 -2.55409 0
M  V30 7731 C 738.367 -3.95031 -2.17397 0
M  V30 7732 C 737.029 -4.34524 -2.06743 0
M  V30 7733 C 739.381 -4.86287 -1.87548 0
M  V30 7734 C 736.709 -5.63183 -1.64445 0
M  V30 7735 C 739.061 -6.15346 -1.4674 0
M  V30 7736 C 737.725 -6.53781 -1.34636 0
M  V30 7737 H 736.995 -0.542638 -0.504603 0
M  V30 7738 H 739.642 -1.78186 -0.701581 0
M  V30 7739 H 737.947 -2.13634 -3.28433 0
M  V30 7740 H 739.644 -2.49864 -3.13639 0
M  V30 7741 H 736.234 -3.63793 -2.26611 0
M  V30 7742 H 740.418 -4.56522 -1.94682 0
M  V30 7743 H 735.674 -5.91769 -1.53687 0
M  V30 7744 H 739.848 -6.85508 -1.22685 0
M  V30 7745 H 737.475 -7.53375 -1.01634 0
M  V30 7746 N 739.05 0.861098 -1.31996 0
M  V30 7747 C 739.98 1.98482 -1.22993 0
M  V30 7748 C 740.961 1.6971 -0.115168 0
M  V30 7749 O 742.146 1.91849 -0.30126 0
M  V30 7750 C 739.276 3.34179 -0.945615 0
M  V30 7751 C 738.23 3.77284 -2.02091 0
M  V30 7752 C 737.556 5.1054 -1.58912 0
M  V30 7753 C 738.856 3.93439 -3.43515 0
M  V30 7754 H 740.55 2.06271 -2.17008 0
M  V30 7755 H 738.096 0.991043 -1.04472 0
M  V30 7756 H 740.049 4.12338 -0.869206 0
M  V30 7757 H 738.773 3.26586 0.0301849 0
M  V30 7758 H 737.432 3.01371 -2.08737 0
M  V30 7759 H 737.08 4.99397 -0.600942 0
M  V30 7760 H 736.78 5.40352 -2.30854 0
M  V30 7761 H 738.304 5.91199 -1.52696 0
M  V30 7762 H 739.718 4.6197 -3.39495 0
M  V30 7763 H 738.115 4.34661 -4.13751 0
M  V30 7764 H 739.185 2.96548 -3.8365 0
M  V30 7765 N 740.528 1.15101 1.07655 0
M  V30 7766 C 741.458 0.867864 2.16773 0
M  V30 7767 C 742.439 -0.180283 1.69142 0
M  V30 7768 O 743.624 -0.0353152 1.94168 0
M  V30 7769 C 740.754 0.35299 3.45501 0
M  V30 7770 C 739.708 1.33746 4.06566 0
M  V30 7771 C 739.034 0.681562 5.30338 0
M  V30 7772 C 740.334 2.7024 4.46954 0
M  V30 7773 H 742.028 1.78034 2.40716 0
M  V30 7774 H 739.574 0.857435 1.15689 0
M  V30 7775 H 741.527 0.142465 4.21159 0
M  V30 7776 H 740.251 -0.594945 3.21135 0
M  V30 7777 H 738.91 1.53429 3.32949 0
M  V30 7778 H 738.558 -0.272422 5.02262 0
M  V30 7779 H 738.258 1.33853 5.72151 0
M  V30 7780 H 739.782 0.48074 6.08705 0
M  V30 7781 H 741.196 2.5442 5.13754 0
M  V30 7782 H 739.593 3.32282 4.99709 0
M  V30 7783 H 740.663 3.26537 3.58471 0
M  V30 7784 N 742.006 -1.2595 0.947325 0
M  V30 7785 C 742.936 -2.28521 0.479604 0
M  V30 7786 C 743.917 -1.63469 -0.470293 0
M  V30 7787 O 745.102 -1.90627 -0.370824 0
M  V30 7788 C 742.232 -3.46397 -0.250289 0
M  V30 7789 C 741.186 -4.23578 0.613643 0
M  V30 7790 C 740.512 -5.34131 -0.246568 0
M  V30 7791 C 741.812 -4.86979 1.88809 0
M  V30 7792 H 743.506 -2.67895 1.33688 0
M  V30 7793 H 741.052 -1.28783 0.644274 0
M  V30 7794 H 743.005 -4.17269 -0.588576 0
M  V30 7795 H 741.729 -3.05993 -1.14175 0
M  V30 7796 H 740.388 -3.54478 0.93491 0
M  V30 7797 H 740.036 -4.89968 -1.13756 0
M  V30 7798 H 739.736 -5.86683 0.328123 0
M  V30 7799 H 741.26 -6.07839 -0.579986 0
M  V30 7800 H 742.674 -5.50034 1.61666 0
M  V30 7801 H 741.071 -5.49675 2.40784 0
M  V30 7802 H 742.141 -4.09575 2.5957 0
M  V30 7803 N 743.484 -0.715051 -1.40445 0
M  V30 7804 C 744.414 -0.0768699 -2.33373 0
M  V30 7805 C 745.395 0.746109 -1.52863 0
M  V30 7806 O 746.58 0.695142 -1.81332 0
M  V30 7807 C 743.71 0.846014 -3.36838 0
M  V30 7808 C 742.664 0.128694 -4.27806 0
M  V30 7809 C 741.99 1.16726 -5.21804 0
M  V30 7810 C 743.29 -1.01679 -5.12307 0
M  V30 7811 H 744.984 -0.853061 -2.8699 0
M  V30 7812 H 742.53 -0.41167 -1.3799 0
M  V30 7813 H 744.483 1.30185 -4.00786 0
M  V30 7814 H 743.207 1.6541 -2.81615 0
M  V30 7815 H 741.866 -0.307314 -3.6531 0
M  V30 7816 H 741.514 1.96838 -4.62887 0
M  V30 7817 H 741.214 0.692188 -5.83509 0
M  V30 7818 H 742.738 1.62321 -5.88629 0
M  V30 7819 H 744.152 -0.640337 -5.69713 0
M  V30 7820 H 742.549 -1.4202 -5.83053 0
M  V30 7821 H 743.619 -1.84769 -4.48317 0
M  V30 7822 N 744.962 1.50701 -0.461195 0
M  V30 7823 C 745.925 2.2686 0.326679 0
M  V30 7824 C 746.925 1.31243 0.929085 0
M  V30 7825 O 748.115 1.54754 0.799807 0
M  V30 7826 C 745.247 3.07844 1.46441 0
M  V30 7827 H 746.44 2.97954 -0.341095 0
M  V30 7828 H 743.993 1.54814 -0.214984 0
M  V30 7829 H 744.728 2.41223 2.16753 0
M  V30 7830 H 744.513 3.78101 1.03836 0
M  V30 7831 H 746.003 3.65469 2.02044 0
M  V30 7832 N 746.441 0.193421 1.56409 0
M  V30 7833 C 747.666 -0.454552 2.02358 0
M  V30 7834 C 748.091 -1.54516 1.07268 0
M  V30 7835 O 747.449 -1.81214 0.0558962 0
M  V30 7836 C 747.497 -0.989469 3.46759 0
M  V30 7837 O 746.601 -2.10244 3.54783 0
M  V30 7838 H 745.942 -0.106417 0.655417 0
M  V30 7839 H 748.472 0.303807 2.02332 0
M  V30 7840 H 748.482 -1.30649 3.86516 0
M  V30 7841 H 747.157 -0.191083 4.15461 0
M  V30 7842 H 745.734 -1.79419 3.26899 0
M  V30 7843 N 747.919 -1.57396 -0.0801906 0
M  V30 7844 C 749.33 -1.75642 -0.633002 0
M  V30 7845 C 749.681 -0.817708 -1.78348 0
M  V30 7846 O 748.806 0.000233743 -2.164 0
M  V30 7847 C 749.401 -3.18502 -1.15507 0
M  V30 7848 C 747.96 -3.38121 -1.65381 0
M  V30 7849 C 747.107 -2.71386 -0.569661 0
M  V30 7850 H 750.058 -1.58027 0.145949 0
M  V30 7851 H 750.079 -3.22198 -2.02408 0
M  V30 7852 H 749.591 -3.86799 -0.317515 0
M  V30 7853 H 747.692 -2.74926 -2.51488 0
M  V30 7854 H 747.805 -4.46521 -1.73654 0
M  V30 7855 H 746.169 -2.33702 -1.0127 0
M  V30 7856 H 746.952 -3.42332 0.257561 0
M  V30 7857 N 749.397 0.351382 -1.53633 0
M  V30 7858 C 750.622 1.11718 -1.74739 0
M  V30 7859 C 751.047 1.81829 -0.481657 0
M  V30 7860 O 750.405 1.72264 0.565233 0
M  V30 7861 C 750.453 2.11234 -2.92254 0
M  V30 7862 O 749.557 3.186 -2.61855 0
M  V30 7863 H 748.898 0.323482 -0.579875 0
M  V30 7864 H 751.428 0.404167 -2.00568 0
M  V30 7865 H 751.438 2.54591 -3.18822 0
M  V30 7866 H 750.113 1.59599 -3.84058 0
M  V30 7867 H 748.69 2.80115 -2.4615 0
M  V30 7868 N 750.875 1.45233 0.611969 0
M  V30 7869 C 751.838 1.53189 1.70487 0
M  V30 7870 C 752.838 0.411839 1.55437 0
M  V30 7871 O 754.028 0.675164 1.60584 0
M  V30 7872 C 751.16 1.42422 3.09723 0
M  V30 7873 H 752.353 2.5056 1.64802 0
M  V30 7874 H 749.906 1.32609 0.827318 0
M  V30 7875 H 750.641 0.462185 3.2099 0
M  V30 7876 H 750.426 2.23658 3.22055 0
M  V30 7877 H 751.916 1.51012 3.89339 0
M  V30 7878 N 752.353 -0.854086 1.3245 0
M  V30 7879 C 753.593 -1.62216 1.2436 0
M  V30 7880 C 753.957 -1.91042 -0.191564 0
M  V30 7881 O 755.158 -2.65864 -0.396211 0
M  V30 7882 C 753.429 -2.9066 2.0797 0
M  V30 7883 S 754.988 -3.81438 2.16911 0
M  V30 7884 H 751.806 -0.556386 0.442669 0
M  V30 7885 H 754.408 -1.01139 1.67305 0
M  V30 7886 H 753.112 -2.6743 3.11302 0
M  V30 7887 H 752.643 -3.56753 1.65805 0
M  V30 7888 H 754.658 -4.78347 1.31903 0
M  V30 7889 N 753.831 -1.1567 -1.07043 0
M  V30 7890 C 755.061 -0.956083 -1.83146 0
M  V30 7891 C 755.469 0.498969 -1.82502 0
M  V30 7892 O 754.812 1.35791 -1.23719 0
M  V30 7893 C 754.874 -1.39704 -3.31245 0
M  V30 7894 C 754.538 -2.87045 -3.55604 0
M  V30 7895 C 755.535 -3.85092 -3.49285 0
M  V30 7896 C 753.22 -3.24787 -3.8317 0
M  V30 7897 C 755.214 -5.18885 -3.70185 0
M  V30 7898 C 752.901 -4.58751 -4.03721 0
M  V30 7899 C 753.899 -5.55609 -3.97224 0
M  V30 7900 O 753.587 -6.87154 -4.17223 0
M  V30 7901 H 753.319 -0.339473 -0.58458 0
M  V30 7902 H 755.873 -1.53922 -1.36005 0
M  V30 7903 H 754.103 -0.757326 -3.79212 0
M  V30 7904 H 755.792 -1.16503 -3.88821 0
M  V30 7905 H 756.558 -3.5728 -3.27988 0
M  V30 7906 H 752.437 -2.49979 -3.87339 0
M  V30 7907 H 755.981 -5.94473 -3.6503 0
M  V30 7908 H 751.878 -4.86277 -4.24505 0
M  V30 7909 H 752.646 -6.93618 -4.34553 0
M  V30 7910 N 755.309 1.25446 -0.953992 0
M  V30 7911 C 756.256 2.25912 -0.472485 0
M  V30 7912 C 757.226 1.59173 0.47469 0
M  V30 7913 O 758.411 1.86812 0.388082 0
M  V30 7914 C 755.551 3.44235 0.244218 0
M  V30 7915 C 754.664 4.25613 -0.740121 0
M  V30 7916 C 753.799 5.312 -0.000922267 0
M  V30 7917 C 752.838 6.04265 -0.976236 0
M  V30 7918 N 751.975 7.01589 -0.267952 0
M  V30 7919 H 756.815 2.66469 -1.3341 0
M  V30 7920 H 754.352 1.31005 -0.669045 0
M  V30 7921 H 756.31 4.11682 0.676314 0
M  V30 7922 H 754.94 3.04554 1.06988 0
M  V30 7923 H 753.992 3.57834 -1.2907 0
M  V30 7924 H 755.304 4.762 -1.48441 0
M  V30 7925 H 754.458 6.04719 0.48984 0
M  V30 7926 H 753.197 4.81484 0.776159 0
M  V30 7927 H 752.202 5.29561 -1.478 0
M  V30 7928 H 753.427 6.5607 -1.75354 0
M  V30 7929 H 751.373 6.54164 0.490403 0
M  V30 7930 H 751.29 7.4999 -0.951344 0
M  V30 7931 H 752.558 7.7924 0.201294 0
M  V30 7932 N 756.787 0.722489 1.40064 0
M  V30 7933 C 757.717 0.0892452 2.33329 0
M  V30 7934 C 758.698 -0.737992 1.53257 0
M  V30 7935 O 759.883 -0.685516 1.81698 0
M  V30 7936 C 757.013 -0.828139 3.37282 0
M  V30 7937 C 755.967 -0.106005 4.27869 0
M  V30 7938 C 755.293 -1.13957 5.22415 0
M  V30 7939 C 756.593 1.04395 5.11761 0
M  V30 7940 H 758.287 0.868269 2.86534 0
M  V30 7941 H 755.833 0.418982 1.3777 0
M  V30 7942 H 757.786 -1.28058 4.01471 0
M  V30 7943 H 756.51 -1.63914 2.82489 0
M  V30 7944 H 755.169 0.326683 3.65142 0
M  V30 7945 H 754.817 -1.9438 4.63924 0
M  V30 7946 H 754.517 -0.661233 5.83868 0
M  V30 7947 H 756.041 -1.59197 5.89482 0
M  V30 7948 H 757.455 0.670541 5.69365 0
M  V30 7949 H 755.852 1.4511 5.82291 0
M  V30 7950 H 756.922 1.87144 4.47331 0
M  V30 7951 N 758.265 -1.50454 0.469181 0
M  V30 7952 C 759.512 -2.02315 -0.086469 0
M  V30 7953 C 759.84 -1.3513 -1.39893 0
M  V30 7954 O 759.095 -0.465341 -1.90087 0
M  V30 7955 C 759.394 -3.55963 -0.320207 0
M  V30 7956 C 759.06 -4.41615 0.910318 0
M  V30 7957 C 757.722 -4.64743 1.2477 0
M  V30 7958 C 760.074 -4.91661 1.72971 0
M  V30 7959 C 757.402 -5.35161 2.40457 0
M  V30 7960 C 759.754 -5.6335 2.87785 0
M  V30 7961 C 758.418 -5.84732 3.2194 0
M  V30 7962 H 757.688 -0.740324 -0.0316412 0
M  V30 7963 H 760.335 -1.81087 0.622872 0
M  V30 7964 H 758.64 -3.75695 -1.11177 0
M  V30 7965 H 760.337 -3.93653 -0.764071 0
M  V30 7966 H 756.927 -4.23833 0.637467 0
M  V30 7967 H 761.111 -4.73649 1.48224 0
M  V30 7968 H 756.367 -5.49924 2.67196 0
M  V30 7969 H 760.541 -6.0111 3.51624 0
M  V30 7970 H 758.168 -6.39074 4.1169 0
M  V30 7971 N 759.743 -0.201713 -1.56304 0
M  V30 7972 C 761.159 0.154025 -1.58855 0
M  V30 7973 C 761.359 1.60516 -1.21807 0
M  V30 7974 O 760.415 2.34193 -0.94393 0
M  V30 7975 C 761.728 -0.154319 -3.00304 0
M  V30 7976 C 763.276 -0.0949578 -3.12856 0
M  V30 7977 C 763.751 -0.376703 -4.56448 0
M  V30 7978 N 765.242 -0.325558 -4.62054 0
M  V30 7979 C 765.977 -0.51732 -5.71062 0
M  V30 7980 N 765.473 -0.769789 -6.8851 0
M  V30 7981 N 767.266 -0.45112 -5.60287 0
M  V30 7982 H 759.417 -1.14858 -1.78666 0
M  V30 7983 H 761.68 -0.458934 -0.829508 0
M  V30 7984 H 761.386 -1.16074 -3.31994 0
M  V30 7985 H 761.26 0.540014 -3.73314 0
M  V30 7986 H 763.647 0.902075 -2.80974 0
M  V30 7987 H 763.728 -0.822468 -2.42217 0
M  V30 7988 H 763.372 -1.37108 -4.89044 0
M  V30 7989 H 763.302 0.371772 -5.25286 0
M  V30 7990 H 765.793 -0.137308 -3.7765 0
M  V30 7991 H 766.106 -0.904744 -7.67486 0
M  V30 7992 H 764.451 -0.806758 -6.90302 0
M  V30 7993 H 767.642 -0.254253 -4.67409 0
M  V30 7994 H 767.815 -0.603982 -6.45179 0
M  V30 7995 N 761.222 1.57436 0.0718424 0
M  V30 7996 C 762.132 2.07039 1.10326 0
M  V30 7997 C 763.148 0.999918 1.424 0
M  V30 7998 O 764.324 1.31462 1.52577 0
M  V30 7999 C 761.389 2.50439 2.39752 0
M  V30 8000 C 760.45 3.71784 2.14651 0
M  V30 8001 C 759.683 4.13104 3.37906 0
M  V30 8002 O 759.906 3.54298 4.47023 0
M  V30 8003 O 758.84 5.05894 3.26121 0
M  V30 8004 H 762.666 2.95239 0.711872 0
M  V30 8005 H 760.251 1.46638 0.28597 0
M  V30 8006 H 762.133 2.78876 3.15921 0
M  V30 8007 H 760.808 1.65368 2.78271 0
M  V30 8008 H 759.715 3.48431 1.36187 0
M  V30 8009 H 761.048 4.57707 1.81012 0
M  V30 8010 N 762.7 -0.34323 1.53817 0
M  V30 8011 C 763.647 -1.42153 1.81827 0
M  V30 8012 C 764.617 -1.52251 0.663996 0
M  V30 8013 O 765.802 -1.67784 0.908461 0
M  V30 8014 C 762.942 -2.78799 2.03384 0
M  V30 8015 C 762.055 -2.7749 3.31094 0
M  V30 8016 C 761.19 -4.05856 3.42717 0
M  V30 8017 C 760.229 -3.98776 4.64375 0
M  V30 8018 N 759.366 -5.18833 4.73029 0
M  V30 8019 H 764.206 -1.17567 2.73829 0
M  V30 8020 H 761.743 -0.569506 1.35628 0
M  V30 8021 H 763.701 -3.58211 2.13872 0
M  V30 8022 H 762.331 -3.01736 1.14696 0
M  V30 8023 H 761.383 -1.90182 3.29446 0
M  V30 8024 H 762.695 -2.68137 4.206 0
M  V30 8025 H 761.849 -4.93691 3.52638 0
M  V30 8026 H 760.588 -4.1799 2.51267 0
M  V30 8027 H 759.593 -3.09325 4.5453 0
M  V30 8028 H 760.818 -3.88224 5.57189 0
M  V30 8029 H 758.764 -5.31511 3.84489 0
M  V30 8030 H 758.681 -5.11737 5.56472 0
M  V30 8031 H 759.949 -6.08439 4.87261 0
M  V30 8032 N 764.178 -1.45556 -0.604258 0
M  V30 8033 C 765.11 -1.50494 -1.72871 0
M  V30 8034 C 766.123 -0.395368 -1.57926 0
M  V30 8035 O 767.312 -0.662603 -1.65746 0
M  V30 8036 C 764.412 -1.34874 -3.10906 0
M  V30 8037 C 763.585 -2.59564 -3.52058 0
M  V30 8038 C 762.644 -2.38453 -4.6907 0
M  V30 8039 O 761.67 -3.12082 -4.76018 0
M  V30 8040 N 762.872 -1.43229 -5.62553 0
M  V30 8041 H 765.637 -2.4744 -1.69097 0
M  V30 8042 H 763.198 -1.41338 -0.789636 0
M  V30 8043 H 765.19 -1.18556 -3.86945 0
M  V30 8044 H 763.76 -0.461913 -3.09168 0
M  V30 8045 H 762.98 -2.90974 -2.65946 0
M  V30 8046 H 764.268 -3.42441 -3.76313 0
M  V30 8047 H 763.666 -0.824714 -5.59656 0
M  V30 8048 H 762.223 -1.32882 -6.38111 0
M  V30 8049 N 765.656 0.84705 -1.32902 0
M  V30 8050 C 766.603 1.95624 -1.22473 0
M  V30 8051 C 767.573 1.65767 -0.105178 0
M  V30 8052 O 768.758 1.88704 -0.282042 0
M  V30 8053 C 765.898 3.31434 -0.961542 0
M  V30 8054 C 765.011 3.73741 -2.1666 0
M  V30 8055 C 764.146 4.98379 -1.83825 0
M  V30 8056 C 763.185 5.33199 -3.00609 0
M  V30 8057 N 762.322 6.49014 -2.67816 0
M  V30 8058 H 767.162 2.03875 -2.17345 0
M  V30 8059 H 764.699 0.997764 -1.08088 0
M  V30 8060 H 766.657 4.09663 -0.789411 0
M  V30 8061 H 765.287 3.22762 -0.0495938 0
M  V30 8062 H 764.339 2.91102 -2.44875 0
M  V30 8063 H 765.651 3.95462 -3.03993 0
M  V30 8064 H 764.805 5.84336 -1.63208 0
M  V30 8065 H 763.544 4.78611 -0.937172 0
M  V30 8066 H 762.549 4.4575 -3.21849 0
M  V30 8067 H 763.774 5.5492 -3.9146 0
M  V30 8068 H 761.72 6.30748 -1.80258 0
M  V30 8069 H 761.637 6.7079 -3.48679 0
M  V30 8070 H 762.905 7.38103 -2.50647 0
M  V30 8071 N 767.134 1.16236 1.06428 0
M  V30 8072 C 768.044 0.881976 2.1739 0
M  V30 8073 C 769.06 -0.145259 1.73393 0
M  V30 8074 O 770.236 0.0310558 2.01376 0
M  V30 8075 C 767.301 0.385496 3.4455 0
M  V30 8076 C 766.362 1.47779 4.03063 0
M  V30 8077 C 765.595 1.0049 5.24154 0
M  V30 8078 O 765.818 -0.145889 5.70213 0
M  V30 8079 O 764.752 1.79265 5.74585 0
M  V30 8080 H 768.578 1.80983 2.43883 0
M  V30 8081 H 766.163 0.942226 1.15942 0
M  V30 8082 H 768.045 0.115536 4.21242 0
M  V30 8083 H 766.72 -0.514369 3.19587 0
M  V30 8084 H 765.627 1.80147 3.27869 0
M  V30 8085 H 766.96 2.35291 4.32318 0
M  V30 8086 N 768.612 -1.24939 0.960631 0
M  V30 8087 C 769.86 -1.92437 0.617441 0
M  V30 8088 C 770.181 -1.75543 -0.849101 0
M  V30 8089 O 769.451 -1.12269 -1.60538 0
M  V30 8090 H 768.031 -0.712192 0.225371 0
M  V30 8091 H 770.693 -1.5198 1.22017 0
M  V30 8092 H 769.789 -3.00247 0.851933 0
M  V30 8093 N 770.09 -0.729906 -1.39679 0
M  V30 8094 C 771.32 -0.285295 -2.04621 0
M  V30 8095 C 771.728 1.08304 -1.55135 0
M  V30 8096 O 771.071 1.6946 -0.709146 0
M  V30 8097 C 771.133 -0.203129 -3.58926 0
M  V30 8098 C 770.797 -1.50909 -4.31365 0
M  V30 8099 C 771.794 -2.45381 -4.58349 0
M  V30 8100 C 769.479 -1.77198 -4.70007 0
M  V30 8101 C 771.473 -3.64379 -5.22979 0
M  V30 8102 C 769.16 -2.96474 -5.34365 0
M  V30 8103 C 770.158 -3.89886 -5.60783 0
M  V30 8104 O 769.846 -5.07069 -6.23808 0
M  V30 8105 H 769.578 -0.123373 -0.664647 0
M  V30 8106 H 772.132 -0.992901 -1.79807 0
M  V30 8107 H 770.362 0.560538 -3.82616 0
M  V30 8108 H 772.051 0.208811 -4.05363 0
M  V30 8109 H 772.817 -2.2634 -4.28947 0
M  V30 8110 H 768.696 -1.05337 -4.48804 0
M  V30 8111 H 772.24 -4.37307 -5.43515 0
M  V30 8112 H 768.137 -3.15419 -5.63188 0
M  V30 8113 H 768.905 -5.07335 -6.42303 0
M  V30 8114 N 771.568 1.50203 -0.477153 0
M  V30 8115 C 772.816 2.01959 0.0755889 0
M  V30 8116 C 773.137 1.3608 1.39668 0
M  V30 8117 O 772.407 0.508136 1.89195 0
M  V30 8118 H 770.987 0.74636 0.0309248 0
M  V30 8119 H 773.649 1.84473 -0.628959 0
M  V30 8120 H 772.745 3.11305 0.222683 0
M  V30 8121 N 773.046 0.209999 1.56195 0
M  V30 8122 C 774.323 -0.473214 1.89789 0
M  V30 8123 C 774.703 -1.78581 1.1257 0
M  V30 8124 O 774.051 -2.27325 0.231398 0
M  V30 8125 C 774.261 -0.677458 3.42362 0
M  V30 8126 C 775.609 -0.990114 4.12895 0
M  V30 8127 O 776.633 -0.764655 3.47896 0
M  V30 8128 O 775.492 -1.41737 5.278 0
M  V30 8129 H 772.586 -0.248622 0.788743 0
M  V30 8130 H 775.132 0.251324 1.67829 0
M  V30 8131 H 773.904 0.248878 3.90508 0
M  V30 8132 H 773.527 -1.45391 3.70064 0
M  V30 8133 N 774.524 -1.57472 -0.0634922 0
M  V30 8134 C 775.487 -2.03268 -1.059 0
M  V30 8135 C 776.487 -0.931028 -1.31105 0
M  V30 8136 O 777.677 -1.19567 -1.26686 0
M  V30 8137 C 774.809 -2.42039 -2.40062 0
M  V30 8138 H 776.002 -2.92454 -0.664119 0
M  V30 8139 H 773.555 -1.53206 -0.309444 0
M  V30 8140 H 774.29 -1.55904 -2.84367 0
M  V30 8141 H 774.075 -3.22437 -2.23108 0
M  V30 8142 H 775.565 -2.78017 -3.11603 0
M  V30 8143 N 776.003 0.335068 -1.53997 0
M  V30 8144 C 776.933 1.41727 -1.85568 0
M  V30 8145 C 777.914 1.54505 -0.7115 0
M  V30 8146 O 779.099 1.68573 -0.964191 0
M  V30 8147 C 776.229 2.7866 -2.07282 0
M  V30 8148 C 775.183 2.80682 -3.23112 0
M  V30 8149 C 774.509 4.20581 -3.30175 0
M  V30 8150 C 775.809 2.45458 -4.61029 0
M  V30 8151 H 777.503 1.15555 -2.76202 0
M  V30 8152 H 775.049 0.554445 -1.32898 0
M  V30 8153 H 777.002 3.54423 -2.27952 0
M  V30 8154 H 775.726 3.06286 -1.13387 0
M  V30 8155 H 774.385 2.07373 -3.02311 0
M  V30 8156 H 774.033 4.4533 -2.33859 0
M  V30 8157 H 773.733 4.22843 -4.08016 0
M  V30 8158 H 775.257 4.98174 -3.53066 0
M  V30 8159 H 776.671 3.10934 -4.81656 0
M  V30 8160 H 775.068 2.5899 -5.41336 0
M  V30 8161 H 776.138 1.40628 -4.6406 0
M  V30 8162 N 777.481 1.45874 0.596531 0
M  V30 8163 C 778.411 1.5824 1.71705 0
M  V30 8164 C 779.392 0.433366 1.64487 0
M  V30 8165 O 780.577 0.657895 1.82717 0
M  V30 8166 C 777.707 1.55927 3.10329 0
M  V30 8167 C 776.661 2.69659 3.32367 0
M  V30 8168 C 775.987 2.52403 4.71377 0
M  V30 8169 C 777.287 4.11591 3.21544 0
M  V30 8170 H 778.981 2.52035 1.61613 0
M  V30 8171 H 776.527 1.21297 0.776082 0
M  V30 8172 H 778.48 1.63173 3.88526 0
M  V30 8173 H 777.204 0.586674 3.21288 0
M  V30 8174 H 775.863 2.61859 2.56564 0
M  V30 8175 H 775.511 1.53258 4.79083 0
M  V30 8176 H 775.211 3.28679 4.87077 0
M  V30 8177 H 776.735 2.6152 5.5176 0
M  V30 8178 H 778.149 4.20576 3.89601 0
M  V30 8179 H 776.546 4.88344 3.4877 0
M  V30 8180 H 777.616 4.32719 2.1882 0
M  V30 8181 N 778.959 -0.83999 1.33349 0
M  V30 8182 C 780.206 -1.59517 1.24742 0
M  V30 8183 C 780.534 -1.93598 -0.187077 0
M  V30 8184 O 779.789 -1.58782 -1.14398 0
M  V30 8185 C 780.088 -2.91571 2.06691 0
M  V30 8186 C 779.754 -2.76856 3.55895 0
M  V30 8187 C 778.416 -2.72551 3.96572 0
M  V30 8188 C 780.768 -2.61741 4.50712 0
M  V30 8189 C 778.096 -2.51028 5.30285 0
M  V30 8190 C 780.448 -2.41752 5.84584 0
M  V30 8191 C 779.112 -2.35848 6.24445 0
M  V30 8192 H 778.382 -0.583714 0.456463 0
M  V30 8193 H 781.029 -0.973261 1.64924 0
M  V30 8194 H 779.334 -3.57961 1.59284 0
M  V30 8195 H 781.031 -3.49053 1.9739 0
M  V30 8196 H 777.621 -2.81039 3.23597 0
M  V30 8197 H 781.805 -2.64102 4.20195 0
M  V30 8198 H 777.061 -2.44903 5.60208 0
M  V30 8199 H 781.235 -2.2904 6.57658 0
M  V30 8200 H 778.862 -2.18931 7.27993 0
M  V30 8201 N 780.437 -1.16799 -1.0581 0
M  V30 8202 C 781.714 -0.862616 -1.75551 0
M  V30 8203 C 782.094 0.6385 -2.01212 0
M  V30 8204 O 781.442 1.58784 -1.64317 0
M  V30 8205 C 781.652 -1.6907 -3.05314 0
M  V30 8206 C 783 -1.90675 -3.79379 0
M  V30 8207 O 784.024 -1.65976 -3.15167 0
M  V30 8208 O 782.883 -2.32145 -4.94743 0
M  V30 8209 H 779.977 -0.318789 -0.763088 0
M  V30 8210 H 782.523 -1.27461 -1.12034 0
M  V30 8211 H 781.295 -2.70912 -2.82352 0
M  V30 8212 H 780.918 -1.27606 -3.76567 0
M  V30 8213 N 781.915 1.24427 -0.967243 0
M  V30 8214 C 782.825 2.29109 -0.504592 0
M  V30 8215 C 783.841 1.68495 0.434224 0
M  V30 8216 O 785.017 1.99041 0.307379 0
M  V30 8217 C 782.082 3.46133 0.198273 0
M  V30 8218 C 781.143 4.22149 -0.780313 0
M  V30 8219 C 780.376 5.33585 -0.110896 0
M  V30 8220 O 780.599 5.59676 1.10088 0
M  V30 8221 O 779.533 5.96522 -0.802823 0
M  V30 8222 H 783.359 2.708 -1.37482 0
M  V30 8223 H 780.944 1.30111 -0.73426 0
M  V30 8224 H 782.826 4.17205 0.593124 0
M  V30 8225 H 781.501 3.0642 1.04347 0
M  V30 8226 H 780.408 3.53454 -1.22561 0
M  V30 8227 H 781.741 4.65677 -1.59392 0
M  V30 8228 N 783.393 0.737304 1.3929 0
M  V30 8229 C 784.323 0.113988 2.33222 0
M  V30 8230 C 785.304 -0.721695 1.54031 0
M  V30 8231 O 786.489 -0.666206 1.82415 0
M  V30 8232 C 783.619 -0.792319 3.38141 0
M  V30 8233 C 782.573 -0.0606178 4.27957 0
M  V30 8234 C 781.899 -1.08409 5.23595 0
M  V30 8235 C 783.199 1.09817 5.10625 0
M  V30 8236 H 784.893 0.898611 2.85596 0
M  V30 8237 H 782.439 0.433571 1.37318 0
M  V30 8238 H 784.392 -1.23793 4.02807 0
M  V30 8239 H 783.116 -1.60908 2.84211 0
M  V30 8240 H 781.775 0.365393 3.64775 0
M  V30 8241 H 781.423 -1.89449 4.6596 0
M  V30 8242 H 781.123 -0.599269 5.84536 0
M  V30 8243 H 782.647 -1.52936 5.91137 0
M  V30 8244 H 784.061 0.730892 5.68622 0
M  V30 8245 H 782.458 1.51278 5.80719 0
M  V30 8246 H 783.528 1.91878 4.45321 0
M  V30 8247 N 784.871 -1.49948 0.485112 0
M  V30 8248 C 786.287 -1.58984 0.140096 0
M  V30 8249 C 786.487 -1.49194 -1.35438 0
M  V30 8250 O 785.543 -1.35765 -2.12894 0
M  V30 8251 C 786.856 -2.92372 0.702769 0
M  V30 8252 C 788.404 -3.05801 0.66745 0
M  V30 8253 C 788.879 -4.41785 1.20791 0
M  V30 8254 N 790.37 -4.48234 1.16792 0
M  V30 8255 C 791.105 -5.51871 1.55646 0
M  V30 8256 N 790.601 -6.62692 2.02016 0
M  V30 8257 N 792.394 -5.42494 1.47161 0
M  V30 8258 H 784.545 -1.54555 1.45693 0
M  V30 8259 H 786.808 -0.731206 0.603359 0
M  V30 8260 H 786.514 -3.05056 1.75025 0
M  V30 8261 H 786.388 -3.76885 0.154205 0
M  V30 8262 H 788.775 -2.92757 -0.371157 0
M  V30 8263 H 788.856 -2.23011 1.25298 0
M  V30 8264 H 788.5 -4.55579 2.24522 0
M  V30 8265 H 788.43 -5.23188 0.598464 0
M  V30 8266 H 790.921 -3.68718 0.827982 0
M  V30 8267 H 791.234 -7.3785 2.29775 0
M  V30 8268 H 789.579 -6.63775 2.05979 0
M  V30 8269 H 792.77 -4.54806 1.10765 0
M  V30 8270 H 792.943 -6.2314 1.77766 0
M  V30 8271 N 786.349 -0.21828 -1.56081 0
M  V30 8272 C 787.312 0.679633 -2.18892 0
M  V30 8273 C 788.312 1.12405 -1.14986 0
M  V30 8274 O 789.502 1.03339 -1.40238 0
M  V30 8275 C 786.634 1.93063 -2.80962 0
M  V30 8276 H 787.827 0.132066 -2.99609 0
M  V30 8277 H 785.38 0.0313374 -1.56269 0
M  V30 8278 H 786.115 2.52015 -2.04106 0
M  V30 8279 H 785.9 1.62046 -3.57048 0
M  V30 8280 H 787.39 2.57043 -3.29118 0
M  V30 8281 N 787.827 1.57504 0.0551401 0
M  V30 8282 C 789.104 1.79155 0.785048 0
M  V30 8283 C 789.484 0.809995 1.94942 0
M  V30 8284 O 788.832 -0.153432 2.27984 0
M  V30 8285 C 789.042 3.26134 1.24247 0
M  V30 8286 C 790.39 3.90419 1.66908 0
M  V30 8287 O 791.414 3.30126 1.33772 0
M  V30 8288 O 790.273 4.96523 2.28314 0
M  V30 8289 H 787.367 0.735825 0.377479 0
M  V30 8290 H 789.913 1.69666 0.0339285 0
M  V30 8291 H 788.685 3.89145 0.410089 0
M  V30 8292 H 788.308 3.40411 2.05441 0
M  V30 8293 N 789.305 -0.326896 1.54172 0
M  V30 8294 C 790.237 -1.42319 1.79661 0
M  V30 8295 C 791.25 -1.47989 0.678456 0
M  V30 8296 O 792.439 -1.50773 0.955503 0
M  V30 8297 C 789.539 -2.80876 1.89636 0
M  V30 8298 C 788.712 -2.98449 3.19761 0
M  V30 8299 C 787.771 -4.17347 3.2048 0
M  V30 8300 O 786.797 -4.10667 3.94134 0
M  V30 8301 N 787.999 -5.26717 2.44027 0
M  V30 8302 H 790.764 -1.20819 2.74268 0
M  V30 8303 H 788.325 -0.516866 1.53428 0
M  V30 8304 H 790.317 -3.58619 1.87549 0
M  V30 8305 H 788.887 -2.95442 1.02141 0
M  V30 8306 H 788.107 -2.08035 3.34836 0
M  V30 8307 H 789.395 -3.07083 4.05681 0
M  V30 8308 H 788.793 -5.35019 1.8377 0
M  V30 8309 H 787.35 -6.02891 2.47721 0
M  V30 8310 N 790.784 -1.46188 -0.588786 0
M  V30 8311 C 791.714 -1.59148 -1.70863 0
M  V30 8312 C 792.695 -0.442083 -1.64255 0
M  V30 8313 O 793.88 -0.667575 -1.82365 0
M  V30 8314 C 791.01 -1.5757 -3.09498 0
M  V30 8315 C 789.964 -2.71418 -3.30932 0
M  V30 8316 C 789.29 -2.549 -4.70032 0
M  V30 8317 C 790.59 -4.1329 -3.19356 0
M  V30 8318 H 792.284 -2.52889 -1.60274 0
M  V30 8319 H 789.83 -1.21707 -0.769638 0
M  V30 8320 H 791.783 -1.65231 -3.87655 0
M  V30 8321 H 790.507 -0.603705 -3.20972 0
M  V30 8322 H 789.166 -2.63216 -2.55172 0
M  V30 8323 H 788.814 -1.55797 -4.78264 0
M  V30 8324 H 788.514 -3.31257 -4.85327 0
M  V30 8325 H 790.038 -2.64443 -5.50366 0
M  V30 8326 H 791.452 -4.22636 -3.87365 0
M  V30 8327 H 789.849 -4.90187 -3.46175 0
M  V30 8328 H 790.919 -4.33874 -2.16522 0
M  V30 8329 N 792.262 0.832906 -1.33792 0
M  V30 8330 C 793.192 1.95828 -1.27176 0
M  V30 8331 C 794.173 1.69427 -0.15114 0
M  V30 8332 O 795.358 1.91167 -0.341886 0
M  V30 8333 C 792.488 3.32098 -1.01629 0
M  V30 8334 C 791.442 3.72912 -2.10049 0
M  V30 8335 C 790.768 5.07054 -1.69706 0
M  V30 8336 C 792.068 3.86064 -3.51783 0
M  V30 8337 H 793.762 2.01622 -2.21334 0
M  V30 8338 H 791.308 0.96866 -1.0655 0
M  V30 8339 H 793.261 4.10402 -0.956474 0
M  V30 8340 H 791.985 3.26577 -0.0390956 0
M  V30 8341 H 790.644 2.96876 -2.15082 0
M  V30 8342 H 790.292 4.9801 -0.706737 0
M  V30 8343 H 789.992 5.35333 -2.42264 0
M  V30 8344 H 791.516 5.87827 -1.65202 0
M  V30 8345 H 792.93 4.54665 -3.49218 0
M  V30 8346 H 791.327 4.25787 -4.22878 0
M  V30 8347 H 792.397 2.88344 -3.89854 0
M  V30 8348 N 793.74 1.17359 1.05189 0
M  V30 8349 C 794.965 0.98709 1.82404 0
M  V30 8350 C 795.39 -0.459848 1.82392 0
M  V30 8351 O 794.748 -1.32924 1.23292 0
M  V30 8352 C 794.796 1.53276 3.26403 0
M  V30 8353 O 793.9 0.746541 4.05587 0
M  V30 8354 H 793.241 0.35047 0.563974 0
M  V30 8355 H 795.771 1.55856 1.32552 0
M  V30 8356 H 795.781 1.55504 3.77203 0
M  V30 8357 H 794.456 2.58603 3.25726 0
M  V30 8358 H 793.033 0.795671 3.64312 0
M  V30 8359 N 795.218 -1.23913 0.973828 0
M  V30 8360 C 796.166 -2.27141 0.50098 0
M  V30 8361 C 797.16 -1.63623 -0.438631 0
M  V30 8362 O 798.366 -1.77253 -0.313247 0
M  V30 8363 H 794.741 -0.73817 0.14356 0
M  V30 8364 H 796.712 -2.64392 1.38346 0
M  V30 8365 C 795.461 -3.47195 -0.187377 0
M  V30 8366 H 794.784 -3.96318 0.526535 0
M  V30 8367 H 796.224 -4.21252 -0.481962 0
M  V30 8368 C 794.683 -3.05678 -1.41642 0
M  V30 8369 O 795.213 -3.1338 -2.51309 0
M  V30 8370 N 793.419 -2.60661 -1.28469 0
M  V30 8371 H 792.966 -2.54594 -0.39238 0
M  V30 8372 H 792.924 -2.33249 -2.10813 0
M  V30 8373 N 796.696 -0.74468 -1.38897 0
M  V30 8374 C 797.944 -0.296298 -1.99916 0
M  V30 8375 C 798.265 1.12325 -1.59399 0
M  V30 8376 O 797.535 1.76658 -0.846689 0
M  V30 8377 H 796.115 -0.106561 -0.73936 0
M  V30 8378 H 798.777 -0.956793 -1.69798 0
M  V30 8379 H 797.873 -0.352356 -3.10105 0
M  V30 8380 N 798.174 1.49689 -0.493057 0
M  V30 8381 C 799.59 1.58907 -0.148526 0
M  V30 8382 C 799.79 1.4991 1.34645 0
M  V30 8383 O 798.846 1.36893 2.12171 0
M  V30 8384 C 800.159 2.91996 -0.718265 0
M  V30 8385 C 801.707 3.05443 -0.683658 0
M  V30 8386 C 802.182 4.41138 -1.23132 0
M  V30 8387 N 803.673 4.47608 -1.19167 0
M  V30 8388 C 804.408 5.51038 -1.5857 0
M  V30 8389 N 803.904 6.61612 -2.05528 0
M  V30 8390 N 805.697 5.41706 -1.50036 0
M  V30 8391 H 797.848 1.5378 -1.46511 0
M  V30 8392 H 800.111 0.727996 -0.607228 0
M  V30 8393 H 799.817 3.04123 -1.7664 0
M  V30 8394 H 799.691 3.76798 -0.17419 0
M  V30 8395 H 802.078 2.92949 0.355626 0
M  V30 8396 H 802.159 2.22344 -1.26479 0
M  V30 8397 H 801.803 4.54382 -2.26935 0
M  V30 8398 H 801.733 5.22864 -0.626201 0
M  V30 8399 H 804.224 3.68274 -0.847524 0
M  V30 8400 H 804.537 7.36622 -2.33685 0
M  V30 8401 H 802.882 6.62674 -2.09497 0
M  V30 8402 H 806.073 4.54212 -1.13176 0
M  V30 8403 H 806.246 6.22188 -1.81068 0
M  V30 8404 N 799.652 0.226554 1.55963 0
M  V30 8405 C 800.562 -0.692725 2.24139 0
M  V30 8406 C 801.578 -1.20971 1.25068 0
M  V30 8407 O 802.754 -1.25027 1.57893 0
M  V30 8408 C 799.819 -1.88183 2.91184 0
M  V30 8409 C 798.88 -1.40633 4.05612 0
M  V30 8410 C 798.113 -2.53875 4.6945 0
M  V30 8411 O 798.336 -3.72129 4.32292 0
M  V30 8412 O 797.27 -2.24792 5.58348 0
M  V30 8413 H 801.096 -0.141921 3.03368 0
M  V30 8414 H 798.681 -0.0041049 1.49399 0
M  V30 8415 H 800.563 -2.57617 3.33484 0
M  V30 8416 H 799.238 -2.42064 2.14911 0
M  V30 8417 H 798.145 -0.67986 3.67871 0
M  V30 8418 H 799.478 -0.913838 4.83642 0
M  V30 8419 N 801.13 -1.57531 -0.0467866 0
M  V30 8420 C 802.093 -2.04379 -1.03738 0
M  V30 8421 C 803.093 -0.944881 -1.3011 0
M  V30 8422 O 804.283 -1.20904 -1.25411 0
M  V30 8423 C 801.415 -2.44572 -2.37482 0
M  V30 8424 H 802.608 -2.93142 -0.633063 0
M  V30 8425 H 800.161 -1.53526 -0.293177 0
M  V30 8426 H 800.896 -1.58911 -2.82697 0
M  V30 8427 H 800.681 -3.24785 -2.19675 0
M  V30 8428 H 802.171 -2.81307 -3.08636 0
M  V30 8429 N 802.608 0.318715 -1.54344 0
M  V30 8430 C 803.555 1.39242 -1.84066 0
M  V30 8431 C 804.525 1.51175 -0.688134 0
M  V30 8432 O 805.71 1.66318 -0.935039 0
M  V30 8433 C 802.85 2.75528 -2.07794 0
M  V30 8434 C 801.963 2.72187 -3.35467 0
M  V30 8435 C 801.098 4.00352 -3.4913 0
M  V30 8436 C 800.137 3.91338 -4.7066 0
M  V30 8437 N 799.274 5.11242 -4.81224 0
M  V30 8438 H 804.114 1.13196 -2.75664 0
M  V30 8439 H 801.651 0.547857 -1.36517 0
M  V30 8440 H 803.609 3.54763 -2.19543 0
M  V30 8441 H 802.239 2.99873 -1.19482 0
M  V30 8442 H 801.291 1.84917 -3.3243 0
M  V30 8443 H 802.603 2.61411 -4.24812 0
M  V30 8444 H 801.757 4.88019 -3.60448 0
M  V30 8445 H 800.496 4.1394 -2.57886 0
M  V30 8446 H 799.501 3.02055 -4.59394 0
M  V30 8447 H 800.726 3.7931 -5.63294 0
M  V30 8448 H 798.672 5.25327 -3.92897 0
M  V30 8449 H 798.589 5.0282 -5.64543 0
M  V30 8450 H 799.857 6.0061 -4.96879 0
M  V30 8451 N 804.086 1.46499 0.581025 0
M  V30 8452 C 805.314 1.5547 1.36517 0
M  V30 8453 C 805.729 0.196407 1.87776 0
M  V30 8454 O 805.086 -0.806577 1.63709 0
M  V30 8455 C 805.137 2.56084 2.55154 0
M  V30 8456 O 804.858 3.86637 2.06018 0
M  V30 8457 C 806.359 2.75011 3.47683 0
M  V30 8458 H 803.579 0.525703 0.416986 0
M  V30 8459 H 806.123 1.9192 0.706177 0
M  V30 8460 H 804.278 2.22633 3.17039 0
M  V30 8461 H 804.692 4.41413 2.83292 0
M  V30 8462 H 806.166 3.49329 4.27403 0
M  V30 8463 H 806.643 1.81978 3.99726 0
M  V30 8464 H 807.249 3.09565 2.91632 0
M  V30 8465 N 805.565 -0.825799 1.34232 0
M  V30 8466 C 806.814 -1.57686 1.2577 0
M  V30 8467 C 807.127 -1.94848 -0.171372 0
M  V30 8468 O 808.333 -2.68854 -0.378123 0
M  V30 8469 C 806.789 -2.84478 2.20454 0
M  V30 8470 C 806.397 -2.54629 3.68603 0
M  V30 8471 C 808.141 -3.625 2.20893 0
M  V30 8472 C 806.048 -3.77597 4.55164 0
M  V30 8473 H 804.978 -0.591809 0.467203 0
M  V30 8474 H 807.629 -0.909421 1.59379 0
M  V30 8475 H 806.011 -3.52832 1.79793 0
M  V30 8476 H 807.185 -1.94404 4.17784 0
M  V30 8477 H 805.5 -1.89888 3.70582 0
M  V30 8478 H 808.097 -4.538 2.82789 0
M  V30 8479 H 808.44 -3.98404 1.20746 0
M  V30 8480 H 808.973 -3.01086 2.59985 0
M  V30 8481 H 805.712 -3.46815 5.56237 0
M  V30 8482 H 805.232 -4.37116 4.10719 0
M  V30 8483 H 806.911 -4.45039 4.69627 0
M  V30 8484 N 807.043 -1.17915 -1.04565 0
M  V30 8485 C 808.32 -0.881187 -1.74627 0
M  V30 8486 C 808.7 0.617123 -2.01878 0
M  V30 8487 O 808.048 1.57032 -1.65991 0
M  V30 8488 C 808.258 -1.72299 -3.03503 0
M  V30 8489 C 809.606 -1.94688 -3.77335 0
M  V30 8490 O 810.63 -1.6931 -3.13389 0
M  V30 8491 O 809.489 -2.37379 -4.92253 0
M  V30 8492 H 806.583 -0.326864 -0.759664 0
M  V30 8493 H 809.129 -1.28642 -1.10676 0
M  V30 8494 H 807.901 -2.73891 -2.79462 0
M  V30 8495 H 807.524 -1.31593 -3.75192 0
M  V30 8496 N 808.521 1.23394 -0.980386 0
M  V30 8497 C 809.453 2.24146 -0.478657 0
M  V30 8498 C 810.466 1.57303 0.419492 0
M  V30 8499 O 811.655 1.77094 0.223631 0
M  V30 8500 C 808.755 3.3732 0.326913 0
M  V30 8501 C 807.928 4.33744 -0.56436 0
M  V30 8502 C 806.987 5.25866 0.187358 0
M  V30 8503 O 806.013 5.67626 -0.423019 0
M  V30 8504 N 807.215 5.61492 1.47335 0
M  V30 8505 H 809.98 2.67826 -1.34496 0
M  V30 8506 H 807.541 1.37566 -0.853653 0
M  V30 8507 H 809.533 3.95926 0.838148 0
M  V30 8508 H 808.103 2.92823 1.09422 0
M  V30 8509 H 807.323 3.73641 -1.25642 0
M  V30 8510 H 808.611 4.95123 -1.17177 0
M  V30 8511 H 808.009 5.29514 1.99077 0
M  V30 8512 H 806.566 6.2257 1.93002 0
M  V30 8513 N 809.999 0.752036 1.385 0
M  V30 8514 C 810.929 0.138718 2.33088 0
M  V30 8515 C 811.91 -0.705318 1.54788 0
M  V30 8516 O 813.095 -0.646821 1.83112 0
M  V30 8517 C 810.225 -0.75641 3.38963 0
M  V30 8518 C 809.179 -0.0152239 4.27997 0
M  V30 8519 C 808.505 -1.0285 5.24715 0
M  V30 8520 C 809.805 1.15226 5.09431 0
M  V30 8521 H 811.499 0.928852 2.84627 0
M  V30 8522 H 809.045 0.448111 1.3685 0
M  V30 8523 H 810.998 -1.19513 4.04097 0
M  V30 8524 H 809.722 -1.57885 2.85902 0
M  V30 8525 H 808.381 0.404061 3.64366 0
M  V30 8526 H 808.029 -1.84496 4.67943 0
M  V30 8527 H 807.729 -0.537238 5.85139 0
M  V30 8528 H 809.253 -1.46657 5.92726 0
M  V30 8529 H 810.667 0.791161 5.67815 0
M  V30 8530 H 809.064 1.57428 5.79082 0
M  V30 8531 H 810.134 1.9659 4.43261 0
M  V30 8532 N 811.477 -1.49425 0.500989 0
M  V30 8533 C 812.407 -2.31971 -0.266775 0
M  V30 8534 C 813.388 -1.40245 -0.962563 0
M  V30 8535 O 814.573 -1.69154 -0.953968 0
M  V30 8536 C 811.703 -3.20757 -1.33163 0
M  V30 8537 C 810.657 -4.21275 -0.75572 0
M  V30 8538 C 809.983 -4.98997 -1.92109 0
M  V30 8539 C 811.283 -5.21686 0.253213 0
M  V30 8540 H 812.977 -2.96408 0.422237 0
M  V30 8541 H 810.523 -1.4254 0.204505 0
M  V30 8542 H 812.476 -3.77315 -1.87646 0
M  V30 8543 H 811.2 -2.54263 -2.04983 0
M  V30 8544 H 809.859 -3.65861 -0.232637 0
M  V30 8545 H 809.507 -4.28951 -2.62698 0
M  V30 8546 H 809.207 -5.67011 -1.54182 0
M  V30 8547 H 810.731 -5.584 -2.47026 0
M  V30 8548 H 812.145 -5.72939 -0.203483 0
M  V30 8549 H 810.542 -5.9759 0.548322 0
M  V30 8550 H 811.612 -4.70596 1.16909 0
M  V30 8551 N 812.955 -0.234822 -1.55841 0
M  V30 8552 C 813.918 0.656378 -2.196 0
M  V30 8553 C 814.918 1.11179 -1.16171 0
M  V30 8554 O 816.108 1.01845 -1.41326 0
M  V30 8555 C 813.24 1.90072 -2.82993 0
M  V30 8556 H 814.433 0.100281 -2.99732 0
M  V30 8557 H 811.986 0.0147613 -1.56293 0
M  V30 8558 H 812.721 2.49836 -2.06767 0
M  V30 8559 H 812.506 1.5825 -3.58747 0
M  V30 8560 H 813.996 2.53538 -3.31826 0
M  V30 8561 N 814.433 1.57553 0.0384317 0
M  V30 8562 C 815.71 1.79977 0.766002 0
M  V30 8563 C 816.09 0.830625 1.94072 0
M  V30 8564 O 815.438 -0.129243 2.28134 0
M  V30 8565 C 815.648 3.27434 1.20781 0
M  V30 8566 C 816.996 3.92167 1.62758 0
M  V30 8567 O 818.02 3.31527 1.30263 0
M  V30 8568 O 816.879 4.98917 2.23035 0
M  V30 8569 H 813.973 0.739787 0.369654 0
M  V30 8570 H 816.519 1.69693 0.0159312 0
M  V30 8571 H 815.291 3.89558 0.368792 0
M  V30 8572 H 814.914 3.42571 2.01819 0
M  V30 8573 N 815.911 -0.310526 1.54511 0
M  V30 8574 C 816.821 -1.4054 1.87844 0
M  V30 8575 C 817.837 -1.55954 0.771635 0
M  V30 8576 O 819.013 -1.70801 1.06719 0
M  V30 8577 C 816.078 -2.75063 2.11048 0
M  V30 8578 C 815.139 -2.68715 3.348 0
M  V30 8579 C 814.372 -3.96821 3.56887 0
M  V30 8580 O 814.595 -4.95721 2.82165 0
M  V30 8581 O 813.529 -3.99291 4.50389 0
M  V30 8582 H 817.355 -1.15275 2.80972 0
M  V30 8583 H 814.94 -0.505732 1.4058 0
M  V30 8584 H 816.822 -3.54671 2.27566 0
M  V30 8585 H 815.497 -3.00191 1.21108 0
M  V30 8586 H 814.404 -1.87611 3.23655 0
M  V30 8587 H 815.737 -2.4854 4.2484 0
M  V30 8588 N 817.389 -1.46805 -0.573248 0
M  V30 8589 C 818.614 -1.56433 -1.36175 0
M  V30 8590 C 819.039 -0.209336 -1.86932 0
M  V30 8591 O 818.397 0.812146 -1.62092 0
M  V30 8592 C 818.445 -2.58055 -2.51873 0
M  V30 8593 O 817.549 -2.12214 -3.53609 0
M  V30 8594 H 816.89 -0.526068 -0.405153 0
M  V30 8595 H 819.42 -1.92456 -0.694405 0
M  V30 8596 H 819.43 -2.77966 -2.98662 0
M  V30 8597 H 818.105 -3.56448 -2.14284 0
M  V30 8598 H 816.682 -2.02333 -3.13234 0
M  V30 8599 N 818.867 0.818669 -1.34668 0
M  V30 8600 C 819.797 1.94468 -1.29245 0
M  V30 8601 C 820.778 1.69257 -0.169101 0
M  V30 8602 O 821.963 1.90794 -0.362143 0
M  V30 8603 C 819.093 3.31001 -1.05145 0
M  V30 8604 C 818.047 3.70663 -2.13992 0
M  V30 8605 C 817.373 5.05226 -1.75074 0
M  V30 8606 C 818.673 3.82312 -3.55858 0
M  V30 8607 H 820.367 1.99263 -2.2346 0
M  V30 8608 H 817.913 0.957304 -1.07572 0
M  V30 8609 H 819.866 4.09364 -0.999949 0
M  V30 8610 H 818.59 3.26517 -0.0737312 0
M  V30 8611 H 817.249 2.94578 -2.18219 0
M  V30 8612 H 816.897 4.97233 -0.759518 0
M  V30 8613 H 816.597 5.32734 -2.47928 0
M  V30 8614 H 818.121 5.86042 -1.71427 0
M  V30 8615 H 819.535 4.50935 -3.5402 0
M  V30 8616 H 817.932 4.21278 -4.2737 0
M  V30 8617 H 819.002 2.84193 -3.9289 0
M  V30 8618 N 820.346 1.18468 1.03938 0
M  V30 8619 C 821.293 0.912859 2.1198 0
M  V30 8620 C 822.263 -0.14824 1.65437 0
M  V30 8621 O 823.448 -0.008331 1.90798 0
M  V30 8622 C 820.588 0.446114 3.42204 0
M  V30 8623 C 819.701 1.57278 4.02353 0
M  V30 8624 C 818.836 1.05863 5.20544 0
M  V30 8625 C 817.875 2.1599 5.72726 0
M  V30 8626 N 817.012 1.65959 6.82204 0
M  V30 8627 H 821.852 1.83798 2.34569 0
M  V30 8628 H 819.389 0.916504 1.15059 0
M  V30 8629 H 821.347 0.15697 4.16905 0
M  V30 8630 H 819.977 -0.442025 3.19759 0
M  V30 8631 H 819.029 1.97737 3.24968 0
M  V30 8632 H 820.341 2.40289 4.37107 0
M  V30 8633 H 819.495 0.724087 6.02364 0
M  V30 8634 H 818.234 0.198116 4.87297 0
M  V30 8635 H 817.239 2.50287 4.89527 0
M  V30 8636 H 818.464 3.02479 6.08016 0
M  V30 8637 H 816.41 0.82199 6.5083 0
M  V30 8638 H 816.327 2.42567 7.16029 0
M  V30 8639 H 817.595 1.35436 7.67644 0
M  V30 8640 N 821.824 -1.22873 0.986916 0
M  V30 8641 C 822.771 -2.2458 0.532215 0
M  V30 8642 C 823.741 -1.60375 -0.432322 0
M  V30 8643 O 824.926 -1.87775 -0.338416 0
M  V30 8644 C 822.066 -3.44761 -0.152864 0
M  V30 8645 C 821.179 -4.23501 0.852704 0
M  V30 8646 C 820.314 -5.31011 0.14176 0
M  V30 8647 C 819.353 -6.01464 1.1361 0
M  V30 8648 N 818.49 -7.00631 0.453871 0
M  V30 8649 H 823.33 -2.62838 1.40428 0
M  V30 8650 H 820.867 -1.29185 0.703543 0
M  V30 8651 H 822.825 -4.1333 -0.566926 0
M  V30 8652 H 821.455 -3.07284 -0.988756 0
M  V30 8653 H 820.507 -3.54286 1.38512 0
M  V30 8654 H 821.819 -4.72097 1.61014 0
M  V30 8655 H 820.973 -6.05805 -0.329337 0
M  V30 8656 H 819.712 -4.83373 -0.648229 0
M  V30 8657 H 818.717 -5.25456 1.61789 0
M  V30 8658 H 819.942 -6.5119 1.92686 0
M  V30 8659 H 817.888 -6.55235 -0.316791 0
M  V30 8660 H 817.805 -7.47204 1.14986 0
M  V30 8661 H 819.073 -7.795 0.00537823 0
M  V30 8662 N 823.302 -0.75937 -1.38099 0
M  V30 8663 C 824.234 -0.0956547 -2.29 0
M  V30 8664 C 825.247 0.677561 -1.4803 0
M  V30 8665 O 826.436 0.517696 -1.70828 0
M  V30 8666 C 823.536 0.88844 -3.27047 0
M  V30 8667 C 822.709 0.171652 -4.37063 0
M  V30 8668 C 821.768 1.06733 -5.15262 0
M  V30 8669 O 820.794 0.535698 -5.66674 0
M  V30 8670 N 821.996 2.39486 -5.28797 0
M  V30 8671 H 824.761 -0.876354 -2.86601 0
M  V30 8672 H 822.322 -0.61065 -1.49942 0
M  V30 8673 H 824.314 1.49079 -3.76241 0
M  V30 8674 H 822.884 1.57018 -2.70304 0
M  V30 8675 H 822.104 -0.611473 -3.89429 0
M  V30 8676 H 823.392 -0.324121 -5.07767 0
M  V30 8677 H 822.79 2.85127 -4.88589 0
M  V30 8678 H 821.347 2.94758 -5.81344 0
M  V30 8679 N 824.78 1.49157 -0.508906 0
M  V30 8680 C 825.728 2.30922 0.278906 0
M  V30 8681 C 826.722 1.39889 0.955382 0
M  V30 8682 O 827.928 1.56901 0.882169 0
M  V30 8683 H 824.303 0.744087 0.108805 0
M  V30 8684 H 826.274 2.95277 -0.430583 0
M  V30 8685 C 825.023 3.21432 1.32576 0
M  V30 8686 H 824.346 3.91413 0.814634 0
M  V30 8687 H 825.786 3.81568 1.84882 0
M  V30 8688 C 824.245 2.41583 2.34817 0
M  V30 8689 O 824.775 2.1256 3.40854 0
M  V30 8690 N 822.981 2.03462 2.07489 0
M  V30 8691 H 822.528 2.27265 1.21278 0
M  V30 8692 H 822.486 1.50345 2.76123 0
M  V30 8693 N 826.258 0.243083 1.55714 0
M  V30 8694 C 827.168 -0.668913 2.24862 0
M  V30 8695 C 828.184 -1.19638 1.26344 0
M  V30 8696 O 829.36 -1.23345 1.5921 0
M  V30 8697 C 826.425 -1.85084 2.93163 0
M  V30 8698 C 825.486 -1.36323 4.07081 0
M  V30 8699 C 824.719 -2.48882 4.72116 0
M  V30 8700 O 824.942 -3.67523 4.36214 0
M  V30 8701 O 823.876 -2.18857 5.60701 0
M  V30 8702 H 827.702 -0.109737 3.03502 0
M  V30 8703 H 825.287 0.0117411 1.49395 0
M  V30 8704 H 827.169 -2.54065 3.36197 0
M  V30 8705 H 825.844 -2.39771 2.17466 0
M  V30 8706 H 824.751 -0.640804 3.68571 0
M  V30 8707 H 826.084 -0.86249 4.84584 0
M  V30 8708 N 827.736 -1.57571 -0.0300757 0
M  V30 8709 C 828.966 -1.93204 -0.731828 0
M  V30 8710 C 829.374 -0.841156 -1.69473 0
M  V30 8711 O 828.717 0.191231 -1.82702 0
M  V30 8712 C 828.779 -3.2463 -1.54453 0
M  V30 8713 C 828.443 -4.50862 -0.746507 0
M  V30 8714 C 829.44 -5.19879 -0.0472309 0
M  V30 8715 C 827.125 -4.9738 -0.701347 0
M  V30 8716 C 829.119 -6.33692 0.686518 0
M  V30 8717 C 826.806 -6.11089 0.036148 0
M  V30 8718 C 827.804 -6.791 0.728841 0
M  V30 8719 O 827.492 -7.90635 1.45436 0
M  V30 8720 H 827.224 -0.6423 -0.210775 0
M  V30 8721 H 829.778 -2.05398 0.00804194 0
M  V30 8722 H 828.008 -3.0876 -2.32818 0
M  V30 8723 H 829.697 -3.45597 -2.1288 0
M  V30 8724 H 830.463 -4.84945 -0.0731582 0
M  V30 8725 H 826.342 -4.44288 -1.23001 0
M  V30 8726 H 829.886 -6.86711 1.22773 0
M  V30 8727 H 825.783 -6.45468 0.064002 0
M  V30 8728 H 826.551 -8.06988 1.36794 0
M  V30 8729 N 829.214 0.302327 -1.54673 0
M  V30 8730 C 830.46 1.03924 -1.74149 0
M  V30 8731 C 830.793 1.86968 -0.525041 0
M  V30 8732 O 830.068 1.88538 0.477868 0
M  V30 8733 C 830.351 1.94633 -3.02969 0
M  V30 8734 C 830.204 1.14778 -4.34909 0
M  V30 8735 C 831.523 2.93826 -3.27649 0
M  V30 8736 H 828.642 0.376405 -0.633631 0
M  V30 8737 H 831.284 0.314007 -1.87387 0
M  V30 8738 H 829.434 2.56471 -2.91813 0
M  V30 8739 H 831.106 0.552363 -4.57981 0
M  V30 8740 H 829.349 0.450462 -4.31455 0
M  V30 8741 H 830.02 1.81495 -5.21309 0
M  V30 8742 H 832.496 2.42117 -3.38406 0
M  V30 8743 H 831.372 3.54462 -4.19104 0
M  V30 8744 H 831.633 3.67416 -2.45882 0
M  V30 8745 N 830.692 1.47107 0.565454 0
M  V30 8746 C 831.602 1.61591 1.70075 0
M  V30 8747 C 832.618 0.498931 1.66693 0
M  V30 8748 O 833.794 0.765372 1.8629 0
M  V30 8749 C 830.859 1.61887 3.06583 0
M  V30 8750 C 829.92 2.84949 3.21096 0
M  V30 8751 C 829.153 2.85221 4.51093 0
M  V30 8752 O 829.376 1.94959 5.36048 0
M  V30 8753 O 828.31 3.76982 4.69221 0
M  V30 8754 H 832.136 2.57638 1.60799 0
M  V30 8755 H 829.721 1.30097 0.73451 0
M  V30 8756 H 831.603 1.64809 3.87835 0
M  V30 8757 H 830.278 0.69005 3.16259 0
M  V30 8758 H 829.185 2.87575 2.39273 0
M  V30 8759 H 830.518 3.77098 3.1632 0
M  V30 8760 N 832.17 -0.811516 1.35101 0
M  V30 8761 C 833.117 -1.92308 1.27617 0
M  V30 8762 C 834.087 -1.6543 0.149091 0
M  V30 8763 O 835.272 -1.8789 0.331974 0
M  V30 8764 C 832.412 -3.28768 1.04908 0
M  V30 8765 C 831.525 -3.67865 2.26493 0
M  V30 8766 C 830.66 -4.9333 1.96974 0
M  V30 8767 C 829.699 -5.25041 3.1464 0
M  V30 8768 N 828.836 -6.41685 2.84929 0
M  V30 8769 H 833.676 -1.98041 2.22674 0
M  V30 8770 H 831.213 -0.968755 1.10696 0
M  V30 8771 H 833.171 -4.07426 0.897749 0
M  V30 8772 H 831.801 -3.22517 0.135151 0
M  V30 8773 H 830.853 -2.84507 2.52507 0
M  V30 8774 H 832.165 -3.87263 3.14371 0
M  V30 8775 H 831.319 -5.79803 1.78643 0
M  V30 8776 H 830.058 -4.75958 1.06374 0
M  V30 8777 H 829.063 -4.3706 3.33554 0
M  V30 8778 H 830.288 -5.44346 4.06035 0
M  V30 8779 H 828.234 -6.25747 1.96918 0
M  V30 8780 H 828.151 -6.6131 3.66341 0
M  V30 8781 H 829.419 -7.31198 2.70128 0
M  V30 8782 N 833.648 -1.19017 -1.03309 0
M  V30 8783 C 834.888 -1.00129 -1.78195 0
M  V30 8784 C 835.252 0.460236 -1.86402 0
M  V30 8785 O 836.453 0.768802 -2.57571 0
M  V30 8786 C 834.724 -1.64703 -3.17187 0
M  V30 8787 S 836.283 -1.60695 -4.08317 0
M  V30 8788 H 833.101 -0.359395 -0.613479 0
M  V30 8789 H 835.703 -1.51293 -1.23818 0
M  V30 8790 H 834.407 -2.70283 -3.08829 0
M  V30 8791 H 833.938 -1.136 -3.76641 0
M  V30 8792 H 835.953 -0.628171 -4.92208 0
M  V30 8793 N 835.127 1.22348 -0.993418 0
M  V30 8794 C 836.376 1.90422 -0.665019 0
M  V30 8795 C 836.689 1.78199 0.806512 0
M  V30 8796 O 837.895 2.41193 1.24652 0
M  V30 8797 C 836.351 3.41403 -1.13893 0
M  V30 8798 C 835.959 3.62262 -2.63572 0
M  V30 8799 C 837.703 4.15175 -0.884884 0
M  V30 8800 C 835.61 5.06947 -3.04564 0
M  V30 8801 H 834.54 0.713073 -0.245037 0
M  V30 8802 H 837.191 1.3856 -1.20305 0
M  V30 8803 H 835.573 3.9245 -0.529027 0
M  V30 8804 H 836.747 3.21705 -3.29913 0
M  V30 8805 H 835.062 3.01824 -2.86865 0
M  V30 8806 H 837.659 5.21813 -1.16684 0
M  V30 8807 H 838.002 4.15915 0.178982 0
M  V30 8808 H 838.535 3.70157 -1.45701 0
M  V30 8809 H 835.274 5.11346 -4.10128 0
M  V30 8810 H 834.794 5.48404 -2.42927 0
M  V30 8811 H 836.473 5.75374 -2.95894 0
M  V30 8812 N 836.605 0.766683 1.37694 0
M  V30 8813 C 837.555 0.123173 2.27667 0
M  V30 8814 C 838.539 -0.679436 1.45851 0
M  V30 8815 O 839.731 -0.54324 1.68457 0
M  V30 8816 C 836.86 -0.759064 3.34803 0
M  V30 8817 C 835.946 0.0511009 4.24069 0
M  V30 8818 N 836.337 1.09418 4.93823 0
M  V30 8819 C 834.635 -0.173675 4.45662 0
M  V30 8820 C 835.336 1.58546 5.59677 0
M  V30 8821 N 834.312 0.898503 5.36123 0
M  V30 8822 H 838.114 0.921859 2.79068 0
M  V30 8823 H 835.628 0.603957 1.50752 0
M  V30 8824 H 837.625 -1.23581 3.98163 0
M  V30 8825 H 836.285 -1.55655 2.84959 0
M  V30 8826 H 837.296 1.47623 4.96415 0
M  V30 8827 H 833.973 -0.943473 4.067 0
M  V30 8828 H 835.363 2.45504 6.25442 0
M  V30 8829 N 838.083 -1.48885 0.516809 0
M  V30 8830 C 839.013 -2.32241 -0.242157 0
M  V30 8831 C 839.994 -1.41258 -0.947633 0
M  V30 8832 O 841.179 -1.70156 -0.935973 0
M  V30 8833 C 838.309 -3.22151 -1.29754 0
M  V30 8834 C 837.263 -4.22053 -0.710995 0
M  V30 8835 C 836.589 -5.01007 -1.86806 0
M  V30 8836 C 837.889 -5.21388 0.30853 0
M  V30 8837 H 839.583 -2.95943 0.453651 0
M  V30 8838 H 837.129 -1.42316 0.219612 0
M  V30 8839 H 839.082 -3.79284 -1.83634 0
M  V30 8840 H 837.806 -2.56423 -2.02274 0
M  V30 8841 H 836.465 -3.66087 -0.193819 0
M  V30 8842 H 836.113 -4.31713 -2.58133 0
M  V30 8843 H 835.813 -5.68615 -1.48159 0
M  V30 8844 H 837.337 -5.60989 -2.4109 0
M  V30 8845 H 838.751 -5.73122 -0.142703 0
M  V30 8846 H 837.148 -5.96975 0.611673 0
M  V30 8847 H 838.218 -4.69329 1.21894 0
M  V30 8848 N 839.561 -0.251338 -1.55583 0
M  V30 8849 C 840.509 0.662534 -2.22965 0
M  V30 8850 C 841.503 1.17662 -1.21869 0
M  V30 8851 O 842.709 1.133 -1.39868 0
M  V30 8852 H 839.084 0.232151 -0.715269 0
M  V30 8853 H 841.055 0.0711252 -2.98315 0
M  V30 8854 C 839.804 1.84646 -2.94621 0
M  V30 8855 H 839.127 1.46003 -3.72187 0
M  V30 8856 H 840.567 2.46303 -3.45124 0
M  V30 8857 C 839.026 2.72034 -1.98744 0
M  V30 8858 O 839.556 3.71695 -1.52335 0
M  V30 8859 N 837.762 2.38695 -1.6575 0
M  V30 8860 H 837.309 1.57702 -2.03685 0
M  V30 8861 H 837.267 2.9744 -1.01867 0
M  V30 8862 N 841.039 1.57585 0.0217189 0
M  V30 8863 C 842.455 1.55072 0.377484 0
M  V30 8864 C 842.655 0.978423 1.76151 0
M  V30 8865 O 841.711 0.602688 2.45202 0
M  V30 8866 C 843.024 2.99462 0.272605 0
M  V30 8867 C 844.572 3.11047 0.349148 0
M  V30 8868 C 845.047 4.57182 0.273636 0
M  V30 8869 N 846.538 4.62007 0.332206 0
M  V30 8870 C 847.273 5.72631 0.296782 0
M  V30 8871 N 846.769 6.92472 0.21322 0
M  V30 8872 N 848.562 5.61028 0.347053 0
M  V30 8873 H 840.713 1.93133 -0.883925 0
M  V30 8874 H 842.976 0.886151 -0.33681 0
M  V30 8875 H 842.682 3.45088 -0.67878 0
M  V30 8876 H 842.556 3.61901 1.06335 0
M  V30 8877 H 844.943 2.65364 1.29097 0
M  V30 8878 H 845.024 2.51425 -0.471085 0
M  V30 8879 H 844.668 5.03534 -0.664548 0
M  V30 8880 H 844.598 5.14724 1.11207 0
M  V30 8881 H 847.089 3.75788 0.399003 0
M  V30 8882 H 847.402 7.72563 0.191492 0
M  V30 8883 H 845.747 6.94769 0.179161 0
M  V30 8884 H 848.938 4.66298 0.410378 0
M  V30 8885 H 849.111 6.47229 0.315979 0
M  V30 8886 N 842.517 -0.29412 1.54831 0
M  V30 8887 C 843.794 -1.04847 1.65126 0
M  V30 8888 C 844.174 -2.04996 0.503986 0
M  V30 8889 O 843.522 -2.22996 -0.498496 0
M  V30 8890 C 843.732 -1.72418 3.03435 0
M  V30 8891 C 845.08 -2.24362 3.60481 0
M  V30 8892 O 846.104 -1.8244 3.05932 0
M  V30 8893 O 844.963 -3.01196 4.56008 0
M  V30 8894 H 842.057 -0.485032 0.669831 0
M  V30 8895 H 844.603 -0.291659 1.67175 0
M  V30 8896 H 843.375 -0.997351 3.78376 0
M  V30 8897 H 842.998 -2.54839 3.05193 0
M  V30 8898 N 843.995 -1.47404 -0.557645 0
M  V30 8899 C 845.244 -1.53268 -1.31118 0
M  V30 8900 C 845.557 -0.199414 -1.94581 0
M  V30 8901 O 846.763 -0.136039 -2.71159 0
M  V30 8902 C 845.219 -2.70178 -2.37764 0
M  V30 8903 C 844.827 -4.10032 -1.80493 0
M  V30 8904 C 846.571 -2.85334 -3.14301 0
M  V30 8905 C 844.478 -5.18244 -2.84916 0
M  V30 8906 H 843.408 -0.570491 -0.493007 0
M  V30 8907 H 846.059 -1.73678 -0.592308 0
M  V30 8908 H 844.441 -2.43147 -3.12563 0
M  V30 8909 H 845.615 -4.46964 -1.12069 0
M  V30 8910 H 843.93 -3.99759 -1.16542 0
M  V30 8911 H 846.527 -3.63347 -3.92279 0
M  V30 8912 H 846.87 -1.93761 -3.68459 0
M  V30 8913 H 847.403 -3.12133 -2.46613 0
M  V30 8914 H 844.142 -6.11691 -2.35614 0
M  V30 8915 H 843.662 -4.85829 -3.51753 0
M  V30 8916 H 845.341 -5.45174 -3.48417 0
M  V30 8917 N 845.473 0.80434 -1.35529 0
M  V30 8918 C 846.403 1.93086 -1.31301 0
M  V30 8919 C 847.384 1.69068 -0.187044 0
M  V30 8920 O 848.569 1.90399 -0.382359 0
M  V30 8921 C 845.699 3.29867 -1.0865 0
M  V30 8922 C 844.653 3.68373 -2.17911 0
M  V30 8923 C 843.979 5.0334 -1.80423 0
M  V30 8924 C 845.279 3.78516 -3.59893 0
M  V30 8925 H 846.973 1.96882 -2.25561 0
M  V30 8926 H 844.519 0.945841 -1.08581 0
M  V30 8927 H 846.472 4.08281 -1.04331 0
M  V30 8928 H 845.196 3.2642 -0.108359 0
M  V30 8929 H 843.855 2.92247 -2.21331 0
M  V30 8930 H 843.503 4.96399 -0.812213 0
M  V30 8931 H 843.203 5.30074 -2.53565 0
M  V30 8932 H 844.727 5.84191 -1.77633 0
M  V30 8933 H 846.141 4.47155 -3.58783 0
M  V30 8934 H 844.538 4.16721 -4.31814 0
M  V30 8935 H 845.608 2.8001 -3.95882 0
M  V30 8936 N 846.951 1.19563 1.02676 0
M  V30 8937 C 847.898 0.935291 2.11 0
M  V30 8938 C 848.868 -0.130685 1.65585 0
M  V30 8939 O 850.053 0.0119062 1.90796 0
M  V30 8940 C 847.193 0.482384 3.41712 0
M  V30 8941 C 846.306 1.61537 4.00662 0
M  V30 8942 C 845.441 1.11378 5.19392 0
M  V30 8943 C 844.48 2.22052 5.70403 0
M  V30 8944 N 843.617 1.73185 6.80405 0
M  V30 8945 H 848.457 1.86275 2.32606 0
M  V30 8946 H 845.994 0.928656 1.14081 0
M  V30 8947 H 847.952 0.20118 4.16715 0
M  V30 8948 H 846.582 -0.408086 3.2021 0
M  V30 8949 H 845.634 2.01173 3.22852 0
M  V30 8950 H 846.946 2.44912 4.34534 0
M  V30 8951 H 846.1 0.787935 6.01562 0
M  V30 8952 H 844.839 0.249789 4.8706 0
M  V30 8953 H 843.844 2.55465 4.86845 0
M  V30 8954 H 845.069 3.08911 6.04774 0
M  V30 8955 H 843.015 0.890973 6.49921 0
M  V30 8956 H 842.932 2.50148 7.13416 0
M  V30 8957 H 844.2 1.4357 7.66164 0
M  V30 8958 N 848.429 -1.21819 0.999893 0
M  V30 8959 C 849.657 -1.94758 0.698359 0
M  V30 8960 C 850.072 -1.73771 -0.738183 0
M  V30 8961 O 849.429 -1.04113 -1.49889 0
M  V30 8962 C 849.48 -3.47292 1.00353 0
M  V30 8963 O 849.201 -3.67579 2.38363 0
M  V30 8964 C 850.702 -4.37403 0.72068 0
M  V30 8965 H 847.922 -0.619512 0.257771 0
M  V30 8966 H 850.466 -1.54778 1.33656 0
M  V30 8967 H 848.621 -3.85213 0.411018 0
M  V30 8968 H 849.035 -4.61719 2.48829 0
M  V30 8969 H 850.509 -5.43151 0.984422 0
M  V30 8970 H 850.986 -4.3784 -0.345309 0
M  V30 8971 H 851.592 -4.05119 1.29456 0
M  V30 8972 N 849.908 -0.773975 -1.37286 0
M  V30 8973 C 850.818 -0.162571 -2.34036 0
M  V30 8974 C 851.834 0.677022 -1.60289 0
M  V30 8975 O 853.01 0.596423 -1.92366 0
M  V30 8976 C 850.075 0.70457 -3.39465 0
M  V30 8977 C 849.136 -0.151738 -4.29032 0
M  V30 8978 C 848.369 0.674111 -5.29426 0
M  V30 8979 O 848.592 1.91107 -5.37433 0
M  V30 8980 O 847.526 0.0821398 -6.01844 0
M  V30 8981 H 851.352 -0.962119 -2.88057 0
M  V30 8982 H 848.937 -0.53517 -1.39486 0
M  V30 8983 H 850.819 1.19954 -4.03967 0
M  V30 8984 H 849.494 1.48227 -2.87768 0
M  V30 8985 H 848.401 -0.693118 -3.67623 0
M  V30 8986 H 849.734 -0.892575 -4.84039 0
M  V30 8987 N 851.386 1.48609 -0.524698 0
M  V30 8988 C 852.316 2.32366 0.229837 0
M  V30 8989 C 853.297 1.41759 0.940129 0
M  V30 8990 O 854.482 1.7065 0.926936 0
M  V30 8991 C 851.612 3.22835 1.28043 0
M  V30 8992 C 850.566 4.22424 0.688603 0
M  V30 8993 C 849.892 5.0199 1.84146 0
M  V30 8994 C 851.192 5.21217 -0.336176 0
M  V30 8995 H 852.886 2.95698 -0.469339 0
M  V30 8996 H 850.432 1.42197 -0.227156 0
M  V30 8997 H 852.385 3.80253 1.8162 0
M  V30 8998 H 851.109 2.57492 2.00912 0
M  V30 8999 H 849.768 3.66185 0.174402 0
M  V30 9000 H 849.416 4.33076 2.5584 0
M  V30 9001 H 849.116 5.69392 1.45142 0
M  V30 9002 H 850.64 5.62259 2.38111 0
M  V30 9003 H 852.054 5.7319 0.112307 0
M  V30 9004 H 850.451 5.96642 -0.643324 0
M  V30 9005 H 851.521 4.68676 -1.24381 0
M  V30 9006 N 852.864 0.259585 1.55447 0
M  V30 9007 C 854.112 -0.360893 1.98852 0
M  V30 9008 C 854.433 -1.57535 1.14924 0
M  V30 9009 O 853.703 -1.94485 0.235025 0
M  V30 9010 H 852.283 -0.136332 0.734454 0
M  V30 9011 H 854.945 0.361319 1.91522 0
M  V30 9012 H 854.041 -0.661388 3.05012 0
M  V30 9013 N 854.342 -1.57594 -0.0133615 0
M  V30 9014 C 855.272 -2.10611 -1.00823 0
M  V30 9015 C 856.253 -1.01217 -1.36708 0
M  V30 9016 O 857.438 -1.28827 -1.45318 0
M  V30 9017 C 854.568 -2.59844 -2.30431 0
M  V30 9018 C 853.522 -3.73644 -2.08745 0
M  V30 9019 C 852.848 -4.09141 -3.4425 0
M  V30 9020 C 854.148 -5.01454 -1.46086 0
M  V30 9021 H 855.842 -2.93985 -0.566849 0
M  V30 9022 H 853.388 -1.41423 -0.271219 0
M  V30 9023 H 855.341 -2.95557 -3.00373 0
M  V30 9024 H 854.065 -1.73573 -2.76658 0
M  V30 9025 H 852.724 -3.38303 -1.41232 0
M  V30 9026 H 852.372 -3.19914 -3.88155 0
M  V30 9027 H 852.072 -4.85802 -3.3056 0
M  V30 9028 H 853.596 -4.47402 -4.15528 0
M  V30 9029 H 855.01 -5.35024 -2.05966 0
M  V30 9030 H 853.407 -5.82832 -1.42924 0
M  V30 9031 H 854.477 -4.83003 -0.428471 0
M  V30 9032 N 855.82 0.285905 -1.54985 0
M  V30 9033 C 857.066 1.02071 -1.75241 0
M  V30 9034 C 857.399 1.864 -0.544842 0
M  V30 9035 O 856.674 1.89034 0.457844 0
M  V30 9036 C 856.957 1.91409 -3.05016 0
M  V30 9037 C 856.81 1.10158 -4.36102 0
M  V30 9038 C 858.129 2.90335 -3.30747 0
M  V30 9039 H 855.248 0.369663 -0.637588 0
M  V30 9040 H 857.89 0.294114 -1.8771 0
M  V30 9041 H 856.04 2.53362 -2.94517 0
M  V30 9042 H 857.712 0.503756 -4.58541 0
M  V30 9043 H 855.955 0.404675 -4.31908 0
M  V30 9044 H 856.626 1.75956 -5.23205 0
M  V30 9045 H 859.102 2.38514 -3.40955 0
M  V30 9046 H 857.978 3.49997 -4.2284 0
M  V30 9047 H 858.239 3.64787 -2.49765 0
M  V30 9048 N 857.298 1.47698 0.54982 0
M  V30 9049 C 858.208 1.63386 1.68351 0
M  V30 9050 C 859.224 0.516583 1.66155 0
M  V30 9051 O 860.4 0.785088 1.85468 0
M  V30 9052 C 857.465 1.6513 3.04849 0
M  V30 9053 C 856.526 2.88338 3.18056 0
M  V30 9054 C 855.759 2.8999 4.48042 0
M  V30 9055 O 855.982 2.00633 5.3395 0
M  V30 9056 O 854.916 3.81938 4.65196 0
M  V30 9057 H 858.742 2.59329 1.58057 0
M  V30 9058 H 856.327 1.30869 0.72067 0
M  V30 9059 H 858.209 1.68913 3.86065 0
M  V30 9060 H 856.884 0.723555 3.1551 0
M  V30 9061 H 855.791 2.90097 2.36209 0
M  V30 9062 H 857.124 3.80431 3.12302 0
M  V30 9063 N 858.776 -0.797141 1.35954 0
M  V30 9064 C 859.708 -1.91782 1.25509 0
M  V30 9065 C 860.721 -1.61843 0.176271 0
M  V30 9066 O 861.91 -1.73235 0.430343 0
M  V30 9067 C 859.01 -3.26396 0.912073 0
M  V30 9068 C 858.183 -3.84171 2.0912 0
M  V30 9069 C 857.242 -4.9721 1.72246 0
M  V30 9070 O 856.268 -5.14136 2.44239 0
M  V30 9071 N 857.47 -5.76831 0.651611 0
M  V30 9072 H 860.235 -2.01266 2.22063 0
M  V30 9073 H 857.796 -0.975033 1.29247 0
M  V30 9074 H 859.788 -3.99499 0.646707 0
M  V30 9075 H 858.358 -3.12579 0.0359079 0
M  V30 9076 H 857.578 -3.03148 2.51982 0
M  V30 9077 H 858.866 -4.19503 2.87914 0
M  V30 9078 H 858.264 -5.65675 0.0536678 0
M  V30 9079 H 856.821 -6.50272 0.44605 0
M  V30 9080 N 860.254 -1.20106 -1.0204 0
M  V30 9081 C 861.531 -0.918029 -1.72718 0
M  V30 9082 C 861.911 0.574163 -2.03142 0
M  V30 9083 O 861.259 1.53476 -1.69285 0
M  V30 9084 C 861.469 -1.78698 -2.9978 0
M  V30 9085 C 862.817 -2.02648 -3.7312 0
M  V30 9086 O 863.841 -1.75919 -3.09727 0
M  V30 9087 O 862.7 -2.47767 -4.87107 0
M  V30 9088 H 859.794 -0.342904 -0.752559 0
M  V30 9089 H 862.34 -1.30961 -1.07923 0
M  V30 9090 H 861.112 -2.79757 -2.7359 0
M  V30 9091 H 860.735 -1.39522 -3.72316 0
M  V30 9092 N 861.732 1.21287 -1.00634 0
M  V30 9093 C 862.981 1.89706 -0.685178 0
M  V30 9094 C 863.294 1.79044 0.787566 0
M  V30 9095 O 864.5 2.42502 1.22086 0
M  V30 9096 C 862.956 3.40176 -1.17508 0
M  V30 9097 C 862.564 3.59446 -2.674 0
M  V30 9098 C 864.308 4.14213 -0.928869 0
M  V30 9099 C 862.215 5.03688 -3.09923 0
M  V30 9100 H 861.145 0.710434 -0.252586 0
M  V30 9101 H 863.796 1.37277 -1.21768 0
M  V30 9102 H 862.178 3.91867 -0.570622 0
M  V30 9103 H 863.352 3.18188 -3.33306 0
M  V30 9104 H 861.667 2.98764 -2.9005 0
M  V30 9105 H 864.264 5.20546 -1.22212 0
M  V30 9106 H 864.607 4.16082 0.134859 0
M  V30 9107 H 865.14 3.68591 -1.49619 0
M  V30 9108 H 861.879 5.06968 -4.15529 0
M  V30 9109 H 861.399 5.45796 -2.4873 0
M  V30 9110 H 863.078 5.72204 -3.0198 0
M  V30 9111 N 863.21 0.781244 1.36873 0
M  V30 9112 C 864.459 0.34652 1.98701 0
M  V30 9113 C 864.772 -1.08555 1.62712 0
M  V30 9114 O 865.978 -1.62213 2.17713 0
M  V30 9115 C 864.434 0.568611 3.5538 0
M  V30 9116 C 864.042 2.01156 4.003 0
M  V30 9117 C 865.786 0.197983 4.24038 0
M  V30 9118 C 863.693 2.18074 5.49725 0
M  V30 9119 H 862.623 0.125821 0.743428 0
M  V30 9120 H 865.274 0.961721 1.56279 0
M  V30 9121 H 863.656 -0.116185 3.9583 0
M  V30 9122 H 864.83 2.73209 3.71071 0
M  V30 9123 H 863.145 2.33967 3.44454 0
M  V30 9124 H 865.742 0.302778 5.33842 0
M  V30 9125 H 866.085 -0.852927 4.07469 0
M  V30 9126 H 866.618 0.835696 3.88923 0
M  V30 9127 H 863.357 3.21519 5.71232 0
M  V30 9128 H 862.877 1.50517 5.80607 0
M  V30 9129 H 864.556 1.98393 6.15832 0
M  V30 9130 N 864.689 -1.48329 0.532571 0
M  V30 9131 C 865.599 -2.33445 -0.232546 0
M  V30 9132 C 866.615 -1.46651 -0.93645 0
M  V30 9133 O 867.791 -1.79627 -0.910834 0
M  V30 9134 C 864.856 -3.22824 -1.26434 0
M  V30 9135 C 863.917 -4.25492 -0.570511 0
M  V30 9136 C 863.15 -5.10601 -1.55315 0
M  V30 9137 O 863.373 -4.97733 -2.78599 0
M  V30 9138 O 862.307 -5.91927 -1.09112 0
M  V30 9139 H 866.133 -3.00119 0.464988 0
M  V30 9140 H 863.718 -1.46489 0.293462 0
M  V30 9141 H 865.6 -3.78103 -1.86055 0
M  V30 9142 H 864.275 -2.58807 -1.94424 0
M  V30 9143 H 863.182 -3.74041 0.0662587 0
M  V30 9144 H 864.515 -4.92154 0.0674904 0
M  V30 9145 N 866.167 -0.267825 -1.55308 0
M  V30 9146 C 867.416 0.351635 -1.98611 0
M  V30 9147 C 867.729 1.57522 -1.15957 0
M  V30 9148 O 868.935 2.26717 -1.49371 0
M  V30 9149 C 867.391 0.676986 -3.53475 0
M  V30 9150 C 866.999 -0.526385 -4.44897 0
M  V30 9151 C 868.743 1.25948 -4.05386 0
M  V30 9152 C 866.65 -0.176026 -5.91138 0
M  V30 9153 H 865.58 0.13516 -0.741787 0
M  V30 9154 H 868.231 -0.371333 -1.79704 0
M  V30 9155 H 866.613 1.45866 -3.68156 0
M  V30 9156 H 867.787 -1.30339 -4.41982 0
M  V30 9157 H 866.102 -1.02522 -4.03582 0
M  V30 9158 H 868.699 1.53529 -5.12184 0
M  V30 9159 H 869.042 2.19094 -3.53982 0
M  V30 9160 H 869.575 0.540253 -3.94114 0
M  V30 9161 H 866.314 -1.07518 -6.46622 0
M  V30 9162 H 865.834 0.564363 -5.97139 0
M  V30 9163 H 867.513 0.234365 -6.46575 0
M  V30 9164 N 867.645 1.57599 0.00500368 0
M  V30 9165 C 869.056 1.78462 0.54848 0
M  V30 9166 C 869.407 0.901869 1.74243 0
M  V30 9167 O 868.532 0.103014 2.16155 0
M  V30 9168 C 869.127 3.2365 1.00179 0
M  V30 9169 C 867.686 3.45627 1.49061 0
M  V30 9170 C 866.833 2.73794 0.439531 0
M  V30 9171 H 869.784 1.57151 -0.22118 0
M  V30 9172 H 869.805 3.31488 1.86805 0
M  V30 9173 H 869.317 3.87873 0.132607 0
M  V30 9174 H 867.418 2.86612 2.38085 0
M  V30 9175 H 867.531 4.54298 1.52152 0
M  V30 9176 H 865.895 2.38267 0.900043 0
M  V30 9177 H 866.678 3.40714 -0.420599 0
M  V30 9178 N 869.123 -0.277682 1.55134 0
M  V30 9179 C 870.055 -1.36531 1.84098 0
M  V30 9180 C 871.068 -1.45756 0.725194 0
M  V30 9181 O 872.257 -1.47656 1.00299 0
M  V30 9182 C 869.357 -2.74701 1.98476 0
M  V30 9183 C 868.53 -2.88125 3.29094 0
M  V30 9184 C 867.589 -4.0694 3.33596 0
M  V30 9185 O 866.615 -3.9792 4.06999 0
M  V30 9186 N 867.817 -5.18687 2.60661 0
M  V30 9187 H 870.582 -1.12032 2.77973 0
M  V30 9188 H 868.143 -0.467793 1.54995 0
M  V30 9189 H 870.135 -3.52471 1.98863 0
M  V30 9190 H 868.705 -2.92043 1.11488 0
M  V30 9191 H 867.925 -1.97277 3.41285 0
M  V30 9192 H 869.213 -2.94021 4.15246 0
M  V30 9193 H 868.611 -5.28901 2.00699 0
M  V30 9194 H 867.168 -5.94705 2.66776 0
M  V30 9195 N 870.601 -1.47988 -0.541979 0
M  V30 9196 C 871.531 -1.64503 -1.65713 0
M  V30 9197 C 872.512 -0.494116 -1.62765 0
M  V30 9198 O 873.697 -0.725256 -1.80149 0
M  V30 9199 C 870.827 -1.67337 -3.04328 0
M  V30 9200 C 869.781 -2.81809 -3.2213 0
M  V30 9201 C 869.107 -2.69724 -4.61685 0
M  V30 9202 C 870.407 -4.23241 -3.06046 0
M  V30 9203 H 872.101 -2.5786 -1.52147 0
M  V30 9204 H 869.647 -1.24094 -0.730529 0
M  V30 9205 H 871.6 -1.77481 -3.82202 0
M  V30 9206 H 870.324 -0.705514 -3.18889 0
M  V30 9207 H 868.983 -2.71201 -2.46669 0
M  V30 9208 H 868.631 -1.70934 -4.73065 0
M  V30 9209 H 868.331 -3.4653 -4.74543 0
M  V30 9210 H 869.855 -2.81818 -5.41674 0
M  V30 9211 H 871.269 -4.34746 -3.73723 0
M  V30 9212 H 869.666 -5.00952 -3.30405 0
M  V30 9213 H 870.736 -4.40543 -2.02609 0
M  V30 9214 N 872.079 0.78992 -1.36375 0
M  V30 9215 C 873.326 1.54777 -1.30576 0
M  V30 9216 C 873.654 1.94159 0.115095 0
M  V30 9217 O 872.909 1.62918 1.08426 0
M  V30 9218 C 873.208 2.83698 -2.17371 0
M  V30 9219 C 872.874 2.63457 -3.65925 0
M  V30 9220 C 871.536 2.57645 -4.06415 0
M  V30 9221 C 873.888 2.44833 -4.60115 0
M  V30 9222 C 871.216 2.31174 -5.39236 0
M  V30 9223 C 873.568 2.19889 -5.93154 0
M  V30 9224 C 872.232 2.1251 -6.32768 0
M  V30 9225 H 871.502 0.566371 -0.477813 0
M  V30 9226 H 874.149 0.91138 -1.68422 0
M  V30 9227 H 872.454 3.51802 -1.72459 0
M  V30 9228 H 874.151 3.41487 -2.10209 0
M  V30 9229 H 870.741 2.68836 -3.33804 0
M  V30 9230 H 874.925 2.48325 -4.29707 0
M  V30 9231 H 870.181 2.23942 -5.68911 0
M  V30 9232 H 874.355 2.04473 -6.65705 0
M  V30 9233 H 871.982 1.91761 -7.35616 0
M  V30 9234 N 873.557 1.20646 1.01402 0
M  V30 9235 C 874.797 1.02951 1.7658 0
M  V30 9236 C 875.161 -0.430522 1.87111 0
M  V30 9237 O 876.362 -0.727727 2.58762 0
M  V30 9238 C 874.633 1.69728 3.14527 0
M  V30 9239 S 876.192 1.6717 4.05709 0
M  V30 9240 H 873.01 0.36911 0.607683 0
M  V30 9241 H 875.612 1.53243 1.21395 0
M  V30 9242 H 874.316 2.75162 3.0449 0
M  V30 9243 H 873.847 1.19578 3.74786 0
M  V30 9244 H 875.862 0.706397 4.91146 0
M  V30 9245 N 875.035 -1.20752 1.01276 0
M  V30 9246 C 875.965 -2.25658 0.600064 0
M  V30 9247 C 876.946 -1.65733 -0.38298 0
M  V30 9248 O 878.131 -1.92324 -0.269256 0
M  V30 9249 C 875.261 -3.47237 -0.0663197 0
M  V30 9250 C 874.215 -4.1973 0.83731 0
M  V30 9251 C 873.541 -5.34687 0.0369102 0
M  V30 9252 C 874.841 -4.76286 2.14357 0
M  V30 9253 H 876.535 -2.60432 1.477 0
M  V30 9254 H 874.081 -1.25187 0.711634 0
M  V30 9255 H 876.034 -4.19803 -0.366563 0
M  V30 9256 H 874.758 -3.11615 -0.977944 0
M  V30 9257 H 873.417 -3.49024 1.1215 0
M  V30 9258 H 873.065 -4.95309 -0.876244 0
M  V30 9259 H 872.765 -5.84119 0.63865 0
M  V30 9260 H 874.289 -6.10059 -0.256968 0
M  V30 9261 H 875.703 -5.40691 1.90595 0
M  V30 9262 H 874.1 -5.36139 2.69583 0
M  V30 9263 H 875.17 -3.9524 2.80916 0
M  V30 9264 N 876.513 -0.788492 -1.36457 0
M  V30 9265 C 877.423 -0.187385 -2.3385 0
M  V30 9266 C 878.439 0.659984 -1.60998 0
M  V30 9267 O 879.615 0.575986 -1.92988 0
M  V30 9268 C 876.68 0.668525 -3.40194 0
M  V30 9269 C 875.741 -0.197234 -4.28847 0
M  V30 9270 C 874.974 0.61792 -5.30111 0
M  V30 9271 O 875.197 1.85396 -5.3943 0
M  V30 9272 O 874.131 0.0183016 -6.01897 0
M  V30 9273 H 877.957 -0.992617 -2.87021 0
M  V30 9274 H 875.542 -0.549934 -1.3891 0
M  V30 9275 H 877.424 1.15663 -4.05216 0
M  V30 9276 H 876.099 1.45166 -2.89324 0
M  V30 9277 H 875.006 -0.73207 -3.66867 0
M  V30 9278 H 876.339 -0.943863 -4.83065 0
M  V30 9279 N 877.991 1.48044 -0.54043 0
M  V30 9280 C 878.938 2.29781 0.216597 0
M  V30 9281 C 879.908 1.38021 0.924094 0
M  V30 9282 O 881.093 1.66985 0.923078 0
M  V30 9283 C 878.233 3.21623 1.2511 0
M  V30 9284 C 877.346 4.28467 0.551384 0
M  V30 9285 C 876.481 5.07477 1.56972 0
M  V30 9286 C 875.52 6.06113 0.854048 0
M  V30 9287 N 874.657 6.78143 1.81842 0
M  V30 9288 H 879.497 2.94001 -0.486578 0
M  V30 9289 H 877.034 1.44929 -0.251789 0
M  V30 9290 H 878.992 3.73279 1.8633 0
M  V30 9291 H 877.622 2.59305 1.92252 0
M  V30 9292 H 876.674 3.79997 -0.174982 0
M  V30 9293 H 877.986 4.98799 -0.0100542 0
M  V30 9294 H 877.14 5.63199 2.25592 0
M  V30 9295 H 875.879 4.37008 2.16507 0
M  V30 9296 H 874.884 5.49585 0.153838 0
M  V30 9297 H 876.109 6.78584 0.264675 0
M  V30 9298 H 874.055 6.10417 2.40265 0
M  V30 9299 H 873.972 7.44587 1.3087 0
M  V30 9300 H 875.24 7.38448 2.49628 0
M  V30 9301 N 879.47 0.276058 1.55163 0
M  V30 9302 C 880.4 -0.604633 2.25536 0
M  V30 9303 C 881.381 -1.15813 1.24585 0
M  V30 9304 O 882.566 -1.1921 1.53306 0
M  V30 9305 C 879.696 -1.78836 2.97716 0
M  V30 9306 C 878.65 -1.36635 4.05604 0
M  V30 9307 C 877.976 -2.63325 4.65364 0
M  V30 9308 C 879.276 -0.515858 5.19746 0
M  V30 9309 H 880.97 -0.0177483 2.99395 0
M  V30 9310 H 878.516 -0.00709627 1.43998 0
M  V30 9311 H 880.469 -2.41036 3.45658 0
M  V30 9312 H 879.193 -2.40109 2.21394 0
M  V30 9313 H 877.852 -0.767541 3.58475 0
M  V30 9314 H 877.5 -3.22858 3.85709 0
M  V30 9315 H 877.2 -2.358 5.38212 0
M  V30 9316 H 878.724 -3.26372 5.16056 0
M  V30 9317 H 880.138 -1.04289 5.63735 0
M  V30 9318 H 878.535 -0.335449 5.99162 0
M  V30 9319 H 879.605 0.465137 4.82664 0
M  V30 9320 N 880.948 -1.576 0.00335426 0
M  V30 9321 C 882.176 -1.94996 -0.691685 0
M  V30 9322 C 882.591 -0.878405 -1.67121 0
M  V30 9323 O 881.948 0.142343 -1.81944 0
M  V30 9324 C 881.999 -3.32416 -1.42063 0
M  V30 9325 O 881.72 -4.35458 -0.48038 0
M  V30 9326 C 883.221 -3.84291 -2.20987 0
M  V30 9327 H 880.441 -0.642814 -0.192434 0
M  V30 9328 H 882.985 -2.04425 0.0554706 0
M  V30 9329 H 881.14 -3.24285 -2.11939 0
M  V30 9330 H 881.554 -5.14975 -0.995054 0
M  V30 9331 H 883.028 -4.82863 -2.67483 0
M  V30 9332 H 883.505 -3.17174 -3.03805 0
M  V30 9333 H 884.111 -3.95609 -1.56121 0
M  V30 9334 N 882.426 0.269451 -1.5528 0
M  V30 9335 C 883.374 1.35303 -1.89198 0
M  V30 9336 C 884.368 1.50956 -0.768671 0
M  V30 9337 O 885.574 1.52699 -0.953054 0
M  V30 9338 H 881.949 0.452591 -0.600554 0
M  V30 9339 H 883.92 1.03949 -2.79709 0
M  V30 9340 C 882.669 2.70585 -2.18356 0
M  V30 9341 H 881.992 2.59332 -3.04281 0
M  V30 9342 H 883.432 3.45335 -2.46007 0
M  V30 9343 C 881.891 3.21954 -0.992327 0
M  V30 9344 O 882.421 4.01048 -0.228769 0
M  V30 9345 N 880.627 2.79682 -0.789062 0
M  V30 9346 H 880.174 2.15475 -1.41167 0
M  V30 9347 H 880.132 3.14399 0.00634776 0
M  V30 9348 N 883.904 1.48273 0.534124 0
M  V30 9349 C 885.153 1.55334 1.28663 0
M  V30 9350 C 885.466 0.230345 1.94239 0
M  V30 9351 O 886.672 0.179161 2.70908 0
M  V30 9352 C 885.128 2.73927 2.33435 0
M  V30 9353 C 884.736 4.12852 1.73947 0
M  V30 9354 C 886.48 2.90298 3.09722 0
M  V30 9355 C 884.387 5.22711 2.76636 0
M  V30 9356 H 883.317 0.578262 0.483869 0
M  V30 9357 H 885.968 1.74598 0.564602 0
M  V30 9358 H 884.35 2.48089 3.08655 0
M  V30 9359 H 885.524 4.48691 1.04944 0
M  V30 9360 H 883.839 4.01562 1.10167 0
M  V30 9361 H 886.436 3.69542 3.86449 0
M  V30 9362 H 886.779 1.99598 3.6533 0
M  V30 9363 H 887.312 3.16017 2.41616 0
M  V30 9364 H 884.051 6.15362 2.25852 0
M  V30 9365 H 883.571 4.91364 3.43979 0
M  V30 9366 H 885.25 5.50648 3.39699 0
M  V30 9367 N 885.382 -0.782676 1.36792 0
M  V30 9368 C 886.793 -1.35828 1.28092 0
M  V30 9369 C 887.144 -1.96052 -0.076315 0
M  V30 9370 O 886.269 -1.93042 -0.977935 0
M  V30 9371 C 886.864 -2.46949 2.31952 0
M  V30 9372 C 885.423 -3.00307 2.2692 0
M  V30 9373 C 884.57 -1.73436 2.16368 0
M  V30 9374 H 887.521 -0.583788 1.47572 0
M  V30 9375 H 887.542 -3.26144 1.95986 0
M  V30 9376 H 887.054 -2.03087 3.30722 0
M  V30 9377 H 885.155 -3.48571 1.31639 0
M  V30 9378 H 885.268 -3.56663 3.19887 0
M  V30 9379 H 883.632 -1.95934 1.62733 0
M  V30 9380 H 884.415 -1.31693 3.17036 0
M  V30 9381 N 886.86 -1.21182 -1.00761 0
M  V30 9382 C 888.085 -1.05411 -1.78615 0
M  V30 9383 C 888.51 0.391837 -1.83973 0
M  V30 9384 O 887.868 1.28256 -1.28141 0
M  V30 9385 C 887.916 -1.65285 -3.20489 0
M  V30 9386 O 887.02 -0.896558 -4.02536 0
M  V30 9387 H 886.361 -0.37116 -0.550578 0
M  V30 9388 H 888.891 -1.60669 -1.26676 0
M  V30 9389 H 888.901 -1.69397 -3.71172 0
M  V30 9390 H 887.576 -2.70514 -3.15904 0
M  V30 9391 H 886.153 -0.930335 -3.61108 0
M  V30 9392 N 888.338 1.20213 -1.01915 0
M  V30 9393 C 889.615 1.85348 -0.62495 0
M  V30 9394 C 889.995 1.91101 0.896854 0
M  V30 9395 O 889.343 1.42075 1.78961 0
M  V30 9396 C 889.553 3.24849 -1.27571 0
M  V30 9397 C 890.901 4.01107 -1.39277 0
M  V30 9398 O 891.925 3.34211 -1.23212 0
M  V30 9399 O 890.784 5.20914 -1.6526 0
M  V30 9400 H 887.878 0.798303 -0.215965 0
M  V30 9401 H 890.424 1.27782 -1.11669 0
M  V30 9402 H 889.196 3.1544 -2.31545 0
M  V30 9403 H 888.819 3.90049 -0.77122 0
M  V30 9404 N 889.816 0.795718 1.36037 0
M  V30 9405 C 890.748 0.156336 2.28666 0
M  V30 9406 C 891.761 -0.638075 1.49775 0
M  V30 9407 O 892.95 -0.472222 1.7214 0
M  V30 9408 C 890.05 -0.801417 3.29288 0
M  V30 9409 C 889.223 -0.0557118 4.37365 0
M  V30 9410 C 888.282 -0.930338 5.1791 0
M  V30 9411 O 887.308 -0.385266 5.67895 0
M  V30 9412 N 888.51 -2.25382 5.34961 0
M  V30 9413 H 891.275 0.952033 2.84177 0
M  V30 9414 H 888.836 0.650189 1.48271 0
M  V30 9415 H 890.828 -1.39051 3.80062 0
M  V30 9416 H 889.398 -1.49796 2.74372 0
M  V30 9417 H 888.618 0.714508 3.87671 0
M  V30 9418 H 889.906 0.458633 5.06729 0
M  V30 9419 H 889.304 -2.72073 4.95977 0
M  V30 9420 H 887.861 -2.79241 5.88955 0
M  V30 9421 N 891.294 -1.47756 0.548274 0
M  V30 9422 C 892.226 -2.27921 -0.24177 0
M  V30 9423 C 893.239 -1.36471 -0.887658 0
M  V30 9424 O 894.428 -1.6137 -0.763016 0
M  V30 9425 C 891.528 -3.10449 -1.35922 0
M  V30 9426 C 890.701 -4.298 -0.811808 0
M  V30 9427 C 889.76 -4.93994 -1.81264 0
M  V30 9428 O 888.786 -5.52657 -1.3623 0
M  V30 9429 N 889.988 -4.87882 -3.14566 0
M  V30 9430 H 892.753 -2.96365 0.445848 0
M  V30 9431 H 890.314 -1.57286 0.383769 0
M  V30 9432 H 892.306 -3.50261 -2.02729 0
M  V30 9433 H 890.876 -2.44306 -1.95021 0
M  V30 9434 H 890.096 -3.94186 0.0327929 0
M  V30 9435 H 891.384 -5.0702 -0.425272 0
M  V30 9436 H 890.782 -4.41405 -3.53805 0
M  V30 9437 H 889.339 -5.3174 -3.76956 0
M  V30 9438 N 892.772 -0.284283 -1.55015 0
M  V30 9439 C 894.183 0.211681 -1.85496 0
M  V30 9440 C 894.534 1.54735 -1.2063 0
M  V30 9441 O 893.659 2.10594 -0.497918 0
M  V30 9442 C 894.254 0.390864 -3.36538 0
M  V30 9443 C 892.813 0.831055 -3.67111 0
M  V30 9444 C 891.96 -0.0703581 -2.77211 0
M  V30 9445 H 894.911 -0.505803 -1.50424 0
M  V30 9446 H 894.932 1.22803 -3.60138 0
M  V30 9447 H 894.444 -0.581409 -3.8372 0
M  V30 9448 H 892.545 1.81447 -3.25434 0
M  V30 9449 H 892.658 0.662026 -4.74504 0
M  V30 9450 H 891.022 0.447528 -2.50737 0
M  V30 9451 H 891.805 -1.03868 -3.2721 0
M  V30 9452 N 894.251 1.57596 -0.0117121 0
M  V30 9453 C 895.198 2.09153 0.975897 0
M  V30 9454 C 896.168 0.989579 1.33404 0
M  V30 9455 O 897.353 1.26273 1.43038 0
M  V30 9456 C 894.493 2.60906 2.2588 0
M  V30 9457 C 893.606 3.85046 1.95866 0
M  V30 9458 C 892.741 4.25257 3.18323 0
M  V30 9459 C 891.78 5.42202 2.84049 0
M  V30 9460 N 890.917 5.77651 3.99079 0
M  V30 9461 H 895.757 2.93261 0.52931 0
M  V30 9462 H 893.294 1.44965 0.249691 0
M  V30 9463 H 895.252 2.88995 3.00895 0
M  V30 9464 H 893.882 1.79654 2.68187 0
M  V30 9465 H 892.934 3.63794 1.11168 0
M  V30 9466 H 894.246 4.70151 1.66611 0
M  V30 9467 H 893.4 4.5469 4.01674 0
M  V30 9468 H 892.139 3.38884 3.50726 0
M  V30 9469 H 891.144 5.1248 1.99107 0
M  V30 9470 H 892.369 6.3026 2.52881 0
M  V30 9471 H 890.315 4.94235 4.31356 0
M  V30 9472 H 890.232 6.57356 3.73388 0
M  V30 9473 H 891.5 6.11681 4.83183 0
M  V30 9474 N 895.729 -0.261212 1.5542 0
M  V30 9475 C 897.145 -0.609012 1.47524 0
M  V30 9476 C 897.345 -1.88986 0.699042 0
M  V30 9477 O 896.401 -2.51517 0.222628 0
M  V30 9478 C 897.714 -0.725025 2.91828 0
M  V30 9479 C 899.262 -0.818302 3.02114 0
M  V30 9480 C 899.737 -0.965996 4.47697 0
M  V30 9481 N 901.228 -1.03123 4.51575 0
M  V30 9482 C 901.963 -1.16451 5.6145 0
M  V30 9483 N 901.459 -1.26425 6.81167 0
M  V30 9484 N 903.252 -1.19655 5.49217 0
M  V30 9485 H 895.403 0.579807 2.04333 0
M  V30 9486 H 897.666 0.198072 0.927077 0
M  V30 9487 H 897.372 0.145871 3.51397 0
M  V30 9488 H 897.246 -1.60156 3.41511 0
M  V30 9489 H 899.633 -1.67966 2.42634 0
M  V30 9490 H 899.714 0.0830895 2.55665 0
M  V30 9491 H 899.358 -0.109251 5.07782 0
M  V30 9492 H 899.288 -1.88221 4.91813 0
M  V30 9493 H 901.779 -0.966072 3.65343 0
M  V30 9494 H 902.092 -1.36462 7.60656 0
M  V30 9495 H 900.437 -1.23408 6.83956 0
M  V30 9496 H 903.628 -1.11501 4.54626 0
M  V30 9497 H 903.801 -1.29698 6.34888 0
M  V30 9498 N 897.207 -1.48554 -0.526253 0
M  V30 9499 C 898.432 -1.60686 -1.31129 0
M  V30 9500 C 898.857 -0.268701 -1.86171 0
M  V30 9501 O 898.215 0.760167 -1.64594 0
M  V30 9502 C 898.263 -2.65938 -2.43536 0
M  V30 9503 O 897.367 -2.23356 -3.46678 0
M  V30 9504 H 896.708 -0.538691 -0.388211 0
M  V30 9505 H 899.238 -1.94567 -0.632826 0
M  V30 9506 H 899.248 -2.87327 -2.89668 0
M  V30 9507 H 897.923 -3.63085 -2.02835 0
M  V30 9508 H 896.5 -2.12196 -3.06639 0
M  V30 9509 N 898.685 0.775411 -1.37205 0
M  V30 9510 C 899.932 1.53384 -1.32211 0
M  V30 9511 C 900.26 1.9427 0.0944958 0
M  V30 9512 O 899.515 1.64059 1.06692 0
M  V30 9513 C 899.814 2.81377 -2.20367 0
M  V30 9514 C 899.48 2.59561 -3.68699 0
M  V30 9515 C 898.142 2.53319 -4.09124 0
M  V30 9516 C 900.494 2.39939 -4.62686 0
M  V30 9517 C 897.822 2.25442 -5.41658 0
M  V30 9518 C 900.174 2.13586 -5.95453 0
M  V30 9519 C 898.838 2.05786 -6.34987 0
M  V30 9520 H 898.108 0.561271 -0.483793 0
M  V30 9521 H 900.755 0.893466 -1.6938 0
M  V30 9522 H 899.06 3.49954 -1.76181 0
M  V30 9523 H 900.757 3.39238 -2.13819 0
M  V30 9524 H 897.347 2.6528 -3.36637 0
M  V30 9525 H 901.531 2.43753 -4.32317 0
M  V30 9526 H 896.787 2.17896 -5.71254 0
M  V30 9527 H 900.961 1.97401 -6.67837 0
M  V30 9528 H 898.588 1.83948 -7.37609 0
M  V30 9529 N 900.163 1.21714 1.00117 0
M  V30 9530 C 901.126 0.981338 2.07129 0
M  V30 9531 C 902.126 -0.0491116 1.60725 0
M  V30 9532 O 903.316 0.188555 1.73177 0
M  V30 9533 C 900.448 0.480608 3.37495 0
M  V30 9534 H 901.641 1.93075 2.29482 0
M  V30 9535 H 899.194 1.03467 1.17151 0
M  V30 9536 H 899.929 -0.473552 3.20824 0
M  V30 9537 H 899.714 1.22393 3.72508 0
M  V30 9538 H 901.204 0.33561 4.16249 0
M  V30 9539 N 901.641 -1.19671 1.02551 0
M  V30 9540 C 903.057 -1.41305 0.741963 0
M  V30 9541 C 903.257 -1.89865 -0.674807 0
M  V30 9542 O 902.313 -2.07323 -1.44129 0
M  V30 9543 C 903.626 -2.42706 1.77522 0
M  V30 9544 C 905.174 -2.56458 1.79438 0
M  V30 9545 C 905.649 -3.61111 2.81715 0
M  V30 9546 N 907.14 -3.68603 2.8051 0
M  V30 9547 C 907.875 -4.49262 3.56302 0
M  V30 9548 N 907.371 -5.33653 4.41799 0
M  V30 9549 N 909.164 -4.43879 3.44859 0
M  V30 9550 H 901.315 -0.8647 1.94002 0
M  V30 9551 H 903.578 -0.442206 0.838545 0
M  V30 9552 H 903.284 -2.14042 2.79068 0
M  V30 9553 H 903.158 -3.41831 1.59472 0
M  V30 9554 H 905.545 -2.84447 0.78573 0
M  V30 9555 H 905.626 -1.57499 2.01563 0
M  V30 9556 H 905.27 -3.33864 3.82749 0
M  V30 9557 H 905.2 -4.59713 2.56849 0
M  V30 9558 H 907.691 -3.08329 2.18498 0
M  V30 9559 H 908.004 -5.92308 4.96378 0
M  V30 9560 H 906.349 -5.33125 4.45873 0
M  V30 9561 H 909.54 -3.7699 2.77482 0
M  V30 9562 H 909.713 -5.06501 4.04179 0
M  V30 9563 N 903.119 -0.802921 -1.35613 0
M  V30 9564 C 904.53 -0.443004 -1.81368 0
M  V30 9565 C 904.881 1.03459 -1.66706 0
M  V30 9566 O 904.006 1.80372 -1.19561 0
M  V30 9567 C 904.601 -0.797324 -3.29284 0
M  V30 9568 C 903.16 -0.490055 -3.73196 0
M  V30 9569 C 902.307 -1.02487 -2.57666 0
M  V30 9570 H 905.258 -0.994888 -1.23643 0
M  V30 9571 H 905.279 -0.0934638 -3.80385 0
M  V30 9572 H 904.791 -1.87278 -3.39924 0
M  V30 9573 H 902.892 0.576818 -3.68108 0
M  V30 9574 H 903.005 -1.02012 -4.68114 0
M  V30 9575 H 901.369 -0.44738 -2.5074 0
M  V30 9576 H 902.152 -2.10636 -2.71085 0
M  V30 9577 N 904.597 1.47463 -0.556102 0
M  V30 9578 C 905.827 2.06568 -0.0364056 0
M  V30 9579 C 906.235 1.40939 1.26225 0
M  V30 9580 O 905.578 0.499572 1.76777 0
M  V30 9581 C 905.64 3.58755 0.231278 0
M  V30 9582 C 905.304 4.46417 -0.977776 0
M  V30 9583 C 906.301 4.846 -1.88305 0
M  V30 9584 C 903.986 4.87948 -1.19214 0
M  V30 9585 C 905.98 5.63111 -2.98639 0
M  V30 9586 C 903.667 5.66224 -2.29857 0
M  V30 9587 C 904.665 6.03716 -3.194 0
M  V30 9588 O 904.353 6.80415 -4.28125 0
M  V30 9589 H 904.085 0.674675 -0.042305 0
M  V30 9590 H 906.639 1.9047 -0.768775 0
M  V30 9591 H 904.869 3.73061 1.01794 0
M  V30 9592 H 906.558 3.99884 0.696221 0
M  V30 9593 H 907.324 4.53115 -1.72949 0
M  V30 9594 H 903.203 4.58233 -0.504347 0
M  V30 9595 H 906.747 5.92293 -3.68557 0
M  V30 9596 H 902.644 5.97121 -2.45186 0
M  V30 9597 H 903.412 6.98807 -4.26159 0
M  V30 9598 N 906.075 0.2925 1.54862 0
M  V30 9599 C 907.322 -0.319263 1.99967 0
M  V30 9600 C 907.65 -1.54547 1.18092 0
M  V30 9601 O 906.905 -1.94186 0.242969 0
M  V30 9602 C 907.204 -0.728674 3.49893 0
M  V30 9603 C 906.87 0.394836 4.49168 0
M  V30 9604 C 905.532 0.703289 4.76033 0
M  V30 9605 C 907.884 1.15103 5.08331 0
M  V30 9606 C 905.212 1.77121 5.59325 0
M  V30 9607 C 907.564 2.20881 5.92785 0
M  V30 9608 C 906.228 2.52342 6.17964 0
M  V30 9609 H 905.498 -0.116827 0.731733 0
M  V30 9610 H 908.145 0.40983 1.87063 0
M  V30 9611 H 906.45 -1.53772 3.60363 0
M  V30 9612 H 908.147 -1.21305 3.82212 0
M  V30 9613 H 904.737 0.144319 4.28357 0
M  V30 9614 H 908.921 0.92599 4.87585 0
M  V30 9615 H 904.177 2.01978 5.77074 0
M  V30 9616 H 908.351 2.79939 6.37657 0
M  V30 9617 H 905.978 3.35225 6.82296 0
M  V30 9618 N 907.553 -1.57587 0.0200696 0
M  V30 9619 C 908.964 -1.79312 -0.520019 0
M  V30 9620 C 909.315 -0.929475 -1.72787 0
M  V30 9621 O 908.44 -0.137389 -2.15963 0
M  V30 9622 C 909.035 -3.25203 -0.950172 0
M  V30 9623 C 907.594 -3.47954 -1.43543 0
M  V30 9624 C 906.741 -2.74459 -0.395917 0
M  V30 9625 H 909.692 -1.56779 0.246153 0
M  V30 9626 H 909.713 -3.34418 -1.81508 0
M  V30 9627 H 909.225 -3.88035 -0.070883 0
M  V30 9628 H 907.326 -2.90363 -2.33495 0
M  V30 9629 H 907.439 -4.56661 -1.44905 0
M  V30 9630 H 905.803 -2.39669 -0.862022 0
M  V30 9631 H 906.586 -3.40001 0.47475 0
M  V30 9632 N 909.032 0.252966 -1.55557 0
M  V30 9633 C 910.309 1.00432 -1.67847 0
M  V30 9634 C 910.689 2.03587 -0.55816 0
M  V30 9635 O 910.037 2.24239 0.439197 0
M  V30 9636 C 910.247 1.64313 -3.079 0
M  V30 9637 C 911.595 2.14726 -3.66303 0
M  V30 9638 O 912.619 1.74264 -3.10661 0
M  V30 9639 O 911.478 2.89 -4.63833 0
M  V30 9640 H 908.572 0.467102 -0.682455 0
M  V30 9641 H 911.118 0.247233 -1.67889 0
M  V30 9642 H 909.89 0.896681 -3.80888 0
M  V30 9643 H 909.513 2.46657 -3.11843 0
M  V30 9644 N 910.51 1.48831 0.518367 0
M  V30 9645 C 911.44 1.67119 1.63075 0
M  V30 9646 C 912.421 0.519948 1.61958 0
M  V30 9647 O 913.606 0.753824 1.78972 0
M  V30 9648 C 910.736 1.72158 3.01627 0
M  V30 9649 C 909.69 2.86898 3.17606 0
M  V30 9650 C 909.016 2.77035 4.57335 0
M  V30 9651 C 910.316 4.28057 2.99274 0
M  V30 9652 H 912.01 2.60248 1.48025 0
M  V30 9653 H 909.556 1.2524 0.710694 0
M  V30 9654 H 911.509 1.83539 3.7933 0
M  V30 9655 H 910.233 0.756157 3.17726 0
M  V30 9656 H 908.892 2.75091 2.42323 0
M  V30 9657 H 908.54 1.78438 4.70286 0
M  V30 9658 H 908.24 3.54036 4.6897 0
M  V30 9659 H 909.764 2.904 5.37122 0
M  V30 9660 H 911.178 4.40636 3.6676 0
M  V30 9661 H 909.575 5.06145 3.22393 0
M  V30 9662 H 910.645 4.4371 1.95574 0
M  V30 9663 N 911.988 -0.768124 1.37614 0
M  V30 9664 C 912.918 -1.89537 1.36374 0
M  V30 9665 C 913.899 -1.68513 0.231803 0
M  V30 9666 O 915.084 -1.89318 0.432705 0
M  V30 9667 C 912.214 -3.26871 1.17358 0
M  V30 9668 C 911.168 -3.62466 2.27602 0
M  V30 9669 C 910.494 -4.9838 1.93705 0
M  V30 9670 C 911.794 -3.68841 3.69802 0
M  V30 9671 H 913.488 -1.90832 2.30702 0
M  V30 9672 H 911.034 -0.91672 1.11051 0
M  V30 9673 H 912.987 -4.05371 1.15119 0
M  V30 9674 H 911.711 -3.26018 0.194865 0
M  V30 9675 H 910.37 -2.86276 2.29002 0
M  V30 9676 H 910.018 -4.94071 0.943539 0
M  V30 9677 H 909.718 -5.23165 2.6753 0
M  V30 9678 H 911.242 -5.79276 1.93059 0
M  V30 9679 H 912.656 -4.37485 3.70513 0
M  V30 9680 H 911.053 -4.05126 4.42711 0
M  V30 9681 H 912.123 -2.69415 4.03167 0
M  V30 9682 N 913.466 -1.22244 -0.994698 0
M  V30 9683 C 914.882 -0.982006 -1.25813 0
M  V30 9684 C 915.082 0.325488 -1.98854 0
M  V30 9685 O 914.138 1.04857 -2.29698 0
M  V30 9686 C 915.451 -2.1795 -2.07167 0
M  V30 9687 C 916.999 -2.22287 -2.20358 0
M  V30 9688 C 917.474 -3.41583 -3.05098 0
M  V30 9689 N 918.965 -3.41734 -3.12686 0
M  V30 9690 C 919.7 -4.30692 -3.78539 0
M  V30 9691 N 919.196 -5.29865 -4.46335 0
M  V30 9692 N 920.989 -4.18473 -3.75283 0
M  V30 9693 H 913.14 -2.0631 -0.504963 0
M  V30 9694 H 915.403 -0.90395 -0.285618 0
M  V30 9695 H 915.109 -3.12758 -1.60858 0
M  V30 9696 H 914.983 -2.17862 -3.07922 0
M  V30 9697 H 917.37 -1.28028 -2.65881 0
M  V30 9698 H 917.451 -2.26414 -1.19039 0
M  V30 9699 H 917.095 -4.36141 -2.60275 0
M  V30 9700 H 917.025 -3.34695 -4.06555 0
M  V30 9701 H 919.516 -2.69969 -2.64433 0
M  V30 9702 H 919.829 -5.94027 -4.9432 0
M  V30 9703 H 918.174 -5.3378 -4.45089 0
M  V30 9704 H 921.365 -3.40249 -3.21478 0
M  V30 9705 H 921.538 -4.88007 -4.26326 0
M  V30 9706 N 914.944 1.19125 -1.03184 0
M  V30 9707 C 915.877 2.21229 -0.559739 0
M  V30 9708 C 916.855 1.57578 0.400998 0
M  V30 9709 O 918.039 1.85809 0.317399 0
M  V30 9710 C 915.166 3.38203 0.183442 0
M  V30 9711 C 914.212 4.2022 -0.729182 0
M  V30 9712 S 915.045 4.87903 -2.20706 0
M  V30 9713 C 916.201 6.08284 -1.47448 0
M  V30 9714 H 916.434 2.60932 -1.42484 0
M  V30 9715 H 913.967 1.29419 -0.842028 0
M  V30 9716 H 915.925 4.06001 0.606084 0
M  V30 9717 H 914.586 2.96929 1.02432 0
M  V30 9718 H 913.779 5.03761 -0.155272 0
M  V30 9719 H 913.381 3.57755 -1.09028 0
M  V30 9720 H 915.673 6.73193 -0.762687 0
M  V30 9721 H 916.616 6.70165 -2.28659 0
M  V30 9722 H 917.024 5.56092 -0.97068 0
M  V30 9723 N 916.422 0.810101 1.35185 0
M  V30 9724 C 917.671 0.388589 1.97921 0
M  V30 9725 C 917.984 -1.05079 1.64978 0
M  V30 9726 O 919.19 -1.57559 2.21105 0
M  V30 9727 C 917.646 0.643864 3.54094 0
M  V30 9728 C 917.254 2.09602 3.95943 0
M  V30 9729 C 918.998 0.287883 4.23523 0
M  V30 9730 C 916.905 2.29686 5.44976 0
M  V30 9731 H 915.835 0.141562 0.740592 0
M  V30 9732 H 918.486 0.994653 1.54204 0
M  V30 9733 H 916.868 -0.0321978 3.95987 0
M  V30 9734 H 918.042 2.81018 3.65192 0
M  V30 9735 H 916.357 2.4122 3.39414 0
M  V30 9736 H 918.954 0.415946 5.3308 0
M  V30 9737 H 919.297 -0.766305 4.09186 0
M  V30 9738 H 919.83 0.918004 3.87063 0
M  V30 9739 H 916.569 3.33563 5.64284 0
M  V30 9740 H 916.089 1.62798 5.77284 0
M  V30 9741 H 917.768 2.11411 6.11485 0
M  V30 9742 N 917.9 -1.47166 0.563914 0
M  V30 9743 C 919.146 -2.02756 0.0424338 0
M  V30 9744 C 919.479 -1.43662 -1.3067 0
M  V30 9745 O 918.754 -0.594676 -1.85186 0
M  V30 9746 C 919.037 -3.60074 -0.0434793 0
M  V30 9747 C 918.89 -4.29587 1.33323 0
M  V30 9748 C 920.209 -4.336 -0.753568 0
M  V30 9749 H 917.328 -0.736806 0.0168946 0
M  V30 9750 H 919.97 -1.75521 0.727496 0
M  V30 9751 H 918.12 -3.83409 -0.626906 0
M  V30 9752 H 919.792 -4.17573 1.96037 0
M  V30 9753 H 918.035 -3.8968 1.9061 0
M  V30 9754 H 918.706 -5.38218 1.22576 0
M  V30 9755 H 921.182 -4.15299 -0.258126 0
M  V30 9756 H 920.058 -5.43291 -0.782659 0
M  V30 9757 H 920.319 -4.03302 -1.81108 0
M  V30 9758 N 919.378 -0.300708 -1.54705 0
M  V30 9759 C 920.311 0.617513 -2.19686 0
M  V30 9760 C 921.289 1.1331 -1.16617 0
M  V30 9761 O 922.473 1.20135 -1.45258 0
M  V30 9762 C 919.6 1.84486 -2.84047 0
M  V30 9763 C 918.646 1.46253 -4.0064 0
M  V30 9764 S 919.479 0.518718 -5.32982 0
M  V30 9765 C 920.635 1.75387 -6.00825 0
M  V30 9766 H 920.868 0.0654548 -2.97228 0
M  V30 9767 H 918.401 -0.0848492 -1.54167 0
M  V30 9768 H 920.359 2.54921 -3.21754 0
M  V30 9769 H 919.02 2.36808 -2.06351 0
M  V30 9770 H 918.213 2.37648 -4.44454 0
M  V30 9771 H 917.815 0.838129 -3.64488 0
M  V30 9772 H 920.107 2.69448 -6.21614 0
M  V30 9773 H 921.05 1.35829 -6.9495 0
M  V30 9774 H 921.458 1.93045 -5.30466 0
M  V30 9775 N 920.856 1.57574 -0.0284266 0
M  V30 9776 C 922.104 1.91393 0.649079 0
M  V30 9777 C 922.425 0.905368 1.72708 0
M  V30 9778 O 921.695 -0.0532107 1.95828 0
M  V30 9779 H 920.275 0.70646 0.24274 0
M  V30 9780 H 922.937 1.94752 -0.076066 0
M  V30 9781 H 922.033 2.91988 1.10226 0
M  V30 9782 N 922.334 -0.244713 1.55689 0
M  V30 9783 C 923.281 -1.30301 1.905 0
M  V30 9784 C 924.251 -1.4772 0.759478 0
M  V30 9785 O 925.436 -1.61667 1.01333 0
M  V30 9786 C 922.576 -2.653 2.20703 0
M  V30 9787 C 921.689 -2.55872 3.48071 0
M  V30 9788 C 920.824 -3.83238 3.67834 0
M  V30 9789 C 919.863 -3.68436 4.88796 0
M  V30 9790 N 919 -4.877 5.05068 0
M  V30 9791 H 923.84 -0.999143 2.80751 0
M  V30 9792 H 921.377 -0.482099 1.38976 0
M  V30 9793 H 923.335 -3.43884 2.36219 0
M  V30 9794 H 921.965 -2.93831 1.33653 0
M  V30 9795 H 921.017 -1.68846 3.40874 0
M  V30 9796 H 922.329 -2.40845 4.36801 0
M  V30 9797 H 921.483 -4.70266 3.83321 0
M  V30 9798 H 920.222 -4.01165 2.77341 0
M  V30 9799 H 919.227 -2.79793 4.73282 0
M  V30 9800 H 920.452 -3.52003 5.8075 0
M  V30 9801 H 918.398 -5.05983 4.17513 0
M  V30 9802 H 918.315 -4.75312 5.8789 0
M  V30 9803 H 919.583 -5.76219 5.24969 0
M  V30 9804 N 923.813 -1.49104 -0.510467 0
M  V30 9805 C 924.761 -1.65547 -1.63392 0
M  V30 9806 C 925.755 -0.521522 -1.61172 0
M  V30 9807 O 926.961 -0.700865 -1.65795 0
M  V30 9808 H 923.336 -0.521843 -0.541464 0
M  V30 9809 H 925.307 -2.59864 -1.46673 0
M  V30 9810 C 924.056 -1.73051 -3.01577 0
M  V30 9811 H 923.379 -2.59676 -3.03987 0
M  V30 9812 H 924.819 -1.88594 -3.79748 0
M  V30 9813 C 923.278 -0.47328 -3.33559 0
M  V30 9814 O 923.808 0.405239 -3.99651 0
M  V30 9815 N 922.014 -0.339074 -2.88615 0
M  V30 9816 H 921.561 -1.05497 -2.35007 0
M  V30 9817 H 921.519 0.501061 -3.10382 0
M  V30 9818 N 925.291 0.760815 -1.38019 0
M  V30 9819 C 926.221 1.88811 -1.37377 0
M  V30 9820 C 927.202 1.68388 -0.240737 0
M  V30 9821 O 928.387 1.89086 -0.442739 0
M  V30 9822 C 925.517 3.26244 -1.1909 0
M  V30 9823 C 924.471 3.61254 -2.29521 0
M  V30 9824 C 923.797 4.97346 -1.96345 0
M  V30 9825 C 925.097 3.66874 -3.71753 0
M  V30 9826 H 926.791 1.89606 -2.31711 0
M  V30 9827 H 924.337 0.910818 -1.11535 0
M  V30 9828 H 926.29 4.04755 -1.17267 0
M  V30 9829 H 925.014 3.2591 -0.212152 0
M  V30 9830 H 923.673 2.85057 -2.30517 0
M  V30 9831 H 923.321 4.93564 -0.969728 0
M  V30 9832 H 923.021 5.21739 -2.703 0
M  V30 9833 H 924.545 5.78244 -1.96129 0
M  V30 9834 H 925.959 4.35514 -3.72828 0
M  V30 9835 H 924.356 4.02772 -4.44853 0
M  V30 9836 H 925.426 2.67273 -4.0459 0
M  V30 9837 N 926.769 1.22769 0.988202 0
M  V30 9838 C 928.017 1.05301 1.725 0
M  V30 9839 C 928.338 -0.412103 1.90596 0
M  V30 9840 O 927.608 -1.29606 1.46898 0
M  V30 9841 H 926.188 0.386658 0.639144 0
M  V30 9842 H 928.85 1.54359 1.18993 0
M  V30 9843 H 927.946 1.53465 2.71763 0
M  V30 9844 N 928.247 -1.18576 1.03814 0
M  V30 9845 C 929.496 -1.87822 0.735235 0
M  V30 9846 C 929.809 -1.81069 -0.739819 0
M  V30 9847 O 931.015 -2.45654 -1.15614 0
M  V30 9848 C 929.471 -3.36941 1.26486 0
M  V30 9849 C 929.079 -3.5223 2.76836 0
M  V30 9850 C 930.823 -4.11604 1.03836 0
M  V30 9851 C 928.73 -4.95294 3.23169 0
M  V30 9852 H 927.66 -0.703487 0.271333 0
M  V30 9853 H 930.311 -1.34 1.25365 0
M  V30 9854 H 928.693 -3.90217 0.674318 0
M  V30 9855 H 929.867 -3.09239 3.41625 0
M  V30 9856 H 928.182 -2.90969 2.97869 0
M  V30 9857 H 930.779 -5.17123 1.3597 0
M  V30 9858 H 931.122 -4.16293 -0.0244945 0
M  V30 9859 H 931.655 -3.64494 1.59338 0
M  V30 9860 H 928.394 -4.95772 4.28824 0
M  V30 9861 H 927.914 -5.3901 2.63113 0
M  V30 9862 H 929.593 -5.63996 3.17045 0
M  V30 9863 N 929.725 -0.817259 -1.34754 0
M  V30 9864 C 931.136 -0.462215 -1.80888 0
M  V30 9865 C 931.487 1.01685 -1.67794 0
M  V30 9866 O 930.612 1.79094 -1.21468 0
M  V30 9867 C 931.207 -0.832204 -3.2842 0
M  V30 9868 C 929.766 -0.52961 -3.72655 0
M  V30 9869 C 928.913 -1.05214 -2.56564 0
M  V30 9870 H 931.864 -1.00795 -1.22581 0
M  V30 9871 H 931.885 -0.133804 -3.80265 0
M  V30 9872 H 931.397 -1.90873 -3.37919 0
M  V30 9873 H 929.498 0.537743 -3.68699 0
M  V30 9874 H 929.611 -1.06971 -4.67005 0
M  V30 9875 H 927.975 -0.473949 -2.50251 0
M  V30 9876 H 928.758 -2.135 -2.68836 0
M  V30 9877 N 931.203 1.46865 -0.571711 0
M  V30 9878 C 932.15 2.30189 0.167808 0
M  V30 9879 C 933.12 1.3995 0.89461 0
M  V30 9880 O 934.305 1.68905 0.887451 0
M  V30 9881 C 931.445 3.24205 1.1826 0
M  V30 9882 C 930.558 4.2954 0.460376 0
M  V30 9883 C 929.693 5.10693 1.46173 0
M  V30 9884 C 928.732 6.07788 0.725291 0
M  V30 9885 N 927.869 6.81847 1.67417 0
M  V30 9886 H 932.709 2.92902 -0.548831 0
M  V30 9887 H 930.246 1.44362 -0.282474 0
M  V30 9888 H 932.204 3.77147 1.7837 0
M  V30 9889 H 930.834 2.63324 1.86709 0
M  V30 9890 H 929.886 3.79541 -0.255546 0
M  V30 9891 H 931.198 4.98665 -0.115855 0
M  V30 9892 H 930.352 5.67857 2.13595 0
M  V30 9893 H 929.091 4.41502 2.07188 0
M  V30 9894 H 928.096 5.49787 0.037228 0
M  V30 9895 H 929.321 6.78993 0.120678 0
M  V30 9896 H 927.267 6.15376 2.27263 0
M  V30 9897 H 927.184 7.47195 1.15046 0
M  V30 9898 H 928.452 7.43577 2.33908 0
M  V30 9899 N 932.681 0.308908 1.54543 0
M  V30 9900 C 934.092 -0.182144 1.85809 0
M  V30 9901 C 934.443 -1.52796 1.23076 0
M  V30 9902 O 933.568 -2.09775 0.531358 0
M  V30 9903 C 934.163 -0.337275 3.37117 0
M  V30 9904 C 932.722 -0.772545 3.68387 0
M  V30 9905 C 931.869 0.114451 2.77064 0
M  V30 9906 H 934.82 0.529671 1.496 0
M  V30 9907 H 934.841 -1.17058 3.62046 0
M  V30 9908 H 934.353 0.642382 3.82747 0
M  V30 9909 H 932.454 -1.76247 3.2828 0
M  V30 9910 H 932.567 -0.586453 4.75497 0
M  V30 9911 H 930.931 -0.407581 2.51418 0
M  V30 9912 H 931.714 1.09061 3.25516 0
M  V30 9913 N 934.159 -1.57557 0.0367827 0
M  V30 9914 C 935.406 -1.92114 -0.640185 0
M  V30 9915 C 935.734 -0.913887 -1.71693 0
M  V30 9916 O 934.989 0.0760343 -1.95552 0
M  V30 9917 C 935.288 -3.33387 -1.28794 0
M  V30 9918 C 934.954 -4.4961 -0.340819 0
M  V30 9919 C 933.616 -4.81133 -0.0801574 0
M  V30 9920 C 935.968 -5.20283 0.309106 0
M  V30 9921 C 933.296 -5.80683 0.838107 0
M  V30 9922 C 935.648 -6.20813 1.21547 0
M  V30 9923 C 934.312 -6.50773 1.48495 0
M  V30 9924 H 933.582 -0.702996 -0.23426 0
M  V30 9925 H 936.229 -1.91238 0.100188 0
M  V30 9926 H 934.534 -3.30561 -2.10324 0
M  V30 9927 H 936.231 -3.57399 -1.81843 0
M  V30 9928 H 932.821 -4.25002 -0.554161 0
M  V30 9929 H 937.005 -4.96153 0.120794 0
M  V30 9930 H 932.261 -6.02238 1.05451 0
M  V30 9931 H 936.435 -6.74692 1.72522 0
M  V30 9932 H 934.062 -7.27727 2.19814 0
M  V30 9933 N 935.637 0.236453 -1.55816 0
M  V30 9934 C 936.885 0.96111 -1.77784 0
M  V30 9935 C 937.206 1.85454 -0.602648 0
M  V30 9936 O 936.476 1.92157 0.381137 0
M  V30 9937 H 935.056 0.35787 -0.655697 0
M  V30 9938 H 937.718 0.251888 -1.93265 0
M  V30 9939 H 936.814 1.5767 -2.69345 0
M  V30 9940 N 937.115 1.49373 0.502552 0
M  V30 9941 C 938.526 1.52 1.0841 0
M  V30 9942 C 938.877 0.305317 1.9381 0
M  V30 9943 O 938.002 -0.585023 2.08342 0
M  V30 9944 C 938.597 2.75437 1.97281 0
M  V30 9945 C 937.156 2.80848 2.50602 0
M  V30 9946 C 936.303 2.45894 1.28186 0
M  V30 9947 H 939.254 1.56092 0.286533 0
M  V30 9948 H 939.275 2.55511 2.81947 0
M  V30 9949 H 938.787 3.63827 1.35098 0
M  V30 9950 H 936.888 1.96735 3.16427 0
M  V30 9951 H 937.001 3.82979 2.8786 0
M  V30 9952 H 935.365 1.97639 1.60657 0
M  V30 9953 H 936.148 3.36556 0.677139 0
M  V30 9954 N 938.594 -0.753485 1.38421 0
M  V30 9955 C 939.526 -1.87692 1.31547 0
M  V30 9956 C 940.539 -1.612 0.227671 0
M  V30 9957 O 941.728 -1.71778 0.485238 0
M  V30 9958 C 938.828 -3.23329 1.01545 0
M  V30 9959 C 938.001 -3.77324 2.21236 0
M  V30 9960 C 937.06 -4.91478 1.87977 0
M  V30 9961 O 936.086 -5.06106 2.60472 0
M  V30 9962 N 937.288 -5.74466 0.834796 0
M  V30 9963 H 940.053 -1.94099 2.28354 0
M  V30 9964 H 937.614 -0.933421 1.32283 0
M  V30 9965 H 939.606 -3.9724 0.773477 0
M  V30 9966 H 938.176 -3.12307 0.135334 0
M  V30 9967 H 937.396 -2.94978 2.61498 0
M  V30 9968 H 938.684 -4.10131 3.01115 0
M  V30 9969 H 938.082 -5.65217 0.233606 0
M  V30 9970 H 936.639 -6.48524 0.652703 0
M  V30 9971 N 940.072 -1.23292 -0.981677 0
M  V30 9972 C 941.321 -1.05832 -1.71705 0
M  V30 9973 C 941.634 0.40514 -1.91358 0
M  V30 9974 O 942.84 0.699645 -2.6233 0
M  V30 9975 C 941.296 -1.84532 -3.08992 0
M  V30 9976 C 940.904 -3.35199 -2.9723 0
M  V30 9977 C 942.648 -1.75557 -3.86497 0
M  V30 9978 C 940.555 -4.06296 -4.29741 0
M  V30 9979 H 939.485 -0.39241 -0.64384 0
M  V30 9980 H 942.136 -1.47247 -1.09502 0
M  V30 9981 H 940.518 -1.35923 -3.71942 0
M  V30 9982 H 941.692 -3.91286 -2.43377 0
M  V30 9983 H 940.007 -3.44973 -2.332 0
M  V30 9984 H 942.604 -2.25989 -4.84596 0
M  V30 9985 H 942.947 -0.718101 -4.1006 0
M  V30 9986 H 943.48 -2.21771 -3.30246 0
M  V30 9987 H 940.219 -5.10344 -4.11375 0
M  V30 9988 H 939.739 -3.54997 -4.83464 0
M  V30 9989 H 941.418 -4.12519 -4.98434 0
M  V30 9990 N 941.55 1.18024 -1.04442 0
M  V30 9991 C 942.497 2.21785 -0.638759 0
M  V30 9992 C 943.467 1.62255 0.355312 0
M  V30 9993 O 944.652 1.89176 0.24844 0
M  V30 9994 C 941.792 3.45098 -0.0118002 0
M  V30 9995 C 940.905 4.1895 -1.05379 0
M  V30 9996 C 940.04 5.2973 -0.394951 0
M  V30 9997 C 939.079 5.95359 -1.42178 0
M  V30 9998 N 938.216 6.97668 -0.787635 0
M  V30 9999 H 943.056 2.55839 -1.52808 0
M  V30 10000 H 940.593 1.25681 -0.764378 0
M  V30 10001 H 942.551 4.15564 0.369075 0
M  V30 10002 H 941.181 3.11652 0.84102 0
M  V30 10003 H 940.233 3.47274 -1.55258 0
M  V30 10004 H 941.545 4.63877 -1.83355 0
M  V30 10005 H 940.699 6.06687 0.0399244 0
M  V30 10006 H 939.438 4.85915 0.416867 0
M  V30 10007 H 938.443 5.17139 -1.86675 0
M  V30 10008 H 939.668 6.41255 -2.23536 0
M  V30 10009 H 937.614 6.56 0.00380893 0
M  V30 10010 H 937.531 7.40867 -1.50505 0
M  V30 10011 H 938.799 7.78586 -0.377282 0
M  V30 10012 N 943.028 0.824394 1.34319 0
M  V30 10013 C 944.276 0.41235 1.97849 0
M  V30 10014 C 944.597 -1.02841 1.65677 0
M  V30 10015 O 943.867 -1.71421 0.948245 0
M  V30 10016 H 942.447 0.149486 0.73189 0
M  V30 10017 H 945.109 1.05416 1.63931 0
M  V30 10018 H 944.205 0.532557 3.07523 0
M  V30 10019 N 944.506 -1.46559 0.579492 0
M  V30 10020 C 945.734 -2.06784 0.0693648 0
M  V30 10021 C 946.149 -1.42875 -1.23419 0
M  V30 10022 O 945.506 -0.532919 -1.74546 0
M  V30 10023 C 945.557 -3.61343 -0.106511 0
M  V30 10024 O 945.278 -4.22861 1.14545 0
M  V30 10025 C 946.779 -4.38489 -0.651359 0
M  V30 10026 H 943.999 -0.66866 0.0559848 0
M  V30 10027 H 946.543 -1.88235 0.799245 0
M  V30 10028 H 944.698 -3.7933 -0.786601 0
M  V30 10029 H 945.112 -5.15691 0.95723 0
M  V30 10030 H 946.586 -5.47237 -0.723615 0
M  V30 10031 H 947.063 -4.06309 -1.66763 0
M  V30 10032 H 947.669 -4.253 -0.0062433 0
M  V30 10033 N 945.984 -0.3171 -1.54377 0
M  V30 10034 C 947.224 0.288083 -2.0236 0
M  V30 10035 C 947.588 1.4985 -1.20038 0
M  V30 10036 O 948.789 2.17611 -1.57794 0
M  V30 10037 C 947.06 0.620192 -3.51978 0
M  V30 10038 S 948.619 1.20595 -4.21903 0
M  V30 10039 H 945.437 0.0875231 -0.705592 0
M  V30 10040 H 948.039 -0.448719 -1.90281 0
M  V30 10041 H 946.743 -0.268982 -4.09518 0
M  V30 10042 H 946.274 1.38736 -3.68125 0
M  V30 10043 H 948.289 2.49308 -4.29022 0
M  V30 10044 N 947.462 1.57535 -0.0451378 0
M  V30 10045 C 948.702 1.9432 0.633955 0
M  V30 10046 C 949.066 0.922924 1.68363 0
M  V30 10047 O 950.267 1.17751 2.41636 0
M  V30 10048 C 948.538 3.35933 1.21999 0
M  V30 10049 S 950.097 3.94666 1.91793 0
M  V30 10050 H 946.915 0.679798 0.208318 0
M  V30 10051 H 949.517 1.95175 -0.112633 0
M  V30 10052 H 948.221 4.07993 0.443821 0
M  V30 10053 H 947.752 3.38559 2.00353 0
M  V30 10054 H 949.767 3.79401 3.19796 0
M  V30 10055 N 948.94 -0.228186 1.55939 0
M  V30 10056 C 949.87 -1.28607 1.94891 0
M  V30 10057 C 950.851 -1.49236 0.816245 0
M  V30 10058 O 952.036 -1.61531 1.07803 0
M  V30 10059 C 949.166 -2.63719 2.25986 0
M  V30 10060 C 948.12 -2.57757 3.4168 0
M  V30 10061 C 947.446 -3.96837 3.58364 0
M  V30 10062 C 948.746 -2.13116 4.76843 0
M  V30 10063 H 950.44 -0.962531 2.83506 0
M  V30 10064 H 947.986 -0.461577 1.36402 0
M  V30 10065 H 949.939 -3.37878 2.51826 0
M  V30 10066 H 948.663 -2.97747 1.34217 0
M  V30 10067 H 947.322 -1.86055 3.15878 0
M  V30 10068 H 946.97 -4.28162 2.63982 0
M  V30 10069 H 946.67 -3.93731 4.36176 0
M  V30 10070 H 948.194 -4.72668 3.86545 0
M  V30 10071 H 949.608 -2.77015 5.01932 0
M  V30 10072 H 948.005 -2.21083 5.57891 0
M  V30 10073 H 949.075 -1.08326 4.72645 0
M  V30 10074 N 950.418 -1.49637 -0.494624 0
M  V30 10075 C 951.328 -1.69522 -1.62172 0
M  V30 10076 C 952.344 -0.577894 -1.64123 0
M  V30 10077 O 953.52 -0.853382 -1.82426 0
M  V30 10078 C 950.585 -1.7633 -2.9851 0
M  V30 10079 C 949.646 -2.99944 -3.07135 0
M  V30 10080 C 948.879 -3.06419 -4.36971 0
M  V30 10081 O 949.102 -2.20312 -5.26136 0
M  V30 10082 O 948.036 -3.9894 -4.507 0
M  V30 10083 H 951.862 -2.65017 -1.48324 0
M  V30 10084 H 949.447 -1.33454 -0.671603 0
M  V30 10085 H 951.329 -1.83125 -3.7953 0
M  V30 10086 H 950.004 -0.840155 -3.12607 0
M  V30 10087 H 948.911 -2.98664 -2.2528 0
M  V30 10088 H 950.244 -3.9176 -2.97968 0
M  V30 10089 N 951.896 0.746133 -1.38819 0
M  V30 10090 C 952.806 1.89063 -1.38897 0
M  V30 10091 C 953.822 1.71648 -0.28513 0
M  V30 10092 O 954.998 1.94443 -0.524783 0
M  V30 10093 C 952.063 3.24523 -1.22007 0
M  V30 10094 C 951.124 3.54411 -2.42263 0
M  V30 10095 C 950.357 4.83408 -2.26169 0
M  V30 10096 O 950.58 5.56325 -1.25931 0
M  V30 10097 O 949.514 5.12943 -3.14918 0
M  V30 10098 H 953.34 1.91951 -2.35347 0
M  V30 10099 H 950.925 0.892433 -1.19816 0
M  V30 10100 H 952.807 4.05496 -1.14677 0
M  V30 10101 H 951.482 3.2243 -0.286455 0
M  V30 10102 H 950.389 2.73569 -2.55168 0
M  V30 10103 H 951.722 3.61273 -3.3428 0
M  V30 10104 N 953.375 1.23811 0.975125 0
M  V30 10105 C 954.322 1.02394 2.06843 0
M  V30 10106 C 955.292 -0.060337 1.6599 0
M  V30 10107 O 956.477 0.0928187 1.90574 0
M  V30 10108 C 953.617 0.626882 3.39359 0
M  V30 10109 C 952.73 1.78385 3.9345 0
M  V30 10110 C 951.865 1.33307 5.14201 0
M  V30 10111 C 950.904 2.46045 5.60471 0
M  V30 10112 N 950.041 2.01888 6.72448 0
M  V30 10113 H 954.881 1.95973 2.24496 0
M  V30 10114 H 952.418 0.976206 1.10039 0
M  V30 10115 H 954.376 0.377742 4.15486 0
M  V30 10116 H 953.006 -0.271907 3.21653 0
M  V30 10117 H 952.058 2.14685 3.14029 0
M  V30 10118 H 953.37 2.63122 4.23755 0
M  V30 10119 H 952.524 1.04237 5.97678 0
M  V30 10120 H 951.263 0.456143 4.85562 0
M  V30 10121 H 950.268 2.75884 4.75571 0
M  V30 10122 H 951.493 3.34283 5.91127 0
M  V30 10123 H 949.439 1.16583 6.45558 0
M  V30 10124 H 949.356 2.80182 7.02164 0
M  V30 10125 H 950.624 1.75937 7.59386 0
M  V30 10126 N 954.853 -1.17469 1.05066 0
M  V30 10127 C 956.102 -1.87032 0.755114 0
M  V30 10128 C 956.415 -1.81844 -0.720572 0
M  V30 10129 O 957.621 -2.46866 -1.13002 0
M  V30 10130 C 956.077 -3.35581 1.30052 0
M  V30 10131 C 955.685 -3.49274 2.80556 0
M  V30 10132 C 957.429 -4.1048 1.08196 0
M  V30 10133 C 955.336 -4.91838 3.28404 0
M  V30 10134 H 954.266 -0.70057 0.278779 0
M  V30 10135 H 956.917 -1.32663 1.26779 0
M  V30 10136 H 955.299 -3.89479 0.715667 0
M  V30 10137 H 956.473 -3.05598 3.44886 0
M  V30 10138 H 954.788 -2.87793 3.00939 0
M  V30 10139 H 957.385 -5.15652 1.41447 0
M  V30 10140 H 957.728 -4.16295 0.0196603 0
M  V30 10141 H 958.261 -3.62784 1.63195 0
M  V30 10142 H 955 -4.91196 4.34058 0
M  V30 10143 H 954.52 -5.36189 2.68815 0
M  V30 10144 H 956.199 -5.60602 3.23009 0
M  V30 10145 N 956.331 -0.831506 -1.3388 0
M  V30 10146 C 957.571 -0.429648 -1.99833 0
M  V30 10147 C 957.935 0.990796 -1.6446 0
M  V30 10148 O 959.136 1.49599 -2.23324 0
M  V30 10149 C 957.407 -0.635558 -3.51704 0
M  V30 10150 S 958.966 -0.327824 -4.37574 0
M  V30 10151 H 955.784 -0.161939 -0.692313 0
M  V30 10152 H 958.386 -1.07919 -1.63015 0
M  V30 10153 H 957.09 -1.66887 -3.74936 0
M  V30 10154 H 956.621 0.0284073 -3.9339 0
M  V30 10155 H 958.636 0.855231 -4.88774 0
M  V30 10156 N 957.809 1.4625 -0.587256 0
M  V30 10157 C 959.049 2.04254 -0.0773169 0
M  V30 10158 C 959.413 1.44831 1.26047 0
M  V30 10159 O 960.614 1.94063 1.85992 0
M  V30 10160 C 958.885 3.57396 -0.0172813 0
M  V30 10161 S 960.444 4.36644 0.434422 0
M  V30 10162 H 957.262 0.709892 -0.0396783 0
M  V30 10163 H 959.864 1.79232 -0.780779 0
M  V30 10164 H 958.568 3.98161 -0.994795 0
M  V30 10165 H 958.099 3.86962 0.70881 0
M  V30 10166 H 960.114 4.66597 1.68824 0
M  V30 10167 N 959.287 0.325282 1.54207 0
M  V30 10168 C 960.217 -0.532574 2.27345 0
M  V30 10169 C 961.198 -1.11791 1.28206 0
M  V30 10170 O 962.383 -1.14272 1.57021 0
M  V30 10171 C 959.513 -1.69274 3.03255 0
M  V30 10172 C 958.467 -1.23662 4.09746 0
M  V30 10173 C 957.793 -2.48386 4.73506 0
M  V30 10174 C 959.093 -0.350244 5.21124 0
M  V30 10175 H 960.787 0.0775108 2.993 0
M  V30 10176 H 958.333 0.0387193 1.43948 0
M  V30 10177 H 960.286 -2.29917 3.53152 0
M  V30 10178 H 959.01 -2.32944 2.28921 0
M  V30 10179 H 957.669 -0.653106 3.60735 0
M  V30 10180 H 957.317 -3.10424 3.95786 0
M  V30 10181 H 957.017 -2.18558 5.45441 0
M  V30 10182 H 958.541 -3.09789 5.26178 0
M  V30 10183 H 959.955 -0.863011 5.66767 0
M  V30 10184 H 958.352 -0.14466 5.99926 0
M  V30 10185 H 959.422 0.618457 4.8094 0
M  V30 10186 N 960.765 -1.57509 0.0534917 0
M  V30 10187 C 961.695 -2.14698 -0.917999 0
M  V30 10188 C 962.676 -1.06924 -1.32292 0
M  V30 10189 O 963.861 -1.34875 -1.39723 0
M  V30 10190 C 960.991 -2.69383 -2.19203 0
M  V30 10191 C 959.945 -3.82161 -1.9271 0
M  V30 10192 C 959.271 -4.23373 -3.26587 0
M  V30 10193 C 960.571 -5.07199 -1.24686 0
M  V30 10194 H 962.265 -2.96125 -0.44165 0
M  V30 10195 H 959.811 -1.42446 -0.210993 0
M  V30 10196 H 961.764 -3.08031 -2.87567 0
M  V30 10197 H 960.488 -1.85151 -2.69048 0
M  V30 10198 H 959.147 -3.43989 -1.26757 0
M  V30 10199 H 958.795 -3.36089 -3.74237 0
M  V30 10200 H 958.495 -4.99385 -3.09658 0
M  V30 10201 H 960.019 -4.64623 -3.96178 0
M  V30 10202 H 961.433 -5.43279 -1.83088 0
M  V30 10203 H 959.83 -5.88369 -1.18076 0
M  V30 10204 H 960.9 -4.84386 -0.223227 0
M  V30 10205 N 962.243 0.219913 -1.56058 0
M  V30 10206 C 963.153 1.29349 -1.95719 0
M  V30 10207 C 964.169 1.5119 -0.861248 0
M  V30 10208 O 965.345 1.64289 -1.16495 0
M  V30 10209 C 962.41 2.6229 -2.26726 0
M  V30 10210 C 961.471 2.48738 -3.49897 0
M  V30 10211 C 960.704 3.75339 -3.79416 0
M  V30 10212 O 960.927 4.78427 -3.10586 0
M  V30 10213 O 959.861 3.72352 -4.72903 0
M  V30 10214 H 963.687 0.986979 -2.87215 0
M  V30 10215 H 961.272 0.42291 -1.43289 0
M  V30 10216 H 963.154 3.408 -2.47857 0
M  V30 10217 H 961.829 2.92619 -1.38404 0
M  V30 10218 H 960.736 1.68422 -3.34043 0
M  V30 10219 H 962.069 2.23347 -4.38608 0
M  V30 10220 N 963.721 1.49897 0.486681 0
M  V30 10221 C 965.132 1.53142 1.06792 0
M  V30 10222 C 965.483 0.325856 1.93475 0
M  V30 10223 O 964.608 -0.562893 2.08951 0
M  V30 10224 C 965.203 2.77514 1.94348 0
M  V30 10225 C 963.762 2.83491 2.47609 0
M  V30 10226 C 962.909 2.47239 1.2557 0
M  V30 10227 H 965.86 1.56387 0.269962 0
M  V30 10228 H 965.881 2.58487 2.79221 0
M  V30 10229 H 965.393 3.65239 1.31232 0
M  V30 10230 H 963.494 2.0008 3.14323 0
M  V30 10231 H 963.607 3.86011 2.83782 0
M  V30 10232 H 961.971 1.99332 1.58552 0
M  V30 10233 H 962.754 3.37255 0.641404 0
M  V30 10234 N 965.199 -0.738761 1.39212 0
M  V30 10235 C 966.129 -1.86602 1.40364 0
M  V30 10236 C 967.11 -1.67984 0.267495 0
M  V30 10237 O 968.295 -1.88358 0.472765 0
M  V30 10238 C 965.425 -3.24308 1.24265 0
M  V30 10239 C 964.379 -3.57557 2.35239 0
M  V30 10240 C 963.705 -4.94159 2.04233 0
M  V30 10241 C 965.005 -3.60914 3.77543 0
M  V30 10242 H 966.699 -1.85896 2.34698 0
M  V30 10243 H 964.245 -0.892959 1.1297 0
M  V30 10244 H 966.198 -4.02838 1.23692 0
M  V30 10245 H 964.922 -3.25531 0.263974 0
M  V30 10246 H 963.581 -2.81354 2.35022 0
M  V30 10247 H 963.229 -4.91959 1.04813 0
M  V30 10248 H 962.929 -5.17373 2.78567 0
M  V30 10249 H 964.453 -5.7505 2.05303 0
M  V30 10250 H 965.867 -4.29528 3.79709 0
M  V30 10251 H 964.264 -3.95644 4.51205 0
M  V30 10252 H 965.334 -2.60803 4.08791 0
M  V30 10253 N 966.677 -1.24326 -0.968545 0
M  V30 10254 C 967.925 -1.08032 -1.70803 0
M  V30 10255 C 968.246 0.381728 -1.91227 0
M  V30 10256 O 967.516 1.27253 -1.48942 0
M  V30 10257 H 966.096 -0.396777 -0.632912 0
M  V30 10258 H 968.758 -1.56232 -1.16523 0
M  V30 10259 H 967.854 -1.57769 -2.69287 0
M  V30 10260 N 968.156 1.1691 -1.05688 0
M  V30 10261 C 969.403 1.87292 -0.76993 0
M  V30 10262 C 969.731 1.81339 0.703295 0
M  V30 10263 O 968.986 1.21959 1.5305 0
M  V30 10264 C 969.285 3.36578 -1.20207 0
M  V30 10265 C 968.951 3.62732 -2.67836 0
M  V30 10266 C 967.613 3.69579 -3.08163 0
M  V30 10267 C 969.965 3.73803 -3.63209 0
M  V30 10268 C 967.293 3.84992 -4.42717 0
M  V30 10269 C 969.645 3.90735 -4.97503 0
M  V30 10270 C 968.309 3.95823 -5.37476 0
M  V30 10271 H 967.579 0.68535 -0.281737 0
M  V30 10272 H 970.226 1.38274 -1.32486 0
M  V30 10273 H 968.531 3.87687 -0.566222 0
M  V30 10274 H 970.228 3.89409 -0.957183 0
M  V30 10275 H 966.818 3.58031 -2.35609 0
M  V30 10276 H 971.002 3.67829 -3.3319 0
M  V30 10277 H 966.258 3.87181 -4.73182 0
M  V30 10278 H 970.432 3.98243 -5.71293 0
M  V30 10279 H 968.059 4.07518 -6.41742 0
M  V30 10280 N 969.634 0.838594 1.33437 0
M  V30 10281 C 970.581 0.269609 2.2922 0
M  V30 10282 C 971.551 -0.614429 1.54318 0
M  V30 10283 O 972.736 -0.552756 1.82618 0
M  V30 10284 C 969.876 -0.549527 3.40697 0
M  V30 10285 C 968.989 0.358502 4.3051 0
M  V30 10286 C 968.124 -0.471709 5.29101 0
M  V30 10287 C 967.163 0.434728 6.10554 0
M  V30 10288 N 966.3 -0.357339 7.0119 0
M  V30 10289 H 971.14 1.09172 2.77282 0
M  V30 10290 H 968.677 0.549832 1.36438 0
M  V30 10291 H 970.635 -1.03992 4.04032 0
M  V30 10292 H 969.265 -1.33661 2.93828 0
M  V30 10293 H 968.317 0.967204 3.67899 0
M  V30 10294 H 969.629 1.05483 4.87519 0
M  V30 10295 H 968.783 -1.02594 5.97963 0
M  V30 10296 H 967.522 -1.20147 4.72669 0
M  V30 10297 H 966.527 1.00097 5.40611 0
M  V30 10298 H 967.752 1.16285 6.6907 0
M  V30 10299 H 965.698 -1.07049 6.47207 0
M  V30 10300 H 965.615 0.280277 7.5548 0
M  V30 10301 H 966.883 -0.893814 7.74359 0
M  V30 10302 N 971.112 -1.45937 0.595003 0
M  V30 10303 C 972.352 -2.0421 0.0881479 0
M  V30 10304 C 972.716 -1.45498 -1.25277 0
M  V30 10305 O 973.917 -1.95047 -1.8496 0
M  V30 10306 C 972.188 -3.57382 0.0362346 0
M  V30 10307 S 973.747 -4.36869 -0.41126 0
M  V30 10308 H 970.565 -0.709672 0.0434424 0
M  V30 10309 H 973.167 -1.78815 0.790273 0
M  V30 10310 H 971.871 -3.97628 1.0159 0
M  V30 10311 H 971.402 -3.87332 -0.688278 0
M  V30 10312 H 973.417 -4.67486 -1.66347 0
M  V30 10313 N 972.59 -0.333456 -1.54032 0
M  V30 10314 C 973.818 0.267813 -2.05159 0
M  V30 10315 C 974.233 1.4501 -1.20903 0
M  V30 10316 O 973.59 1.80888 -0.241994 0
M  V30 10317 C 973.641 0.69268 -3.54802 0
M  V30 10318 O 973.362 -0.442579 -4.35859 0
M  V30 10319 C 974.863 1.35572 -4.2206 0
M  V30 10320 H 972.083 0.0534924 -0.668864 0
M  V30 10321 H 974.627 -0.482515 -1.98726 0
M  V30 10322 H 972.782 1.39297 -3.6149 0
M  V30 10323 H 973.196 -0.105915 -5.24393 0
M  V30 10324 H 974.67 1.60385 -5.28186 0
M  V30 10325 H 975.147 2.30614 -3.73783 0
M  V30 10326 H 975.753 0.697748 -4.19537 0
M  V30 10327 N 974.068 1.57479 -0.061844 0
M  V30 10328 C 975.315 1.93108 0.60954 0
M  V30 10329 C 975.643 0.941086 1.70217 0
M  V30 10330 O 974.898 -0.044914 1.95648 0
M  V30 10331 C 975.197 3.35394 1.23474 0
M  V30 10332 C 974.863 4.50095 0.269247 0
M  V30 10333 C 973.525 4.812 0.00360316 0
M  V30 10334 C 975.877 5.19725 -0.391839 0
M  V30 10335 C 973.205 5.79276 -0.930383 0
M  V30 10336 C 975.557 6.18801 -1.31408 0
M  V30 10337 C 974.221 6.48328 -1.58829 0
M  V30 10338 H 973.491 0.706634 0.223046 0
M  V30 10339 H 976.138 1.91054 -0.1306 0
M  V30 10340 H 974.443 3.33866 2.05039 0
M  V30 10341 H 976.14 3.60247 1.76134 0
M  V30 10342 H 972.73 4.2583 0.486477 0
M  V30 10343 H 976.914 4.95898 -0.199713 0
M  V30 10344 H 972.17 6.00484 -1.15019 0
M  V30 10345 H 976.344 6.71862 -1.83234 0
M  V30 10346 H 973.971 7.24137 -2.31363 0
M  V30 10347 N 975.546 -0.211634 1.56173 0
M  V30 10348 C 976.795 -0.932647 1.78842 0
M  V30 10349 C 977.108 -1.85103 0.63217 0
M  V30 10350 O 978.314 -2.61143 0.742746 0
M  V30 10351 C 976.77 -1.70866 3.16753 0
M  V30 10352 C 976.378 -0.835934 4.40132 0
M  V30 10353 C 978.122 -2.4203 3.48743 0
M  V30 10354 C 976.029 -1.60987 5.69067 0
M  V30 10355 H 974.959 -0.351983 0.666801 0
M  V30 10356 H 977.61 -0.186284 1.82552 0
M  V30 10357 H 975.992 -2.4983 3.07247 0
M  V30 10358 H 977.166 -0.0861298 4.60719 0
M  V30 10359 H 975.481 -0.235941 4.15731 0
M  V30 10360 H 978.078 -3.00453 4.42303 0
M  V30 10361 H 978.421 -3.15406 2.71707 0
M  V30 10362 H 978.954 -1.70048 3.59623 0
M  V30 10363 H 975.693 -0.9192 6.49023 0
M  V30 10364 H 975.213 -2.33403 5.52524 0
M  V30 10365 H 976.892 -2.16798 6.09596 0
M  V30 10366 N 977.024 -1.50153 -0.478725 0
M  V30 10367 C 977.972 -1.68975 -1.59844 0
M  V30 10368 C 978.966 -0.555591 -1.6003 0
M  V30 10369 O 980.172 -0.735875 -1.64271 0
M  V30 10370 H 976.547 -0.533211 -0.530274 0
M  V30 10371 H 978.518 -2.62917 -1.41128 0
M  V30 10372 C 977.267 -1.79409 -2.97838 0
M  V30 10373 H 976.59 -2.66066 -2.98411 0
M  V30 10374 H 978.03 -1.96606 -3.75662 0
M  V30 10375 C 976.489 -0.543927 -3.3248 0
M  V30 10376 O 977.019 0.320376 -4.0042 0
M  V30 10377 N 975.225 -0.400217 -2.87831 0
M  V30 10378 H 974.772 -1.10458 -2.32716 0
M  V30 10379 H 974.73 0.435111 -3.11375 0
M  V30 10380 N 978.502 0.731368 -1.39602 0
M  V30 10381 C 979.779 1.48308 -1.27531 0
M  V30 10382 C 980.159 2.10795 0.113482 0
M  V30 10383 O 979.507 1.98886 1.12501 0
M  V30 10384 C 979.717 2.53156 -2.40235 0
M  V30 10385 C 981.065 3.19436 -2.79725 0
M  V30 10386 O 982.089 2.6347 -2.39712 0
M  V30 10387 O 980.948 4.20714 -3.48801 0
M  V30 10388 H 978.042 0.658753 -0.499973 0
M  V30 10389 H 980.588 0.764884 -1.51485 0
M  V30 10390 H 979.36 2.05387 -3.33064 0
M  V30 10391 H 978.983 3.3253 -2.17966 0
M  V30 10392 N 979.98 1.24838 0.961938 0
M  V30 10393 C 981.227 1.09151 1.70564 0
M  V30 10394 C 981.555 -0.368719 1.90973 0
M  V30 10395 O 980.81 -1.28854 1.47293 0
M  V30 10396 C 981.109 1.78289 3.09754 0
M  V30 10397 C 980.775 3.28216 3.09169 0
M  V30 10398 C 979.437 3.69118 3.08716 0
M  V30 10399 C 981.789 4.24035 3.03058 0
M  V30 10400 C 979.117 5.04263 2.99892 0
M  V30 10401 C 981.469 5.59195 2.95776 0
M  V30 10402 C 980.133 5.99436 2.93655 0
M  V30 10403 H 979.403 0.399414 0.624139 0
M  V30 10404 H 982.05 1.55016 1.12438 0
M  V30 10405 H 980.355 1.24835 3.7138 0
M  V30 10406 H 982.052 1.63612 3.66104 0
M  V30 10407 H 978.642 2.95667 3.10289 0
M  V30 10408 H 982.826 3.93431 3.02532 0
M  V30 10409 H 978.082 5.3463 2.96615 0
M  V30 10410 H 982.256 6.33142 2.90007 0
M  V30 10411 H 979.883 7.04116 2.86573 0
M  V30 10412 N 981.458 -1.16348 1.06306 0
M  V30 10413 C 982.735 -1.829 0.69331 0
M  V30 10414 C 983.115 -1.94298 -0.82531 0
M  V30 10415 O 982.463 -1.48619 -1.73565 0
M  V30 10416 C 982.673 -3.1989 1.3954 0
M  V30 10417 C 984.021 -3.95662 1.54068 0
M  V30 10418 O 985.045 -3.29408 1.35532 0
M  V30 10419 O 983.904 -5.14422 1.84479 0
M  V30 10420 H 980.998 -0.789738 0.245445 0
M  V30 10421 H 983.544 -1.23549 1.16334 0
M  V30 10422 H 982.316 -3.06629 2.43093 0
M  V30 10423 H 981.939 -3.86918 0.915453 0
M  V30 10424 N 982.937 -0.845659 -1.3299 0
M  V30 10425 C 984.177 -0.450819 -1.99366 0
M  V30 10426 C 984.541 0.973297 -1.65502 0
M  V30 10427 O 985.742 1.47222 -2.24898 0
M  V30 10428 C 984.013 -0.672825 -3.5101 0
M  V30 10429 S 985.572 -0.374216 -4.37201 0
M  V30 10430 H 982.39 -0.169273 -0.690556 0
M  V30 10431 H 984.992 -1.09642 -1.61861 0
M  V30 10432 H 983.696 -1.70855 -3.73145 0
M  V30 10433 H 983.227 -0.0133185 -3.93398 0
M  V30 10434 H 985.242 0.803342 -4.89654 0
M  V30 10435 N 984.415 1.45619 -0.602734 0
M  V30 10436 C 985.645 2.06348 -0.102105 0
M  V30 10437 C 986.053 1.44884 1.21677 0
M  V30 10438 O 985.396 0.555559 1.75098 0
M  V30 10439 C 985.458 3.59309 0.117026 0
M  V30 10440 C 985.122 4.43081 -1.11931 0
M  V30 10441 C 986.119 4.78364 -2.03627 0
M  V30 10442 C 983.804 4.83908 -1.34677 0
M  V30 10443 C 985.798 5.53325 -3.16403 0
M  V30 10444 C 983.485 5.58624 -2.47754 0
M  V30 10445 C 984.483 5.93249 -3.38445 0
M  V30 10446 O 984.171 6.6645 -4.49555 0
M  V30 10447 H 983.903 0.672988 -0.0637478 0
M  V30 10448 H 986.457 1.87928 -0.828983 0
M  V30 10449 H 984.687 3.76111 0.898742 0
M  V30 10450 H 986.376 4.01897 0.568649 0
M  V30 10451 H 987.142 4.47384 -1.87277 0
M  V30 10452 H 983.021 4.56396 -0.649875 0
M  V30 10453 H 986.565 5.80268 -3.87214 0
M  V30 10454 H 982.462 5.89019 -2.64059 0
M  V30 10455 H 983.23 6.84895 -4.48175 0
M  V30 10456 N 985.893 0.34162 1.53853 0
M  V30 10457 C 986.823 -0.508431 2.27897 0
M  V30 10458 C 987.804 -1.10425 1.29384 0
M  V30 10459 O 988.989 -1.126 1.58224 0
M  V30 10460 C 986.119 -1.66048 3.05034 0
M  V30 10461 C 985.073 -1.19309 4.11035 0
M  V30 10462 C 984.399 -2.4335 4.76114 0
M  V30 10463 C 985.699 -0.294952 5.21467 0
M  V30 10464 H 987.393 0.109251 2.99201 0
M  V30 10465 H 984.939 0.0539847 1.43899 0
M  V30 10466 H 986.892 -2.26158 3.5557 0
M  V30 10467 H 985.616 -2.30503 2.31379 0
M  V30 10468 H 984.275 -0.614809 3.61408 0
M  V30 10469 H 983.923 -3.06208 3.99056 0
M  V30 10470 H 983.623 -2.1276 5.47729 0
M  V30 10471 H 985.147 -3.0419 5.29434 0
M  V30 10472 H 986.561 -0.80285 5.67651 0
M  V30 10473 H 984.958 -0.0810221 6.00045 0
M  V30 10474 H 986.028 0.669433 4.80257 0
M  V30 10475 N 987.371 -1.57444 0.0701946 0
M  V30 10476 C 988.599 -1.97754 -0.608358 0
M  V30 10477 C 989.014 -0.948496 -1.63245 0
M  V30 10478 O 988.371 0.065046 -1.82384 0
M  V30 10479 C 988.422 -3.38142 -1.27836 0
M  V30 10480 O 988.143 -4.37104 -0.295255 0
M  V30 10481 C 989.644 -3.93318 -2.04489 0
M  V30 10482 H 986.864 -0.650398 -0.164997 0
M  V30 10483 H 989.408 -2.04006 0.142124 0
M  V30 10484 H 987.563 -3.32982 -1.97994 0
M  V30 10485 H 987.977 -5.18732 -0.77574 0
M  V30 10486 H 989.451 -4.93774 -2.46762 0
M  V30 10487 H 989.928 -3.29774 -2.90079 0
M  V30 10488 H 990.534 -4.01875 -1.39201 0
M  V30 10489 N 988.849 0.203349 -1.56283 0
M  V30 10490 C 989.759 1.27266 -1.9708 0
M  V30 10491 C 990.775 1.50268 -0.877236 0
M  V30 10492 O 991.951 1.63044 -1.18231 0
M  V30 10493 C 989.016 2.59871 -2.29495 0
M  V30 10494 C 988.077 2.45012 -3.52516 0
M  V30 10495 C 987.31 3.71293 -3.83376 0
M  V30 10496 O 987.533 4.75106 -3.15643 0
M  V30 10497 O 986.467 3.67316 -4.76826 0
M  V30 10498 H 990.293 0.956461 -2.88246 0
M  V30 10499 H 987.878 0.407688 -1.4373 0
M  V30 10500 H 989.76 3.38152 -2.51458 0
M  V30 10501 H 988.435 2.91135 -1.415 0
M  V30 10502 H 987.342 1.6487 -3.35811 0
M  V30 10503 H 988.675 2.18683 -4.40952 0
M  V30 10504 N 990.327 1.50405 0.470755 0
M  V30 10505 C 991.573 1.6165 1.22462 0
M  V30 10506 C 991.906 0.316034 1.91611 0
M  V30 10507 O 991.181 -0.682509 1.82132 0
M  V30 10508 C 991.464 2.79702 2.26801 0
M  V30 10509 C 991.317 4.19631 1.61955 0
M  V30 10510 C 992.636 2.93313 3.28109 0
M  V30 10511 H 989.755 0.588345 0.443868 0
M  V30 10512 H 992.397 1.82792 0.518376 0
M  V30 10513 H 990.547 2.61807 2.87036 0
M  V30 10514 H 992.219 4.49117 1.05316 0
M  V30 10515 H 990.462 4.23874 0.922674 0
M  V30 10516 H 991.133 4.98162 2.37779 0
M  V30 10517 H 993.609 3.09697 2.77897 0
M  V30 10518 H 992.485 3.77537 3.98443 0
M  V30 10519 H 992.746 2.03942 3.9225 0
M  V30 10520 N 991.805 -0.723954 1.39988 0
M  V30 10521 C 993.053 -1.48078 1.3754 0
M  V30 10522 C 993.374 -1.94985 -0.0243358 0
M  V30 10523 O 992.644 -1.69764 -0.977602 0
M  V30 10524 H 991.224 -0.549354 0.506181 0
M  V30 10525 H 993.886 -0.858746 1.74962 0
M  V30 10526 H 992.982 -2.35763 2.04505 0
M  V30 10527 N 993.283 -1.25346 -0.955304 0
M  V30 10528 C 994.56 -1.00829 -1.67609 0
M  V30 10529 C 994.94 0.465675 -2.059 0
M  V30 10530 O 994.288 1.44287 -1.77182 0
M  V30 10531 C 994.498 -1.94337 -2.89886 0
M  V30 10532 C 995.846 -2.22142 -3.61854 0
M  V30 10533 O 996.87 -1.9209 -2.99967 0
M  V30 10534 O 995.729 -2.73239 -4.73289 0
M  V30 10535 H 992.823 -0.382314 -0.733325 0
M  V30 10536 H 995.369 -1.36498 -1.00829 0
M  V30 10537 H 994.141 -2.93867 -2.58376 0
M  V30 10538 H 993.764 -1.59062 -3.64397 0
M  V30 10539 N 994.761 1.15782 -1.06922 0
M  V30 10540 C 996.01 1.85807 -0.784774 0
M  V30 10541 C 996.323 1.82967 0.691551 0
M  V30 10542 O 997.529 2.48632 1.0906 0
M  V30 10543 C 995.985 3.33469 -1.35375 0
M  V30 10544 C 995.593 3.44766 -2.86077 0
M  V30 10545 C 997.337 4.08707 -1.14713 0
M  V30 10546 C 995.244 4.86551 -3.36187 0
M  V30 10547 H 994.174 0.696046 -0.28989 0
M  V30 10548 H 996.825 1.30629 -1.28873 0
M  V30 10549 H 995.207 3.88292 -0.77754 0
M  V30 10550 H 996.381 3.00073 -3.49704 0
M  V30 10551 H 994.696 2.82969 -3.05479 0
M  V30 10552 H 997.293 5.13336 -1.49633 0
M  V30 10553 H 997.636 4.16211 -0.0858868 0
M  V30 10554 H 998.169 3.60142 -1.68946 0
M  V30 10555 H 994.908 4.84229 -4.41818 0
M  V30 10556 H 994.428 5.31844 -2.77312 0
M  V30 10557 H 996.107 5.55392 -3.31887 0
M  V30 10558 N 996.239 0.8527 1.3254 0
M  V30 10559 C 997.479 0.461385 1.99125 0
M  V30 10560 C 997.843 -0.964507 1.66016 0
M  V30 10561 O 999.044 -1.46027 2.25676 0
M  V30 10562 C 997.315 0.69143 3.50648 0
M  V30 10563 S 998.874 0.397397 4.36997 0
M  V30 10564 H 995.692 0.172933 0.689649 0
M  V30 10565 H 998.294 1.10499 1.61277 0
M  V30 10566 H 996.998 1.72831 3.72233 0
M  V30 10567 H 996.529 0.0341812 3.93385 0
M  V30 10568 H 998.544 -0.777363 4.90073 0
M  V30 10569 N 997.718 -1.45297 0.610449 0
M  V30 10570 C 998.681 -2.28995 -0.0968194 0
M  V30 10571 C 999.681 -1.39923 -0.792353 0
M  V30 10572 O 1000.87 -1.62014 -0.64008 0
M  V30 10573 C 998.003 -3.21013 -1.14731 0
M  V30 10574 H 999.196 -2.93012 0.639082 0
M  V30 10575 H 996.749 -1.51867 0.369624 0
M  V30 10576 H 997.484 -2.61803 -1.91388 0
M  V30 10577 H 997.269 -3.86628 -0.652753 0
M  V30 10578 H 998.759 -3.8394 -1.64256 0
M  V30 10579 N 999.196 -0.349774 -1.5367 0
M  V30 10580 C 1000.44 0.245095 -2.02925 0
M  V30 10581 C 1000.8 1.4727 -1.23189 0
M  V30 10582 O 1002 2.14215 -1.62374 0
M  V30 10583 C 1000.27 0.545392 -3.53214 0
M  V30 10584 S 1001.83 1.11619 -4.24366 0
M  V30 10585 H 998.649 0.0725368 -0.70729 0
M  V30 10586 H 1001.25 -0.488979 -1.89286 0
M  V30 10587 H 999.955 -0.355786 -4.08855 0
M  V30 10588 H 999.486 1.30897 -3.70985 0
M  V30 10589 H 1001.5 2.40151 -4.34214 0
M  V30 10590 N 1000.67 1.57404 -0.0785433 0
M  V30 10591 C 1001.64 2.11977 0.871693 0
M  V30 10592 C 1002.64 1.04529 1.2219 0
M  V30 10593 O 1003.83 1.30488 1.15406 0
M  V30 10594 C 1000.96 2.6267 2.17296 0
M  V30 10595 H 1002.15 2.97246 0.398115 0
M  V30 10596 H 999.705 1.5537 0.170251 0
M  V30 10597 H 1000.44 1.80873 2.69175 0
M  V30 10598 H 1000.22 3.41214 1.93171 0
M  V30 10599 H 1001.71 3.04943 2.85306 0
M  V30 10600 N 1002.15 -0.195058 1.56388 0
M  V30 10601 C 1003.1 -1.26122 1.95438 0
M  V30 10602 C 1004.09 -1.47117 0.839818 0
M  V30 10603 O 1005.3 -1.47978 1.02482 0
M  V30 10604 H 1001.67 -0.423422 0.621464 0
M  V30 10605 H 1003.65 -0.904854 2.8435 0
M  V30 10606 C 1002.39 -2.59858 2.31017 0
M  V30 10607 H 1001.72 -2.44519 3.16308 0
M  V30 10608 H 1003.16 -3.33205 2.62203 0
M  V30 10609 C 1001.62 -3.16853 1.14481 0
M  V30 10610 O 1002.15 -3.995 0.419853 0
M  V30 10611 N 1000.35 -2.75599 0.921604 0
M  V30 10612 H 999.9 -2.08495 1.51287 0
M  V30 10613 H 999.858 -3.14072 0.143663 0
M  V30 10614 N 1003.63 -1.50653 -0.462772 0
M  V30 10615 C 1004.88 -1.61296 -1.21105 0
M  V30 10616 C 1005.19 -0.322757 -1.92919 0
M  V30 10617 O 1006.4 -0.308211 -2.69745 0
M  V30 10618 C 1004.85 -2.84752 -2.201 0
M  V30 10619 C 1004.46 -4.20681 -1.54051 0
M  V30 10620 C 1006.21 -3.04744 -2.95518 0
M  V30 10621 C 1004.11 -5.35314 -2.51381 0
M  V30 10622 H 1003.04 -0.60069 -0.455728 0
M  V30 10623 H 1005.69 -1.77093 -0.480656 0
M  V30 10624 H 1004.08 -2.62532 -2.96467 0
M  V30 10625 H 1005.25 -4.53187 -0.834168 0
M  V30 10626 H 1003.56 -4.06361 -0.908828 0
M  V30 10627 H 1006.16 -3.87559 -3.68378 0
M  V30 10628 H 1006.5 -2.16802 -3.55391 0
M  V30 10629 H 1007.04 -3.27185 -2.26263 0
M  V30 10630 H 1003.78 -6.25437 -1.96235 0
M  V30 10631 H 1003.3 -5.07216 -3.20144 0
M  V30 10632 H 1004.98 -5.66229 -3.1304 0
M  V30 10633 N 1005.11 0.71652 -1.4037 0
M  V30 10634 C 1006.52 1.02447 -1.22379 0
M  V30 10635 C 1006.72 2.0126 -0.0983394 0
M  V30 10636 O 1005.78 2.46569 0.544071 0
M  V30 10637 C 1007.09 1.56909 -2.56515 0
M  V30 10638 C 1008.64 1.68898 -2.6352 0
M  V30 10639 C 1009.12 2.26765 -3.97922 0
M  V30 10640 N 1010.61 2.34152 -3.99658 0
M  V30 10641 C 1011.34 2.79907 -5.00439 0
M  V30 10642 N 1010.84 3.25422 -6.11615 0
M  V30 10643 N 1012.63 2.79283 -4.87809 0
M  V30 10644 H 1004.78 0.0615306 -2.12311 0
M  V30 10645 H 1007.05 0.0898994 -0.943728 0
M  V30 10646 H 1006.75 0.917649 -3.39517 0
M  V30 10647 H 1006.63 2.55446 -2.77538 0
M  V30 10648 H 1009.01 2.33159 -1.8089 0
M  V30 10649 H 1009.09 0.689626 -2.46329 0
M  V30 10650 H 1008.74 1.63126 -4.80991 0
M  V30 10651 H 1008.67 3.27413 -4.12442 0
M  V30 10652 H 1011.16 2.02006 -3.19378 0
M  V30 10653 H 1011.47 3.58899 -6.84406 0
M  V30 10654 H 1009.82 3.23383 -6.15181 0
M  V30 10655 H 1013.01 2.43061 -4.00049 0
M  V30 10656 H 1013.18 3.14626 -5.66493 0
M  V30 10657 N 1006.59 1.25851 0.948643 0
M  V30 10658 C 1008 1.02802 1.22081 0
M  V30 10659 C 1008.2 -0.251461 1.99925 0
M  V30 10660 O 1007.26 -0.962592 2.33432 0
M  V30 10661 C 1008.57 2.25489 1.98936 0
M  V30 10662 C 1010.12 2.30312 2.11956 0
M  V30 10663 C 1010.59 3.52671 2.92211 0
M  V30 10664 N 1012.09 3.53103 2.99787 0
M  V30 10665 C 1012.82 4.44445 3.62294 0
M  V30 10666 N 1012.32 5.46065 4.26362 0
M  V30 10667 N 1014.11 4.32113 3.59493 0
M  V30 10668 H 1006.26 2.08042 0.428044 0
M  V30 10669 H 1008.52 0.913928 0.251872 0
M  V30 10670 H 1008.23 3.18513 1.4914 0
M  V30 10671 H 1008.1 2.2914 2.99624 0
M  V30 10672 H 1010.49 1.37808 2.60946 0
M  V30 10673 H 1010.57 2.30676 1.10554 0
M  V30 10674 H 1010.22 4.45501 2.43909 0
M  V30 10675 H 1010.15 3.49554 3.93853 0
M  V30 10676 H 1012.64 2.79597 2.54232 0
M  V30 10677 H 1012.95 6.11964 4.71932 0
M  V30 10678 H 1011.29 5.49931 4.24972 0
M  V30 10679 H 1014.49 3.51946 3.08629 0
M  V30 10680 H 1014.66 5.03493 4.0792 0
M  V30 10681 N 1008.06 -1.15214 1.07534 0
M  V30 10682 C 1009.31 -1.86319 0.800814 0
M  V30 10683 C 1009.64 -1.82221 -0.671494 0
M  V30 10684 O 1008.92 -1.24664 -1.49295 0
M  V30 10685 C 1009.2 -3.35347 1.31203 0
M  V30 10686 C 1009.05 -3.48067 2.84902 0
M  V30 10687 C 1010.37 -4.3016 0.930064 0
M  V30 10688 H 1007.49 -0.676523 0.292379 0
M  V30 10689 H 1010.13 -1.35349 1.33344 0
M  V30 10690 H 1008.28 -3.78886 0.858949 0
M  V30 10691 H 1009.96 -3.13379 3.38514 0
M  V30 10692 H 1008.2 -2.89566 3.23008 0
M  V30 10693 H 1008.87 -4.52782 3.15741 0
M  V30 10694 H 1011.35 -3.94591 1.3205 0
M  V30 10695 H 1010.22 -5.32914 1.31507 0
M  V30 10696 H 1010.48 -4.41796 -0.163824 0
M  V30 10697 N 1009.54 -0.859717 -1.32086 0
M  V30 10698 C 1010.95 -0.519529 -1.79326 0
M  V30 10699 C 1011.3 0.96295 -1.70944 0
M  V30 10700 O 1010.43 1.75139 -1.27104 0
M  V30 10701 C 1011.02 -0.936267 -3.25606 0
M  V30 10702 C 1009.58 -0.647899 -3.70782 0
M  V30 10703 C 1008.73 -1.13323 -2.53087 0
M  V30 10704 H 1011.68 -1.04643 -1.19312 0
M  V30 10705 H 1011.7 -0.254714 -3.79646 0
M  V30 10706 H 1011.21 -2.01527 -3.31675 0
M  V30 10707 H 1009.32 0.420172 -3.70223 0
M  V30 10708 H 1009.43 -1.21774 -4.63366 0
M  V30 10709 H 1007.79 -0.553325 -2.48617 0
M  V30 10710 H 1008.58 -2.21945 -2.61907 0
M  V30 10711 N 1011.02 1.44971 -0.618145 0
M  V30 10712 C 1012.27 2.02159 -0.117482 0
M  V30 10713 C 1012.6 1.48517 1.2559 0
M  V30 10714 O 1011.85 0.654192 1.84442 0
M  V30 10715 C 1012.15 3.57378 -0.0394861 0
M  V30 10716 C 1011.82 4.30218 -1.34993 0
M  V30 10717 C 1010.48 4.49835 -1.70886 0
M  V30 10718 C 1012.83 4.71768 -2.21551 0
M  V30 10719 C 1010.16 5.08258 -2.9307 0
M  V30 10720 C 1012.51 5.31543 -3.42993 0
M  V30 10721 C 1011.17 5.49381 -3.79126 0
M  V30 10722 H 1010.44 0.739752 -0.0429897 0
M  V30 10723 H 1013.09 1.73903 -0.801871 0
M  V30 10724 H 1011.4 3.84973 0.728217 0
M  V30 10725 H 1013.09 3.99343 0.364213 0
M  V30 10726 H 1009.68 4.15271 -1.06057 0
M  V30 10727 H 1013.87 4.56336 -1.95117 0
M  V30 10728 H 1009.12 5.20257 -3.21158 0
M  V30 10729 H 1013.3 5.62691 -4.10308 0
M  V30 10730 H 1010.92 5.94419 -4.73888 0
M  V30 10731 N 1012.5 0.357919 1.53482 0
M  V30 10732 C 1013.46 -0.479797 2.24122 0
M  V30 10733 C 1014.46 -1.01596 1.24639 0
M  V30 10734 O 1015.65 -0.902928 1.48973 0
M  V30 10735 C 1012.78 -1.66983 2.97203 0
M  V30 10736 H 1013.98 0.138219 2.99581 0
M  V30 10737 H 1011.53 0.109484 1.55916 0
M  V30 10738 H 1012.26 -2.32615 2.25966 0
M  V30 10739 H 1012.05 -1.29242 3.70188 0
M  V30 10740 H 1013.54 -2.26367 3.50924 0
M  V30 10741 N 1013.98 -1.5736 0.0868897 0
M  V30 10742 C 1015.22 -1.94054 -0.578741 0
M  V30 10743 C 1015.55 -0.968047 -1.68698 0
M  V30 10744 O 1014.81 0.0137824 -1.95695 0
M  V30 10745 C 1015.11 -3.37316 -1.18123 0
M  V30 10746 C 1014.77 -4.50467 -0.197607 0
M  V30 10747 C 1013.43 -4.81145 0.072952 0
M  V30 10748 C 1015.79 -5.19036 0.474473 0
M  V30 10749 C 1013.11 -5.77723 1.02242 0
M  V30 10750 C 1015.47 -6.16632 1.41236 0
M  V30 10751 C 1014.13 -6.45719 1.69124 0
M  V30 10752 H 1013.4 -0.710093 -0.211776 0
M  V30 10753 H 1016.05 -1.90822 0.160978 0
M  V30 10754 H 1014.35 -3.37085 -1.99701 0
M  V30 10755 H 1016.05 -3.63003 -1.7038 0
M  V30 10756 H 1012.64 -4.2655 -0.418669 0
M  V30 10757 H 1016.82 -4.95518 0.278581 0
M  V30 10758 H 1012.08 -5.98578 1.24557 0
M  V30 10759 H 1016.25 -6.68862 1.939 0
M  V30 10760 H 1013.88 -7.20365 2.42855 0
M  V30 10761 N 1015.45 0.186762 -1.56489 0
M  V30 10762 C 1016.4 1.23141 -1.95205 0
M  V30 10763 C 1017.37 1.44799 -0.81378 0
M  V30 10764 O 1018.56 1.57795 -1.07263 0
M  V30 10765 C 1015.7 2.56926 -2.30397 0
M  V30 10766 C 1014.81 2.42777 -3.57328 0
M  V30 10767 C 1013.94 3.69323 -3.81804 0
M  V30 10768 C 1012.98 3.50041 -5.02133 0
M  V30 10769 N 1012.12 4.68619 -5.2282 0
M  V30 10770 H 1016.96 0.894256 -2.84266 0
M  V30 10771 H 1014.5 0.430187 -1.40669 0
M  V30 10772 H 1016.46 3.3488 -2.4882 0
M  V30 10773 H 1015.09 2.88668 -1.44466 0
M  V30 10774 H 1014.14 1.56078 -3.46906 0
M  V30 10775 H 1015.45 2.24468 -4.45439 0
M  V30 10776 H 1014.6 4.55715 -4.00511 0
M  V30 10777 H 1013.34 3.90595 -2.92039 0
M  V30 10778 H 1012.35 2.62034 -4.8334 0
M  V30 10779 H 1013.57 3.30206 -5.93414 0
M  V30 10780 H 1011.52 4.90139 -4.36005 0
M  V30 10781 H 1011.44 4.53165 -6.05126 0
M  V30 10782 H 1012.7 5.56338 -5.45993 0
M  V30 10783 N 1016.93 1.50896 0.454776 0
M  V30 10784 C 1018.18 1.63905 1.20444 0
M  V30 10785 C 1018.53 0.342692 1.89323 0
M  V30 10786 O 1017.83 -0.660465 1.79857 0
M  V30 10787 C 1018.02 2.76839 2.26042 0
M  V30 10788 C 1017.85 4.17332 1.67524 0
M  V30 10789 C 1016.62 4.83512 1.46779 0
M  V30 10790 C 1018.82 5.01022 1.1611 0
M  V30 10791 N 1016.8 6.08171 0.83675 0
M  V30 10792 C 1018.17 6.16538 0.654283 0
M  V30 10793 C 1020.23 4.86677 1.05119 0
M  V30 10794 C 1018.93 7.19284 0.0483821 0
M  V30 10795 C 1020.95 5.89614 0.459211 0
M  V30 10796 C 1020.32 7.0439 -0.0371476 0
M  V30 10797 H 1016.42 0.653802 0.42903 0
M  V30 10798 H 1019 1.88069 0.503783 0
M  V30 10799 H 1017.17 2.54369 2.93515 0
M  V30 10800 H 1018.9 2.7912 2.93043 0
M  V30 10801 H 1015.66 4.41082 1.72464 0
M  V30 10802 H 1016.08 6.7485 0.539176 0
M  V30 10803 H 1020.72 3.98211 1.42085 0
M  V30 10804 H 1018.44 8.07412 -0.333438 0
M  V30 10805 H 1022.03 5.80582 0.376315 0
M  V30 10806 H 1020.91 7.8268 -0.488035 0
M  V30 10807 N 1018.41 -0.709066 1.40748 0
M  V30 10808 C 1019.66 -1.46993 1.40587 0
M  V30 10809 C 1020.01 -1.92397 0.00986301 0
M  V30 10810 O 1019.3 -1.65712 -0.961772 0
M  V30 10811 C 1019.5 -2.70543 2.33541 0
M  V30 10812 C 1019.33 -2.37222 3.82041 0
M  V30 10813 C 1018.1 -2.28244 4.50813 0
M  V30 10814 C 1020.3 -2.01069 4.73367 0
M  V30 10815 N 1018.28 -1.87667 5.84512 0
M  V30 10816 C 1019.65 -1.71144 5.95911 0
M  V30 10817 C 1021.7 -1.87761 4.6114 0
M  V30 10818 C 1020.41 -1.2925 7.07592 0
M  V30 10819 C 1022.43 -1.47271 5.7277 0
M  V30 10820 C 1021.79 -1.18249 6.94404 0
M  V30 10821 H 1017.89 -0.535708 0.569685 0
M  V30 10822 H 1020.48 -0.821669 1.76513 0
M  V30 10823 H 1018.65 -3.33109 1.99733 0
M  V30 10824 H 1020.38 -3.36927 2.24192 0
M  V30 10825 H 1017.14 -2.46199 4.04578 0
M  V30 10826 H 1017.56 -1.69899 6.55335 0
M  V30 10827 H 1022.2 -2.08858 3.67611 0
M  V30 10828 H 1019.92 -1.06896 8.00999 0
M  V30 10829 H 1023.51 -1.37544 5.65308 0
M  V30 10830 H 1022.39 -0.873897 7.79316 0
M  V30 10831 N 1019.89 -1.26353 -0.941956 0
M  V30 10832 C 1020.84 -1.07842 -2.04056 0
M  V30 10833 C 1021.81 0.0163064 -1.66092 0
M  V30 10834 O 1022.99 -0.143313 -1.90261 0
M  V30 10835 C 1020.13 -0.716636 -3.37577 0
M  V30 10836 C 1019.24 -1.88754 -3.88582 0
M  V30 10837 C 1018.38 -1.46893 -5.10486 0
M  V30 10838 C 1017.42 -2.60819 -5.53751 0
M  V30 10839 N 1016.56 -2.19646 -6.66858 0
M  V30 10840 H 1021.4 -2.01856 -2.19221 0
M  V30 10841 H 1018.93 -1.00504 -1.07412 0
M  V30 10842 H 1020.89 -0.487768 -4.14339 0
M  V30 10843 H 1019.52 0.18653 -3.22261 0
M  V30 10844 H 1018.57 -2.22936 -3.08227 0
M  V30 10845 H 1019.88 -2.74264 -4.1663 0
M  V30 10846 H 1019.04 -1.20047 -5.94705 0
M  V30 10847 H 1017.78 -0.584721 -4.84182 0
M  V30 10848 H 1016.78 -2.88396 -4.6809 0
M  V30 10849 H 1018.01 -3.49838 -5.82057 0
M  V30 10850 H 1015.95 -1.33657 -6.4224 0
M  V30 10851 H 1015.87 -2.987 -6.94489 0
M  V30 10852 H 1017.14 -1.96009 -7.54454 0
M  V30 10853 N 1021.37 1.14642 -1.08144 0
M  V30 10854 C 1022.3 2.18656 -0.653066 0
M  V30 10855 C 1023.28 1.59137 0.333803 0
M  V30 10856 O 1024.46 1.86988 0.238305 0
M  V30 10857 C 1021.59 3.38677 0.0398337 0
M  V30 10858 C 1020.64 4.1675 -0.906755 0
M  V30 10859 S 1021.47 4.78103 -2.41201 0
M  V30 10860 C 1022.62 6.01483 -1.73115 0
M  V30 10861 H 1022.86 2.54654 -1.53423 0
M  V30 10862 H 1020.39 1.25731 -0.896162 0
M  V30 10863 H 1022.35 4.08206 0.43334 0
M  V30 10864 H 1021.01 3.01006 0.897457 0
M  V30 10865 H 1020.2 5.02649 -0.368795 0
M  V30 10866 H 1019.8 3.52809 -1.24103 0
M  V30 10867 H 1022.1 6.69353 -1.04752 0
M  V30 10868 H 1023.04 6.59863 -2.56878 0
M  V30 10869 H 1023.45 5.51474 -1.20566 0
M  V30 10870 N 1022.85 0.866709 1.31628 0
M  V30 10871 C 1024.09 0.476731 1.97117 0
M  V30 10872 C 1024.42 -0.967813 1.68366 0
M  V30 10873 O 1023.7 -1.68101 0.978377 0
M  V30 10874 C 1023.98 0.730561 3.52611 0
M  V30 10875 C 1023.84 2.2244 3.90948 0
M  V30 10876 C 1025.15 0.19488 4.39668 0
M  V30 10877 H 1022.27 0.174682 0.715999 0
M  V30 10878 H 1024.92 1.08735 1.5581 0
M  V30 10879 H 1023.07 0.210834 3.87927 0
M  V30 10880 H 1024.74 2.81113 3.6575 0
M  V30 10881 H 1022.98 2.69824 3.39673 0
M  V30 10882 H 1023.65 2.35266 4.99353 0
M  V30 10883 H 1026.13 0.639478 4.11157 0
M  V30 10884 H 1025 0.401958 5.47426 0
M  V30 10885 H 1025.26 -0.90302 4.32779 0
M  V30 10886 N 1024.32 -1.44642 0.625825 0
M  V30 10887 C 1025.73 -1.85502 0.211175 0
M  V30 10888 C 1026.09 -1.52356 -1.2362 0
M  V30 10889 O 1025.21 -0.959051 -1.93988 0
M  V30 10890 C 1025.81 -3.36702 0.37648 0
M  V30 10891 C 1024.36 -3.76396 0.0163795 0
M  V30 10892 C 1023.51 -2.68517 0.692368 0
M  V30 10893 H 1026.46 -1.35183 0.831333 0
M  V30 10894 H 1026.48 -3.78536 -0.386106 0
M  V30 10895 H 1026 -3.60795 1.42999 0
M  V30 10896 H 1024.1 -3.57919 -1.0356 0
M  V30 10897 H 1024.21 -4.77231 0.422742 0
M  V30 10898 H 1022.57 -2.54377 0.128191 0
M  V30 10899 H 1023.36 -2.95444 1.74837 0
M  V30 10900 O 1025.84 -0.508252 -1.53294 0
M  V30 10901 H 1026.53 0.00746139 -1.93699 0
M  V30 END ATOM
M  V30 BEGIN BOND
M  V30 END BOND
M  V30 END CTAB
M  END
$$$$
