drugbank_target|Q6UWN8 Serine protease inhibitor Kazal-type 6 (DB02107)
 OpenBabel12092120553D

  0  0  0     0  0            999 V3000
M  V30 BEGIN CTAB
M  V30 COUNTS 1194 1206 0 0 0
M  V30 BEGIN ATOM
M  V30 1 H -0.908 1.98254 -0.117106 0
M  V30 2 N 0 1.576 0 0
M  V30 3 C 0.933 2.03868 1.02534 0
M  V30 4 C 1.911 0.928543 1.3348 0
M  V30 5 O 3.095 1.19667 1.45644 0
M  V30 6 C 0.222 2.43627 2.35294 0
M  V30 7 C -0.732 3.65373 2.2001 0
M  V30 8 S 0.101 5.13292 1.52614 0
M  V30 9 C 1.257 5.56322 2.86805 0
M  V30 10 H 1.49 2.90518 0.631377 0
M  V30 11 H -0.977 1.52953 0.210867 0
M  V30 12 H 0.981 2.67203 3.11629 0
M  V30 13 H -0.358 1.57376 2.7183 0
M  V30 14 H -1.165 3.90944 3.18086 0
M  V30 15 H -1.563 3.418 1.51819 0
M  V30 16 H 0.729 5.58782 3.83104 0
M  V30 17 H 1.672 6.56266 2.65933 0
M  V30 18 H 2.08 4.83886 2.90714 0
M  V30 19 N 1.4781 -0.272755 1.55222 0
M  V30 20 C 2.4251 -1.33716 1.88119 0
M  V30 21 C 3.3951 -1.49066 0.73271 0
M  V30 22 O 4.5801 -1.63469 0.984002 0
M  V30 23 C 1.7201 -2.69238 2.15882 0
M  V30 24 C 0.8331 -2.62108 3.43399 0
M  V30 25 C -0.0319 -3.89811 3.60861 0
M  V30 26 C -0.9929 -3.77193 4.8207 0
M  V30 27 N -1.8559 -4.9673 4.96189 0
M  V30 28 H 2.9841 -1.04962 2.78903 0
M  V30 29 H 0.5211 -0.507088 1.38083 0
M  V30 30 H 2.4791 -3.48089 2.29978 0
M  V30 31 H 1.1091 -2.96194 1.28331 0
M  V30 32 H 0.1611 -1.74967 3.37773 0
M  V30 33 H 1.4731 -2.48685 4.32386 0
M  V30 34 H 0.6271 -4.77103 3.74777 0
M  V30 35 H -0.6339 -4.06102 2.7006 0
M  V30 36 H -1.6289 -2.88284 4.68159 0
M  V30 37 H -0.4039 -3.62421 5.74307 0
M  V30 38 H -2.4579 -5.13431 4.08319 0
M  V30 39 H -2.5409 -4.85839 5.79221 0
M  V30 40 H -1.2729 -5.85594 5.1449 0
M  V30 41 N 2.9562 -1.48159 -0.537278 0
M  V30 42 C 3.8862 -1.65029 -1.6519 0
M  V30 43 C 4.8672 -0.499281 -1.62607 0
M  V30 44 O 6.0522 -0.730972 -1.79918 0
M  V30 45 C 3.1822 -1.68303 -3.03795 0
M  V30 46 C 2.1362 -2.8283 -3.21234 0
M  V30 47 C 1.4622 -2.71189 -4.60826 0
M  V30 48 C 2.7622 -4.24211 -3.04701 0
M  V30 49 H 4.4562 -2.58341 -1.51328 0
M  V30 50 H 2.0022 -1.24325 -0.726585 0
M  V30 51 H 3.9552 -1.78693 -3.81637 0
M  V30 52 H 2.6792 -0.715635 -3.18663 0
M  V30 53 H 1.3382 -2.71983 -2.45807 0
M  V30 54 H 0.9862 -1.72435 -4.7252 0
M  V30 55 H 0.6862 -3.48035 -4.7344 0
M  V30 56 H 2.2102 -2.83537 -5.40777 0
M  V30 57 H 3.6242 -4.3593 -3.72341 0
M  V30 58 H 2.0212 -5.01998 -3.28813 0
M  V30 59 H 3.0912 -4.41184 -2.01209 0
M  V30 60 N 4.4343 0.785586 -1.36625 0
M  V30 61 C 5.6593 1.57963 -1.34397 0
M  V30 62 C 6.0843 1.87964 0.071526 0
M  V30 63 O 5.4423 1.48182 1.0446 0
M  V30 64 C 5.4903 2.87511 -2.17646 0
M  V30 65 O 4.5943 3.81281 -1.57158 0
M  V30 66 H 3.9353 0.479014 -0.459828 0
M  V30 67 H 6.4653 0.973411 -1.79961 0
M  V30 68 H 6.4753 3.36745 -2.30362 0
M  V30 69 H 5.1503 2.65002 -3.20541 0
M  V30 70 H 3.7273 3.39885 -1.53403 0
M  V30 71 N 5.9124 1.20967 1.01018 0
M  V30 72 C 7.1604 1.02172 1.74371 0
M  V30 73 C 7.4814 -0.446414 1.89821 0
M  V30 74 O 6.7514 -1.32234 1.44537 0
M  V30 75 H 5.3314 0.375066 0.646014 0
M  V30 76 H 7.9934 1.52187 1.21758 0
M  V30 77 H 7.0894 1.48538 2.74487 0
M  V30 78 N 7.3905 -1.2043 1.01659 0
M  V30 79 C 8.3235 -2.21924 0.531521 0
M  V30 80 C 9.3015 -1.57054 -0.421032 0
M  V30 81 O 10.4855 -1.85389 -0.341035 0
M  V30 82 C 7.6125 -3.37942 -0.226496 0
M  V30 83 C 6.6585 -4.21115 0.67561 0
M  V30 84 S 7.4915 -4.90674 2.14475 0
M  V30 85 C 8.6475 -6.10113 1.3969 0
M  V30 86 H 8.8805 -2.62725 1.3915 0
M  V30 87 H 6.4135 -1.30481 0.825479 0
M  V30 88 H 8.3715 -4.05196 -0.657738 0
M  V30 89 H 7.0325 -2.956 -1.06205 0
M  V30 90 H 6.2255 -5.03918 0.091108 0
M  V30 91 H 5.8275 -3.59115 1.04463 0
M  V30 92 H 8.1195 -6.7411 0.676897 0
M  V30 93 H 9.0625 -6.73022 2.20107 0
M  V30 94 H 9.4705 -5.57283 0.899786 0
M  V30 95 N 8.8686 -0.792821 -1.36206 0
M  V30 96 C 10.1156 -0.366786 -1.99151 0
M  V30 97 C 10.4436 1.06243 -1.62919 0
M  V30 98 O 9.6986 1.74927 -0.877442 0
M  V30 99 C 9.9976 -0.481501 -3.54142 0
M  V30 100 C 9.6636 -1.87202 -4.10203 0
M  V30 101 C 8.3256 -2.25248 -4.25226 0
M  V30 102 C 10.6776 -2.78237 -4.40719 0
M  V30 103 C 8.0056 -3.53723 -4.68078 0
M  V30 104 C 10.3576 -4.06144 -4.85005 0
M  V30 105 C 9.0216 -4.44207 -4.98234 0
M  V30 106 H 8.2916 -0.134217 -0.728743 0
M  V30 107 H 10.9386 -1.01094 -1.62641 0
M  V30 108 H 9.2436 0.246146 -3.91026 0
M  V30 109 H 10.9406 -0.132844 -4.0078 0
M  V30 110 H 7.5306 -1.56639 -3.98951 0
M  V30 111 H 11.7146 -2.50097 -4.28679 0
M  V30 112 H 6.9706 -3.8308 -4.76508 0
M  V30 113 H 11.1446 -4.76796 -5.07581 0
M  V30 114 H 8.7716 -5.43814 -5.31197 0
M  V30 115 N 10.3467 1.47872 -0.545128 0
M  V30 116 C 11.2767 2.32661 0.197793 0
M  V30 117 C 12.2577 1.43041 0.920504 0
M  V30 118 O 13.4427 1.71912 0.90333 0
M  V30 119 C 10.5727 3.24569 1.23582 0
M  V30 120 C 9.5267 4.23333 0.630323 0
M  V30 121 C 8.8527 5.0448 1.77211 0
M  V30 122 C 10.1527 5.20704 -0.407974 0
M  V30 123 H 11.8467 2.95024 -0.510045 0
M  V30 124 H 9.3927 1.4187 -0.246731 0
M  V30 125 H 11.3457 3.8272 1.76362 0
M  V30 126 H 10.0697 2.60236 1.97344 0
M  V30 127 H 8.7287 3.6639 0.123922 0
M  V30 128 H 8.3767 4.36561 2.49847 0
M  V30 129 H 8.0767 5.71339 1.37281 0
M  V30 130 H 9.6007 5.65487 2.3034 0
M  V30 131 H 11.0147 5.7329 0.033305 0
M  V30 132 H 9.4117 5.95699 -0.725486 0
M  V30 133 H 10.4817 4.66917 -1.30828 0
M  V30 134 N 11.8248 0.280983 1.55075 0
M  V30 135 C 12.7548 -0.597469 2.25727 0
M  V30 136 C 13.7358 -1.15417 1.24952 0
M  V30 137 O 14.9208 -1.18722 1.53684 0
M  V30 138 C 12.0508 -1.7789 2.98283 0
M  V30 139 C 11.0048 -1.35347 4.06036 0
M  V30 140 C 10.3308 -2.61846 4.66198 0
M  V30 141 C 11.6308 -0.499354 5.19907 0
M  V30 142 H 13.3248 -0.00824265 2.99399 0
M  V30 143 H 10.8708 -0.0025244 1.44 0
M  V30 144 H 12.8238 -2.39937 3.46422 0
M  V30 145 H 11.5478 -2.39405 2.22155 0
M  V30 146 H 10.2068 -0.756156 3.58717 0
M  V30 147 H 9.8548 -3.21632 3.86732 0
M  V30 148 H 9.5548 -2.3409 5.38958 0
M  V30 149 H 11.0788 -3.24732 5.1709 0
M  V30 150 H 12.4928 -1.02498 5.64063 0
M  V30 151 H 10.8898 -0.316424 5.99265 0
M  V30 152 H 11.9598 0.480459 4.82514 0
M  V30 153 N 13.3029 -1.57598 0.00835791 0
M  V30 154 C 14.2329 -2.1198 -0.979113 0
M  V30 155 C 15.2139 -1.03091 -1.35301 0
M  V30 156 O 16.3989 -1.30818 -1.43528 0
M  V30 157 C 13.5289 -2.62995 -2.26828 0
M  V30 158 C 12.4829 -3.76485 -2.03576 0
M  V30 159 C 11.8089 -4.13846 -3.38579 0
M  V30 160 C 13.1089 -5.0342 -1.39161 0
M  V30 161 H 14.8029 -2.94738 -0.526281 0
M  V30 162 H 12.3489 -1.41783 -0.251704 0
M  V30 163 H 14.3019 -2.99669 -2.96271 0
M  V30 164 H 13.0259 -1.7737 -2.7424 0
M  V30 165 H 11.6849 -3.40217 -1.36557 0
M  V30 166 H 11.3329 -3.25232 -3.83709 0
M  V30 167 H 11.0329 -4.90312 -3.23834 0
M  V30 168 H 12.5569 -4.53086 -4.09323 0
M  V30 169 H 13.9709 -5.37812 -1.98573 0
M  V30 170 H 12.3679 -5.84746 -1.34878 0
M  V30 171 H 13.4379 -4.83548 -0.361868 0
M  V30 172 N 14.781 0.264519 -1.55364 0
M  V30 173 C 16.006 1.01726 -1.80739 0
M  V30 174 C 16.431 1.78836 -0.583044 0
M  V30 175 O 15.789 1.75167 0.467566 0
M  V30 176 C 15.837 1.94482 -3.03659 0
M  V30 177 O 14.941 3.03386 -2.7934 0
M  V30 178 H 14.282 0.290395 -0.597132 0
M  V30 179 H 16.812 0.290854 -2.02522 0
M  V30 180 H 16.822 2.36278 -3.32621 0
M  V30 181 H 15.497 1.37772 -3.92418 0
M  V30 182 H 14.074 2.65844 -2.61498 0
M  V30 183 N 16.2591 1.48442 0.529413 0
M  V30 184 C 17.1891 1.65902 1.64313 0
M  V30 185 C 18.1701 0.507897 1.6234 0
M  V30 186 O 19.3551 0.740503 1.79528 0
M  V30 187 C 16.4851 1.69911 3.02898 0
M  V30 188 C 15.4391 2.8453 3.19729 0
M  V30 189 C 14.7651 2.73629 4.59381 0
M  V30 190 C 16.0651 4.25821 3.02447 0
M  V30 191 H 17.7591 2.5914 1.49955 0
M  V30 192 H 15.3051 1.24709 0.719982 0
M  V30 193 H 17.2581 1.80715 3.80684 0
M  V30 194 H 15.9821 0.732524 3.18279 0
M  V30 195 H 14.6411 2.73283 2.44361 0
M  V30 196 H 14.2891 1.74938 4.71599 0
M  V30 197 H 13.9891 3.50541 4.71588 0
M  V30 198 H 15.5131 2.86401 5.39265 0
M  V30 199 H 16.9271 4.37898 3.70024 0
M  V30 200 H 15.3241 5.03735 3.26146 0
M  V30 201 H 16.3941 4.42244 1.98867 0
M  V30 202 N 17.7372 -0.778329 1.37039 0
M  V30 203 C 18.7002 -1.87301 1.32102 0
M  V30 204 C 19.7002 -1.59198 0.226405 0
M  V30 205 O 20.8902 -1.67403 0.481861 0
M  V30 206 C 18.0222 -3.24309 1.05055 0
M  V30 207 H 19.2152 -1.93093 2.29467 0
M  V30 208 H 16.7682 -0.977358 1.21973 0
M  V30 209 H 17.5032 -3.24196 0.0819373 0
M  V30 210 H 17.2882 -3.46098 1.84279 0
M  V30 211 H 18.7782 -4.04382 1.04234 0
M  V30 212 N 19.2153 -1.21501 -1.00376 0
M  V30 213 C 20.1453 -0.999478 -2.11028 0
M  V30 214 C 21.1263 0.0759671 -1.6993 0
M  V30 215 O 22.3113 -0.0841106 -1.94018 0
M  V30 216 C 19.4413 -0.564709 -3.42678 0
M  V30 217 C 18.3953 -1.58486 -3.97576 0
M  V30 218 C 17.7213 -1.00628 -5.25146 0
M  V30 219 C 19.0213 -2.97204 -4.29496 0
M  V30 220 H 20.7153 -1.92495 -2.29317 0
M  V30 221 H 18.2613 -0.92693 -1.102 0
M  V30 222 H 20.2143 -0.401091 -4.19487 0
M  V30 223 H 18.9383 0.396411 -3.24185 0
M  V30 224 H 17.5973 -1.73606 -3.22888 0
M  V30 225 H 17.2453 -0.0368439 -5.02987 0
M  V30 226 H 16.9453 -1.68771 -5.62841 0
M  V30 227 H 18.4693 -0.854015 -6.04598 0
M  V30 228 H 19.8833 -2.8552 -4.97143 0
M  V30 229 H 18.2803 -3.62372 -4.78338 0
M  V30 230 H 19.3503 -3.47956 -3.3772 0
M  V30 231 N 20.6934 1.19889 -1.02296 0
M  V30 232 C 21.9404 1.8942 -0.715972 0
M  V30 233 C 22.2684 1.79251 0.754944 0
M  V30 234 O 21.5234 1.17526 1.56481 0
M  V30 235 C 21.8224 3.39883 -1.10518 0
M  V30 236 C 21.4884 3.70254 -2.57337 0
M  V30 237 C 20.1504 3.78254 -2.97452 0
M  V30 238 C 22.5024 3.84052 -3.52354 0
M  V30 239 C 19.8304 3.97514 -4.31509 0
M  V30 240 C 22.1824 4.04824 -4.86108 0
M  V30 241 C 20.8464 4.11054 -5.25919 0
M  V30 242 H 20.1164 0.693138 -0.261993 0
M  V30 243 H 22.7634 1.42012 -1.28472 0
M  V30 244 H 21.0684 3.8915 -0.454953 0
M  V30 245 H 22.7654 3.9199 -0.845261 0
M  V30 246 H 19.3554 3.64632 -2.25258 0
M  V30 247 H 23.5394 3.77221 -3.22518 0
M  V30 248 H 18.7954 4.00574 -4.61898 0
M  V30 249 H 22.9694 4.14442 -5.59653 0
M  V30 250 H 20.5964 4.2573 -6.29808 0
M  V30 251 N 22.1715 0.800033 1.35784 0
M  V30 252 C 23.4115 0.382891 2.00782 0
M  V30 253 C 23.7755 -1.02891 1.62103 0
M  V30 254 O 24.9765 -1.54771 2.19771 0
M  V30 255 C 23.2475 0.553299 3.53091 0
M  V30 256 S 24.8065 0.225608 4.3822 0
M  V30 257 H 21.6245 0.145737 0.695904 0
M  V30 258 H 24.2265 1.04085 1.65489 0
M  V30 259 H 22.9305 1.58091 3.78729 0
M  V30 260 H 22.4615 -0.120214 3.93216 0
M  V30 261 H 24.4765 -0.969074 4.86645 0
M  V30 262 N 23.6496 -1.47581 0.552962 0
M  V30 263 C 24.8966 -2.02482 0.0273243 0
M  V30 264 C 25.2246 -1.42776 -1.32081 0
M  V30 265 O 24.4796 -0.571393 -1.87173 0
M  V30 266 C 24.7786 -3.57199 -0.119728 0
M  V30 267 C 24.4446 -4.35804 1.15697 0
M  V30 268 C 23.1066 -4.57 1.50681 0
M  V30 269 C 25.4586 -4.81167 2.00319 0
M  V30 270 C 22.7866 -5.20807 2.70142 0
M  V30 271 C 25.1386 -5.46293 3.18978 0
M  V30 272 C 23.8026 -5.65722 3.54281 0
M  V30 273 H 23.0726 -0.740933 0.00999866 0
M  V30 274 H 25.7196 -1.77302 0.72362 0
M  V30 275 H 24.0246 -3.81348 -0.89896 0
M  V30 276 H 25.7216 -3.97324 -0.541718 0
M  V30 277 H 22.3116 -4.19582 0.874561 0
M  V30 278 H 26.4956 -4.64574 1.74599 0
M  V30 279 H 21.7516 -5.34045 2.97668 0
M  V30 280 H 25.9256 -5.80407 3.84838 0
M  V30 281 H 23.5526 -6.14936 4.46942 0
M  V30 282 N 25.1277 -0.289203 -1.54924 0
M  V30 283 C 26.0577 0.58549 -2.2604 0
M  V30 284 C 27.0387 1.14753 -1.25562 0
M  V30 285 O 28.2237 1.17906 -1.54311 0
M  V30 286 C 25.3537 1.76305 -2.99222 0
M  V30 287 C 24.3077 1.33191 -4.06748 0
M  V30 288 C 23.6337 2.5937 -4.6758 0
M  V30 289 C 24.9337 0.471775 -5.20165 0
M  V30 290 H 26.6277 -0.00763532 -2.99399 0
M  V30 291 H 24.1737 -0.00511229 -1.43999 0
M  V30 292 H 26.1267 2.38097 -3.47689 0
M  V30 293 H 24.8507 2.38223 -2.23422 0
M  V30 294 H 23.5097 0.737121 -3.59113 0
M  V30 295 H 23.1577 3.19576 -3.88433 0
M  V30 296 H 22.8577 2.31228 -5.40192 0
M  V30 297 H 24.3817 3.21985 -5.18804 0
M  V30 298 H 25.7957 0.995056 -5.64599 0
M  V30 299 H 24.1927 0.284639 -5.99425 0
M  V30 300 H 25.2627 -0.506041 -4.82252 0
M  V30 301 N 26.6058 1.57591 -0.0167156 0
M  V30 302 C 27.8338 1.95575 0.675128 0
M  V30 303 C 28.2488 0.892542 1.6637 0
M  V30 304 O 27.6058 -0.126912 1.82058 0
M  V30 305 C 27.6568 3.33608 1.39239 0
M  V30 306 O 27.3778 4.3585 0.443444 0
M  V30 307 C 28.8788 3.86151 2.17721 0
M  V30 308 H 26.0988 0.644423 0.186978 0
M  V30 309 H 28.6428 2.0437 -0.0728 0
M  V30 310 H 26.7978 3.2607 2.09182 0
M  V30 311 H 27.2118 5.158 0.951358 0
M  V30 312 H 28.6858 4.85114 2.63379 0
M  V30 313 H 29.1628 3.19738 3.01105 0
M  V30 314 H 29.7688 3.96918 1.52761 0
M  V30 315 N 28.0839 -0.256276 1.55502 0
M  V30 316 C 29.3319 -0.983672 1.76545 0
M  V30 317 C 29.6529 -1.86206 0.578982 0
M  V30 318 O 28.9229 -1.91656 -0.405577 0
M  V30 319 H 27.5029 -0.366191 0.651086 0
M  V30 320 H 30.1649 -0.276479 1.92929 0
M  V30 321 H 29.2609 -1.61087 2.67315 0
M  V30 322 N 29.562 -1.4872 -0.521534 0
M  V30 323 C 30.808 -1.574 -1.27879 0
M  V30 324 C 31.141 -0.250817 -1.92573 0
M  V30 325 O 30.416 0.743934 -1.79711 0
M  V30 326 C 30.699 -2.71843 -2.36164 0
M  V30 327 C 30.552 -4.13893 -1.76105 0
M  V30 328 C 31.871 -2.82008 -3.37875 0
M  V30 329 H 28.99 -0.572941 -0.463581 0
M  V30 330 H 31.632 -1.80927 -0.580119 0
M  V30 331 H 29.782 -2.51914 -2.95756 0
M  V30 332 H 31.454 -4.45284 -1.20499 0
M  V30 333 H 29.697 -4.20498 -1.06601 0
M  V30 334 H 30.368 -4.89804 -2.5455 0
M  V30 335 H 32.844 -3.00086 -2.88249 0
M  V30 336 H 31.72 -3.63796 -4.11028 0
M  V30 337 H 31.981 -1.90511 -3.98946 0
M  V30 338 N 31.0401 0.771051 -1.3745 0
M  V30 339 C 32.2871 1.52963 -1.32697 0
M  V30 340 C 32.6151 1.94299 0.0883274 0
M  V30 341 O 31.8701 1.64397 1.0617 0
M  V30 342 C 32.1691 2.80676 -2.2126 0
M  V30 343 C 31.8351 2.58389 -3.69521 0
M  V30 344 C 30.4971 2.52019 -4.09927 0
M  V30 345 C 32.8491 2.38469 -4.63446 0
M  V30 346 C 30.1771 2.23721 -5.42371 0
M  V30 347 C 32.5291 2.11694 -5.96128 0
M  V30 348 C 31.1931 2.03769 -6.35637 0
M  V30 349 H 30.4631 0.559732 -0.485573 0
M  V30 350 H 33.1101 0.888083 -1.69662 0
M  V30 351 H 31.4151 3.49392 -1.77291 0
M  V30 352 H 33.1121 3.38557 -2.14895 0
M  V30 353 H 29.7021 2.6421 -3.37478 0
M  V30 354 H 33.8861 2.4238 -4.33089 0
M  V30 355 H 29.1421 2.16081 -5.71943 0
M  V30 356 H 33.3161 1.9528 -6.6846 0
M  V30 357 H 30.9431 1.81606 -7.38189 0
M  V30 358 N 32.5182 1.22032 0.997298 0
M  V30 359 C 33.7432 1.06921 1.77715 0
M  V30 360 C 34.1682 -0.376226 1.84299 0
M  V30 361 O 33.5262 -1.27165 1.29223 0
M  V30 362 C 33.5742 1.67996 3.19076 0
M  V30 363 O 32.6782 0.930653 4.01762 0
M  V30 364 H 32.0192 0.375814 0.547412 0
M  V30 365 H 34.5492 1.61737 1.25309 0
M  V30 366 H 34.5592 1.72538 3.69723 0
M  V30 367 H 33.2342 2.73182 3.13599 0
M  V30 368 H 31.8112 0.960917 3.60307 0
M  V30 369 N 33.9963 -1.19345 1.0293 0
M  V30 370 C 34.9283 -2.22036 0.56857 0
M  V30 371 C 35.9413 -1.58865 -0.355779 0
M  V30 372 O 37.1303 -1.77851 -0.152103 0
M  V30 373 C 34.2303 -3.38363 -0.190752 0
M  V30 374 C 33.4033 -4.31118 0.738643 0
M  V30 375 C 32.4623 -5.26194 0.0246497 0
M  V30 376 O 31.4883 -5.65461 0.651354 0
M  V30 377 N 32.6903 -5.66971 -1.24594 0
M  V30 378 H 35.4553 -2.6219 1.45177 0
M  V30 379 H 33.0163 -1.34015 0.908381 0
M  V30 380 H 35.0083 -3.98981 -0.677961 0
M  V30 381 H 33.5783 -2.96994 -0.975366 0
M  V30 382 H 32.7983 -3.68276 1.40593 0
M  V30 383 H 34.0863 -4.90001 1.37029 0
M  V30 384 H 33.4843 -5.37104 -1.77583 0
M  V30 385 H 32.0413 -6.2984 -1.67764 0
M  V30 386 N 35.4744 -0.807222 -1.35358 0
M  V30 387 C 36.7224 -0.387122 -1.98358 0
M  V30 388 C 37.0434 1.04942 -1.64354 0
M  V30 389 O 36.3134 1.72615 -0.926339 0
M  V30 390 H 34.8934 -0.140154 -0.733734 0
M  V30 391 H 37.5554 -1.0332 -1.6526 0
M  V30 392 H 36.6514 -0.493352 -3.08176 0
M  V30 393 N 36.9525 1.47285 -0.560781 0
M  V30 394 C 38.2005 2.02064 -0.0379868 0
M  V30 395 C 38.5215 1.43711 1.31803 0
M  V30 396 O 37.7915 0.61362 1.86042 0
M  V30 397 H 36.3715 0.746918 -0.0110531 0
M  V30 398 H 39.0335 1.80648 -0.731598 0
M  V30 399 H 38.1295 3.12064 0.0474463 0
M  V30 400 N 38.4306 0.297415 1.54768 0
M  V30 401 C 39.3626 -0.613881 2.20826 0
M  V30 402 C 40.3756 -1.10032 1.19987 0
M  V30 403 O 41.5646 -1.01839 1.46598 0
M  V30 404 C 38.6646 -1.852 2.83821 0
M  V30 405 C 37.8376 -1.50865 4.10559 0
M  V30 406 C 36.8966 -2.60154 4.57391 0
M  V30 407 O 35.9226 -2.25398 5.2267 0
M  V30 408 N 37.1246 -3.90629 4.29406 0
M  V30 409 H 39.8896 -0.048389 2.99661 0
M  V30 410 H 37.4506 0.11946 1.61459 0
M  V30 411 H 39.4426 -2.57652 3.12086 0
M  V30 412 H 38.0126 -2.32597 2.08847 0
M  V30 413 H 37.2326 -0.616925 3.89343 0
M  V30 414 H 38.5206 -1.25458 4.9309 0
M  V30 415 H 37.9186 -4.21677 3.77101 0
M  V30 416 H 36.4756 -4.59391 4.62388 0
M  V30 417 N 39.9087 -1.5758 0.0250728 0
M  V30 418 C 41.1547 -1.91917 -0.655413 0
M  V30 419 C 41.4877 -0.901433 -1.72011 0
M  V30 420 O 40.7627 0.0764069 -1.9435 0
M  V30 421 C 41.0457 -3.36751 -1.27558 0
M  V30 422 C 40.8987 -4.49258 -0.220719 0
M  V30 423 C 42.2177 -3.81469 -2.19475 0
M  V30 424 H 39.3367 -0.697925 -0.23679 0
M  V30 425 H 41.9787 -1.89825 0.0815036 0
M  V30 426 H 40.1287 -3.38664 -1.90365 0
M  V30 427 H 41.8007 -4.59478 0.409601 0
M  V30 428 H 40.0437 -4.31415 0.454264 0
M  V30 429 H 40.7147 -5.47618 -0.694175 0
M  V30 430 H 43.1907 -3.81266 -1.66659 0
M  V30 431 H 42.0667 -4.83512 -2.59822 0
M  V30 432 H 42.3277 -3.16744 -3.08424 0
M  V30 433 N 41.3868 0.248026 -1.55636 0
M  V30 434 C 42.6638 0.998988 -1.68165 0
M  V30 435 C 43.0438 2.03409 -0.564621 0
M  V30 436 O 42.3918 2.24378 0.432076 0
M  V30 437 C 42.6018 1.63334 -3.0842 0
M  V30 438 C 43.9498 2.13562 -3.66983 0
M  V30 439 O 44.9738 1.73277 -3.11213 0
M  V30 440 O 43.8328 2.87526 -4.64749 0
M  V30 441 H 40.9268 0.464933 -0.683935 0
M  V30 442 H 43.4728 0.241902 -1.67967 0
M  V30 443 H 42.2448 0.884583 -3.8117 0
M  V30 444 H 41.8678 2.45666 -3.12624 0
M  V30 445 N 42.8649 1.48995 0.513639 0
M  V30 446 C 44.1049 1.59452 1.27885 0
M  V30 447 C 44.4689 0.269479 1.90099 0
M  V30 448 O 45.6699 0.249139 2.67643 0
M  V30 449 C 43.9409 2.71277 2.32688 0
M  V30 450 S 45.4999 3.01604 3.18717 0
M  V30 451 H 42.3179 0.562565 0.434789 0
M  V30 452 H 44.9199 1.86595 0.583301 0
M  V30 453 H 43.6239 3.66089 1.8549 0
M  V30 454 H 43.1549 2.46086 3.06929 0
M  V30 455 H 45.1699 2.42155 4.331 0
M  V30 456 N 44.343 -0.763751 1.37857 0
M  V30 457 C 45.591 -1.51957 1.33243 0
M  V30 458 C 45.912 -1.94835 -0.0801709 0
M  V30 459 O 45.182 -1.66894 -1.02582 0
M  V30 460 H 43.762 -0.563626 0.49024 0
M  V30 461 H 46.424 -0.908504 1.7243 0
M  V30 462 H 45.52 -2.41523 1.97669 0
M  V30 463 N 45.8211 -1.22559 -0.990812 0
M  V30 464 C 46.7311 -1.01394 -2.11557 0
M  V30 465 C 47.7471 0.0383962 -1.73958 0
M  V30 466 O 48.9231 -0.154787 -2.00804 0
M  V30 467 C 45.9881 -0.596569 -3.41529 0
M  V30 468 C 45.0491 -1.72276 -3.93217 0
M  V30 469 C 44.2821 -1.32521 -5.16985 0
M  V30 470 O 44.5051 -0.204909 -5.70032 0
M  V30 471 O 43.4391 -2.14247 -5.62478 0
M  V30 472 H 47.2651 -1.95633 -2.32296 0
M  V30 473 H 44.8501 -1.01172 -1.0993 0
M  V30 474 H 46.7321 -0.374263 -4.19735 0
M  V30 475 H 45.4071 0.316939 -3.22145 0
M  V30 476 H 44.3141 -1.99961 -3.16174 0
M  V30 477 H 45.6471 -2.61421 -4.17037 0
M  V30 478 N 47.2992 1.18797 -1.03562 0
M  V30 479 C 48.5462 1.8865 -0.736023 0
M  V30 480 C 48.8742 1.80041 0.735889 0
M  V30 481 O 48.1292 1.19179 1.55225 0
M  V30 482 C 48.4282 3.38692 -1.14117 0
M  V30 483 C 48.0942 3.67504 -2.6125 0
M  V30 484 C 46.7562 3.75078 -3.01447 0
M  V30 485 C 49.1082 3.80293 -3.56408 0
M  V30 486 C 46.4362 3.92915 -4.35701 0
M  V30 487 C 48.7882 3.99645 -4.90374 0
M  V30 488 C 47.4522 4.05453 -5.30249 0
M  V30 489 H 46.7222 0.690321 -0.26933 0
M  V30 490 H 49.3692 1.40641 -1.29971 0
M  V30 491 H 47.6742 3.88645 -0.496202 0
M  V30 492 H 49.3712 3.91072 -0.886789 0
M  V30 493 H 45.9612 3.62223 -2.29113 0
M  V30 494 H 50.1452 3.73779 -3.26501 0
M  V30 495 H 45.4012 3.95653 -4.66121 0
M  V30 496 H 49.5752 4.08482 -5.64017 0
M  V30 497 H 47.2022 4.19027 -6.34288 0
M  V30 498 N 48.7773 0.814389 1.34928 0
M  V30 499 C 49.7093 0.187834 2.28429 0
M  V30 500 C 50.7223 -0.617374 1.5064 0
M  V30 501 O 51.9113 -0.448454 1.72775 0
M  V30 502 C 49.0113 -0.755962 3.30361 0
M  V30 503 C 48.1843 0.00456686 4.374 0
M  V30 504 C 47.2433 -0.858876 5.19143 0
M  V30 505 O 46.2693 -0.306968 5.68372 0
M  V30 506 N 47.4713 -2.17988 5.38016 0
M  V30 507 H 50.2363 0.991105 2.82838 0
M  V30 508 H 47.7973 0.670561 1.4736 0
M  V30 509 H 49.7893 -1.338 3.81942 0
M  V30 510 H 48.3593 -1.46001 2.7641 0
M  V30 511 H 47.5793 0.767865 3.86649 0
M  V30 512 H 48.8673 0.528422 5.06049 0
M  V30 513 H 48.2653 -2.65212 4.99679 0
M  V30 514 H 46.8223 -2.71098 5.92747 0
M  V30 515 N 50.2554 -1.46986 0.568584 0
M  V30 516 C 51.5324 -1.95592 -0.0174074 0
M  V30 517 C 51.9124 -1.51124 -1.47393 0
M  V30 518 O 51.2604 -0.755329 -2.15655 0
M  V30 519 C 51.4704 -3.48719 0.139913 0
M  V30 520 C 52.8184 -4.246 0.000426376 0
M  V30 521 O 53.8424 -3.56135 0.0680316 0
M  V30 522 O 52.7014 -5.46302 -0.146988 0
M  V30 523 H 49.7954 -0.82498 -0.0577599 0
M  V30 524 H 52.3414 -1.57335 0.635909 0
M  V30 525 H 51.1134 -3.73927 1.15301 0
M  V30 526 H 50.7364 -3.93771 -0.550491 0
M  V30 527 N 51.7335 -0.305618 -1.54608 0
M  V30 528 C 53.1445 0.186098 -1.8577 0
M  V30 529 C 53.4955 1.53058 -1.22751 0
M  V30 530 O 52.6205 2.09888 -0.526893 0
M  V30 531 C 53.2155 0.344449 -3.37044 0
M  V30 532 C 51.7745 0.780384 -3.68221 0
M  V30 533 C 50.9215 -0.108554 -2.77087 0
M  V30 534 H 53.8725 -0.526485 -1.49712 0
M  V30 535 H 53.8935 1.17828 -3.61796 0
M  V30 536 H 53.4055 -0.634235 -3.82883 0
M  V30 537 H 51.5065 1.76945 -3.27904 0
M  V30 538 H 51.6195 0.596572 -4.75371 0
M  V30 539 H 49.9835 0.412931 -2.5133 0
M  V30 540 H 50.7665 -1.08368 -3.25747 0
M  V30 541 N 53.2116 1.57565 -0.0334293 0
M  V30 542 C 54.1586 2.10478 0.946981 0
M  V30 543 C 55.1286 1.00787 1.32027 0
M  V30 544 O 56.3136 1.28232 1.41284 0
M  V30 545 C 53.4536 2.63994 2.22263 0
M  V30 546 C 52.5666 3.87709 1.90541 0
M  V30 547 C 51.7016 4.29604 3.12433 0
M  V30 548 C 50.7406 5.46065 2.76549 0
M  V30 549 N 49.8776 5.83096 3.9108 0
M  V30 550 H 54.7176 2.93963 0.488846 0
M  V30 551 H 52.2546 1.45296 0.22969 0
M  V30 552 H 54.2126 2.93114 2.96884 0
M  V30 553 H 52.8426 1.83333 2.65685 0
M  V30 554 H 51.8946 3.65291 1.06144 0
M  V30 555 H 53.2066 4.72403 1.60116 0
M  V30 556 H 52.3606 4.60182 3.9537 0
M  V30 557 H 51.0996 3.43685 3.46023 0
M  V30 558 H 50.1046 5.15176 1.92026 0
M  V30 559 H 51.3296 6.33685 2.44171 0
M  V30 560 H 49.2756 5.00132 4.24504 0
M  V30 561 H 49.1926 6.6244 3.64293 0
M  V30 562 H 50.4606 6.18282 4.74708 0
M  V30 563 N 54.6897 -0.239769 1.55765 0
M  V30 564 C 55.9357 -0.968234 1.78194 0
M  V30 565 C 56.2687 -1.84701 0.599938 0
M  V30 566 O 55.5437 -1.9031 -0.401524 0
M  V30 567 C 55.8267 -1.8227 3.10564 0
M  V30 568 C 55.6797 -0.971633 4.3918 0
M  V30 569 C 56.9987 -2.80388 3.39221 0
M  V30 570 H 54.1177 -0.350572 0.648281 0
M  V30 571 H 56.7597 -0.238259 1.885 0
M  V30 572 H 54.9097 -2.44507 3.01908 0
M  V30 573 H 56.5817 -0.367408 4.59835 0
M  V30 574 H 54.8247 -0.276276 4.32919 0
M  V30 575 H 55.4957 -1.60346 5.28198 0
M  V30 576 H 57.9717 -2.28287 3.47885 0
M  V30 577 H 56.8477 -3.3729 4.33044 0
M  V30 578 H 57.1087 -3.57212 2.60484 0
M  V30 579 N 56.1678 -1.49265 -0.50573 0
M  V30 580 C 57.3978 -1.61979 -1.28243 0
M  V30 581 C 57.8058 -0.288576 -1.86986 0
M  V30 582 O 57.1488 0.735408 -1.68337 0
M  V30 583 C 57.2108 -2.62632 -2.45489 0
M  V30 584 C 56.8748 -4.071 -2.07651 0
M  V30 585 C 57.8718 -4.94049 -1.61901 0
M  V30 586 C 55.5568 -4.52801 -2.17431 0
M  V30 587 C 57.5508 -6.24736 -1.26428 0
M  V30 588 C 55.2378 -5.83503 -1.8157 0
M  V30 589 C 56.2358 -6.69294 -1.36142 0
M  V30 590 O 55.9238 -7.9756 -1.00764 0
M  V30 591 H 55.6558 -0.54834 -0.395347 0
M  V30 592 H 58.2098 -1.96002 -0.614204 0
M  V30 593 H 56.4398 -2.2378 -3.15372 0
M  V30 594 H 58.1288 -2.64925 -3.07522 0
M  V30 595 H 58.8948 -4.5997 -1.53795 0
M  V30 596 H 54.7738 -3.86196 -2.51742 0
M  V30 597 H 58.3178 -6.91652 -0.908992 0
M  V30 598 H 54.2148 -6.17112 -1.89324 0
M  V30 599 H 54.9828 -8.10529 -1.13952 0
M  V30 600 N 57.6459 0.756429 -1.3826 0
M  V30 601 C 58.8859 1.52833 -1.35725 0
M  V30 602 C 59.2499 1.91926 0.0534106 0
M  V30 603 O 60.4509 2.68028 0.203613 0
M  V30 604 C 58.7219 2.74919 -2.28373 0
M  V30 605 S 60.2809 3.64817 -2.43832 0
M  V30 606 H 57.0989 0.523043 -0.481608 0
M  V30 607 H 59.7009 0.888212 -1.74158 0
M  V30 608 H 58.4049 2.44304 -3.29763 0
M  V30 609 H 57.9359 3.43878 -1.91079 0
M  V30 610 H 59.9509 4.676 -1.66027 0
M  V30 611 N 59.124 1.23083 0.984299 0
M  V30 612 C 60.352 1.08714 1.76037 0
M  V30 613 C 60.767 -0.361691 1.85303 0
M  V30 614 O 60.124 -1.25034 1.32939 0
M  V30 615 C 60.175 1.70206 3.18923 0
M  V30 616 O 59.896 3.09423 3.10144 0
M  V30 617 C 61.397 1.61227 4.12941 0
M  V30 618 H 58.617 0.380664 0.552572 0
M  V30 619 H 61.161 1.62853 1.23689 0
M  V30 620 H 59.316 1.20109 3.6831 0
M  V30 621 H 59.73 3.39188 4.00065 0
M  V30 622 H 61.204 2.08962 5.10919 0
M  V30 623 H 61.681 0.570375 4.35481 0
M  V30 624 H 62.287 2.10671 3.69456 0
M  V30 625 N 60.6021 -1.18246 1.0419 0
M  V30 626 C 62.0181 -1.40269 0.761366 0
M  V30 627 C 62.2181 -1.90777 -0.648578 0
M  V30 628 O 61.2741 -2.0929 -1.41258 0
M  V30 629 C 62.5871 -2.40237 1.8085 0
M  V30 630 C 64.1351 -2.53961 1.82955 0
M  V30 631 C 64.6101 -3.57194 2.86664 0
M  V30 632 N 66.1011 -3.64702 2.85563 0
M  V30 633 C 66.8361 -4.44309 3.6246 0
M  V30 634 N 66.3321 -5.27514 4.49111 0
M  V30 635 N 68.1251 -4.39084 3.50944 0
M  V30 636 H 60.2761 -0.837882 1.95175 0
M  V30 637 H 62.5391 -0.430608 0.84456 0
M  V30 638 H 62.2451 -2.10176 2.81991 0
M  V30 639 H 62.1191 -3.39601 1.64168 0
M  V30 640 H 64.5061 -2.83338 0.824855 0
M  V30 641 H 64.5871 -1.54706 2.03715 0
M  V30 642 H 64.2311 -3.28558 3.87314 0
M  V30 643 H 64.1611 -4.5613 2.6316 0
M  V30 644 H 66.6521 -3.05289 2.22727 0
M  V30 645 H 66.9651 -5.85411 5.04493 0
M  V30 646 H 65.3101 -5.2693 4.53178 0
M  V30 647 H 68.5011 -3.7313 2.82651 0
M  V30 648 H 68.6741 -5.00883 4.11121 0
M  V30 649 N 62.0802 -0.821533 -1.34494 0
M  V30 650 C 62.9902 -0.244355 -2.33324 0
M  V30 651 C 64.0062 0.620527 -1.62559 0
M  V30 652 O 65.1822 0.528754 -1.94335 0
M  V30 653 C 62.2472 0.585368 -3.41723 0
M  V30 654 C 61.3082 -0.301752 -4.28238 0
M  V30 655 C 60.5412 0.488466 -5.3146 0
M  V30 656 O 60.7642 1.72186 -5.4379 0
M  V30 657 O 59.6982 -0.12848 -6.01763 0
M  V30 658 H 63.5242 -1.06231 -2.84515 0
M  V30 659 H 61.1092 -0.583645 -1.37528 0
M  V30 660 H 62.9912 1.05747 -4.07916 0
M  V30 661 H 61.6662 1.38068 -2.92778 0
M  V30 662 H 60.5732 -0.821315 -3.64973 0
M  V30 663 H 61.9062 -1.06138 -4.8062 0
M  V30 664 N 63.5583 1.46682 -0.576371 0
M  V30 665 C 64.7833 2.07304 -0.0630475 0
M  V30 666 C 65.2083 1.42329 1.2298 0
M  V30 667 O 64.5663 0.504865 1.74129 0
M  V30 668 C 64.6143 3.60472 0.095895 0
M  V30 669 O 63.7183 3.95927 1.15394 0
M  V30 670 H 63.0593 0.661288 -0.0599463 0
M  V30 671 H 65.5893 1.88417 -0.797511 0
M  V30 672 H 65.5993 4.06865 0.304071 0
M  V30 673 H 64.2743 4.07157 -0.84828 0
M  V30 674 H 62.8513 3.61252 0.924724 0
M  V30 675 N 65.0364 0.313813 1.54444 0
M  V30 676 C 65.9844 -0.572171 2.25453 0
M  V30 677 C 66.9784 -1.12657 1.2651 0
M  V30 678 O 68.1844 -1.07573 1.44319 0
M  V30 679 H 64.5594 -0.203146 0.724041 0
M  V30 680 H 66.5304 0.0491145 2.9836 0
M  V30 681 C 65.2794 -1.72626 3.0182 0
M  V30 682 H 64.6024 -1.30891 3.77767 0
M  V30 683 H 66.0424 -2.32199 3.54767 0
M  V30 684 C 64.5014 -2.63806 2.09542 0
M  V30 685 O 65.0314 -3.65256 1.67185 0
M  V30 686 N 63.2374 -2.31824 1.75232 0
M  V30 687 H 62.7844 -1.49368 2.09873 0
M  V30 688 H 62.7424 -2.93095 1.13767 0
M  V30 689 N 66.5145 -1.57545 0.0417849 0
M  V30 690 C 67.9255 -1.80011 -0.495259 0
M  V30 691 C 68.2765 -0.953199 -1.71489 0
M  V30 692 O 67.4015 -0.167138 -2.15754 0
M  V30 693 C 67.9965 -3.26482 -0.905265 0
M  V30 694 C 66.5555 -3.499 -1.38734 0
M  V30 695 C 65.7025 -2.74979 -0.358056 0
M  V30 696 H 68.6535 -1.56425 0.267736 0
M  V30 697 H 68.6745 -3.36887 -1.76882 0
M  V30 698 H 68.1865 -3.88096 -0.017401 0
M  V30 699 H 66.2875 -2.93553 -2.29471 0
M  V30 700 H 66.4005 -4.58615 -1.38598 0
M  V30 701 H 64.7645 -2.40834 -0.828912 0
M  V30 702 H 65.5475 -3.39315 0.521561 0
M  V30 703 N 67.9926 0.231505 -1.5589 0
M  V30 704 C 68.9426 1.29007 -1.87993 0
M  V30 705 C 69.9266 1.42764 -0.742102 0
M  V30 706 O 71.1186 1.45747 -1.00433 0
M  V30 707 C 68.2476 2.6425 -2.1915 0
M  V30 708 C 67.3336 2.54435 -3.39299 0
M  V30 709 N 67.7246 2.14262 -4.58176 0
M  V30 710 C 66.0226 2.85416 -3.42715 0
M  V30 711 C 66.7236 2.15455 -5.40328 0
M  V30 712 N 65.6996 2.55558 -4.79783 0
M  V30 713 H 69.5016 0.970213 -2.77424 0
M  V30 714 H 67.0156 0.440097 -1.56323 0
M  V30 715 H 69.0126 3.40665 -2.40319 0
M  V30 716 H 67.6726 2.9709 -1.31025 0
M  V30 717 H 68.6836 1.85554 -4.83518 0
M  V30 718 H 65.3606 3.22693 -2.64906 0
M  V30 719 H 66.7506 1.86605 -6.45467 0
M  V30 720 N 69.4707 1.49531 0.497807 0
M  V30 721 C 70.7107 1.60799 1.26187 0
M  V30 722 C 71.0747 0.289627 1.89803 0
M  V30 723 O 72.2757 0.277512 2.67364 0
M  V30 724 C 70.5467 2.73729 2.29798 0
M  V30 725 S 72.1057 3.04968 3.155 0
M  V30 726 H 68.9237 0.567145 0.428798 0
M  V30 727 H 71.5257 1.87204 0.563477 0
M  V30 728 H 70.2297 3.68036 1.81597 0
M  V30 729 H 69.7607 2.49328 3.04301 0
M  V30 730 H 71.7757 2.46735 4.30507 0
M  V30 731 N 70.9488 -0.749086 1.3866 0
M  V30 732 C 72.1968 -1.50535 1.34847 0
M  V30 733 C 72.5178 -1.94909 -0.0595016 0
M  V30 734 O 71.7878 -1.67973 -1.00806 0
M  V30 735 H 70.3678 -0.558395 0.49619 0
M  V30 736 H 73.0298 -0.890165 1.73384 0
M  V30 737 H 72.1258 -2.39413 2.00219 0
M  V30 738 N 72.4269 -1.23603 -0.977757 0
M  V30 739 C 73.6519 -1.09735 -1.75991 0
M  V30 740 C 74.0769 0.346858 -1.84874 0
M  V30 741 O 73.4349 1.25093 -1.3123 0
M  V30 742 C 73.4829 -1.73051 -3.16363 0
M  V30 743 O 72.5869 -0.994452 -4.0023 0
M  V30 744 H 71.9279 -0.384476 -0.541364 0
M  V30 745 H 74.4579 -1.6371 -1.2272 0
M  V30 746 H 74.4679 -1.78398 -3.66931 0
M  V30 747 H 73.1429 -2.78137 -3.09213 0
M  V30 748 H 71.7199 -1.01812 -3.58732 0
M  V30 749 N 73.905 1.17692 -1.04816 0
M  V30 750 C 75.182 1.83768 -0.669963 0
M  V30 751 C 75.562 1.93232 0.849986 0
M  V30 752 O 74.91 1.46397 1.75443 0
M  V30 753 C 75.12 3.21641 -1.35455 0
M  V30 754 C 76.468 3.97592 -1.49017 0
M  V30 755 O 77.492 3.31107 -1.31326 0
M  V30 756 O 76.351 5.16729 -1.77914 0
M  V30 757 H 73.445 0.792799 -0.235368 0
M  V30 758 H 75.991 1.25021 -1.14751 0
M  V30 759 H 74.763 3.097 -2.39168 0
M  V30 760 H 74.386 3.88052 -0.866107 0
M  V30 761 N 75.3831 0.828654 1.34056 0
M  V30 762 C 76.6311 0.41863 1.97717 0
M  V30 763 C 76.9521 -1.02314 1.66002 0
M  V30 764 O 76.2221 -1.71119 0.953683 0
M  V30 765 H 74.8021 0.151809 0.731412 0
M  V30 766 H 77.4641 1.05936 1.63596 0
M  V30 767 H 76.5601 0.542318 3.07352 0
M  V30 768 N 76.8612 -1.46375 0.584142 0
M  V30 769 C 77.7932 -2.28443 -0.186119 0
M  V30 770 C 78.8062 -1.38596 -0.854115 0
M  V30 771 O 79.9952 -1.63183 -0.723438 0
M  V30 772 C 77.0952 -3.13671 -1.28311 0
M  V30 773 C 76.2682 -4.31652 -0.706758 0
M  V30 774 C 75.3272 -4.98267 -1.69163 0
M  V30 775 O 74.3532 -5.55815 -1.22712 0
M  V30 776 N 75.5552 -4.95408 -3.02575 0
M  V30 777 H 78.3202 -2.9519 0.517986 0
M  V30 778 H 75.8812 -1.56303 0.42201 0
M  V30 779 H 77.8732 -3.55101 -1.94128 0
M  V30 780 H 76.4432 -2.48989 -1.89005 0
M  V30 781 H 75.6632 -3.93989 0.128908 0
M  V30 782 H 76.9512 -5.07906 -0.301506 0
M  V30 783 H 76.3492 -4.49902 -3.42936 0
M  V30 784 H 74.9062 -5.40774 -3.63877 0
M  V30 785 N 78.3393 -0.321999 -1.54275 0
M  V30 786 C 79.5673 0.283052 -2.04955 0
M  V30 787 C 79.9823 1.45904 -1.19823 0
M  V30 788 O 79.3393 1.81063 -0.228545 0
M  V30 789 C 79.3903 0.719028 -3.54277 0
M  V30 790 O 79.1113 -0.410175 -4.36176 0
M  V30 791 C 80.6123 1.38705 -4.21041 0
M  V30 792 H 77.8323 0.0584616 -0.668448 0
M  V30 793 H 80.3763 -0.467734 -1.99079 0
M  V30 794 H 78.5313 1.41979 -3.60445 0
M  V30 795 H 78.9453 -0.0669416 -5.24457 0
M  V30 796 H 80.4193 1.64306 -5.2698 0
M  V30 797 H 80.8963 2.33385 -3.72059 0
M  V30 798 H 81.5023 0.728906 -4.19007 0
M  V30 799 N 79.8174 1.5752 -0.0501392 0
M  V30 800 C 81.0474 1.96678 0.632573 0
M  V30 801 C 81.4554 0.926298 1.64974 0
M  V30 802 O 80.7984 -0.09802 1.83438 0
M  V30 803 C 80.8604 3.32068 1.37735 0
M  V30 804 C 80.5244 4.54076 0.516131 0
M  V30 805 C 81.5214 5.19445 -0.217357 0
M  V30 806 C 79.2064 5.00304 0.44736 0
M  V30 807 C 81.2004 6.29378 -1.00807 0
M  V30 808 C 78.8874 6.10114 -0.347038 0
M  V30 809 C 79.8854 6.74512 -1.07344 0
M  V30 810 O 79.5734 7.82211 -1.85477 0
M  V30 811 H 79.3054 0.652193 0.177821 0
M  V30 812 H 81.8594 2.05091 -0.112543 0
M  V30 813 H 80.0894 3.20206 2.16807 0
M  V30 814 H 81.7784 3.55981 1.95019 0
M  V30 815 H 82.5444 4.84689 -0.173688 0
M  V30 816 H 78.4234 4.49971 1.00235 0
M  V30 817 H 81.9674 6.79575 -1.57556 0
M  V30 818 H 77.8644 6.44307 -0.392349 0
M  V30 819 H 78.6324 7.98982 -1.77678 0
M  V30 820 N 81.2955 -0.223234 1.56011 0
M  V30 821 C 82.5435 -0.946003 1.78592 0
M  V30 822 C 82.8645 -1.84936 0.618349 0
M  V30 823 O 82.1345 -1.92473 -0.364833 0
M  V30 824 H 80.7145 -0.352298 0.658707 0
M  V30 825 H 83.3765 -0.235494 1.93472 0
M  V30 826 H 82.4725 -1.55381 2.70672 0
M  V30 827 N 82.7736 -1.49793 -0.48987 0
M  V30 828 C 83.7216 -1.67783 -1.61095 0
M  V30 829 C 84.7156 -0.543683 -1.60438 0
M  V30 830 O 85.9216 -0.723647 -1.64813 0
M  V30 831 H 82.2966 -0.529255 -0.534222 0
M  V30 832 H 84.2676 -2.61861 -1.43078 0
M  V30 833 C 83.0166 -1.77191 -2.99164 0
M  V30 834 H 82.3396 -2.63841 -3.0038 0
M  V30 835 H 83.7796 -1.93809 -3.77113 0
M  V30 836 C 82.2386 -0.519203 -3.32875 0
M  V30 837 O 82.7686 0.350124 -4.00171 0
M  V30 838 N 80.9746 -0.378816 -2.8812 0
M  V30 839 H 80.5216 -1.08725 -2.33531 0
M  V30 840 H 80.4796 0.458239 -3.11043 0
M  V30 841 N 84.2517 0.741722 -1.39055 0
M  V30 842 C 85.1987 1.85566 -1.37237 0
M  V30 843 C 86.1687 1.64457 -0.233072 0
M  V30 844 O 87.3537 1.85957 -0.427147 0
M  V30 845 C 84.4937 3.23004 -1.215 0
M  V30 846 C 83.6067 3.55864 -2.44918 0
M  V30 847 C 82.7417 4.82669 -2.21821 0
M  V30 848 C 81.7807 5.08351 -3.40948 0
M  V30 849 N 80.9177 6.26356 -3.17211 0
M  V30 850 H 85.7577 1.86455 -2.32462 0
M  V30 851 H 83.2947 0.911176 -1.15482 0
M  V30 852 H 85.2527 4.02331 -1.10389 0
M  V30 853 H 83.8827 3.21411 -0.29908 0
M  V30 854 H 82.9347 2.7129 -2.66657 0
M  V30 855 H 84.2467 3.70765 -3.33668 0
M  V30 856 H 83.4007 5.69962 -2.07914 0
M  V30 857 H 82.1397 4.69929 -1.30454 0
M  V30 858 H 81.1447 4.19522 -3.55361 0
M  V30 859 H 82.3697 5.22981 -4.33207 0
M  V30 860 H 80.3157 6.14917 -2.28502 0
M  V30 861 H 80.2327 6.41813 -3.99515 0
M  V30 862 H 81.5007 7.16506 -3.06984 0
M  V30 863 N 85.7298 1.2412 0.971189 0
M  V30 864 C 86.9698 1.09066 1.7287 0
M  V30 865 C 87.3338 -0.364794 1.88503 0
M  V30 866 O 88.5348 -0.636748 2.61149 0
M  V30 867 C 86.8058 1.80629 3.08396 0
M  V30 868 S 88.3648 1.81263 3.99611 0
M  V30 869 H 85.1828 0.390145 0.594397 0
M  V30 870 H 87.7848 1.57397 1.15959 0
M  V30 871 H 86.4888 2.85647 2.94676 0
M  V30 872 H 86.0198 1.32617 3.70373 0
M  V30 873 H 88.0348 0.877804 4.88374 0
M  V30 874 N 87.2079 -1.17134 1.05439 0
M  V30 875 C 88.1709 -2.19439 0.661764 0
M  V30 876 C 89.1709 -1.58199 -0.288042 0
M  V30 877 O 90.3609 -1.74053 -0.0715803 0
M  V30 878 C 87.4929 -3.40889 -0.0276209 0
M  V30 879 H 88.6859 -2.55688 1.56728 0
M  V30 880 H 86.2389 -1.31259 0.848567 0
M  V30 881 H 86.9739 -3.10187 -0.94629 0
M  V30 882 H 86.7589 -3.86586 0.655238 0
M  V30 883 H 88.2489 -4.16603 -0.288342 0
M  V30 884 N 88.686 -0.835752 -1.33615 0
M  V30 885 C 89.933 -0.429959 -1.97883 0
M  V30 886 C 90.261 1.01006 -1.66217 0
M  V30 887 O 89.516 1.72047 -0.93265 0
M  V30 888 C 89.815 -0.593925 -3.52431 0
M  V30 889 C 89.481 -2.00158 -4.04039 0
M  V30 890 C 88.143 -2.38662 -4.17844 0
M  V30 891 C 90.495 -2.92117 -4.31644 0
M  V30 892 C 87.823 -3.68435 -4.56588 0
M  V30 893 C 90.175 -4.21368 -4.71838 0
M  V30 894 C 88.839 -4.59833 -4.83849 0
M  V30 895 H 88.109 -0.157333 -0.724104 0
M  V30 896 H 90.756 -1.06217 -1.59343 0
M  V30 897 H 89.061 0.121619 -3.91611 0
M  V30 898 H 90.758 -0.260282 -4.00154 0
M  V30 899 H 87.348 -1.69252 -3.93766 0
M  V30 900 H 91.532 -2.63608 -4.20505 0
M  V30 901 H 86.788 -3.98046 -4.64079 0
M  V30 902 H 90.962 -4.92703 -4.92155 0
M  V30 903 H 88.589 -5.60438 -5.13627 0
M  V30 904 N 90.1641 1.46063 -0.591896 0
M  V30 905 C 91.4041 2.04228 -0.0838014 0
M  V30 906 C 91.7681 1.45231 1.25587 0
M  V30 907 O 92.9691 1.94653 1.85375 0
M  V30 908 C 91.2401 3.57389 -0.0286282 0
M  V30 909 S 92.7991 4.3678 0.420557 0
M  V30 910 H 89.6171 0.709762 -0.0419319 0
M  V30 911 H 92.2191 1.78983 -0.786465 0
M  V30 912 H 90.9231 3.97843 -1.00743 0
M  V30 913 H 90.4541 3.87185 0.69652 0
M  V30 914 H 92.4691 4.67131 1.67341 0
M  V30 915 N 91.6422 0.330177 1.54103 0
M  V30 916 C 92.5892 -0.532762 2.24567 0
M  V30 917 C 93.5592 -1.10635 1.23892 0
M  V30 918 O 94.7442 -1.14546 1.5259 0
M  V30 919 C 91.8842 -1.6845 3.01195 0
M  V30 920 C 90.9972 -1.13951 4.167 0
M  V30 921 C 90.1322 -2.25746 4.80845 0
M  V30 922 C 89.1712 -1.6853 5.88442 0
M  V30 923 N 88.3082 -2.74014 6.46421 0
M  V30 924 H 93.1482 0.0746905 2.97906 0
M  V30 925 H 90.6852 0.048632 1.4702 0
M  V30 926 H 92.6432 -2.36234 3.43874 0
M  V30 927 H 91.2732 -2.26314 2.30178 0
M  V30 928 H 90.3252 -0.35301 3.78758 0
M  V30 929 H 91.6372 -0.680892 4.94131 0
M  V30 930 H 90.7912 -3.01422 5.26526 0
M  V30 931 H 89.5302 -2.74947 4.0281 0
M  V30 932 H 88.5352 -0.913543 5.42157 0
M  V30 933 H 89.7602 -1.20198 6.68378 0
M  V30 934 H 87.7062 -3.22494 5.71256 0
M  V30 935 H 87.6232 -2.32735 7.19285 0
M  V30 936 H 88.8912 -3.49499 6.96757 0
M  V30 937 N 93.1203 -1.57491 0.0584922 0
M  V30 938 C 94.0833 -2.1085 -0.898617 0
M  V30 939 C 95.0833 -1.02964 -1.23511 0
M  V30 940 O 96.2733 -1.29007 -1.17059 0
M  V30 941 C 93.4053 -2.59881 -2.20623 0
M  V30 942 H 94.5983 -2.96715 -0.435936 0
M  V30 943 H 92.1513 -1.55141 -0.190023 0
M  V30 944 H 92.8863 -1.77431 -2.71457 0
M  V30 945 H 92.6713 -3.38727 -1.97501 0
M  V30 946 H 94.1613 -3.01285 -2.89166 0
M  V30 947 N 94.5984 0.214957 -1.56127 0
M  V30 948 C 95.8474 0.936451 -1.78643 0
M  V30 949 C 96.1604 1.85237 -0.628229 0
M  V30 950 O 97.3664 2.613 -0.737186 0
M  V30 951 C 95.8224 1.7154 -3.16389 0
M  V30 952 C 95.4304 0.845299 -4.39953 0
M  V30 953 C 97.1744 2.42772 -3.48227 0
M  V30 954 C 95.0814 1.62198 -5.68723 0
M  V30 955 H 94.0114 0.353401 -0.666051 0
M  V30 956 H 96.6624 0.190169 -1.82512 0
M  V30 957 H 95.0444 2.50484 -3.06715 0
M  V30 958 H 96.2184 0.0959353 -4.607 0
M  V30 959 H 94.5334 0.244789 -4.1568 0
M  V30 960 H 97.1304 3.01394 -4.41663 0
M  V30 961 H 97.4734 3.15984 -2.71035 0
M  V30 962 H 98.0064 1.70813 -3.5926 0
M  V30 963 H 94.7454 0.933011 -6.48826 0
M  V30 964 H 94.2654 2.34579 -5.52026 0
M  V30 965 H 95.9444 2.18095 -6.09133 0
M  V30 966 N 96.0765 1.50051 0.48192 0
M  V30 967 C 97.3225 1.60736 1.2366 0
M  V30 968 C 97.6555 0.301786 1.91841 0
M  V30 969 O 96.9305 -0.696025 1.8162 0
M  V30 970 C 97.2135 2.78009 2.28874 0
M  V30 971 C 97.0665 4.18416 1.65069 0
M  V30 972 C 98.3855 2.90867 3.30279 0
M  V30 973 H 95.5045 0.585031 0.448228 0
M  V30 974 H 98.1465 1.82402 0.531946 0
M  V30 975 H 96.2965 2.59667 2.88973 0
M  V30 976 H 97.9685 4.48322 1.0865 0
M  V30 977 H 96.2115 4.23177 0.954148 0
M  V30 978 H 96.8825 4.96381 2.41474 0
M  V30 979 H 99.3585 3.07623 2.80191 0
M  V30 980 H 98.2345 3.74566 4.01238 0
M  V30 981 H 98.4955 2.01021 3.93755 0
M  V30 982 N 97.5546 -0.734337 1.39446 0
M  V30 983 C 98.5016 -1.84835 1.38219 0
M  V30 984 C 99.4716 -1.64331 0.24179 0
M  V30 985 O 100.657 -1.85728 0.437002 0
M  V30 986 C 97.7966 -3.22355 1.23212 0
M  V30 987 C 96.9096 -3.5456 2.46801 0
M  V30 988 C 96.0446 -4.81485 2.24377 0
M  V30 989 C 95.0836 -5.06536 3.43639 0
M  V30 990 N 94.2206 -6.24665 3.20528 0
M  V30 991 H 99.0606 -1.85219 2.33448 0
M  V30 992 H 96.5976 -0.905039 1.15963 0
M  V30 993 H 98.5556 -4.0174 1.12522 0
M  V30 994 H 97.1856 -3.21248 0.316121 0
M  V30 995 H 96.2376 -2.69872 2.68092 0
M  V30 996 H 97.5496 -3.6899 3.3563 0
M  V30 997 H 96.7036 -5.68852 2.10933 0
M  V30 998 H 95.4426 -4.6923 1.32944 0
M  V30 999 H 94.4476 -4.17632 3.5758 0
M  V30 1000 H 95.6726 -5.20676 4.35974 0
M  V30 1001 H 93.6186 -6.13696 2.3176 0
M  V30 1002 H 93.5356 -6.39685 4.02913 0
M  V30 1003 H 94.8036 -7.14868 3.10779 0
M  V30 1004 N 99.0327 -1.24633 -0.964593 0
M  V30 1005 C 100.258 -1.11596 -1.74818 0
M  V30 1006 C 100.683 0.32723 -1.85232 0
M  V30 1007 O 100.041 1.23695 -1.32549 0
M  V30 1008 C 100.089 -1.76397 -3.1451 0
M  V30 1009 O 99.1927 -1.03685 -3.99153 0
M  V30 1010 H 98.5337 -0.390196 -0.537255 0
M  V30 1011 H 101.064 -1.65002 -1.20977 0
M  V30 1012 H 101.074 -1.8228 -3.65018 0
M  V30 1013 H 99.7487 -2.81401 -3.06246 0
M  V30 1014 H 98.3257 -1.05611 -3.57632 0
M  V30 1015 N 100.511 1.16574 -1.06058 0
M  V30 1016 C 101.759 1.86677 -0.77434 0
M  V30 1017 C 102.08 1.81959 0.701147 0
M  V30 1018 O 101.35 1.2515 1.50713 0
M  V30 1019 H 99.9298 0.691134 -0.283449 0
M  V30 1020 H 102.592 1.41378 -1.34158 0
M  V30 1021 H 101.688 2.92181 -1.09711 0
M  V30 1022 N 101.989 0.842826 1.3317 0
M  V30 1023 C 103.237 0.439577 1.97262 0
M  V30 1024 C 103.558 -1.00548 1.67078 0
M  V30 1025 O 102.828 -1.70098 0.971779 0
M  V30 1026 H 101.408 0.159558 0.72976 0
M  V30 1027 H 104.07 1.07665 1.62463 0
M  V30 1028 H 103.166 0.574886 3.0676 0
M  V30 1029 N 103.467 -1.45747 0.599634 0
M  V30 1030 C 104.414 -2.30467 -0.123849 0
M  V30 1031 C 105.384 -1.41632 -0.86774 0
M  V30 1032 O 106.569 -1.70568 -0.855056 0
M  V30 1033 C 103.709 -3.26402 -1.12051 0
M  V30 1034 C 102.822 -4.3034 -0.37832 0
M  V30 1035 C 101.957 -5.13389 -1.364 0
M  V30 1036 C 100.996 -6.09061 -0.609171 0
M  V30 1037 N 100.133 -6.84918 -1.54374 0
M  V30 1038 H 104.973 -2.91802 0.604627 0
M  V30 1039 H 102.51 -1.43797 0.309972 0
M  V30 1040 H 104.468 -3.80482 -1.7114 0
M  V30 1041 H 103.098 -2.66839 -1.8165 0
M  V30 1042 H 102.15 -3.78984 0.327929 0
M  V30 1043 H 103.462 -4.98354 0.210997 0
M  V30 1044 H 102.616 -5.7183 -2.02719 0
M  V30 1045 H 101.355 -4.45376 -1.98725 0
M  V30 1046 H 100.36 -5.49758 0.0676979 0
M  V30 1047 H 101.585 -6.79099 0.00891991 0
M  V30 1048 H 99.531 -6.19601 -2.15478 0
M  V30 1049 H 99.448 -7.49254 -1.00766 0
M  V30 1050 H 100.716 -7.47906 -2.19676 0
M  V30 1051 N 104.945 -0.338344 -1.53925 0
M  V30 1052 C 106.194 0.260732 -2.00008 0
M  V30 1053 C 106.507 1.52073 -1.23017 0
M  V30 1054 O 107.713 2.19672 -1.5955 0
M  V30 1055 C 106.169 0.51515 -3.56194 0
M  V30 1056 C 105.777 -0.728645 -4.42035 0
M  V30 1057 C 107.521 1.07337 -4.10706 0
M  V30 1058 C 105.428 -0.445315 -5.89721 0
M  V30 1059 H 104.358 0.101205 -0.747177 0
M  V30 1060 H 107.009 -0.452866 -1.77824 0
M  V30 1061 H 105.391 1.28932 -3.74423 0
M  V30 1062 H 106.565 -1.50352 -4.35581 0
M  V30 1063 H 104.88 -1.20813 -3.98489 0
M  V30 1064 H 107.477 1.30022 -5.18651 0
M  V30 1065 H 107.82 2.0273 -3.63602 0
M  V30 1066 H 108.353 0.360034 -3.96167 0
M  V30 1067 H 105.092 -1.36883 -6.41049 0
M  V30 1068 H 104.612 0.291569 -5.99091 0
M  V30 1069 H 106.291 -0.0606218 -6.46972 0
M  V30 1070 N 106.423 1.57458 -0.0668435 0
M  V30 1071 C 107.648 1.9804 0.616027 0
M  V30 1072 C 108.073 0.944771 1.62652 0
M  V30 1073 O 107.431 -0.0902094 1.81075 0
M  V30 1074 C 107.479 3.37665 1.26549 0
M  V30 1075 O 106.583 3.36701 2.38131 0
M  V30 1076 H 105.924 0.644719 0.158849 0
M  V30 1077 H 108.454 2.04121 -0.139891 0
M  V30 1078 H 108.464 3.7474 1.6135 0
M  V30 1079 H 107.139 4.12573 0.525016 0
M  V30 1080 H 105.716 3.1139 2.0516 0
M  V30 1081 N 107.901 -0.206675 1.56239 0
M  V30 1082 C 108.831 -1.25909 1.96645 0
M  V30 1083 C 109.812 -1.48097 0.836734 0
M  V30 1084 O 110.997 -1.6003 1.10019 0
M  V30 1085 C 108.127 -2.6058 2.29599 0
M  V30 1086 C 107.081 -2.53024 3.452 0
M  V30 1087 C 106.407 -3.91861 3.63798 0
M  V30 1088 C 107.707 -2.06524 4.79734 0
M  V30 1089 H 109.401 -0.923369 2.84806 0
M  V30 1090 H 106.947 -0.442735 1.37025 0
M  V30 1091 H 108.9 -3.34375 2.56459 0
M  V30 1092 H 107.624 -2.95869 1.38307 0
M  V30 1093 H 106.283 -1.81684 3.18412 0
M  V30 1094 H 105.931 -4.24483 2.69857 0
M  V30 1095 H 105.631 -3.87683 4.4156 0
M  V30 1096 H 107.155 -4.67296 3.93022 0
M  V30 1097 H 108.569 -2.70072 5.05702 0
M  V30 1098 H 106.966 -2.13374 5.60885 0
M  V30 1099 H 108.036 -1.01802 4.74093 0
M  V30 1100 N 109.379 -1.50304 -0.473955 0
M  V30 1101 C 110.326 -1.68959 -1.57231 0
M  V30 1102 C 111.296 -0.530899 -1.57387 0
M  V30 1103 O 112.481 -0.761133 -1.74961 0
M  V30 1104 C 109.621 -1.7871 -2.95223 0
M  V30 1105 C 108.734 -3.06061 -3.04878 0
M  V30 1106 C 107.869 -3.06626 -4.33767 0
M  V30 1107 C 106.908 -4.28443 -4.37154 0
M  V30 1108 N 106.045 -4.26763 -5.5751 0
M  V30 1109 H 110.885 -2.6273 -1.40631 0
M  V30 1110 H 108.422 -1.30241 -0.683789 0
M  V30 1111 H 110.38 -1.82344 -3.75242 0
M  V30 1112 H 109.01 -0.883806 -3.10465 0
M  V30 1113 H 108.062 -3.11911 -2.17751 0
M  V30 1114 H 109.374 -3.96039 -3.0324 0
M  V30 1115 H 108.528 -3.08973 -5.22131 0
M  V30 1116 H 107.267 -2.14473 -4.3801 0
M  V30 1117 H 106.272 -4.2631 -3.47188 0
M  V30 1118 H 107.497 -5.2182 -4.34605 0
M  V30 1119 H 105.443 -3.37462 -5.62544 0
M  V30 1120 H 105.36 -5.10507 -5.57601 0
M  V30 1121 H 106.628 -4.33253 -6.48006 0
M  V30 1122 N 110.857 0.726932 -1.39834 0
M  V30 1123 C 111.807 1.83232 -1.35683 0
M  V30 1124 C 112.791 1.59155 -0.236295 0
M  V30 1125 O 113.983 1.70522 -0.474488 0
M  V30 1126 C 111.112 3.21246 -1.21062 0
M  V30 1127 C 110.198 3.51125 -2.37849 0
M  V30 1128 N 110.589 3.51889 -3.63329 0
M  V30 1129 C 108.887 3.81527 -2.30982 0
M  V30 1130 C 109.588 3.79791 -4.40606 0
M  V30 1131 N 108.564 3.97971 -3.70297 0
M  V30 1132 H 112.366 1.8214 -2.30656 0
M  V30 1133 H 109.88 0.925545 -1.33444 0
M  V30 1134 H 111.877 4.00387 -1.16171 0
M  V30 1135 H 110.537 3.23572 -0.270458 0
M  V30 1136 H 111.548 3.33008 -3.96643 0
M  V30 1137 H 108.225 3.91411 -1.45272 0
M  V30 1138 H 109.615 3.86783 -5.49408 0
M  V30 1139 N 112.336 1.25143 0.95797 0
M  V30 1140 C 113.747 1.08851 1.51685 0
M  V30 1141 C 114.098 -0.33687 1.93286 0
M  V30 1142 O 113.223 -1.22644 1.7829 0
M  V30 1143 C 113.818 1.96978 2.75654 0
M  V30 1144 C 112.377 1.84881 3.27866 0
M  V30 1145 C 111.524 1.91329 2.0072 0
M  V30 1146 H 114.475 1.38478 0.77522 0
M  V30 1147 H 114.496 1.5078 3.4935 0
M  V30 1148 H 114.008 3.00712 2.45345 0
M  V30 1149 H 112.109 0.840182 3.63004 0
M  V30 1150 H 112.222 2.6951 3.96107 0
M  V30 1151 H 110.586 1.35174 2.15871 0
M  V30 1152 H 111.369 2.96661 1.72764 0
M  V30 1153 N 113.814 -1.1601 1.06675 0
M  V30 1154 C 115.062 -1.86264 0.784229 0
M  V30 1155 C 115.383 -1.82328 -0.691488 0
M  V30 1156 O 114.653 -1.25947 -1.50047 0
M  V30 1157 H 113.233 -0.689621 0.28711 0
M  V30 1158 H 115.895 -1.40664 1.34906 0
M  V30 1159 H 114.991 -2.91595 1.11259 0
M  V30 1160 N 115.292 -0.849877 -1.32721 0
M  V30 1161 C 116.239 -0.289033 -2.28983 0
M  V30 1162 C 117.209 0.601324 -1.54833 0
M  V30 1163 O 118.394 0.537253 -1.8308 0
M  V30 1164 C 115.534 0.520623 -3.4115 0
M  V30 1165 C 114.647 -0.394989 -4.3019 0
M  V30 1166 C 113.782 0.426834 -5.29482 0
M  V30 1167 C 112.821 -0.486476 -6.10164 0
M  V30 1168 N 111.958 0.297879 -7.01468 0
M  V30 1169 H 116.798 -1.11519 -2.76347 0
M  V30 1170 H 114.335 -0.56138 -1.35967 0
M  V30 1171 H 116.293 1.00563 -4.04899 0
M  V30 1172 H 114.923 1.31165 -2.9495 0
M  V30 1173 H 113.975 -0.99836 -3.67065 0
M  V30 1174 H 115.287 -1.09612 -4.86607 0
M  V30 1175 H 114.441 0.975205 -5.98811 0
M  V30 1176 H 113.18 1.16136 -4.73671 0
M  V30 1177 H 112.185 -1.04677 -5.39743 0
M  V30 1178 H 113.41 -1.21953 -6.6806 0
M  V30 1179 H 111.356 1.01558 -6.48091 0
M  V30 1180 H 111.273 -0.344318 -7.55216 0
M  V30 1181 H 112.541 0.828131 -7.75089 0
M  V30 1182 N 116.77 1.45427 -0.607355 0
M  V30 1183 C 118.01 2.04128 -0.105458 0
M  V30 1184 C 118.374 1.46555 1.24039 0
M  V30 1185 O 119.575 1.96608 1.833 0
M  V30 1186 C 117.846 3.57338 -0.0665324 0
M  V30 1187 S 119.405 4.37201 0.374207 0
M  V30 1188 H 116.223 0.709278 -0.0494575 0
M  V30 1189 H 118.825 1.78139 -0.805404 0
M  V30 1190 H 117.529 3.96752 -1.04957 0
M  V30 1191 H 117.06 3.87902 0.655415 0
M  V30 1192 H 119.075 4.6888 1.62377 0
M  V30 1193 O 118.287 0.488689 1.53929 0
M  V30 1194 H 118.978 -0.0321274 1.93673 0
M  V30 END ATOM
M  V30 BEGIN BOND
M  V30 END BOND
M  V30 END CTAB
M  END
$$$$
