drugbank_target|Q6UX15 Layilin (DB08818)
 OpenBabel12092121013D

  0  0  0     0  0            999 V3000
M  V30 BEGIN CTAB
M  V30 COUNTS 5953 6020 0 0 0
M  V30 BEGIN ATOM
M  V30 1 H -0.908 1.98254 -0.117106 0
M  V30 2 N 0 1.576 0 0
M  V30 3 C 0.933 2.03868 1.02534 0
M  V30 4 C 1.911 0.928543 1.3348 0
M  V30 5 O 3.095 1.19667 1.45644 0
M  V30 6 C 0.222 2.43627 2.35294 0
M  V30 7 C -0.732 3.65373 2.2001 0
M  V30 8 S 0.101 5.13292 1.52614 0
M  V30 9 C 1.257 5.56322 2.86805 0
M  V30 10 H 1.49 2.90518 0.631377 0
M  V30 11 H -0.977 1.52953 0.210867 0
M  V30 12 H 0.981 2.67203 3.11629 0
M  V30 13 H -0.358 1.57376 2.7183 0
M  V30 14 H -1.165 3.90944 3.18086 0
M  V30 15 H -1.563 3.418 1.51819 0
M  V30 16 H 0.729 5.58782 3.83104 0
M  V30 17 H 1.672 6.56266 2.65933 0
M  V30 18 H 2.08 4.83886 2.90714 0
M  V30 19 N 1.4781 -0.272755 1.55222 0
M  V30 20 C 2.8941 -0.619959 1.47067 0
M  V30 21 C 3.0941 -1.895 0.684978 0
M  V30 22 O 2.1501 -2.51675 0.203931 0
M  V30 23 C 3.4631 -0.746693 2.91282 0
M  V30 24 C 5.0111 -0.840731 3.01497 0
M  V30 25 C 5.4861 -0.99924 4.46967 0
M  V30 26 N 6.9771 -1.06476 4.50796 0
M  V30 27 C 7.7121 -1.20621 5.6057 0
M  V30 28 N 7.2081 -1.31483 6.80209 0
M  V30 29 N 9.0011 -1.23733 5.48312 0
M  V30 30 H 1.1521 0.564606 2.04758 0
M  V30 31 H 3.4151 0.191177 0.928523 0
M  V30 32 H 3.1211 0.119753 3.51496 0
M  V30 33 H 2.9951 -1.6269 3.40311 0
M  V30 34 H 5.3821 -1.69764 2.41379 0
M  V30 35 H 5.4631 0.0640874 2.5572 0
M  V30 36 H 5.1071 -0.146984 5.07687 0
M  V30 37 H 5.0371 -1.91871 4.90401 0
M  V30 38 H 7.5281 -0.993196 3.64615 0
M  V30 39 H 7.8411 -1.42111 7.59621 0
M  V30 40 H 6.1861 -1.28487 6.8302 0
M  V30 41 H 9.3771 -1.14877 4.53785 0
M  V30 42 H 9.5501 -1.34412 6.33906 0
M  V30 43 N 2.9562 -1.48159 -0.537278 0
M  V30 44 C 4.3672 -1.49429 -1.11928 0
M  V30 45 C 4.7182 -0.26 -1.9447 0
M  V30 46 O 3.8432 0.633489 -2.0692 0
M  V30 47 C 4.4382 -2.70758 -2.03656 0
M  V30 48 C 2.9972 -2.74923 -2.57088 0
M  V30 49 C 2.1442 -2.42835 -1.3389 0
M  V30 50 H 5.0952 -1.55381 -0.322886 0
M  V30 51 H 5.1162 -2.48861 -2.87834 0
M  V30 52 H 4.6282 -3.60575 -1.43553 0
M  V30 53 H 2.7292 -1.89296 -3.20933 0
M  V30 54 H 2.8422 -3.76157 -2.9672 0
M  V30 55 H 1.2062 -1.93836 -1.65226 0
M  V30 56 H 1.9892 -3.34884 -0.755504 0
M  V30 57 N 4.4343 0.785586 -1.36625 0
M  V30 58 C 5.6823 1.54057 -1.30808 0
M  V30 59 C 6.0033 1.94683 0.111157 0
M  V30 60 O 5.2733 1.65241 1.05224 0
M  V30 61 H 3.8533 0.571354 -0.481211 0
M  V30 62 H 6.5153 0.935821 -1.70963 0
M  V30 63 H 5.6113 2.44637 -1.93801 0
M  V30 64 N 5.9124 1.20967 1.01018 0
M  V30 65 C 7.1404 1.04956 1.78303 0
M  V30 66 C 7.5554 -0.400915 1.84494 0
M  V30 67 O 6.9124 -1.27826 1.30257 0
M  V30 68 C 6.9634 1.63403 3.22462 0
M  V30 69 O 6.6844 3.02775 3.16637 0
M  V30 70 C 8.1854 1.52432 4.16268 0
M  V30 71 H 5.4054 0.368858 0.560522 0
M  V30 72 H 7.9494 1.60193 1.27116 0
M  V30 73 H 6.1044 1.1227 3.70775 0
M  V30 74 H 6.5184 3.30626 4.07169 0
M  V30 75 H 7.9924 1.98078 5.15237 0
M  V30 76 H 8.4694 0.477875 4.36592 0
M  V30 77 H 9.0754 2.02787 3.73841 0
M  V30 78 N 7.3905 -1.2043 1.01659 0
M  V30 79 C 8.3535 -2.21433 0.591616 0
M  V30 80 C 9.3535 -1.57203 -0.338226 0
M  V30 81 O 10.5435 -1.73737 -0.126918 0
M  V30 82 C 7.6755 -3.40628 -0.136058 0
M  V30 83 H 8.8685 -2.60545 1.48514 0
M  V30 84 H 6.4215 -1.33893 0.806379 0
M  V30 85 H 7.1565 -3.07019 -1.04449 0
M  V30 86 H 6.9415 -3.88475 0.531917 0
M  V30 87 H 8.4315 -4.15475 -0.420735 0
M  V30 88 N 8.8686 -0.792821 -1.36206 0
M  V30 89 C 9.7986 -0.207853 -2.32573 0
M  V30 90 C 10.7796 0.659055 -1.56813 0
M  V30 91 O 11.9646 0.592176 -1.84951 0
M  V30 92 C 9.0946 0.655449 -3.41059 0
M  V30 93 C 8.0486 -0.111842 -4.27854 0
M  V30 94 C 7.3746 0.872274 -5.27537 0
M  V30 95 C 8.6746 -1.30299 -5.05786 0
M  V30 96 H 10.3686 -1.01294 -2.81744 0
M  V30 97 H 7.9146 -0.48854 -1.3546 0
M  V30 98 H 9.8676 1.07464 -4.07467 0
M  V30 99 H 8.5916 1.49328 -2.90463 0
M  V30 100 H 7.2506 -0.512053 -3.63006 0
M  V30 101 H 6.8986 1.70523 -4.73214 0
M  V30 102 H 6.5986 0.363291 -5.86476 0
M  V30 103 H 8.1226 1.28996 -5.96818 0
M  V30 104 H 9.5366 -0.959379 -5.65216 0
M  V30 105 H 7.9336 -1.7455 -5.74154 0
M  V30 106 H 9.0036 -2.09663 -4.37229 0
M  V30 107 N 10.3467 1.47872 -0.545128 0
M  V30 108 C 11.2787 2.27869 0.246621 0
M  V30 109 C 12.2917 1.36282 0.890561 0
M  V30 110 O 13.4807 1.61207 0.766449 0
M  V30 111 C 10.5807 3.10159 1.36582 0
M  V30 112 C 9.7537 4.29627 0.820954 0
M  V30 113 C 8.8127 4.93607 1.82314 0
M  V30 114 O 7.8387 5.52366 1.37406 0
M  V30 115 N 9.0407 4.87211 3.15603 0
M  V30 116 H 11.8057 2.96459 -0.439539 0
M  V30 117 H 9.3667 1.57367 -0.380421 0
M  V30 118 H 11.3587 3.49829 2.03474 0
M  V30 119 H 9.9287 2.43891 1.9554 0
M  V30 120 H 9.1487 3.94192 -0.0244032 0
M  V30 121 H 10.4367 5.06928 0.436063 0
M  V30 122 H 9.8347 4.40651 3.54744 0
M  V30 123 H 8.3917 5.30937 3.78087 0
M  V30 124 N 11.8248 0.280983 1.55075 0
M  V30 125 C 12.7878 -0.590896 2.21452 0
M  V30 126 C 13.7878 -1.07682 1.19421 0
M  V30 127 O 14.9778 -0.97605 1.44288 0
M  V30 128 C 12.1098 -1.81587 2.88511 0
M  V30 129 H 13.3028 -0.0112554 2.99898 0
M  V30 130 H 10.8558 0.0316438 1.56268 0
M  V30 131 H 11.5908 -2.43587 2.14093 0
M  V30 132 H 11.3758 -1.4753 3.63287 0
M  V30 133 H 12.8658 -2.43575 3.39206 0
M  V30 134 N 13.3029 -1.57598 0.00835791 0
M  V30 135 C 14.5489 -1.91211 -0.675732 0
M  V30 136 C 14.8819 -0.883139 -1.72958 0
M  V30 137 O 14.1569 0.097016 -1.94258 0
M  V30 138 C 14.4399 -3.35379 -1.31123 0
M  V30 139 C 14.2929 -4.48999 -0.268356 0
M  V30 140 C 15.6119 -3.7912 -2.23508 0
M  V30 141 H 12.7309 -0.695374 -0.244179 0
M  V30 142 H 15.3729 -1.89901 0.0613655 0
M  V30 143 H 13.5229 -3.36626 -1.93946 0
M  V30 144 H 15.1949 -4.59887 0.360844 0
M  V30 145 H 13.4379 -4.31873 0.408482 0
M  V30 146 H 14.1089 -5.46851 -0.752218 0
M  V30 147 H 16.5849 -3.79477 -1.70693 0
M  V30 148 H 15.4609 -4.80729 -2.64936 0
M  V30 149 H 15.7219 -3.13455 -3.11766 0
M  V30 150 N 14.781 0.264519 -1.55364 0
M  V30 151 C 15.711 1.33121 -1.91836 0
M  V30 152 C 16.692 1.51101 -0.781192 0
M  V30 153 O 17.877 1.64003 -1.04003 0
M  V30 154 C 15.007 2.68921 -2.19769 0
M  V30 155 C 13.961 2.65661 -3.35571 0
M  V30 156 C 13.287 4.05093 -3.49004 0
M  V30 157 C 14.587 2.24187 -4.71739 0
M  V30 158 H 16.281 1.02844 -2.81182 0
M  V30 159 H 13.827 0.493286 -1.35287 0
M  V30 160 H 15.78 3.43663 -2.43872 0
M  V30 161 H 14.504 3.00799 -1.27231 0
M  V30 162 H 13.163 1.93377 -3.1145 0
M  V30 163 H 12.811 4.34206 -2.53917 0
M  V30 164 H 12.511 4.03804 -4.26868 0
M  V30 165 H 14.035 4.81561 -3.75408 0
M  V30 166 H 15.449 2.88654 -4.9533 0
M  V30 167 H 13.846 2.34044 -5.52579 0
M  V30 168 H 14.916 1.19327 -4.69988 0
M  V30 169 N 16.2591 1.48442 0.529413 0
M  V30 170 C 17.1891 1.65902 1.64313 0
M  V30 171 C 18.1701 0.507897 1.6234 0
M  V30 172 O 19.3551 0.740503 1.79528 0
M  V30 173 C 16.4851 1.69911 3.02898 0
M  V30 174 C 15.4391 2.8453 3.19729 0
M  V30 175 C 14.7651 2.73629 4.59381 0
M  V30 176 C 16.0651 4.25821 3.02447 0
M  V30 177 H 17.7591 2.5914 1.49955 0
M  V30 178 H 15.3051 1.24709 0.719982 0
M  V30 179 H 17.2581 1.80715 3.80684 0
M  V30 180 H 15.9821 0.732524 3.18279 0
M  V30 181 H 14.6411 2.73283 2.44361 0
M  V30 182 H 14.2891 1.74938 4.71599 0
M  V30 183 H 13.9891 3.50541 4.71588 0
M  V30 184 H 15.5131 2.86401 5.39265 0
M  V30 185 H 16.9271 4.37898 3.70024 0
M  V30 186 H 15.3241 5.03735 3.26146 0
M  V30 187 H 16.3941 4.42244 1.98867 0
M  V30 188 N 17.7372 -0.778329 1.37039 0
M  V30 189 C 18.7002 -1.87301 1.32102 0
M  V30 190 C 19.7002 -1.59198 0.226405 0
M  V30 191 O 20.8902 -1.67403 0.481861 0
M  V30 192 C 18.0222 -3.24309 1.05055 0
M  V30 193 H 19.2152 -1.93093 2.29467 0
M  V30 194 H 16.7682 -0.977358 1.21973 0
M  V30 195 H 17.5032 -3.24196 0.0819373 0
M  V30 196 H 17.2882 -3.46098 1.84279 0
M  V30 197 H 18.7782 -4.04382 1.04234 0
M  V30 198 N 19.2153 -1.21501 -1.00376 0
M  V30 199 C 20.4613 -1.03452 -1.74429 0
M  V30 200 C 20.7943 0.430764 -1.89362 0
M  V30 201 O 20.0693 1.31962 -1.42886 0
M  V30 202 C 20.3523 -1.73375 -3.15615 0
M  V30 203 C 20.2053 -3.27431 -3.08397 0
M  V30 204 C 21.5243 -1.47732 -4.14564 0
M  V30 205 H 18.6433 -0.377226 -0.633143 0
M  V30 206 H 21.2853 -1.49693 -1.17013 0
M  V30 207 H 19.4353 -1.34064 -3.64636 0
M  V30 208 H 21.1073 -3.76119 -2.67081 0
M  V30 209 H 19.3503 -3.5767 -2.45468 0
M  V30 210 H 20.0213 -3.71524 -4.08258 0
M  V30 211 H 22.4973 -1.8186 -3.74254 0
M  V30 212 H 21.3733 -1.99169 -5.11491 0
M  V30 213 H 21.6343 -0.407589 -4.40217 0
M  V30 214 N 20.6934 1.19889 -1.02296 0
M  V30 215 C 21.6234 2.25141 -0.619174 0
M  V30 216 C 22.6044 1.66051 0.368915 0
M  V30 217 O 23.7894 1.92546 0.252941 0
M  V30 218 C 20.9194 3.4728 0.0368783 0
M  V30 219 C 19.8734 4.19005 -0.872865 0
M  V30 220 C 19.1994 5.34637 -0.0822402 0
M  V30 221 C 20.4994 4.74452 -2.18387 0
M  V30 222 H 22.1934 2.59171 -1.49903 0
M  V30 223 H 19.7394 1.24579 -0.722222 0
M  V30 224 H 21.6924 4.20098 0.330958 0
M  V30 225 H 20.4164 3.12433 0.95149 0
M  V30 226 H 19.0754 3.48061 -1.15105 0
M  V30 227 H 18.7234 4.96034 0.83422 0
M  V30 228 H 18.4234 5.83557 -0.688149 0
M  V30 229 H 19.9474 6.10255 0.205238 0
M  V30 230 H 21.3614 5.39055 -1.95172 0
M  V30 231 H 19.7584 5.33834 -2.74119 0
M  V30 232 H 20.8284 3.92844 -2.84257 0
M  V30 233 N 22.1715 0.800033 1.35784 0
M  V30 234 C 23.1015 0.220184 2.3246 0
M  V30 235 C 24.0825 -0.65073 1.57161 0
M  V30 236 O 25.2675 -0.582359 1.85263 0
M  V30 237 C 22.3975 -0.637353 3.41402 0
M  V30 238 C 21.3515 0.134531 4.27789 0
M  V30 239 C 20.6775 -0.844285 5.27992 0
M  V30 240 C 21.9775 1.32979 5.05088 0
M  V30 241 H 23.6715 1.02787 2.81203 0
M  V30 242 H 21.2175 0.495717 1.35199 0
M  V30 243 H 23.1705 -1.05302 4.08031 0
M  V30 244 H 21.8945 -1.47785 2.91251 0
M  V30 245 H 20.5535 0.531296 3.6273 0
M  V30 246 H 20.2015 -1.68011 4.74111 0
M  V30 247 H 19.9015 -0.332184 5.8666 0
M  V30 248 H 21.4255 -1.2583 5.97494 0
M  V30 249 H 22.8395 0.98934 5.64699 0
M  V30 250 H 21.2365 1.77593 5.7322 0
M  V30 251 H 22.3065 2.11978 4.36111 0
M  V30 252 N 23.6496 -1.47581 0.552962 0
M  V30 253 C 24.8956 -2.02782 0.0273648 0
M  V30 254 C 25.2286 -1.42687 -1.31734 0
M  V30 255 O 24.5036 -0.580897 -1.85623 0
M  V30 256 C 24.7866 -3.60031 -0.0702371 0
M  V30 257 C 24.6396 -4.30566 1.30126 0
M  V30 258 C 25.9586 -4.33028 -0.785771 0
M  V30 259 H 23.0776 -0.736912 0.0114185 0
M  V30 260 H 25.7196 -1.76056 0.714432 0
M  V30 261 H 23.8696 -3.82932 -0.655382 0
M  V30 262 H 25.5416 -4.19018 1.92929 0
M  V30 263 H 23.7846 -3.91086 1.87709 0
M  V30 264 H 24.4556 -5.39114 1.18573 0
M  V30 265 H 26.9316 -4.15095 -0.288982 0
M  V30 266 H 25.8076 -5.42695 -0.823013 0
M  V30 267 H 26.0686 -4.01945 -1.841 0
M  V30 268 N 25.1277 -0.289203 -1.54924 0
M  V30 269 C 26.3757 0.322879 -1.99504 0
M  V30 270 C 26.6967 1.55313 -1.1791 0
M  V30 271 O 25.9667 1.94001 -0.272097 0
M  V30 272 H 24.5467 0.122291 -0.736922 0
M  V30 273 H 27.2087 -0.397802 -1.90797 0
M  V30 274 H 26.3047 0.603061 -3.06218 0
M  V30 275 N 26.6058 1.57591 -0.0167156 0
M  V30 276 C 27.5358 2.12496 0.967858 0
M  V30 277 C 28.5168 1.03807 1.34752 0
M  V30 278 O 29.7018 1.31577 1.42833 0
M  V30 279 C 26.8318 2.64194 2.25431 0
M  V30 280 C 25.7858 3.77559 2.01576 0
M  V30 281 C 25.1118 4.15636 3.36379 0
M  V30 282 C 26.4118 5.04151 1.36489 0
M  V30 283 H 28.1058 2.95013 0.510643 0
M  V30 284 H 25.6518 1.41915 0.244181 0
M  V30 285 H 27.6048 3.01236 2.94678 0
M  V30 286 H 26.3288 1.78821 2.73296 0
M  V30 287 H 24.9878 3.40937 1.34751 0
M  V30 288 H 24.6358 3.27263 3.81979 0
M  V30 289 H 24.3358 4.92022 3.21229 0
M  V30 290 H 25.8598 4.5525 4.06915 0
M  V30 291 H 27.2738 5.38857 1.95718 0
M  V30 292 H 25.6708 5.85453 1.31776 0
M  V30 293 H 26.7408 4.83733 0.336219 0
M  V30 294 N 28.0839 -0.256276 1.55502 0
M  V30 295 C 29.4999 -0.604325 1.47716 0
M  V30 296 C 29.6999 -1.88763 0.705039 0
M  V30 297 O 28.7559 -2.51445 0.230613 0
M  V30 298 C 30.0689 -0.715756 2.92057 0
M  V30 299 C 31.6169 -0.808706 3.02372 0
M  V30 300 C 32.0919 -0.951777 4.48001 0
M  V30 301 N 33.5829 -1.01688 4.519 0
M  V30 302 C 34.3179 -1.14668 5.61817 0
M  V30 303 N 33.8139 -1.24261 6.81565 0
M  V30 304 N 35.6069 -1.1791 5.49594 0
M  V30 305 H 27.7579 0.586291 2.04148 0
M  V30 306 H 30.0209 0.201015 0.926443 0
M  V30 307 H 29.7269 0.157027 3.51349 0
M  V30 308 H 29.6009 -1.59071 3.42018 0
M  V30 309 H 31.9879 -1.67195 2.43166 0
M  V30 310 H 32.0689 0.0912063 2.55637 0
M  V30 311 H 31.7129 -0.0931291 5.07815 0
M  V30 312 H 31.6429 -1.86659 4.92408 0
M  V30 313 H 34.1339 -0.954468 3.65648 0
M  V30 314 H 34.4469 -1.34046 7.61086 0
M  V30 315 H 32.7919 -1.21236 6.84344 0
M  V30 316 H 35.9829 -1.10057 4.54978 0
M  V30 317 H 36.1559 -1.27681 6.35296 0
M  V30 318 N 29.562 -1.4872 -0.521534 0
M  V30 319 C 30.525 -1.63379 -1.60748 0
M  V30 320 C 31.525 -0.50661 -1.52611 0
M  V30 321 O 32.715 -0.772601 -1.5613 0
M  V30 322 C 29.847 -1.61192 -3.00383 0
M  V30 323 H 31.04 -2.60217 -1.49087 0
M  V30 324 H 28.593 -1.37444 -0.744235 0
M  V30 325 H 29.328 -0.65863 -3.17541 0
M  V30 326 H 29.113 -2.43032 -3.07698 0
M  V30 327 H 30.603 -1.7466 -3.7932 0
M  V30 328 N 31.0401 0.771051 -1.3745 0
M  V30 329 C 32.0031 1.86598 -1.33093 0
M  V30 330 C 33.0031 1.59076 -0.234845 0
M  V30 331 O 34.1931 1.67145 -0.490732 0
M  V30 332 C 31.3251 3.23747 -1.06773 0
M  V30 333 H 32.5181 1.91873 -2.30488 0
M  V30 334 H 30.0711 0.970876 -1.2249 0
M  V30 335 H 30.8061 3.24148 -0.099129 0
M  V30 336 H 30.5911 3.45115 -1.86112 0
M  V30 337 H 32.0811 4.03824 -1.06377 0
M  V30 338 N 32.5182 1.22032 0.997298 0
M  V30 339 C 33.7462 1.06841 1.7718 0
M  V30 340 C 34.1612 -0.381325 1.84909 0
M  V30 341 O 33.5182 -1.26437 1.31605 0
M  V30 342 C 33.5692 1.66814 3.20711 0
M  V30 343 O 33.2902 3.06116 3.13408 0
M  V30 344 C 34.7912 1.56838 4.14628 0
M  V30 345 H 32.0112 0.374782 0.556578 0
M  V30 346 H 34.5552 1.61532 1.2541 0
M  V30 347 H 32.7102 1.16196 3.69564 0
M  V30 348 H 33.1242 3.34926 4.0364 0
M  V30 349 H 34.5982 2.03532 5.13107 0
M  V30 350 H 35.0752 0.524155 4.36061 0
M  V30 351 H 35.6812 2.06741 3.7167 0
M  V30 352 N 33.9963 -1.19345 1.0293 0
M  V30 353 C 35.2443 -1.88665 0.724574 0
M  V30 354 C 35.5653 -1.80036 -0.749144 0
M  V30 355 O 34.8353 -1.2111 -1.53978 0
M  V30 356 H 33.4153 -0.698406 0.265025 0
M  V30 357 H 36.0773 -1.44885 1.30362 0
M  V30 358 H 35.1733 -2.94987 1.01926 0
M  V30 359 N 35.4744 -0.807222 -1.35358 0
M  V30 360 C 36.8904 -0.491038 -1.51858 0
M  V30 361 C 37.0904 0.987648 -1.75635 0
M  V30 362 O 36.1464 1.77265 -1.79815 0
M  V30 363 C 37.4594 -1.33695 -2.69344 0
M  V30 364 C 39.0074 -1.33246 -2.83222 0
M  V30 365 C 39.4824 -2.1625 -4.03733 0
M  V30 366 N 40.9734 -2.1379 -4.10911 0
M  V30 367 C 41.7084 -2.74772 -5.03277 0
M  V30 368 N 41.2044 -3.44684 -6.0097 0
M  V30 369 N 42.9974 -2.6441 -4.96028 0
M  V30 370 H 35.1484 -1.76485 -1.18181 0
M  V30 371 H 37.4114 -0.751199 -0.578276 0
M  V30 372 H 37.1174 -2.38634 -2.58354 0
M  V30 373 H 36.9914 -0.990618 -3.6396 0
M  V30 374 H 39.3784 -0.290911 -2.93663 0
M  V30 375 H 39.4594 -1.71866 -1.89461 0
M  V30 376 H 39.1034 -3.20445 -3.94052 0
M  V30 377 H 39.0334 -1.74989 -4.96675 0
M  V30 378 H 41.5244 -1.62923 -3.40976 0
M  V30 379 H 41.8374 -3.88501 -6.68047 0
M  V30 380 H 40.1824 -3.48788 -6.01142 0
M  V30 381 H 43.3734 -2.0938 -4.18662 0
M  V30 382 H 43.5464 -3.12225 -5.6782 0
M  V30 383 N 36.9525 1.47285 -0.560781 0
M  V30 384 C 37.8825 2.32857 0.173105 0
M  V30 385 C 38.8635 1.44009 0.905281 0
M  V30 386 O 40.0485 1.7286 0.885046 0
M  V30 387 C 37.1785 3.25861 1.20133 0
M  V30 388 C 36.1325 4.23978 0.585388 0
M  V30 389 C 35.4585 5.06332 1.7185 0
M  V30 390 C 36.7585 5.20242 -0.463178 0
M  V30 391 H 38.4525 2.94466 -0.541307 0
M  V30 392 H 35.9985 1.41601 -0.261764 0
M  V30 393 H 37.9515 3.84569 1.72293 0
M  V30 394 H 36.6755 2.62315 1.94573 0
M  V30 395 H 35.3345 3.66501 0.085054 0
M  V30 396 H 34.9825 4.39186 2.45203 0
M  V30 397 H 34.6825 5.72762 1.31213 0
M  V30 398 H 36.2065 5.67899 2.24329 0
M  V30 399 H 37.6205 5.73293 -0.027502 0
M  V30 400 H 36.0175 5.94896 -0.788627 0
M  V30 401 H 37.0875 4.65504 -1.35773 0
M  V30 402 N 38.4306 0.297415 1.54768 0
M  V30 403 C 39.3606 -0.573494 2.26348 0
M  V30 404 C 40.3416 -1.14085 1.26169 0
M  V30 405 O 41.5266 -1.17086 1.54934 0
M  V30 406 C 38.6566 -1.74716 3.00153 0
M  V30 407 C 37.6106 -1.31032 4.07449 0
M  V30 408 C 36.9366 -2.56887 4.68949 0
M  V30 409 C 38.2366 -0.444183 5.20408 0
M  V30 410 H 39.9306 0.0235131 2.99391 0
M  V30 411 H 37.4766 0.0127488 1.43994 0
M  V30 412 H 39.4296 -2.3625 3.48947 0
M  V30 413 H 38.1536 -2.37035 2.24682 0
M  V30 414 H 36.8126 -0.718066 3.59499 0
M  V30 415 H 36.4606 -3.17512 3.90122 0
M  V30 416 H 36.1606 -2.2836 5.41411 0
M  V30 417 H 37.6846 -3.19229 5.20505 0
M  V30 418 H 39.0986 -0.9651 5.65118 0
M  V30 419 H 37.4956 -0.252846 5.99567 0
M  V30 420 H 38.5656 0.531609 4.81977 0
M  V30 421 N 39.9087 -1.5758 0.0250728 0
M  V30 422 C 41.1337 -1.96337 -0.668317 0
M  V30 423 C 41.5587 -0.901314 -1.651 0
M  V30 424 O 40.9167 0.138187 -1.80773 0
M  V30 425 C 40.9647 -3.34191 -1.35457 0
M  V30 426 O 40.0687 -3.30269 -2.46974 0
M  V30 427 H 39.4097 -0.640281 -0.175887 0
M  V30 428 H 41.9397 -2.0442 0.0857224 0
M  V30 429 H 41.9497 -3.70331 -1.71228 0
M  V30 430 H 40.6247 -4.11036 -0.634218 0
M  V30 431 H 39.2017 -3.05841 -2.13344 0
M  V30 432 N 41.3868 0.248026 -1.55636 0
M  V30 433 C 42.3498 1.29044 -1.89421 0
M  V30 434 C 43.3498 1.41134 -0.770581 0
M  V30 435 O 44.5398 1.39854 -1.03858 0
M  V30 436 C 41.6718 2.66831 -2.12165 0
M  V30 437 H 42.8648 1.00305 -2.82629 0
M  V30 438 H 40.4178 0.487265 -1.48511 0
M  V30 439 H 41.1528 3.00711 -1.21422 0
M  V30 440 H 40.9378 2.59438 -2.93997 0
M  V30 441 H 42.4278 3.42103 -2.3949 0
M  V30 442 N 42.8649 1.48995 0.513639 0
M  V30 443 C 44.0899 1.61792 1.29762 0
M  V30 444 C 44.5149 0.284475 1.85936 0
M  V30 445 O 43.8729 -0.746185 1.65232 0
M  V30 446 C 43.9209 2.67993 2.41272 0
M  V30 447 O 43.0249 2.26287 3.44772 0
M  V30 448 H 42.3659 0.541963 0.38363 0
M  V30 449 H 44.8959 1.95097 0.616307 0
M  V30 450 H 44.9059 2.89772 2.87221 0
M  V30 451 H 43.5809 3.64791 1.9975 0
M  V30 452 H 42.1579 2.14788 3.04829 0
M  V30 453 N 44.343 -0.763751 1.37857 0
M  V30 454 C 45.62 -1.51244 1.24035 0
M  V30 455 C 46 -2.10472 -0.162649 0
M  V30 456 O 45.348 -1.96206 -1.17112 0
M  V30 457 C 45.558 -2.58694 2.34261 0
M  V30 458 C 46.906 -3.25878 2.72193 0
M  V30 459 O 47.93 -2.68993 2.33497 0
M  V30 460 O 46.789 -4.2874 3.38887 0
M  V30 461 H 43.883 -0.670243 0.484462 0
M  V30 462 H 46.429 -0.800031 1.49658 0
M  V30 463 H 45.201 -2.13105 3.2818 0
M  V30 464 H 44.824 -3.37527 2.10146 0
M  V30 465 N 45.8211 -1.22559 -0.990812 0
M  V30 466 C 46.7511 -1.0218 -2.09956 0
M  V30 467 C 47.7321 0.0579394 -1.70001 0
M  V30 468 O 48.9171 -0.104684 -1.93918 0
M  V30 469 C 46.0471 -0.601023 -3.4206 0
M  V30 470 C 45.0011 -1.62694 -3.95872 0
M  V30 471 C 44.3271 -1.06193 -5.24049 0
M  V30 472 C 45.6271 -3.01743 -4.2632 0
M  V30 473 H 47.3211 -1.94916 -2.27262 0
M  V30 474 H 44.8671 -0.938566 -1.09211 0
M  V30 475 H 46.8201 -0.445561 -4.19038 0
M  V30 476 H 45.5441 0.362005 -3.24588 0
M  V30 477 H 44.2031 -1.77021 -3.21028 0
M  V30 478 H 43.8511 -0.0901903 -5.02919 0
M  V30 479 H 43.5511 -1.74732 -5.61019 0
M  V30 480 H 45.0751 -0.918092 -6.03658 0
M  V30 481 H 46.4891 -2.90777 -4.94087 0
M  V30 482 H 44.8861 -3.67425 -4.74467 0
M  V30 483 H 45.9561 -3.51518 -3.34011 0
M  V30 484 N 47.2992 1.18797 -1.03562 0
M  V30 485 C 48.5762 1.84469 -0.650434 0
M  V30 486 C 48.9562 1.92319 0.870433 0
M  V30 487 O 48.3042 1.44528 1.76986 0
M  V30 488 C 48.5142 3.2306 -1.32036 0
M  V30 489 C 49.8622 3.9915 -1.44792 0
M  V30 490 O 50.8862 3.32481 -1.27806 0
M  V30 491 O 49.7452 5.18587 -1.72423 0
M  V30 492 H 46.8392 0.795251 -0.226946 0
M  V30 493 H 49.3852 1.26231 -1.13419 0
M  V30 494 H 48.1572 3.1222 -2.3587 0
M  V30 495 H 47.7802 3.88949 -0.8249 0
M  V30 496 N 48.7773 0.814389 1.34928 0
M  V30 497 C 49.7073 0.244827 2.32213 0
M  V30 498 C 50.6883 -0.634024 1.57842 0
M  V30 499 O 51.8733 -0.562676 1.8587 0
M  V30 500 C 49.0033 -0.601106 3.42058 0
M  V30 501 C 47.9573 0.179896 4.27622 0
M  V30 502 C 47.2833 -0.788237 5.28858 0
M  V30 503 C 48.5833 1.38329 5.03649 0
M  V30 504 H 50.2773 1.05763 2.80097 0
M  V30 505 H 47.8233 0.510029 1.34665 0
M  V30 506 H 49.7763 -1.00968 4.09125 0
M  V30 507 H 48.5003 -1.44688 2.92802 0
M  V30 508 H 47.1593 0.569739 3.62146 0
M  V30 509 H 46.8073 -1.62973 4.75866 0
M  V30 510 H 46.5073 -0.269942 5.8698 0
M  V30 511 H 48.0313 -1.19485 5.98795 0
M  V30 512 H 49.4453 1.04918 5.63618 0
M  V30 513 H 47.8423 1.83662 5.71304 0
M  V30 514 H 48.9123 2.16592 4.33839 0
M  V30 515 N 50.2554 -1.46986 0.568584 0
M  V30 516 C 51.6714 -1.57946 0.229189 0
M  V30 517 C 51.8714 -1.56567 -1.26843 0
M  V30 518 O 50.9274 -1.47511 -2.04931 0
M  V30 519 C 52.2404 -2.87963 0.865909 0
M  V30 520 C 53.7884 -3.01568 0.838188 0
M  V30 521 C 54.2634 -4.34301 1.45419 0
M  V30 522 N 55.7544 -4.40965 1.41788 0
M  V30 523 C 56.4894 -5.42256 1.86403 0
M  V30 524 N 55.9854 -6.50297 2.38926 0
M  V30 525 N 57.7784 -5.3337 1.77405 0
M  V30 526 H 49.9294 -1.46126 1.54146 0
M  V30 527 H 52.1924 -0.696156 0.643484 0
M  V30 528 H 51.8984 -2.94742 1.91886 0
M  V30 529 H 51.7724 -3.75423 0.365687 0
M  V30 530 H 54.1594 -2.94379 -0.206106 0
M  V30 531 H 54.2404 -2.1562 1.37629 0
M  V30 532 H 53.8844 -4.42247 2.49761 0
M  V30 533 H 53.8144 -5.19 0.891435 0
M  V30 534 H 56.3054 -3.63484 1.03381 0
M  V30 535 H 56.6184 -7.23777 2.70863 0
M  V30 536 H 54.9634 -6.51155 2.42944 0
M  V30 537 H 58.1544 -4.47865 1.3614 0
M  V30 538 H 58.3274 -6.12169 2.12492 0
M  V30 539 N 51.7335 -0.305618 -1.54608 0
M  V30 540 C 52.9815 0.301701 -1.99835 0
M  V30 541 C 53.3025 1.54054 -1.19551 0
M  V30 542 O 52.5725 1.93702 -0.292658 0
M  V30 543 H 51.1525 0.114468 -0.738178 0
M  V30 544 H 53.8145 -0.418016 -1.90364 0
M  V30 545 H 52.9105 0.570548 -3.06841 0
M  V30 546 N 53.2116 1.57565 -0.0334293 0
M  V30 547 C 54.4596 1.91598 0.642999 0
M  V30 548 C 54.7806 0.910847 1.7242 0
M  V30 549 O 54.0506 -0.0469931 1.95844 0
M  V30 550 H 52.6306 0.707228 0.240496 0
M  V30 551 H 55.2926 1.94726 -0.0822488 0
M  V30 552 H 54.3886 2.92336 1.09298 0
M  V30 553 N 54.6897 -0.239769 1.55765 0
M  V30 554 C 55.6217 -1.32001 1.87372 0
M  V30 555 C 56.6347 -1.43944 0.760522 0
M  V30 556 O 57.8237 -1.45167 1.0387 0
M  V30 557 C 54.9237 -2.69779 2.05115 0
M  V30 558 C 54.0967 -2.80014 3.36022 0
M  V30 559 C 53.1557 -3.98684 3.4342 0
M  V30 560 O 52.1817 -3.87877 4.16582 0
M  V30 561 N 53.3837 -5.12176 2.73232 0
M  V30 562 H 56.1487 -1.0522 2.80622 0
M  V30 563 H 53.7097 -0.429857 1.56089 0
M  V30 564 H 55.7017 -3.47517 2.07399 0
M  V30 565 H 54.2717 -2.89237 1.18577 0
M  V30 566 H 53.4917 -1.88896 3.45994 0
M  V30 567 H 54.7797 -2.83808 4.22292 0
M  V30 568 H 54.1777 -5.2385 2.13536 0
M  V30 569 H 52.7347 -5.88022 2.81199 0
M  V30 570 N 56.1678 -1.49265 -0.50573 0
M  V30 571 C 57.5788 -1.51769 -1.08734 0
M  V30 572 C 57.9298 -0.301192 -1.93874 0
M  V30 573 O 57.0548 0.589456 -2.08217 0
M  V30 574 C 57.6498 -2.75017 -1.97867 0
M  V30 575 C 56.2088 -2.80314 -2.51199 0
M  V30 576 C 55.3558 -2.4562 -1.28709 0
M  V30 577 H 58.3068 -1.56031 -0.289855 0
M  V30 578 H 58.3278 -2.5491 -2.82491 0
M  V30 579 H 57.8398 -3.63539 -1.35873 0
M  V30 580 H 55.9408 -1.96061 -3.16845 0
M  V30 581 H 56.0538 -3.82366 -2.88675 0
M  V30 582 H 54.4178 -1.97297 -1.61078 0
M  V30 583 H 55.2008 -3.36411 -0.6843 0
M  V30 584 N 57.6459 0.756429 -1.3826 0
M  V30 585 C 58.8919 1.51772 -1.34511 0
M  V30 586 C 59.2249 1.94089 0.0656691 0
M  V30 587 O 58.4999 1.65221 1.02626 0
M  V30 588 C 58.7829 2.77226 -2.29821 0
M  V30 589 C 58.6359 2.41065 -3.79747 0
M  V30 590 C 59.9549 3.79236 -2.23312 0
M  V30 591 H 57.0739 0.550578 -0.489931 0
M  V30 592 H 59.7159 0.866607 -1.69086 0
M  V30 593 H 57.8659 3.32784 -2.00467 0
M  V30 594 H 59.5379 1.91303 -4.19763 0
M  V30 595 H 57.7809 1.7356 -3.97567 0
M  V30 596 H 58.4519 3.3081 -4.41892 0
M  V30 597 H 60.9279 3.3321 -2.49219 0
M  V30 598 H 59.8039 4.64714 -2.92116 0
M  V30 599 H 60.0649 4.24615 -1.23102 0
M  V30 600 N 59.124 1.23083 0.984299 0
M  V30 601 C 60.364 1.07226 1.74017 0
M  V30 602 C 60.728 -0.384766 1.88105 0
M  V30 603 O 61.929 -0.664411 2.60459 0
M  V30 604 C 60.2 1.77348 3.10294 0
M  V30 605 S 61.759 1.77014 4.01512 0
M  V30 606 H 58.577 0.383819 0.598502 0
M  V30 607 H 61.179 1.56158 1.17622 0
M  V30 608 H 59.883 2.82506 2.97689 0
M  V30 609 H 59.414 1.28682 3.71759 0
M  V30 610 H 61.429 0.825956 4.89277 0
M  V30 611 N 60.6021 -1.18246 1.0419 0
M  V30 612 C 62.0181 -1.40269 0.761366 0
M  V30 613 C 62.2181 -1.90777 -0.648578 0
M  V30 614 O 61.2741 -2.0929 -1.41258 0
M  V30 615 C 62.5871 -2.40237 1.8085 0
M  V30 616 C 64.1351 -2.53961 1.82955 0
M  V30 617 C 64.6101 -3.57194 2.86664 0
M  V30 618 N 66.1011 -3.64702 2.85563 0
M  V30 619 C 66.8361 -4.44309 3.6246 0
M  V30 620 N 66.3321 -5.27514 4.49111 0
M  V30 621 N 68.1251 -4.39084 3.50944 0
M  V30 622 H 60.2761 -0.837882 1.95175 0
M  V30 623 H 62.5391 -0.430608 0.84456 0
M  V30 624 H 62.2451 -2.10176 2.81991 0
M  V30 625 H 62.1191 -3.39601 1.64168 0
M  V30 626 H 64.5061 -2.83338 0.824855 0
M  V30 627 H 64.5871 -1.54706 2.03715 0
M  V30 628 H 64.2311 -3.28558 3.87314 0
M  V30 629 H 64.1611 -4.5613 2.6316 0
M  V30 630 H 66.6521 -3.05289 2.22727 0
M  V30 631 H 66.9651 -5.85411 5.04493 0
M  V30 632 H 65.3101 -5.2693 4.53178 0
M  V30 633 H 68.5011 -3.7313 2.82651 0
M  V30 634 H 68.6741 -5.00883 4.11121 0
M  V30 635 N 62.0802 -0.821533 -1.34494 0
M  V30 636 C 63.3282 -0.408139 -1.97936 0
M  V30 637 C 63.6492 1.03193 -1.65457 0
M  V30 638 O 62.9192 1.71622 -0.944595 0
M  V30 639 H 61.4992 -0.147928 -0.732206 0
M  V30 640 H 64.1612 -1.05067 -1.64155 0
M  V30 641 H 63.2572 -0.52601 -3.07635 0
M  V30 642 N 63.5583 1.46682 -0.576371 0
M  V30 643 C 64.8063 2.02013 -0.0594163 0
M  V30 644 C 65.1273 1.45101 1.30271 0
M  V30 645 O 64.3973 0.633317 1.8538 0
M  V30 646 H 62.9773 0.746759 -0.0189745 0
M  V30 647 H 65.6393 1.79862 -0.750717 0
M  V30 648 H 64.7353 3.12097 0.014345 0
M  V30 649 N 65.0364 0.313813 1.54444 0
M  V30 650 C 66.2644 -0.293918 2.04802 0
M  V30 651 C 66.6794 -1.46537 1.19047 0
M  V30 652 O 66.0364 -1.81182 0.218939 0
M  V30 653 C 66.0874 -0.737806 3.53891 0
M  V30 654 O 65.8084 0.387038 4.36387 0
M  V30 655 C 67.3094 -1.40936 4.203 0
M  V30 656 H 64.5294 -0.0620057 0.668129 0
M  V30 657 H 67.0734 0.457169 1.99324 0
M  V30 658 H 65.2284 -1.43889 3.59687 0
M  V30 659 H 65.6424 0.0391274 5.24485 0
M  V30 660 H 67.1164 -1.67099 5.26101 0
M  V30 661 H 67.5934 -2.35355 3.70816 0
M  V30 662 H 68.1994 -0.751117 4.18615 0
M  V30 663 N 66.5145 -1.57545 0.0417849 0
M  V30 664 C 67.4465 -2.07904 -0.964799 0
M  V30 665 C 68.4595 -1.00497 -1.28079 0
M  V30 666 O 69.6485 -1.28087 -1.24322 0
M  V30 667 C 66.7485 -2.49928 -2.28887 0
M  V30 668 C 65.9215 -3.80562 -2.15619 0
M  V30 669 C 64.9805 -4.08999 -3.31069 0
M  V30 670 O 64.0065 -4.79061 -3.0739 0
M  V30 671 N 65.2085 -3.6017 -4.55256 0
M  V30 672 H 67.9735 -2.94886 -0.535029 0
M  V30 673 H 65.5345 -1.61252 -0.144681 0
M  V30 674 H 67.5265 -2.66034 -3.04972 0
M  V30 675 H 66.0965 -1.68245 -2.63463 0
M  V30 676 H 65.3165 -3.74129 -1.24183 0
M  V30 677 H 66.6045 -4.66126 -2.03971 0
M  V30 678 H 66.0025 -3.03512 -4.77386 0
M  V30 679 H 64.5595 -3.81532 -5.28466 0
M  V30 680 N 67.9926 0.231505 -1.5589 0
M  V30 681 C 69.4086 0.580748 -1.48659 0
M  V30 682 C 69.6086 1.87617 -0.73498 0
M  V30 683 O 68.6646 2.51046 -0.270586 0
M  V30 684 C 69.9776 0.669202 -2.93159 0
M  V30 685 C 71.5256 0.760499 -3.03621 0
M  V30 686 C 72.0006 0.880383 -4.49459 0
M  V30 687 N 73.4916 0.944861 -4.53461 0
M  V30 688 C 74.2266 1.05716 -5.63571 0
M  V30 689 N 73.7226 1.13403 -6.83456 0
M  V30 690 N 75.5156 1.09152 -5.514 0
M  V30 691 H 67.6666 -0.618695 -2.03189 0
M  V30 692 H 69.9296 -0.215728 -0.923128 0
M  V30 693 H 69.6356 -0.212904 -3.51055 0
M  V30 694 H 69.5096 1.5361 -3.44505 0
M  V30 695 H 71.8966 1.63305 -2.45796 0
M  V30 696 H 71.9776 -0.131864 -2.5546 0
M  V30 697 H 71.6216 0.0123284 -5.07899 0
M  V30 698 H 71.5516 1.78802 -4.95316 0
M  V30 699 H 74.0426 0.896176 -3.6712 0
M  V30 700 H 74.3556 1.21921 -7.63122 0
M  V30 701 H 72.7006 1.10333 -6.86186 0
M  V30 702 H 75.8916 1.02805 -4.56671 0
M  V30 703 H 76.0646 1.17558 -6.37247 0
M  V30 704 N 69.4707 1.49531 0.497807 0
M  V30 705 C 70.8817 1.52344 1.07927 0
M  V30 706 C 71.2327 0.311469 1.93712 0
M  V30 707 O 70.3577 -0.578405 2.08527 0
M  V30 708 C 70.9527 2.76062 1.96405 0
M  V30 709 C 69.5117 2.81643 2.49709 0
M  V30 710 C 68.6587 2.46299 1.27404 0
M  V30 711 H 71.6097 1.56182 0.281576 0
M  V30 712 H 71.6307 2.56405 2.81135 0
M  V30 713 H 71.1427 3.64254 1.33943 0
M  V30 714 H 69.2437 1.97739 3.15801 0
M  V30 715 H 69.3567 3.83891 2.86643 0
M  V30 716 H 67.7207 1.98148 1.60029 0
M  V30 717 H 68.5037 3.36769 0.66645 0
M  V30 718 N 70.9488 -0.749086 1.3866 0
M  V30 719 C 72.1888 -1.52112 1.36534 0
M  V30 720 C 72.5528 -1.91951 -0.0432316 0
M  V30 721 O 73.7538 -2.68132 -0.189396 0
M  V30 722 C 72.0248 -2.73704 2.29828 0
M  V30 723 S 73.5838 -3.63519 2.45763 0
M  V30 724 H 70.4018 -0.520482 0.484375 0
M  V30 725 H 73.0038 -0.878963 1.74627 0
M  V30 726 H 71.7078 -2.42552 3.31054 0
M  V30 727 H 71.2388 -3.4286 1.929 0
M  V30 728 H 73.2538 -4.66712 1.68505 0
M  V30 729 N 72.4269 -1.23603 -0.977757 0
M  V30 730 C 73.6569 -1.09487 -1.75203 0
M  V30 731 C 74.0649 0.356321 -1.85814 0
M  V30 732 O 73.4079 1.25816 -1.33851 0
M  V30 733 C 73.4699 -1.64905 -3.19447 0
M  V30 734 C 73.1339 -3.13688 -3.32338 0
M  V30 735 C 74.1309 -4.10953 -3.18455 0
M  V30 736 C 71.8159 -3.53449 -3.56902 0
M  V30 737 C 73.8099 -5.45962 -3.28944 0
M  V30 738 C 71.4969 -4.88602 -3.6703 0
M  V30 739 C 72.4949 -5.84668 -3.53062 0
M  V30 740 O 72.1829 -7.17365 -3.62826 0
M  V30 741 H 71.9149 -0.38367 -0.556573 0
M  V30 742 H 74.4689 -1.6398 -1.23693 0
M  V30 743 H 72.6989 -1.04835 -3.72218 0
M  V30 744 H 74.3879 -1.46226 -3.78646 0
M  V30 745 H 75.1539 -3.81577 -2.99372 0
M  V30 746 H 71.0329 -2.79188 -3.66844 0
M  V30 747 H 74.5769 -6.20925 -3.17958 0
M  V30 748 H 70.4739 -5.17653 -3.85623 0
M  V30 749 H 71.2419 -7.2515 -3.79605 0
M  V30 750 N 73.905 1.17692 -1.04816 0
M  V30 751 C 74.852 2.21581 -0.645797 0
M  V30 752 C 75.822 1.62367 0.350159 0
M  V30 753 O 77.007 1.89254 0.242433 0
M  V30 754 C 74.147 3.45092 -0.0227568 0
M  V30 755 C 73.26 4.18613 -1.06709 0
M  V30 756 C 72.395 5.29602 -0.411767 0
M  V30 757 C 71.434 5.94904 -1.44067 0
M  V30 758 N 70.571 6.97414 -0.809781 0
M  V30 759 H 75.411 2.55353 -1.5362 0
M  V30 760 H 72.948 1.25438 -0.768364 0
M  V30 761 H 74.906 4.15679 0.35588 0
M  V30 762 H 73.536 3.11917 0.831122 0
M  V30 763 H 72.588 3.46779 -1.5636 0
M  V30 764 H 73.9 4.63293 -1.84827 0
M  V30 765 H 73.054 6.06696 0.0206623 0
M  V30 766 H 71.793 4.86045 0.401438 0
M  V30 767 H 70.798 5.16544 -1.88316 0
M  V30 768 H 72.023 6.40542 -2.25571 0
M  V30 769 H 69.969 6.55998 -0.0170186 0
M  V30 770 H 69.886 7.40386 -1.52856 0
M  V30 771 H 71.154 7.78463 -0.401999 0
M  V30 772 N 75.3831 0.828654 1.34056 0
M  V30 773 C 76.6291 0.42008 1.98402 0
M  V30 774 C 76.9621 -1.01564 1.65525 0
M  V30 775 O 76.2371 -1.70834 0.929831 0
M  V30 776 C 76.5201 0.62927 3.54559 0
M  V30 777 C 76.3731 2.11152 3.97159 0
M  V30 778 C 77.6921 0.0688756 4.40046 0
M  V30 779 H 74.8111 0.154104 0.720709 0
M  V30 780 H 77.4531 1.04228 1.5886 0
M  V30 781 H 75.6031 0.0996418 3.88372 0
M  V30 782 H 77.2751 2.70522 3.73651 0
M  V30 783 H 75.5181 2.59985 3.47261 0
M  V30 784 H 76.1891 2.20868 5.05887 0
M  V30 785 H 78.6651 0.521458 4.1282 0
M  V30 786 H 77.5411 0.245006 5.48353 0
M  V30 787 H 77.8021 -1.0266 4.30015 0
M  V30 788 N 76.8612 -1.46375 0.584142 0
M  V30 789 C 78.1102 -2.01585 0.0679741 0
M  V30 790 C 78.4232 -1.46109 -1.30045 0
M  V30 791 O 79.6292 -1.93148 -1.90804 0
M  V30 792 C 78.0852 -3.5983 0.0709207 0
M  V30 793 C 77.6932 -4.24303 1.43775 0
M  V30 794 C 79.4372 -4.22693 -0.391228 0
M  V30 795 C 77.3442 -5.74631 1.39834 0
M  V30 796 H 76.2742 -0.753689 0.0216421 0
M  V30 797 H 78.9252 -1.68093 0.736001 0
M  V30 798 H 77.3072 -3.90405 -0.663299 0
M  V30 799 H 78.4812 -4.05335 2.19181 0
M  V30 800 H 76.7962 -3.73539 1.84004 0
M  V30 801 H 79.3932 -5.3289 -0.439524 0
M  V30 802 H 79.7362 -3.91728 -1.40906 0
M  V30 803 H 80.2692 -3.96749 0.288974 0
M  V30 804 H 77.0082 -6.10258 2.39303 0
M  V30 805 H 76.5282 -5.95858 0.686505 0
M  V30 806 H 78.2072 -6.37375 1.11187 0
M  V30 807 N 78.3393 -0.321999 -1.54275 0
M  V30 808 C 79.5693 0.282642 -2.04658 0
M  V30 809 C 79.9773 1.46453 -1.19784 0
M  V30 810 O 79.3203 1.82367 -0.220932 0
M  V30 811 C 79.3823 0.781857 -3.50895 0
M  V30 812 C 79.0463 -0.277517 -4.56157 0
M  V30 813 C 80.0433 -1.11307 -5.07845 0
M  V30 814 C 77.7283 -0.425256 -5.00497 0
M  V30 815 C 79.7223 -2.08211 -6.02434 0
M  V30 816 C 77.4093 -1.39771 -5.94901 0
M  V30 817 C 78.4073 -2.2246 -6.45756 0
M  V30 818 O 78.0953 -3.18054 -7.38307 0
M  V30 819 H 77.8273 0.0622636 -0.673126 0
M  V30 820 H 80.3813 -0.465792 -2.00049 0
M  V30 821 H 78.6113 1.58118 -3.52896 0
M  V30 822 H 80.3003 1.30467 -3.84361 0
M  V30 823 H 81.0663 -1.00991 -4.74369 0
M  V30 824 H 76.9453 0.20847 -4.60528 0
M  V30 825 H 80.4893 -2.72791 -6.42052 0
M  V30 826 H 76.3863 -1.50152 -6.27794 0
M  V30 827 H 77.1543 -3.13275 -7.56175 0
M  V30 828 N 79.8174 1.5752 -0.0501392 0
M  V30 829 C 81.0644 1.9265 0.623874 0
M  V30 830 C 81.3924 0.928411 1.70912 0
M  V30 831 O 80.6474 -0.0594525 1.9561 0
M  V30 832 C 80.9464 3.34467 1.25963 0
M  V30 833 C 80.6124 4.49883 0.302689 0
M  V30 834 C 79.2744 4.81184 0.0393636 0
M  V30 835 C 81.6264 5.20002 -0.353205 0
M  V30 836 C 78.9544 5.79951 -0.887308 0
M  V30 837 C 81.3064 6.1976 -1.26806 0
M  V30 838 C 79.9704 6.49491 -1.54007 0
M  V30 839 H 79.2404 0.704957 0.228292 0
M  V30 840 H 81.8874 1.91146 -0.116398 0
M  V30 841 H 80.1924 3.32333 2.07514 0
M  V30 842 H 81.8894 3.58928 1.78806 0
M  V30 843 H 78.4794 4.25457 0.518109 0
M  V30 844 H 82.6634 4.96033 -0.162854 0
M  V30 845 H 77.9194 6.01322 -1.10553 0
M  V30 846 H 82.0934 6.73205 -1.78236 0
M  V30 847 H 79.7204 7.25837 -2.25976 0
M  V30 848 N 81.2955 -0.223234 1.56011 0
M  V30 849 C 82.2455 -1.28008 1.88674 0
M  V30 850 C 83.2295 -1.42369 0.749663 0
M  V30 851 O 84.4215 -1.45212 1.01205 0
M  V30 852 C 81.5505 -2.63084 2.20548 0
M  V30 853 C 80.6365 -2.52632 3.40643 0
M  V30 854 N 81.0275 -2.11829 4.59306 0
M  V30 855 C 79.3255 -2.83594 3.44224 0
M  V30 856 C 80.0265 -2.12587 5.41463 0
M  V30 857 N 79.0025 -2.5301 4.81131 0
M  V30 858 H 82.8045 -0.955487 2.77935 0
M  V30 859 H 80.3185 -0.431801 1.56554 0
M  V30 860 H 82.3155 -3.39385 2.42122 0
M  V30 861 H 80.9755 -2.96391 1.32599 0
M  V30 862 H 81.9865 -1.82988 4.84496 0
M  V30 863 H 78.6635 -3.21284 2.66614 0
M  V30 864 H 80.0535 -1.83179 6.46448 0
M  V30 865 N 82.7736 -1.49793 -0.48987 0
M  V30 866 C 84.0506 -1.50348 -1.25119 0
M  V30 867 C 84.4306 -0.237466 -2.0976 0
M  V30 868 O 83.7786 0.77981 -2.14782 0
M  V30 869 C 83.9886 -2.78872 -2.09837 0
M  V30 870 C 85.3366 -3.288 -2.68655 0
M  V30 871 O 86.3606 -2.80065 -2.20096 0
M  V30 872 O 85.2196 -4.13707 -3.57083 0
M  V30 873 H 82.3136 -0.602242 -0.566775 0
M  V30 874 H 84.8596 -1.62067 -0.503229 0
M  V30 875 H 83.6316 -3.62499 -1.47343 0
M  V30 876 H 83.2546 -2.70066 -2.91805 0
M  V30 877 N 84.2517 0.741722 -1.39055 0
M  V30 878 C 85.4797 1.53098 -1.39171 0
M  V30 879 C 85.8947 1.88794 0.0155099 0
M  V30 880 O 85.2517 1.53626 0.985159 0
M  V30 881 C 85.3027 2.82274 -2.2584 0
M  V30 882 O 85.0237 2.48097 -3.61081 0
M  V30 883 C 86.5247 3.76343 -2.34266 0
M  V30 884 H 83.7447 0.473335 -0.4756 0
M  V30 885 H 86.2887 0.917045 -1.82785 0
M  V30 886 H 84.4437 3.40015 -1.85656 0
M  V30 887 H 84.8577 3.31029 -4.06842 0
M  V30 888 H 86.3317 4.63898 -2.9917 0
M  V30 889 H 86.8087 4.17619 -1.35982 0
M  V30 890 H 87.4147 3.24523 -2.74891 0
M  V30 891 N 85.7298 1.2412 0.971189 0
M  V30 892 C 86.9548 1.10667 1.75407 0
M  V30 893 C 87.3798 -0.337048 1.85056 0
M  V30 894 O 86.7378 -1.24396 1.31892 0
M  V30 895 C 86.7858 1.74726 3.15441 0
M  V30 896 O 85.8898 1.01566 3.99697 0
M  V30 897 H 85.2308 0.387341 0.539317 0
M  V30 898 H 87.7608 1.64358 1.2185 0
M  V30 899 H 87.7708 1.80341 3.6598 0
M  V30 900 H 86.4458 2.79773 3.07734 0
M  V30 901 H 85.0228 1.03713 3.58187 0
M  V30 902 N 87.2079 -1.17134 1.05439 0
M  V30 903 C 88.6239 -1.39454 0.776201 0
M  V30 904 C 88.8239 -1.91454 -0.628307 0
M  V30 905 O 87.8799 -2.10777 -1.39031 0
M  V30 906 C 89.1929 -2.38305 1.83388 0
M  V30 907 C 90.7409 -2.52006 1.85639 0
M  V30 908 C 91.2159 -3.54133 2.90437 0
M  V30 909 N 92.7069 -3.61653 2.89415 0
M  V30 910 C 93.4419 -4.4044 3.67152 0
M  V30 911 N 92.9379 -5.22721 4.54681 0
M  V30 912 N 94.7309 -4.35337 3.55581 0
M  V30 913 H 86.8819 -0.817134 1.96053 0
M  V30 914 H 89.1449 -0.421626 0.849079 0
M  V30 915 H 88.8509 -2.07173 2.84204 0
M  V30 916 H 88.7249 -3.37841 1.67761 0
M  V30 917 H 91.1119 -2.82447 0.85486 0
M  V30 918 H 91.1929 -1.52537 2.05344 0
M  V30 919 H 90.8369 -3.24431 3.90777 0
M  V30 920 H 90.7669 -4.53313 2.67983 0
M  V30 921 H 93.2579 -3.02909 2.25952 0
M  V30 922 H 93.5709 -5.80027 5.10674 0
M  V30 923 H 91.9159 -5.22093 4.58741 0
M  V30 924 H 95.1069 -3.70112 2.86592 0
M  V30 925 H 95.2799 -4.96494 4.1641 0
M  V30 926 N 88.686 -0.835752 -1.33615 0
M  V30 927 C 90.102 -0.523139 -1.50783 0
M  V30 928 C 90.302 0.950171 -1.77691 0
M  V30 929 O 89.358 1.73411 -1.83534 0
M  V30 930 C 90.671 -1.39378 -2.66448 0
M  V30 931 C 92.219 -1.39223 -2.80332 0
M  V30 932 C 92.694 -2.24765 -3.99055 0
M  V30 933 N 94.185 -2.22458 -4.06284 0
M  V30 934 C 94.92 -2.85386 -4.97336 0
M  V30 935 N 94.416 -3.57354 -5.93523 0
M  V30 936 N 96.209 -2.74872 -4.90308 0
M  V30 937 H 88.36 -1.78952 -1.14411 0
M  V30 938 H 90.623 -0.763297 -0.562212 0
M  V30 939 H 90.329 -2.44061 -2.53234 0
M  V30 940 H 90.203 -1.0676 -3.61776 0
M  V30 941 H 92.59 -0.353136 -2.92979 0
M  V30 942 H 92.671 -1.75846 -1.85773 0
M  V30 943 H 92.315 -3.28732 -3.87167 0
M  V30 944 H 92.245 -1.85485 -4.92852 0
M  V30 945 H 94.736 -1.70119 -3.37443 0
M  V30 946 H 95.049 -4.02584 -6.59656 0
M  V30 947 H 93.394 -3.61461 -5.93608 0
M  V30 948 H 96.585 -2.18213 -4.14126 0
M  V30 949 H 96.758 -3.24199 -5.61069 0
M  V30 950 N 90.1641 1.46063 -0.591896 0
M  V30 951 C 91.0941 2.33172 0.123673 0
M  V30 952 C 92.0751 1.45897 0.87453 0
M  V30 953 O 93.2601 1.74698 0.848181 0
M  V30 954 C 90.3901 3.28336 1.13194 0
M  V30 955 C 89.3441 4.25124 0.495324 0
M  V30 956 C 88.6701 5.09863 1.61071 0
M  V30 957 C 89.9701 5.19143 -0.573425 0
M  V30 958 H 91.6641 2.93252 -0.603646 0
M  V30 959 H 89.2101 1.41014 -0.291741 0
M  V30 960 H 91.1631 3.88137 1.64097 0
M  V30 961 H 89.8871 2.66383 1.88965 0
M  V30 962 H 88.5461 3.66599 0.00729452 0
M  V30 963 H 88.1941 4.44288 2.35832 0
M  V30 964 H 87.8941 5.75417 1.19035 0
M  V30 965 H 89.4181 5.72529 2.12233 0
M  V30 966 H 90.8321 5.73106 -0.1491 0
M  V30 967 H 89.2291 5.93089 -0.914636 0
M  V30 968 H 90.2991 4.62519 -1.45617 0
M  V30 969 N 91.6422 0.330177 1.54103 0
M  V30 970 C 92.5902 -0.548226 2.26047 0
M  V30 971 C 93.5842 -1.11309 1.27698 0
M  V30 972 O 94.7902 -1.06036 1.45452 0
M  V30 973 H 91.1652 -0.195456 0.726155 0
M  V30 974 H 93.1362 0.0807567 2.98291 0
M  V30 975 C 91.8852 -1.69415 3.03634 0
M  V30 976 H 91.2082 -1.26876 3.79134 0
M  V30 977 H 92.6482 -2.28423 3.5721 0
M  V30 978 C 91.1072 -2.61569 2.12328 0
M  V30 979 O 91.6372 -3.63462 1.7105 0
M  V30 980 N 89.8432 -2.29952 1.77681 0
M  V30 981 H 89.3902 -1.47134 2.11446 0
M  V30 982 H 89.3482 -2.91871 1.16869 0
M  V30 983 N 93.1203 -1.57491 0.0584922 0
M  V30 984 C 94.3673 -1.92978 -0.613648 0
M  V30 985 C 94.6953 -0.937461 -1.70417 0
M  V30 986 O 93.9503 0.049078 -1.95638 0
M  V30 987 C 94.2493 -3.3513 -1.24188 0
M  V30 988 C 93.9153 -4.50037 -0.278826 0
M  V30 989 C 92.5773 -4.81198 -0.0138447 0
M  V30 990 C 94.9293 -5.19807 0.380777 0
M  V30 991 C 92.2573 -5.79473 0.918052 0
M  V30 992 C 94.6093 -6.19079 1.30091 0
M  V30 993 C 93.2733 -6.48665 1.57449 0
M  V30 994 H 92.5433 -0.706157 -0.22455 0
M  V30 995 H 95.1903 -1.91082 0.126533 0
M  V30 996 H 93.4953 -3.33429 -2.05749 0
M  V30 997 H 95.1923 -3.59871 -1.769 0
M  V30 998 H 91.7823 -4.25726 -0.495539 0
M  V30 999 H 95.9663 -4.95939 0.189158 0
M  V30 1000 H 91.2223 -6.00727 1.1374 0
M  V30 1001 H 95.3963 -6.7225 1.81804 0
M  V30 1002 H 93.0233 -7.24628 2.29822 0
M  V30 1003 N 94.5984 0.214957 -1.56127 0
M  V30 1004 C 95.5084 1.28727 -1.96129 0
M  V30 1005 C 96.5244 1.50916 -0.866044 0
M  V30 1006 O 97.7004 1.63918 -1.17016 0
M  V30 1007 C 94.7654 2.61569 -2.27558 0
M  V30 1008 C 93.8264 2.47625 -3.50685 0
M  V30 1009 C 93.0594 3.74132 -3.80606 0
M  V30 1010 O 93.2824 4.77438 -3.12104 0
M  V30 1011 O 92.2164 3.70849 -4.74083 0
M  V30 1012 H 96.0424 0.977855 -2.87527 0
M  V30 1013 H 93.6274 0.418358 -1.43423 0
M  V30 1014 H 95.5094 3.40012 -2.48938 0
M  V30 1015 H 94.1844 2.92178 -1.39332 0
M  V30 1016 H 93.0914 1.67361 -3.34576 0
M  V30 1017 H 94.4244 2.21954 -4.39315 0
M  V30 1018 N 96.0765 1.50051 0.48192 0
M  V30 1019 C 96.9865 1.7089 1.60728 0
M  V30 1020 C 98.0025 0.591788 1.63627 0
M  V30 1021 O 99.1785 0.868817 1.81696 0
M  V30 1022 C 96.2435 1.78855 2.97005 0
M  V30 1023 C 95.3045 3.02537 3.04581 0
M  V30 1024 C 94.5375 3.10112 4.34357 0
M  V30 1025 O 94.7605 2.24765 5.24249 0
M  V30 1026 O 93.6945 4.02747 4.47301 0
M  V30 1027 H 97.5205 2.66264 1.46072 0
M  V30 1028 H 95.1055 1.34018 0.660264 0
M  V30 1029 H 96.9875 1.86336 3.77964 0
M  V30 1030 H 95.6625 0.866628 3.11883 0
M  V30 1031 H 94.5695 3.00563 2.22739 0
M  V30 1032 H 95.9025 3.94272 2.94636 0
M  V30 1033 N 97.5546 -0.734337 1.39446 0
M  V30 1034 C 98.5176 -1.83004 1.37994 0
M  V30 1035 C 99.5176 -1.58397 0.276938 0
M  V30 1036 O 100.708 -1.65785 0.534875 0
M  V30 1037 C 97.8396 -3.20802 1.1532 0
M  V30 1038 H 99.0326 -1.85694 2.35494 0
M  V30 1039 H 96.5856 -0.938059 1.25021 0
M  V30 1040 H 97.3206 -3.23772 0.185036 0
M  V30 1041 H 97.1056 -3.4006 1.95197 0
M  V30 1042 H 98.5956 -4.00862 1.17046 0
M  V30 1043 N 99.0327 -1.24633 -0.964593 0
M  V30 1044 C 99.9797 -1.04144 -2.05968 0
M  V30 1045 C 100.95 0.046262 -1.66036 0
M  V30 1046 O 102.135 -0.108972 -1.90489 0
M  V30 1047 C 99.2747 -0.65563 -3.38815 0
M  V30 1048 C 98.3877 -1.81714 -3.91923 0
M  V30 1049 C 97.5227 -1.37662 -5.13052 0
M  V30 1050 C 96.5617 -2.50788 -5.58365 0
M  V30 1051 N 95.6987 -2.07582 -6.70712 0
M  V30 1052 H 100.539 -1.9787 -2.22827 0
M  V30 1053 H 98.0757 -0.9855 -1.09208 0
M  V30 1054 H 100.034 -0.412954 -4.15151 0
M  V30 1055 H 98.6637 0.244627 -3.21872 0
M  V30 1056 H 97.7157 -2.1734 -3.12198 0
M  V30 1057 H 99.0277 -2.66705 -4.21509 0
M  V30 1058 H 98.1817 -1.093 -5.96773 0
M  V30 1059 H 96.9207 -0.497293 -4.85158 0
M  V30 1060 H 95.9257 -2.79906 -4.73215 0
M  V30 1061 H 97.1507 -3.39283 -5.88272 0
M  V30 1062 H 95.0967 -1.22051 -6.44546 0
M  V30 1063 H 95.0137 -2.86125 -6.99763 0
M  V30 1064 H 96.2817 -1.82369 -7.57867 0
M  V30 1065 N 100.511 1.16574 -1.06058 0
M  V30 1066 C 101.421 2.2452 -0.680282 0
M  V30 1067 C 102.437 1.71348 0.302604 0
M  V30 1068 O 103.613 2.00822 0.152513 0
M  V30 1069 C 100.678 3.46629 -0.0700315 0
M  V30 1070 C 99.7388 4.14849 -1.10448 0
M  V30 1071 C 98.9718 5.31129 -0.523256 0
M  V30 1072 O 99.1948 5.66514 0.664709 0
M  V30 1073 O 98.1288 5.88526 -1.26179 0
M  V30 1074 H 101.955 2.59355 -1.58015 0
M  V30 1075 H 99.5398 1.24043 -0.832694 0
M  V30 1076 H 101.422 4.20543 0.268667 0
M  V30 1077 H 100.097 3.13573 0.803353 0
M  V30 1078 H 99.0038 3.42916 -1.49532 0
M  V30 1079 H 100.337 4.51954 -1.94931 0
M  V30 1080 N 101.989 0.842826 1.3317 0
M  V30 1081 C 102.952 0.284065 2.27433 0
M  V30 1082 C 103.952 -0.54948 1.5112 0
M  V30 1083 O 105.142 -0.362699 1.70382 0
M  V30 1084 C 102.274 -0.599384 3.35589 0
M  V30 1085 H 103.467 1.11589 2.78366 0
M  V30 1086 H 101.02 0.616221 1.4364 0
M  V30 1087 H 101.755 -1.45349 2.89904 0
M  V30 1088 H 101.54 -0.00291266 3.921 0
M  V30 1089 H 103.03 -0.983488 4.05854 0
M  V30 1090 N 103.467 -1.45747 0.599634 0
M  V30 1091 C 104.707 -2.04181 0.0946309 0
M  V30 1092 C 105.071 -1.45895 -1.24815 0
M  V30 1093 O 106.272 -1.95633 -1.8434 0
M  V30 1094 C 104.543 -3.57368 0.047581 0
M  V30 1095 S 106.102 -4.36997 -0.397387 0
M  V30 1096 H 102.92 -0.70953 0.0456954 0
M  V30 1097 H 105.522 -1.78564 0.795946 0
M  V30 1098 H 104.226 -3.97303 1.02852 0
M  V30 1099 H 103.757 -3.87549 -0.675977 0
M  V30 1100 H 105.772 -4.68012 -1.64862 0
M  V30 1101 N 104.945 -0.338344 -1.53925 0
M  V30 1102 C 106.361 0.0137736 -1.59594 0
M  V30 1103 C 106.561 1.49186 -1.35447 0
M  V30 1104 O 105.617 2.24987 -1.14616 0
M  V30 1105 C 106.93 -0.41773 -2.97784 0
M  V30 1106 C 108.478 -0.369633 -3.1081 0
M  V30 1107 C 108.953 -0.776524 -4.51369 0
M  V30 1108 N 110.444 -0.730506 -4.57403 0
M  V30 1109 C 111.179 -1.01736 -5.64303 0
M  V30 1110 N 110.675 -1.3721 -6.79077 0
M  V30 1111 N 112.468 -0.941942 -5.54151 0
M  V30 1112 H 104.619 -1.3012 -1.67876 0
M  V30 1113 H 106.882 -0.530082 -0.78595 0
M  V30 1114 H 106.588 -1.44811 -3.20504 0
M  V30 1115 H 106.462 0.209729 -3.76616 0
M  V30 1116 H 108.849 0.651568 -2.87817 0
M  V30 1117 H 108.93 -1.03223 -2.34049 0
M  V30 1118 H 108.574 -1.79571 -4.75096 0
M  V30 1119 H 108.504 -0.0914649 -5.26521 0
M  V30 1120 H 110.995 -0.468783 -3.74981 0
M  V30 1121 H 111.308 -1.57597 -7.5656 0
M  V30 1122 H 109.653 -1.4105 -6.80536 0
M  V30 1123 H 112.844 -0.664184 -4.63364 0
M  V30 1124 H 113.017 -1.16884 -6.37371 0
M  V30 1125 N 106.423 1.57458 -0.0668435 0
M  V30 1126 C 107.839 1.56947 0.289772 0
M  V30 1127 C 108.039 1.07584 1.70376 0
M  V30 1128 O 107.095 0.739486 2.41429 0
M  V30 1129 C 108.408 3.0052 0.103943 0
M  V30 1130 C 109.956 3.12517 0.173857 0
M  V30 1131 C 110.431 4.57997 0.0163682 0
M  V30 1132 N 111.922 4.63144 0.0721352 0
M  V30 1133 C 112.657 5.73394 -0.0253794 0
M  V30 1134 N 112.153 6.92576 -0.176133 0
M  V30 1135 N 113.946 5.62091 0.0313305 0
M  V30 1136 H 106.097 1.87863 -0.991027 0
M  V30 1137 H 108.36 0.86583 -0.38606 0
M  V30 1138 H 108.066 3.40729 -0.871572 0
M  V30 1139 H 107.94 3.67304 0.858366 0
M  V30 1140 H 110.327 2.72197 1.13985 0
M  V30 1141 H 110.408 2.48381 -0.611586 0
M  V30 1142 H 110.052 4.99005 -0.946374 0
M  V30 1143 H 109.982 5.20158 0.821153 0
M  V30 1144 H 112.473 3.77436 0.187263 0
M  V30 1145 H 112.786 7.72418 -0.242821 0
M  V30 1146 H 111.131 6.94678 -0.211429 0
M  V30 1147 H 114.322 4.67867 0.147773 0
M  V30 1148 H 114.495 6.47982 -0.048121 0
M  V30 1149 N 107.901 -0.206675 1.56239 0
M  V30 1150 C 109.178 -0.954051 1.70755 0
M  V30 1151 C 109.558 -2.01841 0.618353 0
M  V30 1152 O 108.906 -2.25444 -0.372434 0
M  V30 1153 C 109.116 -1.551 3.12642 0
M  V30 1154 C 110.464 -2.03757 3.72516 0
M  V30 1155 O 111.488 -1.64965 3.15698 0
M  V30 1156 O 110.347 -2.75103 4.72208 0
M  V30 1157 H 107.441 -0.446636 0.696021 0
M  V30 1158 H 109.987 -0.197283 1.68549 0
M  V30 1159 H 108.759 -0.783212 3.83382 0
M  V30 1160 H 108.382 -2.37291 3.19028 0
M  V30 1161 N 109.379 -1.50304 -0.473955 0
M  V30 1162 C 110.627 -1.60832 -1.22382 0
M  V30 1163 C 110.948 -0.30939 -1.9253 0
M  V30 1164 O 110.218 0.67296 -1.83978 0
M  V30 1165 H 108.798 -0.592652 -0.454723 0
M  V30 1166 H 111.46 -1.87068 -0.546968 0
M  V30 1167 H 110.556 -2.41803 -1.97327 0
M  V30 1168 N 110.857 0.726932 -1.39834 0
M  V30 1169 C 112.105 1.4837 -1.37225 0
M  V30 1170 C 112.426 1.94979 0.0284857 0
M  V30 1171 O 111.696 1.69555 0.981213 0
M  V30 1172 H 110.276 0.55043 -0.505011 0
M  V30 1173 H 112.938 0.862468 -1.74778 0
M  V30 1174 H 112.034 2.36198 -2.04003 0
M  V30 1175 N 112.336 1.25143 0.95797 0
M  V30 1176 C 113.268 1.01023 2.05735 0
M  V30 1177 C 114.281 -0.0236902 1.62783 0
M  V30 1178 O 115.47 0.21448 1.77207 0
M  V30 1179 C 112.57 0.504595 3.35122 0
M  V30 1180 C 111.743 1.6039 4.06932 0
M  V30 1181 C 110.802 1.09922 5.14591 0
M  V30 1182 O 109.828 1.79293 5.40225 0
M  V30 1183 N 111.03 -0.0612545 5.80468 0
M  V30 1184 H 113.795 1.95683 2.26998 0
M  V30 1185 H 111.356 1.16303 1.12629 0
M  V30 1186 H 113.348 0.151516 4.04416 0
M  V30 1187 H 111.918 -0.347989 3.10657 0
M  V30 1188 H 111.138 2.12872 3.31782 0
M  V30 1189 H 112.426 2.34252 4.51667 0
M  V30 1190 H 111.824 -0.640985 5.62057 0
M  V30 1191 H 110.381 -0.355395 6.5083 0
M  V30 1192 N 113.814 -1.1601 1.06675 0
M  V30 1193 C 114.744 -2.22688 0.702307 0
M  V30 1194 C 115.725 -1.67306 -0.307032 0
M  V30 1195 O 116.91 -1.93352 -0.181305 0
M  V30 1196 C 114.04 -3.47178 0.092038 0
M  V30 1197 C 112.994 -4.15477 1.02777 0
M  V30 1198 C 112.32 -5.33963 0.28061 0
M  V30 1199 C 113.62 -4.66019 2.35846 0
M  V30 1200 H 115.314 -2.53429 1.59419 0
M  V30 1201 H 112.86 -1.21813 0.767961 0
M  V30 1202 H 114.813 -4.21037 -0.174814 0
M  V30 1203 H 113.537 -3.15749 -0.834877 0
M  V30 1204 H 112.196 -3.43549 1.27944 0
M  V30 1205 H 111.844 -4.98788 -0.649545 0
M  V30 1206 H 111.544 -5.806 0.904258 0
M  V30 1207 H 113.068 -6.10596 0.021396 0
M  V30 1208 H 114.482 -5.3144 2.15045 0
M  V30 1209 H 112.879 -5.23293 2.93743 0
M  V30 1210 H 113.949 -3.82023 2.98641 0
M  V30 1211 N 115.292 -0.849877 -1.32721 0
M  V30 1212 C 116.538 -0.451591 -1.97708 0
M  V30 1213 C 116.871 0.989175 -1.6712 0
M  V30 1214 O 116.146 1.69334 -0.956891 0
M  V30 1215 C 116.429 -0.685598 -3.53513 0
M  V30 1216 C 116.282 -2.17444 -3.93749 0
M  V30 1217 C 117.601 -0.138874 -4.39881 0
M  V30 1218 H 114.72 -0.16555 -0.718166 0
M  V30 1219 H 117.362 -1.06742 -1.57182 0
M  V30 1220 H 115.512 -0.161416 -3.88165 0
M  V30 1221 H 117.184 -2.76433 -3.693 0
M  V30 1222 H 115.427 -2.65476 -3.43081 0
M  V30 1223 H 116.098 -2.28888 -5.02309 0
M  V30 1224 H 118.574 -0.587068 -4.11938 0
M  V30 1225 H 117.45 -0.332213 -5.47894 0
M  V30 1226 H 117.711 0.95806 -4.31594 0
M  V30 1227 N 116.77 1.45427 -0.607355 0
M  V30 1228 C 117.995 2.07124 -0.107006 0
M  V30 1229 C 118.42 1.44906 1.19933 0
M  V30 1230 O 117.778 0.541687 1.73019 0
M  V30 1231 C 117.826 3.60595 0.0194119 0
M  V30 1232 O 116.93 3.98285 1.0697 0
M  V30 1233 H 116.271 0.659868 -0.0739597 0
M  V30 1234 H 118.801 1.86683 -0.837297 0
M  V30 1235 H 118.811 4.07419 0.2177 0
M  V30 1236 H 117.486 4.05266 -0.934453 0
M  V30 1237 H 116.063 3.63133 0.847889 0
M  V30 1238 N 118.248 0.346503 1.53744 0
M  V30 1239 C 119.497 -0.250122 2.00143 0
M  V30 1240 C 119.81 -1.51418 1.23822 0
M  V30 1241 O 121.016 -2.18823 1.60713 0
M  V30 1242 C 119.472 -0.496252 3.56462 0
M  V30 1243 C 119.08 0.752077 4.41642 0
M  V30 1244 C 120.824 -1.05157 4.11269 0
M  V30 1245 C 118.731 0.476583 5.89477 0
M  V30 1246 H 117.661 -0.0972409 0.747703 0
M  V30 1247 H 120.312 0.46229 1.77581 0
M  V30 1248 H 118.694 -1.26944 3.75102 0
M  V30 1249 H 119.868 1.5266 4.34778 0
M  V30 1250 H 118.183 1.22925 3.97842 0
M  V30 1251 H 120.78 -1.27269 5.19333 0
M  V30 1252 H 121.123 -2.00799 3.64672 0
M  V30 1253 H 121.656 -0.339019 3.96353 0
M  V30 1254 H 118.395 1.4028 6.40314 0
M  V30 1255 H 117.915 -0.259794 5.99237 0
M  V30 1256 H 119.594 0.0949315 6.4693 0
M  V30 1257 N 119.726 -1.57421 0.075193 0
M  V30 1258 C 120.636 -2.1642 -0.905511 0
M  V30 1259 C 121.652 -1.12828 -1.32461 0
M  V30 1260 O 122.828 -1.45109 -1.39661 0
M  V30 1261 C 119.893 -2.71693 -2.15369 0
M  V30 1262 C 118.954 -3.90171 -1.79068 0
M  V30 1263 C 118.187 -4.42798 -2.97936 0
M  V30 1264 O 118.41 -3.94416 -4.12058 0
M  V30 1265 O 117.344 -5.34085 -2.77555 0
M  V30 1266 H 121.17 -3.00588 -0.433626 0
M  V30 1267 H 118.755 -1.48664 -0.148067 0
M  V30 1268 H 120.637 -3.07104 -2.88557 0
M  V30 1269 H 119.312 -1.90582 -2.61649 0
M  V30 1270 H 118.219 -3.59606 -1.03122 0
M  V30 1271 H 119.552 -4.72584 -1.37569 0
M  V30 1272 N 121.204 0.198386 -1.56346 0
M  V30 1273 C 122.429 0.939682 -1.84891 0
M  V30 1274 C 122.854 1.76202 -0.658369 0
M  V30 1275 O 122.212 1.76993 0.392851 0
M  V30 1276 C 122.26 1.81428 -3.11635 0
M  V30 1277 O 121.364 2.91265 -2.91956 0
M  V30 1278 H 120.705 0.264807 -0.608912 0
M  V30 1279 H 123.235 0.204695 -2.03573 0
M  V30 1280 H 123.245 2.21958 -3.42343 0
M  V30 1281 H 121.92 1.21004 -3.97908 0
M  V30 1282 H 120.497 2.54514 -2.72538 0
M  V30 1283 N 122.682 1.50554 0.465978 0
M  V30 1284 C 123.592 1.72585 1.58907 0
M  V30 1285 C 124.608 0.60911 1.6299 0
M  V30 1286 O 125.784 0.88804 1.80765 0
M  V30 1287 C 122.849 1.81995 2.95091 0
M  V30 1288 C 121.91 3.05751 3.01355 0
M  V30 1289 C 121.143 3.14702 4.31043 0
M  V30 1290 O 121.366 2.30313 5.21835 0
M  V30 1291 O 120.3 4.07468 4.43005 0
M  V30 1292 H 124.126 2.67799 1.43239 0
M  V30 1293 H 121.711 1.34711 0.646013 0
M  V30 1294 H 123.593 1.90335 3.75966 0
M  V30 1295 H 122.268 0.899659 3.10947 0
M  V30 1296 H 121.175 3.02908 2.19539 0
M  V30 1297 H 122.508 3.97375 2.90437 0
M  V30 1298 N 124.16 -0.719506 1.40217 0
M  V30 1299 C 125.437 -1.47221 1.28784 0
M  V30 1300 C 125.817 -2.10883 -0.0956067 0
M  V30 1301 O 125.165 -1.99833 -1.10811 0
M  V30 1302 C 125.375 -2.5111 2.42373 0
M  V30 1303 C 126.723 -3.17053 2.82423 0
M  V30 1304 O 127.747 -2.61429 2.41937 0
M  V30 1305 O 126.606 -4.17742 3.52355 0
M  V30 1306 H 123.7 -0.654491 0.50554 0
M  V30 1307 H 126.246 -0.752014 1.52128 0
M  V30 1308 H 125.018 -2.02556 3.34793 0
M  V30 1309 H 124.641 -3.3067 2.20778 0
M  V30 1310 N 125.638 -1.25649 -0.95132 0
M  V30 1311 C 126.548 -1.08073 -2.08224 0
M  V30 1312 C 127.564 -0.0169666 -1.73992 0
M  V30 1313 O 128.74 -0.218593 -2.0021 0
M  V30 1314 C 125.805 -0.704922 -3.39458 0
M  V30 1315 C 124.866 -1.84699 -3.87537 0
M  V30 1316 C 124.099 -1.48902 -5.12508 0
M  V30 1317 O 124.322 -0.386156 -5.69091 0
M  V30 1318 O 123.256 -2.32033 -5.55378 0
M  V30 1319 H 127.082 -2.02924 -2.25954 0
M  V30 1320 H 124.667 -1.04618 -1.06656 0
M  V30 1321 H 126.549 -0.507609 -4.18332 0
M  V30 1322 H 125.224 0.214291 -3.2299 0
M  V30 1323 H 124.131 -2.09919 -3.09653 0
M  V30 1324 H 125.464 -2.74557 -4.08509 0
M  V30 1325 N 127.117 1.15442 -1.07289 0
M  V30 1326 C 128.049 2.19773 -0.650585 0
M  V30 1327 C 129.062 1.60076 0.296572 0
M  V30 1328 O 130.251 1.78293 0.0859905 0
M  V30 1329 C 127.351 3.38838 0.0650398 0
M  V30 1330 C 126.524 4.2808 -0.898141 0
M  V30 1331 C 125.583 5.2574 -0.219926 0
M  V30 1332 O 124.609 5.62654 -0.860773 0
M  V30 1333 N 125.811 5.71205 1.03466 0
M  V30 1334 H 128.576 2.56622 -1.54808 0
M  V30 1335 H 126.137 1.30551 -0.957494 0
M  V30 1336 H 128.129 4.01222 0.529415 0
M  V30 1337 H 126.699 3.00409 0.864466 0
M  V30 1338 H 125.919 3.62804 -1.54165 0
M  V30 1339 H 127.207 4.84577 -1.5512 0
M  V30 1340 H 126.605 5.43325 1.57526 0
M  V30 1341 H 125.162 6.35633 1.44272 0
M  V30 1342 N 128.595 0.856903 1.32268 0
M  V30 1343 C 129.542 0.301172 2.28827 0
M  V30 1344 C 130.512 -0.593104 1.5515 0
M  V30 1345 O 131.697 -0.527537 1.83362 0
M  V30 1346 C 128.837 -0.502523 3.41422 0
M  V30 1347 C 127.95 0.417797 4.29975 0
M  V30 1348 C 127.085 -0.398749 5.29701 0
M  V30 1349 C 126.124 0.518827 6.09897 0
M  V30 1350 N 125.261 -0.260674 7.01616 0
M  V30 1351 H 130.101 1.12983 2.75751 0
M  V30 1352 H 127.638 0.568582 1.35667 0
M  V30 1353 H 129.596 -0.984141 4.05426 0
M  V30 1354 H 128.226 -1.29599 2.95642 0
M  V30 1355 H 127.278 1.01781 3.66531 0
M  V30 1356 H 128.59 1.12191 4.86019 0
M  V30 1357 H 127.744 -0.943435 5.9932 0
M  V30 1358 H 126.483 -1.13622 4.7428 0
M  V30 1359 H 125.488 1.07538 5.39181 0
M  V30 1360 H 126.713 1.25495 6.67404 0
M  V30 1361 H 124.659 -0.981198 6.4862 0
M  V30 1362 H 124.576 0.384364 7.55022 0
M  V30 1363 H 125.844 -0.787014 7.75517 0
M  V30 1364 N 130.073 -1.45103 0.615059 0
M  V30 1365 C 131.003 -2.33339 -0.0865619 0
M  V30 1366 C 131.984 -1.4727 -0.851209 0
M  V30 1367 O 133.169 -1.76026 -0.820281 0
M  V30 1368 C 130.299 -3.30095 -1.07956 0
M  V30 1369 C 129.253 -4.25858 -0.427628 0
M  V30 1370 C 128.579 -5.12361 -1.5294 0
M  V30 1371 C 129.879 -5.18165 0.655944 0
M  V30 1372 H 131.573 -2.92254 0.650224 0
M  V30 1373 H 129.119 -1.40532 0.314138 0
M  V30 1374 H 131.072 -3.90698 -1.57901 0
M  V30 1375 H 129.796 -2.69355 -1.84703 0
M  V30 1376 H 128.455 -3.66564 0.0510292 0
M  V30 1377 H 128.103 -4.47984 -2.28734 0
M  V30 1378 H 127.803 -5.77238 -1.09865 0
M  V30 1379 H 129.327 -5.75833 -2.03098 0
M  V30 1380 H 130.741 -5.72796 0.240257 0
M  V30 1381 H 129.138 -5.91559 1.00888 0
M  V30 1382 H 130.208 -4.60144 1.52957 0
M  V30 1383 N 131.551 -0.354651 -1.53558 0
M  V30 1384 C 132.8 0.239504 -2.00273 0
M  V30 1385 C 133.113 1.50759 -1.24623 0
M  V30 1386 O 134.319 2.17968 -1.61871 0
M  V30 1387 C 132.775 0.477341 -3.5672 0
M  V30 1388 C 132.383 -0.775488 -4.41237 0
M  V30 1389 C 134.127 1.02975 -4.11821 0
M  V30 1390 C 132.034 -0.507838 -5.89216 0
M  V30 1391 H 130.964 0.0932743 -0.748208 0
M  V30 1392 H 133.615 -0.471701 -1.77334 0
M  V30 1393 H 131.997 1.24953 -3.7577 0
M  V30 1394 H 133.171 -1.54963 -4.33962 0
M  V30 1395 H 131.486 -1.25033 -3.97185 0
M  V30 1396 H 134.083 1.24513 -5.2 0
M  V30 1397 H 134.426 1.98862 -3.65731 0
M  V30 1398 H 134.959 0.317994 -3.96527 0
M  V30 1399 H 131.698 -1.43674 -6.39561 0
M  V30 1400 H 131.218 0.228011 -5.99366 0
M  V30 1401 H 132.897 -0.129238 -6.46871 0
M  V30 1402 N 133.029 1.57378 -0.0835403 0
M  V30 1403 C 133.939 2.16897 0.894021 0
M  V30 1404 C 134.955 1.13528 1.31861 0
M  V30 1405 O 136.131 1.45848 1.3889 0
M  V30 1406 C 133.196 2.72831 2.13925 0
M  V30 1407 C 132.257 3.91115 1.76997 0
M  V30 1408 C 131.49 4.44371 2.95584 0
M  V30 1409 O 131.713 3.96596 4.09961 0
M  V30 1410 O 130.647 5.35549 2.74719 0
M  V30 1411 H 134.473 3.00814 0.417679 0
M  V30 1412 H 132.058 1.48741 0.140181 0
M  V30 1413 H 133.94 3.0863 2.86924 0
M  V30 1414 H 132.615 1.91967 2.60635 0
M  V30 1415 H 131.522 3.60148 1.01214 0
M  V30 1416 H 132.855 4.73307 1.3506 0
M  V30 1417 N 134.507 -0.190092 1.56449 0
M  V30 1418 C 135.454 -1.23557 1.94942 0
M  V30 1419 C 136.424 -1.44972 0.810696 0
M  V30 1420 O 137.609 -1.58023 1.06927 0
M  V30 1421 C 134.749 -2.57416 2.2985 0
M  V30 1422 C 133.862 -2.43537 3.5681 0
M  V30 1423 C 132.997 -3.70134 3.81017 0
M  V30 1424 C 132.036 -3.51109 5.01387 0
M  V30 1425 N 131.173 -4.6973 5.21822 0
M  V30 1426 H 136.013 -0.900304 2.84075 0
M  V30 1427 H 133.55 -0.43318 1.40577 0
M  V30 1428 H 135.508 -3.35409 2.48106 0
M  V30 1429 H 134.138 -2.88975 1.43852 0
M  V30 1430 H 133.19 -1.56816 3.46573 0
M  V30 1431 H 134.502 -2.25415 4.4496 0
M  V30 1432 H 133.656 -4.56566 3.9954 0
M  V30 1433 H 132.395 -3.91215 2.91207 0
M  V30 1434 H 131.4 -2.63063 4.82782 0
M  V30 1435 H 132.625 -3.31468 5.9271 0
M  V30 1436 H 130.571 -4.91065 4.34961 0
M  V30 1437 H 130.488 -4.54452 6.0416 0
M  V30 1438 H 131.756 -5.57499 5.44808 0
M  V30 1439 N 135.985 -1.50799 -0.457987 0
M  V30 1440 C 137.232 -1.62442 -1.20908 0
M  V30 1441 C 137.56 -0.330865 -1.91665 0
M  V30 1442 O 136.815 0.68401 -1.83357 0
M  V30 1443 C 137.114 -2.76358 -2.2663 0
M  V30 1444 C 136.78 -4.16378 -1.73033 0
M  V30 1445 C 135.442 -4.54473 -1.58138 0
M  V30 1446 C 137.794 -5.03836 -1.33413 0
M  V30 1447 C 135.122 -5.77754 -1.02065 0
M  V30 1448 C 137.474 -6.27676 -0.78778 0
M  V30 1449 C 136.138 -6.64562 -0.625561 0
M  V30 1450 H 135.408 -0.594417 -0.442435 0
M  V30 1451 H 138.055 -1.84772 -0.503136 0
M  V30 1452 H 136.36 -2.48167 -3.03184 0
M  V30 1453 H 138.057 -2.82568 -2.84528 0
M  V30 1454 H 134.647 -3.86331 -1.85598 0
M  V30 1455 H 138.831 -4.75026 -1.4375 0
M  V30 1456 H 134.087 -6.04997 -0.882547 0
M  V30 1457 H 138.261 -6.94797 -0.472177 0
M  V30 1458 H 135.888 -7.59965 -0.188926 0
M  V30 1459 N 137.463 0.71206 -1.40597 0
M  V30 1460 C 138.712 1.46754 -1.38369 0
M  V30 1461 C 139.025 1.95598 0.0097839 0
M  V30 1462 O 140.231 2.71059 0.154677 0
M  V30 1463 C 138.687 2.65289 -2.43207 0
M  V30 1464 C 138.295 2.23301 -3.88382 0
M  V30 1465 C 140.039 3.43008 -2.50091 0
M  V30 1466 C 137.946 3.38696 -4.84808 0
M  V30 1467 H 136.876 0.55118 -0.514506 0
M  V30 1468 H 139.527 0.774616 -1.66349 0
M  V30 1469 H 137.909 3.36769 -2.08332 0
M  V30 1470 H 139.083 1.59218 -4.32419 0
M  V30 1471 H 137.398 1.58618 -3.85006 0
M  V30 1472 H 139.995 4.28881 -3.1932 0
M  V30 1473 H 140.338 3.87065 -1.53253 0
M  V30 1474 H 140.871 2.78574 -2.83974 0
M  V30 1475 H 137.61 2.99668 -5.82992 0
M  V30 1476 H 137.13 4.01683 -4.45433 0
M  V30 1477 H 138.809 4.04712 -5.04794 0
M  V30 1478 N 138.941 1.26152 0.944643 0
M  V30 1479 C 139.851 1.09176 2.07648 0
M  V30 1480 C 140.867 0.0261935 1.7398 0
M  V30 1481 O 142.043 0.229208 2.00091 0
M  V30 1482 C 139.108 0.722915 3.39079 0
M  V30 1483 C 138.169 1.86752 3.86552 0
M  V30 1484 C 137.402 1.51617 5.11711 0
M  V30 1485 O 137.625 0.416331 5.68879 0
M  V30 1486 O 136.559 2.34975 5.54139 0
M  V30 1487 H 140.385 2.0412 2.24875 0
M  V30 1488 H 137.97 1.05182 1.061 0
M  V30 1489 H 139.852 0.529787 4.18056 0
M  V30 1490 H 138.527 -0.197159 3.23099 0
M  V30 1491 H 137.434 2.11558 3.08535 0
M  V30 1492 H 138.767 2.76719 4.07047 0
M  V30 1493 N 140.419 -1.14872 1.07899 0
M  V30 1494 C 141.367 -2.21857 0.698727 0
M  V30 1495 C 142.361 -1.66845 -0.293086 0
M  V30 1496 O 143.567 -1.79321 -0.156204 0
M  V30 1497 H 139.942 -0.722691 0.207899 0
M  V30 1498 H 141.913 -2.51205 1.61054 0
M  V30 1499 C 140.662 -3.47498 0.11858 0
M  V30 1500 H 139.985 -3.90154 0.872914 0
M  V30 1501 H 141.425 -4.23858 -0.109759 0
M  V30 1502 C 139.884 -3.16947 -1.1422 0
M  V30 1503 O 140.414 -3.3426 -2.22785 0
M  V30 1504 N 138.62 -2.70946 -1.05055 0
M  V30 1505 H 138.167 -2.57058 -0.167038 0
M  V30 1506 H 138.125 -2.50879 -1.89491 0
M  V30 1507 N 141.898 -0.863906 -1.31812 0
M  V30 1508 C 142.828 -0.330843 -2.31144 0
M  V30 1509 C 143.809 0.575005 -1.60087 0
M  V30 1510 O 144.994 0.493304 -1.8783 0
M  V30 1511 C 142.124 0.47374 -3.44054 0
M  V30 1512 C 141.078 -0.338481 -4.26659 0
M  V30 1513 C 140.404 0.591412 -5.31419 0
M  V30 1514 C 141.704 -1.56926 -4.98168 0
M  V30 1515 H 143.398 -1.16086 -2.75979 0
M  V30 1516 H 140.944 -0.559657 -1.32679 0
M  V30 1517 H 142.897 0.857143 -4.12591 0
M  V30 1518 H 141.621 1.33721 -2.9797 0
M  V30 1519 H 140.28 -0.703754 -3.59782 0
M  V30 1520 H 139.928 1.45199 -4.81587 0
M  V30 1521 H 139.628 0.0519022 -5.87577 0
M  V30 1522 H 141.152 0.97179 -6.02817 0
M  V30 1523 H 142.566 -1.25764 -5.59336 0
M  V30 1524 H 140.963 -2.04739 -5.64094 0
M  V30 1525 H 142.033 -2.32544 -4.25501 0
M  V30 1526 N 143.376 1.44774 -0.622745 0
M  V30 1527 C 144.306 2.33382 0.0741861 0
M  V30 1528 C 145.287 1.47719 0.843387 0
M  V30 1529 O 146.472 1.76458 0.810934 0
M  V30 1530 C 143.602 3.30663 1.06204 0
M  V30 1531 C 142.556 4.26079 0.405037 0
M  V30 1532 C 141.882 5.13165 1.5022 0
M  V30 1533 C 143.182 5.1781 -0.683414 0
M  V30 1534 H 144.876 2.91905 -0.665713 0
M  V30 1535 H 142.422 1.40363 -0.321587 0
M  V30 1536 H 144.375 3.9153 1.55827 0
M  V30 1537 H 143.099 2.70331 1.83272 0
M  V30 1538 H 141.758 3.66532 -0.0704683 0
M  V30 1539 H 141.406 4.49191 2.26355 0
M  V30 1540 H 141.106 5.77812 1.06803 0
M  V30 1541 H 142.63 5.76902 2.00041 0
M  V30 1542 H 144.044 5.72661 -0.270631 0
M  V30 1543 H 142.441 5.91015 -1.04023 0
M  V30 1544 H 143.511 4.59326 -1.55395 0
M  V30 1545 N 144.854 0.36279 1.53368 0
M  V30 1546 C 146.265 -0.117022 1.86333 0
M  V30 1547 C 146.616 -1.48397 1.28347 0
M  V30 1548 O 145.741 -2.07787 0.604428 0
M  V30 1549 C 146.336 -0.21912 3.38091 0
M  V30 1550 C 144.895 -0.643184 3.70864 0
M  V30 1551 C 144.042 0.211318 2.76494 0
M  V30 1552 H 146.993 0.581687 1.47655 0
M  V30 1553 H 147.014 -1.04319 3.6592 0
M  V30 1554 H 146.526 0.775902 3.80265 0
M  V30 1555 H 144.627 -1.64654 3.34245 0
M  V30 1556 H 144.74 -0.41973 4.77258 0
M  V30 1557 H 143.104 -0.319367 2.5269 0
M  V30 1558 H 143.887 1.20383 3.21501 0
M  V30 1559 N 146.332 -1.57332 0.0918853 0
M  V30 1560 C 147.557 -1.98995 -0.584442 0
M  V30 1561 C 147.982 -0.970528 -1.61128 0
M  V30 1562 O 147.34 0.0613904 -1.81196 0
M  V30 1563 C 147.388 -3.39636 -1.21161 0
M  V30 1564 O 146.492 -3.40447 -2.32744 0
M  V30 1565 H 145.833 -0.647165 -0.148572 0
M  V30 1566 H 148.363 -2.03873 0.172347 0
M  V30 1567 H 148.373 -3.7726 -1.55367 0
M  V30 1568 H 147.048 -4.13356 -0.459313 0
M  V30 1569 H 145.625 -3.14614 -2.0018 0
M  V30 1570 N 147.81 0.181792 -1.56548 0
M  V30 1571 C 149.087 0.926765 -1.72251 0
M  V30 1572 C 149.467 2.00831 -0.650386 0
M  V30 1573 O 148.815 2.26008 0.336521 0
M  V30 1574 C 149.025 1.50106 -3.1507 0
M  V30 1575 C 150.373 1.97805 -3.75711 0
M  V30 1576 O 151.397 1.59922 -3.18282 0
M  V30 1577 O 150.256 2.67555 -4.76525 0
M  V30 1578 H 147.35 0.435506 -0.703039 0
M  V30 1579 H 149.896 0.170443 -1.68842 0
M  V30 1580 H 148.668 0.72212 -3.84579 0
M  V30 1581 H 148.291 2.32186 -3.22763 0
M  V30 1582 N 149.288 1.51039 0.449983 0
M  V30 1583 C 150.536 1.62759 1.19808 0
M  V30 1584 C 150.857 0.339981 1.92013 0
M  V30 1585 O 150.127 -0.643606 1.85026 0
M  V30 1586 H 148.707 0.599811 0.445237 0
M  V30 1587 H 151.369 1.87914 0.517138 0
M  V30 1588 H 150.465 2.44911 1.93455 0
M  V30 1589 N 150.766 -0.704594 1.40972 0
M  V30 1590 C 152.043 -1.45847 1.30338 0
M  V30 1591 C 152.423 -2.10973 -0.0732344 0
M  V30 1592 O 151.771 -2.00997 -1.08685 0
M  V30 1593 C 151.981 -2.48525 2.45023 0
M  V30 1594 C 153.329 -3.1404 2.8577 0
M  V30 1595 O 154.353 -2.58848 2.44696 0
M  V30 1596 O 153.212 -4.13981 3.56766 0
M  V30 1597 H 150.306 -0.649092 0.512454 0
M  V30 1598 H 152.852 -0.735836 1.52917 0
M  V30 1599 H 151.624 -1.98994 3.36923 0
M  V30 1600 H 151.247 -3.2831 2.24272 0
M  V30 1601 N 152.244 -1.26651 -0.937939 0
M  V30 1602 C 153.491 -1.12387 -1.6845 0
M  V30 1603 C 153.819 0.332208 -1.91642 0
M  V30 1604 O 153.074 1.2602 -1.49725 0
M  V30 1605 C 153.373 -1.84168 -3.06295 0
M  V30 1606 C 153.039 -3.34056 -3.02849 0
M  V30 1607 C 151.701 -3.74942 -3.01616 0
M  V30 1608 C 154.053 -4.29741 -2.9491 0
M  V30 1609 C 151.381 -5.09894 -2.90215 0
M  V30 1610 C 153.733 -5.64738 -2.8505 0
M  V30 1611 C 152.397 -6.0493 -2.82162 0
M  V30 1612 H 151.667 -0.411252 -0.616403 0
M  V30 1613 H 154.314 -1.57134 -1.09459 0
M  V30 1614 H 152.619 -1.319 -3.6893 0
M  V30 1615 H 154.316 -1.70569 -3.62915 0
M  V30 1616 H 150.906 -3.01534 -3.0459 0
M  V30 1617 H 155.09 -3.99133 -2.94969 0
M  V30 1618 H 150.346 -5.40194 -2.86358 0
M  V30 1619 H 154.52 -6.38561 -2.77872 0
M  V30 1620 H 152.147 -7.09457 -2.73084 0
M  V30 1621 N 153.722 1.14298 -1.08507 0
M  V30 1622 C 154.968 1.85854 -0.826438 0
M  V30 1623 C 155.323 1.81413 0.640878 0
M  V30 1624 O 154.616 1.23463 1.46518 0
M  V30 1625 C 154.81 3.33547 -1.28379 0
M  V30 1626 C 154.639 3.52369 -2.79403 0
M  V30 1627 C 153.409 3.67159 -3.47164 0
M  V30 1628 C 155.607 3.49203 -3.77573 0
M  V30 1629 N 153.589 3.74149 -4.86709 0
M  V30 1630 C 154.96 3.6245 -5.03021 0
M  V30 1631 C 157.015 3.32547 -3.70563 0
M  V30 1632 C 155.718 3.60761 -6.2229 0
M  V30 1633 C 157.744 3.32162 -4.89308 0
M  V30 1634 C 157.106 3.45949 -6.13595 0
M  V30 1635 H 153.205 0.696705 -0.355143 0
M  V30 1636 H 155.789 1.36981 -1.38362 0
M  V30 1637 H 153.96 3.81008 -0.754166 0
M  V30 1638 H 155.692 3.92867 -0.971469 0
M  V30 1639 H 152.447 3.68433 -2.9758 0
M  V30 1640 H 152.871 3.81359 -5.5937 0
M  V30 1641 H 157.513 3.20797 -2.75407 0
M  V30 1642 H 155.231 3.71286 -7.17755 0
M  V30 1643 H 158.817 3.20485 -4.85573 0
M  V30 1644 H 157.697 3.456 -7.03939 0
M  V30 1645 N 155.201 0.870884 1.31352 0
M  V30 1646 C 156.45 0.478408 1.95944 0
M  V30 1647 C 156.763 -0.974493 1.69597 0
M  V30 1648 O 157.969 -1.47316 2.28058 0
M  V30 1649 C 156.425 0.804609 3.50791 0
M  V30 1650 C 156.033 2.27433 3.85977 0
M  V30 1651 C 157.777 0.480648 4.2177 0
M  V30 1652 C 155.684 2.5429 5.33939 0
M  V30 1653 H 154.614 0.175175 0.733369 0
M  V30 1654 H 157.265 1.06391 1.4951 0
M  V30 1655 H 155.647 0.148347 3.95722 0
M  V30 1656 H 156.821 2.97373 3.52002 0
M  V30 1657 H 155.136 2.56442 3.28065 0
M  V30 1658 H 157.733 0.658519 5.30629 0
M  V30 1659 H 158.076 -0.578979 4.12254 0
M  V30 1660 H 158.609 1.09349 3.82476 0
M  V30 1661 H 155.348 3.58939 5.48491 0
M  V30 1662 H 154.868 1.88945 5.69263 0
M  V30 1663 H 156.547 2.39066 6.01212 0
M  V30 1664 N 156.679 -1.44442 0.630414 0
M  V30 1665 C 157.927 -2.01653 0.134351 0
M  V30 1666 C 158.248 -1.49836 -1.24796 0
M  V30 1667 O 157.518 -0.701684 -1.82902 0
M  V30 1668 H 156.098 -0.74554 0.0466769 0
M  V30 1669 H 158.76 -1.76952 0.816955 0
M  V30 1670 H 157.856 -3.11935 0.101498 0
M  V30 1671 N 158.157 -0.370918 -1.53173 0
M  V30 1672 C 159.087 0.464847 -2.28826 0
M  V30 1673 C 160.068 1.07936 -1.31468 0
M  V30 1674 O 161.253 1.0956 -1.60344 0
M  V30 1675 C 158.383 1.60196 -3.08147 0
M  V30 1676 C 157.337 1.11443 -4.13237 0
M  V30 1677 C 156.663 2.3422 -4.80672 0
M  V30 1678 C 157.963 0.195384 -5.21934 0
M  V30 1679 H 159.657 -0.166329 -2.98938 0
M  V30 1680 H 157.203 -0.0814359 -1.4377 0
M  V30 1681 H 159.156 2.19332 -3.59822 0
M  V30 1682 H 157.88 2.26045 -2.35735 0
M  V30 1683 H 156.539 0.545727 -3.62515 0
M  V30 1684 H 156.187 2.98537 -4.04827 0
M  V30 1685 H 155.887 2.02269 -5.51689 0
M  V30 1686 H 157.411 2.94032 -5.35143 0
M  V30 1687 H 158.825 0.694375 -5.69079 0
M  V30 1688 H 157.222 -0.0335027 -6.00091 0
M  V30 1689 H 158.292 -0.760961 -4.78892 0
M  V30 1690 N 159.635 1.57281 -0.100228 0
M  V30 1691 C 161.051 1.57527 0.256416 0
M  V30 1692 C 161.251 1.11173 1.68056 0
M  V30 1693 O 160.307 0.79053 2.39806 0
M  V30 1694 C 161.62 3.00673 0.0401747 0
M  V30 1695 C 163.168 3.12815 0.107528 0
M  V30 1696 C 163.643 4.57929 -0.0807834 0
M  V30 1697 N 165.134 4.63193 -0.0261207 0
M  V30 1698 C 165.869 5.73212 -0.146999 0
M  V30 1699 N 165.365 6.92047 -0.322999 0
M  V30 1700 N 167.158 5.62031 -0.0879044 0
M  V30 1701 H 159.309 1.85718 -1.03065 0
M  V30 1702 H 161.572 0.857446 -0.404339 0
M  V30 1703 H 161.278 3.38804 -0.943649 0
M  V30 1704 H 161.152 3.69042 0.780262 0
M  V30 1705 H 163.539 2.74554 1.08186 0
M  V30 1706 H 163.62 2.47028 -0.664134 0
M  V30 1707 H 163.264 4.96886 -1.05201 0
M  V30 1708 H 163.194 5.21783 0.710635 0
M  V30 1709 H 165.685 3.77748 0.107161 0
M  V30 1710 H 165.998 7.7173 -0.406608 0
M  V30 1711 H 164.343 6.94074 -0.358733 0
M  V30 1712 H 167.534 4.68075 0.048498 0
M  V30 1713 H 167.707 6.47734 -0.185557 0
M  V30 1714 N 161.113 -0.173488 1.56642 0
M  V30 1715 C 162.529 -0.525174 1.50712 0
M  V30 1716 C 162.729 -1.8476 0.804107 0
M  V30 1717 O 161.785 -2.49869 0.363574 0
M  V30 1718 C 163.098 -0.559937 2.95441 0
M  V30 1719 C 164.646 -0.647288 3.06234 0
M  V30 1720 C 165.121 -0.712963 4.52417 0
M  V30 1721 N 166.612 -0.775911 4.56655 0
M  V30 1722 C 167.347 -0.847264 5.67106 0
M  V30 1723 N 166.843 -0.879585 6.87194 0
M  V30 1724 N 168.636 -0.886117 5.55071 0
M  V30 1725 H 160.787 0.693681 2.00753 0
M  V30 1726 H 163.05 0.249841 0.914485 0
M  V30 1727 H 162.756 0.343049 3.50023 0
M  V30 1728 H 162.63 -1.40718 3.49969 0
M  V30 1729 H 165.017 -1.5407 2.51687 0
M  V30 1730 H 165.098 0.226586 2.54794 0
M  V30 1731 H 164.742 0.176183 5.07594 0
M  V30 1732 H 164.672 -1.60295 5.0161 0
M  V30 1733 H 167.163 -0.759304 3.70193 0
M  V30 1734 H 167.476 -0.935144 7.67121 0
M  V30 1735 H 165.821 -0.847898 6.89808 0
M  V30 1736 H 169.012 -0.857853 4.60172 0
M  V30 1737 H 169.185 -0.938263 6.41171 0
M  V30 1738 N 162.591 -1.51276 -0.441967 0
M  V30 1739 C 164.007 -1.39349 -0.778083 0
M  V30 1740 C 164.207 -0.472212 -1.95889 0
M  V30 1741 O 163.263 0.0743551 -2.5239 0
M  V30 1742 C 164.576 -2.81292 -1.0628 0
M  V30 1743 C 166.124 -2.9041 -1.16751 0
M  V30 1744 C 166.599 -4.33251 -1.48519 0
M  V30 1745 N 168.09 -4.36336 -1.55453 0
M  V30 1746 C 168.825 -5.43885 -1.81596 0
M  V30 1747 N 168.321 -6.61601 -2.05562 0
M  V30 1748 N 170.114 -5.3136 -1.8334 0
M  V30 1749 H 162.265 -2.09729 0.335774 0
M  V30 1750 H 164.528 -0.943925 0.0878028 0
M  V30 1751 H 164.234 -3.50678 -0.267905 0
M  V30 1752 H 164.108 -3.20334 -1.99163 0
M  V30 1753 H 166.495 -2.21225 -1.95304 0
M  V30 1754 H 166.576 -2.54871 -0.217801 0
M  V30 1755 H 166.22 -5.02984 -0.704958 0
M  V30 1756 H 166.15 -4.66299 -2.44689 0
M  V30 1757 H 168.641 -3.51466 -1.38853 0
M  V30 1758 H 168.954 -7.39361 -2.24867 0
M  V30 1759 H 167.299 -6.64725 -2.02894 0
M  V30 1760 H 170.49 -4.38382 -1.64132 0
M  V30 1761 H 170.663 -6.15258 -2.03377 0
M  V30 1762 N 164.069 0.697108 -1.41344 0
M  V30 1763 C 164.979 1.84088 -1.45427 0
M  V30 1764 C 165.995 1.70545 -0.34501 0
M  V30 1765 O 167.171 1.92488 -0.592492 0
M  V30 1766 C 164.236 3.20056 -1.33286 0
M  V30 1767 C 163.297 3.45718 -2.54514 0
M  V30 1768 C 162.53 4.75199 -2.42944 0
M  V30 1769 O 162.753 5.51579 -1.45318 0
M  V30 1770 O 161.687 5.0161 -3.32672 0
M  V30 1771 H 165.513 1.836 -2.41919 0
M  V30 1772 H 163.098 0.849966 -1.22866 0
M  V30 1773 H 164.98 4.01236 -1.28794 0
M  V30 1774 H 163.655 3.2123 -0.39909 0
M  V30 1775 H 162.562 2.64474 -2.64583 0
M  V30 1776 H 163.895 3.49356 -3.46715 0
M  V30 1777 N 165.547 1.27147 0.931209 0
M  V30 1778 C 166.457 1.11372 2.06478 0
M  V30 1779 C 167.473 0.044645 1.73943 0
M  V30 1780 O 168.649 0.250417 1.99837 0
M  V30 1781 C 165.714 0.758838 3.38294 0
M  V30 1782 C 164.775 1.90841 3.84549 0
M  V30 1783 C 164.008 1.57036 5.10074 0
M  V30 1784 O 164.231 0.476645 5.68405 0
M  V30 1785 O 163.165 2.40839 5.51616 0
M  V30 1786 H 166.991 2.06493 2.22698 0
M  V30 1787 H 164.576 1.06301 1.04978 0
M  V30 1788 H 166.458 0.574098 4.17471 0
M  V30 1789 H 165.133 -0.162879 3.2329 0
M  V30 1790 H 164.04 2.14819 3.06274 0
M  V30 1791 H 165.373 2.81021 4.04089 0
M  V30 1792 N 167.025 -1.13721 1.09112 0
M  V30 1793 C 167.972 -2.19031 0.727591 0
M  V30 1794 C 168.942 -1.63555 -0.289656 0
M  V30 1795 O 170.127 -1.90023 -0.172026 0
M  V30 1796 C 167.267 -3.4477 0.15082 0
M  V30 1797 C 166.38 -4.14365 1.22172 0
M  V30 1798 C 165.515 -5.27709 0.608042 0
M  V30 1799 C 164.554 -5.89147 1.66047 0
M  V30 1800 N 163.691 -6.93929 1.06806 0
M  V30 1801 H 168.531 -2.49475 1.62991 0
M  V30 1802 H 166.068 -1.22499 0.81439 0
M  V30 1803 H 168.026 -4.16714 -0.201358 0
M  V30 1804 H 166.656 -3.14787 -0.714783 0
M  V30 1805 H 165.708 -3.40737 1.69122 0
M  V30 1806 H 167.02 -4.56114 2.01895 0
M  V30 1807 H 166.174 -6.06355 0.204523 0
M  V30 1808 H 164.913 -4.872 -0.220769 0
M  V30 1809 H 163.918 -5.09198 2.07357 0
M  V30 1810 H 165.143 -6.31729 2.49189 0
M  V30 1811 H 163.089 -6.55483 0.260476 0
M  V30 1812 H 163.006 -7.34202 1.8023 0
M  V30 1813 H 164.274 -7.76434 0.690644 0
M  V30 1814 N 168.503 -0.877838 -1.30888 0
M  V30 1815 C 169.435 -0.296607 -2.27273 0
M  V30 1816 C 170.448 0.544799 -1.53414 0
M  V30 1817 O 171.637 0.365511 -1.74718 0
M  V30 1818 C 168.737 0.597481 -3.33592 0
M  V30 1819 C 167.91 -0.213251 -4.3688 0
M  V30 1820 C 166.969 0.610208 -5.2265 0
M  V30 1821 O 165.995 0.035441 -5.69189 0
M  V30 1822 N 167.197 1.92071 -5.47804 0
M  V30 1823 H 169.962 -1.12492 -2.77787 0
M  V30 1824 H 167.523 -0.740105 -1.43993 0
M  V30 1825 H 169.515 1.15425 -3.87891 0
M  V30 1826 H 168.085 1.32647 -2.83061 0
M  V30 1827 H 167.305 -0.951466 -3.82545 0
M  V30 1828 H 168.593 -0.769262 -5.02951 0
M  V30 1829 H 167.991 2.4107 -5.11763 0
M  V30 1830 H 166.548 2.42508 -6.05007 0
M  V30 1831 N 169.982 1.44106 -0.638065 0
M  V30 1832 C 171.207 2.0685 -0.150916 0
M  V30 1833 C 171.632 1.47417 1.16833 0
M  V30 1834 O 170.99 0.578264 1.71831 0
M  V30 1835 C 171.038 3.60555 -0.05708 0
M  V30 1836 O 170.142 4.00465 0.984972 0
M  V30 1837 H 169.483 0.658151 -0.0879399 0
M  V30 1838 H 172.013 1.84865 -0.876707 0
M  V30 1839 H 172.023 4.07789 0.131232 0
M  V30 1840 H 170.698 4.03193 -1.02021 0
M  V30 1841 H 169.275 3.64849 0.770672 0
M  V30 1842 N 171.46 0.379036 1.52974 0
M  V30 1843 C 172.408 -0.476033 2.27677 0
M  V30 1844 C 173.402 -1.0719 1.31174 0
M  V30 1845 O 174.608 -1.01355 1.48752 0
M  V30 1846 H 170.983 -0.172255 0.732006 0
M  V30 1847 H 172.954 0.175615 2.97883 0
M  V30 1848 C 171.703 -1.5967 3.0887 0
M  V30 1849 H 171.026 -1.1475 3.82978 0
M  V30 1850 H 172.466 -2.16943 3.64296 0
M  V30 1851 C 170.925 -2.54682 2.20542 0
M  V30 1852 O 171.455 -3.57836 1.82527 0
M  V30 1853 N 169.661 -2.24183 1.84907 0
M  V30 1854 H 169.208 -1.40333 2.1602 0
M  V30 1855 H 169.166 -2.88006 1.26096 0
M  V30 1856 N 172.938 -1.57226 0.108567 0
M  V30 1857 C 174.163 -1.99604 -0.563303 0
M  V30 1858 C 174.588 -0.987563 -1.6009 0
M  V30 1859 O 173.946 0.0421687 -1.81251 0
M  V30 1860 C 173.994 -3.40902 -1.17552 0
M  V30 1861 O 173.098 -3.42896 -2.2912 0
M  V30 1862 H 172.439 -0.648704 -0.1417 0
M  V30 1863 H 174.969 -2.03679 0.193961 0
M  V30 1864 H 174.979 -3.78886 -1.51357 0
M  V30 1865 H 173.654 -4.1382 -0.415445 0
M  V30 1866 H 172.231 -3.1672 -1.96832 0
M  V30 1867 N 174.416 0.165178 -1.56732 0
M  V30 1868 C 175.644 0.896218 -1.86482 0
M  V30 1869 C 176.059 1.75555 -0.694675 0
M  V30 1870 O 175.416 1.79379 0.33607 0
M  V30 1871 C 175.467 1.76792 -3.1532 0
M  V30 1872 O 175.188 0.943239 -4.27825 0
M  V30 1873 C 176.689 2.6081 -3.58459 0
M  V30 1874 H 173.909 0.260064 -0.618553 0
M  V30 1875 H 176.453 0.163428 -2.03846 0
M  V30 1876 H 174.608 2.45398 -2.99764 0
M  V30 1877 H 175.022 1.53998 -5.01383 0
M  V30 1878 H 176.496 3.17579 -4.51495 0
M  V30 1879 H 176.973 3.35977 -2.82872 0
M  V30 1880 H 177.579 1.97526 -3.76648 0
M  V30 1881 N 175.894 1.51508 0.433938 0
M  V30 1882 C 176.857 1.72473 1.50949 0
M  V30 1883 C 177.857 0.594725 1.49398 0
M  V30 1884 O 179.047 0.862315 1.5136 0
M  V30 1885 C 176.179 1.78431 2.90474 0
M  V30 1886 H 177.372 2.68467 1.33662 0
M  V30 1887 H 174.925 1.41549 0.662836 0
M  V30 1888 H 175.66 0.842645 3.13161 0
M  V30 1889 H 175.445 2.60558 2.93005 0
M  V30 1890 H 176.935 1.96479 3.68491 0
M  V30 1891 N 177.372 -0.689602 1.41712 0
M  V30 1892 C 178.612 -1.46184 1.42862 0
M  V30 1893 C 178.976 -1.91962 0.0382204 0
M  V30 1894 O 180.177 -2.68694 -0.0755019 0
M  V30 1895 C 178.448 -2.6371 2.4123 0
M  V30 1896 S 180.007 -3.52768 2.6096 0
M  V30 1897 H 176.825 -0.49947 0.506015 0
M  V30 1898 H 179.427 -0.804107 1.78198 0
M  V30 1899 H 178.131 -2.28293 3.41044 0
M  V30 1900 H 177.662 -3.3437 2.07269 0
M  V30 1901 H 179.677 -4.59146 1.88148 0
M  V30 1902 N 178.85 -1.27639 -0.924453 0
M  V30 1903 C 179.782 -1.06442 -2.02985 0
M  V30 1904 C 180.795 -0.0194771 -1.62788 0
M  V30 1905 O 181.984 -0.261388 -1.76576 0
M  V30 1906 C 179.084 -0.59327 -3.33667 0
M  V30 1907 C 178.257 -1.71123 -4.02537 0
M  V30 1908 C 177.316 -1.23527 -5.11495 0
M  V30 1909 O 176.342 -1.93553 -5.35281 0
M  V30 1910 N 177.544 -0.0926678 -5.80426 0
M  V30 1911 H 180.309 -2.01633 -2.2173 0
M  V30 1912 H 177.87 -1.19248 -1.09505 0
M  V30 1913 H 179.862 -0.258686 -4.03872 0
M  V30 1914 H 178.432 0.265502 -3.1147 0
M  V30 1915 H 177.652 -2.21593 -3.26022 0
M  V30 1916 H 178.94 -2.46145 -4.45298 0
M  V30 1917 H 178.338 0.491741 -5.63559 0
M  V30 1918 H 176.895 0.182714 -6.51544 0
M  V30 1919 N 180.328 1.1314 -1.09713 0
M  V30 1920 C 181.605 1.80762 -0.747302 0
M  V30 1921 C 181.985 1.96663 0.767265 0
M  V30 1922 O 181.333 1.53706 1.69076 0
M  V30 1923 C 181.543 3.15606 -1.48975 0
M  V30 1924 C 182.891 3.90914 -1.65746 0
M  V30 1925 O 183.915 3.25239 -1.45251 0
M  V30 1926 O 182.774 5.08718 -1.9967 0
M  V30 1927 H 179.868 0.782103 -0.268782 0
M  V30 1928 H 182.414 1.20041 -1.19951 0
M  V30 1929 H 181.186 2.99278 -2.52088 0
M  V30 1930 H 180.809 3.84029 -1.02991 0
M  V30 1931 N 181.806 0.884767 1.30421 0
M  V30 1932 C 182.736 0.367574 2.30589 0
M  V30 1933 C 183.717 -0.549464 1.60981 0
M  V30 1934 O 184.902 -0.46336 1.88591 0
M  V30 1935 C 182.032 -0.418944 3.44764 0
M  V30 1936 C 180.986 0.406316 4.26067 0
M  V30 1937 C 180.312 -0.506793 5.32293 0
M  V30 1938 C 181.612 1.64832 4.95608 0
M  V30 1939 H 183.306 1.20462 2.74097 0
M  V30 1940 H 180.852 0.580695 1.31772 0
M  V30 1941 H 182.805 -0.791395 4.13902 0
M  V30 1942 H 181.529 -1.28964 3.0006 0
M  V30 1943 H 180.188 0.760903 3.58617 0
M  V30 1944 H 179.836 -1.37519 4.83836 0
M  V30 1945 H 179.536 0.0415828 5.87585 0
M  V30 1946 H 181.06 -0.875764 6.04287 0
M  V30 1947 H 182.474 1.34646 5.57264 0
M  V30 1948 H 180.871 2.13688 5.60765 0
M  V30 1949 H 181.941 2.39284 4.21748 0
M  V30 1950 N 183.284 -1.43765 0.645699 0
M  V30 1951 C 184.514 -2.05953 0.163318 0
M  V30 1952 C 184.922 -1.48432 -1.17322 0
M  V30 1953 O 184.265 -0.607295 -1.73371 0
M  V30 1954 C 184.327 -3.59499 -0.0103065 0
M  V30 1955 C 183.991 -4.39563 1.25035 0
M  V30 1956 C 184.988 -4.72108 2.17739 0
M  V30 1957 C 182.673 -4.79697 1.48983 0
M  V30 1958 C 184.667 -5.43688 3.3269 0
M  V30 1959 C 182.354 -5.51023 2.64229 0
M  V30 1960 C 183.352 -5.8294 3.55908 0
M  V30 1961 O 183.04 -6.5281 4.69142 0
M  V30 1962 H 182.772 -0.670798 0.0836986 0
M  V30 1963 H 185.326 -1.85384 0.884407 0
M  V30 1964 H 183.556 -3.78613 -0.78669 0
M  V30 1965 H 185.245 -4.03408 -0.449087 0
M  V30 1966 H 186.011 -4.41627 2.00476 0
M  V30 1967 H 181.89 -4.54266 0.785078 0
M  V30 1968 H 185.434 -5.68517 4.04269 0
M  V30 1969 H 181.331 -5.8092 2.81429 0
M  V30 1970 H 182.099 -6.71288 4.6831 0
M  V30 1971 N 184.763 -0.387143 -1.52771 0
M  V30 1972 C 185.726 0.436939 -2.24997 0
M  V30 1973 C 186.726 0.991991 -1.26555 0
M  V30 1974 O 187.916 0.874335 -1.50669 0
M  V30 1975 C 185.048 1.61281 -3.00335 0
M  V30 1976 H 186.241 -0.195365 -2.99263 0
M  V30 1977 H 183.794 -0.139218 -1.55679 0
M  V30 1978 H 184.529 2.2826 -2.30364 0
M  V30 1979 H 184.314 1.22154 -3.72587 0
M  V30 1980 H 185.804 2.19629 -3.5518 0
M  V30 1981 N 186.241 1.57166 -0.116904 0
M  V30 1982 C 187.487 1.96206 0.536166 0
M  V30 1983 C 187.842 0.99915 1.64422 0
M  V30 1984 O 187.135 0.0288195 1.91578 0
M  V30 1985 C 187.329 3.39508 1.11664 0
M  V30 1986 C 187.158 4.49651 0.0663474 0
M  V30 1987 C 185.928 5.03982 -0.36474 0
M  V30 1988 C 188.126 5.09322 -0.713829 0
M  V30 1989 N 186.108 5.97699 -1.40102 0
M  V30 1990 C 187.479 5.98963 -1.60136 0
M  V30 1991 C 189.534 4.91989 -0.764948 0
M  V30 1992 C 188.237 6.73128 -2.53556 0
M  V30 1993 C 190.263 5.66833 -1.68685 0
M  V30 1994 C 189.625 6.56158 -2.56196 0
M  V30 1995 H 185.724 0.764203 0.165886 0
M  V30 1996 H 188.308 1.93623 -0.204535 0
M  V30 1997 H 186.479 3.42743 1.82707 0
M  V30 1998 H 188.211 3.65677 1.73386 0
M  V30 1999 H 184.966 4.73592 0.027252 0
M  V30 2000 H 185.39 6.49262 -1.91802 0
M  V30 2001 H 190.032 4.22676 -0.102501 0
M  V30 2002 H 187.75 7.41689 -3.20816 0
M  V30 2003 H 191.336 5.55427 -1.73181 0
M  V30 2004 H 190.216 7.13057 -3.26372 0
M  V30 2005 N 187.719 -0.156864 1.56817 0
M  V30 2006 C 188.947 -0.886316 1.86955 0
M  V30 2007 C 189.362 -1.75185 0.703975 0
M  V30 2008 O 188.719 -1.79555 -0.326552 0
M  V30 2009 C 188.77 -1.75117 3.16253 0
M  V30 2010 O 188.491 -0.920537 4.2832 0
M  V30 2011 C 189.992 -2.58905 3.59837 0
M  V30 2012 H 187.212 -0.25678 0.619923 0
M  V30 2013 H 189.756 -0.152615 2.0393 0
M  V30 2014 H 187.911 -2.43805 3.01062 0
M  V30 2015 H 188.325 -1.51337 5.02192 0
M  V30 2016 H 189.799 -3.1518 4.53172 0
M  V30 2017 H 190.276 -3.34472 2.84649 0
M  V30 2018 H 190.882 -1.95526 3.7769 0
M  V30 2019 N 189.197 -1.51736 -0.425897 0
M  V30 2020 C 190.474 -1.55519 -1.1863 0
M  V30 2021 C 190.854 -0.326219 -2.08564 0
M  V30 2022 O 190.202 0.688012 -2.17896 0
M  V30 2023 C 190.412 -2.87521 -1.9782 0
M  V30 2024 C 191.76 -3.39899 -2.54468 0
M  V30 2025 O 192.784 -2.89148 -2.08019 0
M  V30 2026 O 191.643 -4.2848 -3.39215 0
M  V30 2027 H 188.737 -0.625739 -0.540721 0
M  V30 2028 H 191.283 -1.64055 -0.434038 0
M  V30 2029 H 190.055 -3.68422 -1.31836 0
M  V30 2030 H 189.678 -2.822 -2.80088 0
M  V30 2031 N 190.675 0.682077 -1.42076 0
M  V30 2032 C 191.923 1.4393 -1.41876 0
M  V30 2033 C 192.244 1.94971 -0.0335599 0
M  V30 2034 O 191.514 1.72591 0.926773 0
M  V30 2035 H 190.094 0.534085 -0.522267 0
M  V30 2036 H 192.756 0.806427 -1.77434 0
M  V30 2037 H 191.852 2.29588 -2.11414 0
M  V30 2038 N 192.153 1.28127 0.917671 0
M  V30 2039 C 193.378 1.18007 1.70555 0
M  V30 2040 C 193.803 -0.258257 1.86319 0
M  V30 2041 O 193.161 -1.1869 1.37049 0
M  V30 2042 C 193.209 1.87948 3.07746 0
M  V30 2043 O 192.313 1.18427 3.9503 0
M  V30 2044 H 191.654 0.409867 0.522403 0
M  V30 2045 H 194.184 1.69379 1.1477 0
M  V30 2046 H 194.194 1.95701 3.58001 0
M  V30 2047 H 192.869 2.92573 2.95591 0
M  V30 2048 H 191.446 1.18811 3.53466 0
M  V30 2049 N 193.631 -1.12557 1.10312 0
M  V30 2050 C 194.88 -1.83395 0.839588 0
M  V30 2051 C 195.193 -1.84939 -0.636929 0
M  V30 2052 O 196.399 -2.51761 -1.01631 0
M  V30 2053 C 194.855 -3.29303 1.45215 0
M  V30 2054 C 194.463 -3.36122 2.96186 0
M  V30 2055 C 196.207 -4.05121 1.26796 0
M  V30 2056 C 194.114 -4.76357 3.50483 0
M  V30 2057 H 193.044 -0.687133 0.310425 0
M  V30 2058 H 195.695 -1.26746 1.32694 0
M  V30 2059 H 194.077 -3.85812 0.892469 0
M  V30 2060 H 195.251 -2.89559 3.58458 0
M  V30 2061 H 193.566 -2.73776 3.13745 0
M  V30 2062 H 196.163 -5.08668 1.64806 0
M  V30 2063 H 196.506 -4.15773 0.209409 0
M  V30 2064 H 197.039 -3.54967 1.79563 0
M  V30 2065 H 193.778 -4.70899 4.55998 0
M  V30 2066 H 193.298 -5.23377 2.92978 0
M  V30 2067 H 194.977 -5.45294 3.48228 0
M  V30 2068 N 195.109 -0.891671 -1.2995 0
M  V30 2069 C 196.334 -0.527932 -2.00568 0
M  V30 2070 C 196.759 0.877969 -1.66353 0
M  V30 2071 O 196.117 1.58301 -0.883762 0
M  V30 2072 C 196.165 -0.717745 -3.53385 0
M  V30 2073 O 195.269 0.233376 -4.11739 0
M  V30 2074 H 194.61 -0.20722 -0.630837 0
M  V30 2075 H 197.14 -1.20105 -1.65638 0
M  V30 2076 H 197.15 -0.619307 -4.03272 0
M  V30 2077 H 195.825 -1.74276 -3.77625 0
M  V30 2078 H 194.402 0.0880706 -3.72796 0
M  V30 2079 N 196.587 1.43421 -0.653314 0
M  V30 2080 C 197.519 2.29071 0.0769134 0
M  V30 2081 C 198.532 1.42513 0.787017 0
M  V30 2082 O 199.721 1.66449 0.644757 0
M  V30 2083 C 196.821 3.19436 1.13199 0
M  V30 2084 C 195.994 4.34533 0.500006 0
M  V30 2085 C 195.053 5.05771 1.45198 0
M  V30 2086 O 194.079 5.61037 0.960538 0
M  V30 2087 N 195.281 5.0928 2.78594 0
M  V30 2088 H 198.046 2.92382 -0.658235 0
M  V30 2089 H 195.607 1.54112 -0.496104 0
M  V30 2090 H 197.599 3.63958 1.76964 0
M  V30 2091 H 196.169 2.57724 1.7691 0
M  V30 2092 H 195.389 3.92925 -0.316738 0
M  V30 2093 H 196.677 5.08766 0.0588345 0
M  V30 2094 H 196.075 4.65751 3.2108 0
M  V30 2095 H 194.632 5.57519 3.37662 0
M  V30 2096 N 198.065 0.39524 1.52563 0
M  V30 2097 C 199.312 -0.185044 2.01653 0
M  V30 2098 C 199.64 -1.46317 1.28146 0
M  V30 2099 O 198.895 -1.9213 0.372074 0
M  V30 2100 C 199.194 -0.493444 3.53977 0
M  V30 2101 C 198.86 0.69384 4.4553 0
M  V30 2102 C 197.522 1.01954 4.70275 0
M  V30 2103 C 199.874 1.48785 4.99512 0
M  V30 2104 C 197.202 2.14069 5.46252 0
M  V30 2105 C 199.554 2.59965 5.76716 0
M  V30 2106 C 198.218 2.93037 5.99738 0
M  V30 2107 H 197.488 -0.0677123 0.7379 0
M  V30 2108 H 200.135 0.533807 1.8391 0
M  V30 2109 H 198.44 -1.29369 3.69825 0
M  V30 2110 H 200.137 -0.955163 3.89458 0
M  V30 2111 H 196.727 0.429987 4.26438 0
M  V30 2112 H 200.911 1.24946 4.80315 0
M  V30 2113 H 196.167 2.40056 5.62302 0
M  V30 2114 H 200.341 3.21887 6.17545 0
M  V30 2115 H 197.968 3.8003 6.58393 0
M  V30 2116 N 199.544 -1.57102 0.125237 0
M  V30 2117 C 200.96 -1.57915 -0.231322 0
M  V30 2118 C 201.16 -1.13833 -1.66266 0
M  V30 2119 O 200.216 -0.828581 -2.38518 0
M  V30 2120 C 201.529 -3.00699 0.00766489 0
M  V30 2121 C 203.077 -3.12947 -0.0577483 0
M  V30 2122 C 203.552 -4.57742 0.153626 0
M  V30 2123 N 205.043 -4.63092 0.0998073 0
M  V30 2124 C 205.778 -5.72905 0.238174 0
M  V30 2125 N 205.274 -6.91445 0.433057 0
M  V30 2126 N 207.067 -5.6182 0.177308 0
M  V30 2127 H 199.218 -1.84055 1.06007 0
M  V30 2128 H 201.481 -0.850905 0.417929 0
M  V30 2129 H 201.187 -3.3726 0.997431 0
M  V30 2130 H 201.061 -3.70236 -0.721452 0
M  V30 2131 H 203.448 -2.7624 -1.03804 0
M  V30 2132 H 203.529 -2.4594 0.70335 0
M  V30 2133 H 203.173 -4.95149 1.13092 0
M  V30 2134 H 203.103 -5.22848 -0.627534 0
M  V30 2135 H 205.594 -3.77871 -0.047051 0
M  V30 2136 H 205.907 -7.70985 0.529332 0
M  V30 2137 H 204.252 -6.93415 0.469109 0
M  V30 2138 H 207.443 -4.68093 0.0259748 0
M  V30 2139 H 207.616 -6.47357 0.288582 0
M  V30 2140 N 201.022 0.148545 -1.56898 0
M  V30 2141 C 201.97 1.20265 -1.99096 0
M  V30 2142 C 202.964 1.44559 -0.883123 0
M  V30 2143 O 204.17 1.4487 -1.0683 0
M  V30 2144 H 200.545 0.404786 -0.63376 0
M  V30 2145 H 202.516 0.82004 -2.86911 0
M  V30 2146 C 201.265 2.52886 -2.3863 0
M  V30 2147 H 200.588 2.35021 -3.23427 0
M  V30 2148 H 202.028 3.25274 -2.7198 0
M  V30 2149 C 200.487 3.13315 -1.23837 0
M  V30 2150 O 201.017 3.98077 -0.538268 0
M  V30 2151 N 199.223 2.72742 -1.00301 0
M  V30 2152 H 198.77 2.03912 -1.5741 0
M  V30 2153 H 198.728 3.13507 -0.236838 0
M  V30 2154 N 202.5 1.5196 0.417844 0
M  V30 2155 C 203.746 1.66793 1.16411 0
M  V30 2156 C 204.101 0.388758 1.88432 0
M  V30 2157 O 203.394 -0.616409 1.81414 0
M  V30 2158 C 203.588 2.82269 2.19223 0
M  V30 2159 C 203.417 4.21293 1.57297 0
M  V30 2160 C 202.187 4.86948 1.34944 0
M  V30 2161 C 204.385 5.03704 1.03858 0
M  V30 2162 N 202.367 6.1003 0.688195 0
M  V30 2163 C 203.738 6.1795 0.503742 0
M  V30 2164 C 205.793 4.89095 0.932203 0
M  V30 2165 C 204.496 7.19188 -0.127034 0
M  V30 2166 C 206.522 5.90559 0.315293 0
M  V30 2167 C 205.884 7.0409 -0.208906 0
M  V30 2168 H 201.983 0.66407 0.412959 0
M  V30 2169 H 204.567 1.89242 0.457772 0
M  V30 2170 H 202.738 2.61451 2.87225 0
M  V30 2171 H 204.47 2.86183 2.86149 0
M  V30 2172 H 201.225 4.45156 1.61657 0
M  V30 2173 H 201.649 6.75964 0.374449 0
M  V30 2174 H 206.291 4.01557 1.32332 0
M  V30 2175 H 204.009 8.06359 -0.530231 0
M  V30 2176 H 207.595 5.81327 0.234625 0
M  V30 2177 H 206.475 7.81257 -0.67875 0
M  V30 2178 N 203.978 -0.674533 1.42435 0
M  V30 2179 C 205.208 -1.46071 1.46105 0
M  V30 2180 C 205.616 -1.89067 0.0709605 0
M  V30 2181 O 204.959 -1.58731 -0.924677 0
M  V30 2182 C 205.021 -2.74145 2.32561 0
M  V30 2183 C 204.685 -2.53224 3.8043 0
M  V30 2184 C 205.682 -2.17809 4.72075 0
M  V30 2185 C 203.367 -2.6821 4.24698 0
M  V30 2186 C 205.361 -1.97648 6.05982 0
M  V30 2187 C 203.048 -2.47665 5.58664 0
M  V30 2188 C 204.046 -2.12437 6.49122 0
M  V30 2189 O 203.734 -1.9209 7.80613 0
M  V30 2190 H 203.466 -0.455959 0.499076 0
M  V30 2191 H 206.02 -0.836193 1.87609 0
M  V30 2192 H 204.25 -3.3908 1.85908 0
M  V30 2193 H 205.939 -3.36028 2.27683 0
M  V30 2194 H 206.705 -2.05826 4.39159 0
M  V30 2195 H 202.584 -2.94609 3.54579 0
M  V30 2196 H 206.128 -1.70075 6.7655 0
M  V30 2197 H 202.025 -2.59244 5.91154 0
M  V30 2198 H 202.793 -2.06686 7.91974 0
M  V30 2199 N 205.456 -1.28612 -0.910864 0
M  V30 2200 C 206.702 -1.16106 -1.66274 0
M  V30 2201 C 207.035 0.289113 -1.92036 0
M  V30 2202 O 206.31 1.21 -1.52281 0
M  V30 2203 C 206.593 -1.96309 -3.01885 0
M  V30 2204 C 206.446 -3.49405 -2.8326 0
M  V30 2205 C 207.765 -1.78076 -4.02463 0
M  V30 2206 H 204.884 -0.423152 -0.603417 0
M  V30 2207 H 207.526 -1.57961 -1.05586 0
M  V30 2208 H 205.676 -1.60742 -3.53687 0
M  V30 2209 H 207.348 -3.94894 -2.38446 0
M  V30 2210 H 205.591 -3.74893 -2.18261 0
M  V30 2211 H 206.262 -4.00784 -3.79574 0
M  V30 2212 H 208.738 -2.0912 -3.59733 0
M  V30 2213 H 207.614 -2.36561 -4.95308 0
M  V30 2214 H 207.875 -0.733008 -4.35981 0
M  V30 2215 N 206.934 1.1197 -1.10907 0
M  V30 2216 C 208.211 1.79959 -0.766432 0
M  V30 2217 C 208.591 1.97466 0.746363 0
M  V30 2218 O 207.939 1.55491 1.67436 0
M  V30 2219 C 208.149 3.14009 -1.52314 0
M  V30 2220 C 209.497 3.89134 -1.69883 0
M  V30 2221 O 210.521 3.2368 -1.48692 0
M  V30 2222 O 209.38 5.06572 -2.05054 0
M  V30 2223 H 206.474 0.779208 -0.277062 0
M  V30 2224 H 209.02 1.18762 -1.21217 0
M  V30 2225 H 207.792 2.96587 -2.55249 0
M  V30 2226 H 207.415 3.82915 -1.07059 0
M  V30 2227 N 208.412 0.89855 1.29475 0
M  V30 2228 C 209.322 0.379974 2.31502 0
M  V30 2229 C 210.338 -0.524695 1.659 0
M  V30 2230 O 211.514 -0.414551 1.97087 0
M  V30 2231 C 208.579 -0.385138 3.44554 0
M  V30 2232 C 207.64 0.550914 4.2575 0
M  V30 2233 C 206.873 -0.177778 5.33404 0
M  V30 2234 O 207.096 -1.40189 5.52904 0
M  V30 2235 O 206.03 0.479106 5.9999 0
M  V30 2236 H 209.856 1.22639 2.77837 0
M  V30 2237 H 207.441 0.662834 1.33891 0
M  V30 2238 H 209.323 -0.817841 4.13388 0
M  V30 2239 H 207.998 -1.20763 3.0033 0
M  V30 2240 H 206.905 1.03271 3.59564 0
M  V30 2241 H 208.238 1.33979 4.73614 0
M  V30 2242 N 209.89 -1.43072 0.660911 0
M  V30 2243 C 211.301 -1.84932 0.256348 0
M  V30 2244 C 211.652 -1.55325 -1.19868 0
M  V30 2245 O 210.777 -1.00607 -1.91591 0
M  V30 2246 C 211.372 -3.35684 0.458475 0
M  V30 2247 C 209.931 -3.76245 0.108161 0
M  V30 2248 C 209.078 -2.66749 0.757641 0
M  V30 2249 H 212.029 -1.33116 0.864051 0
M  V30 2250 H 212.05 -3.79365 -0.293683 0
M  V30 2251 H 211.562 -3.572 1.51755 0
M  V30 2252 H 209.663 -3.60338 -0.948014 0
M  V30 2253 H 209.776 -4.76058 0.538992 0
M  V30 2254 H 208.14 -2.53989 0.190185 0
M  V30 2255 H 208.923 -2.91092 1.81989 0
M  V30 2256 N 211.368 -0.403325 -1.52352 0
M  V30 2257 C 212.593 0.176499 -2.06648 0
M  V30 2258 C 213.018 1.38577 -1.27193 0
M  V30 2259 O 212.376 1.7879 -0.300637 0
M  V30 2260 C 212.424 0.511061 -3.5696 0
M  V30 2261 O 211.528 1.60294 -3.79973 0
M  V30 2262 H 210.869 0.0167337 -0.663789 0
M  V30 2263 H 213.399 -0.574848 -1.96359 0
M  V30 2264 H 213.409 0.771362 -4.00642 0
M  V30 2265 H 212.084 -0.37296 -4.14224 0
M  V30 2266 H 210.661 1.33526 -3.48174 0
M  V30 2267 N 212.846 1.57033 -0.133567 0
M  V30 2268 C 214.086 1.97575 0.523789 0
M  V30 2269 C 214.45 1.01605 1.62912 0
M  V30 2270 O 215.651 1.3114 2.3464 0
M  V30 2271 C 213.922 3.42256 1.02935 0
M  V30 2272 S 215.481 4.04817 1.69319 0
M  V30 2273 H 212.299 0.690427 0.169799 0
M  V30 2274 H 214.901 1.94234 -0.222101 0
M  V30 2275 H 213.605 4.09842 0.213917 0
M  V30 2276 H 213.136 3.4928 1.81017 0
M  V30 2277 H 215.151 3.96767 2.97977 0
M  V30 2278 N 214.325 -0.140222 1.56975 0
M  V30 2279 C 215.573 -0.850005 1.83356 0
M  V30 2280 C 215.894 -1.81399 0.71551 0
M  V30 2281 O 215.164 -1.94136 -0.262294 0
M  V30 2282 H 213.744 -0.316886 0.676456 0
M  V30 2283 H 216.406 -0.132608 1.94448 0
M  V30 2284 H 215.502 -1.40814 2.78528 0
M  V30 2285 N 215.803 -1.52179 -0.40978 0
M  V30 2286 C 217.028 -1.70347 -1.18308 0
M  V30 2287 C 217.453 -0.411887 -1.83535 0
M  V30 2288 O 216.811 0.630587 -1.6998 0
M  V30 2289 C 216.859 -2.83977 -2.22238 0
M  V30 2290 O 215.963 -2.495 -3.28365 0
M  V30 2291 H 215.304 -0.567103 -0.345384 0
M  V30 2292 H 217.834 -1.98879 -0.480445 0
M  V30 2293 H 217.844 -3.0887 -2.66577 0
M  V30 2294 H 216.519 -3.77685 -1.74146 0
M  V30 2295 H 215.096 -2.35277 -2.89308 0
M  V30 2296 N 217.281 0.66697 -1.42791 0
M  V30 2297 C 218.191 1.80962 -1.49299 0
M  V30 2298 C 219.207 1.69775 -0.381108 0
M  V30 2299 O 220.383 1.91188 -0.633188 0
M  V30 2300 C 217.448 3.17156 -1.40045 0
M  V30 2301 C 216.509 3.40242 -2.6179 0
M  V30 2302 C 215.742 4.69939 -2.52969 0
M  V30 2303 O 215.965 5.48372 -1.56985 0
M  V30 2304 O 214.899 4.94441 -3.43237 0
M  V30 2305 H 218.725 1.78427 -2.45759 0
M  V30 2306 H 216.31 0.823713 -1.24641 0
M  V30 2307 H 218.192 3.98413 -1.37276 0
M  V30 2308 H 216.867 3.20312 -0.467138 0
M  V30 2309 H 215.774 2.58802 -2.70134 0
M  V30 2310 H 217.107 3.41923 -3.54047 0
M  V30 2311 N 218.759 1.29093 0.90403 0
M  V30 2312 C 220.005 1.16986 1.65656 0
M  V30 2313 C 220.338 -0.278925 1.92186 0
M  V30 2314 O 219.613 -1.2019 1.5292 0
M  V30 2315 C 219.896 1.97908 3.0084 0
M  V30 2316 C 219.749 3.50903 2.81403 0
M  V30 2317 C 221.068 1.80208 4.01513 0
M  V30 2318 H 218.187 0.426346 0.601164 0
M  V30 2319 H 220.829 1.58518 1.04747 0
M  V30 2320 H 218.979 1.62616 3.52829 0
M  V30 2321 H 220.651 3.96153 2.36348 0
M  V30 2322 H 218.894 3.76045 2.1627 0
M  V30 2323 H 219.565 4.02791 3.77443 0
M  V30 2324 H 222.041 2.11025 3.58619 0
M  V30 2325 H 220.917 2.39184 4.94047 0
M  V30 2326 H 221.178 0.756119 4.35586 0
M  V30 2327 N 220.237 -1.11381 1.11499 0
M  V30 2328 C 221.477 -1.84763 0.874188 0
M  V30 2329 C 221.841 -1.82726 -0.589496 0
M  V30 2330 O 223.042 -2.51562 -0.947089 0
M  V30 2331 C 221.313 -3.27931 1.42112 0
M  V30 2332 S 222.872 -4.18557 1.31739 0
M  V30 2333 H 219.69 -0.637115 0.315603 0
M  V30 2334 H 222.292 -1.34097 1.42261 0
M  V30 2335 H 220.996 -3.26978 2.48019 0
M  V30 2336 H 220.527 -3.83665 0.869761 0
M  V30 2337 H 222.542 -4.95396 0.282335 0
M  V30 2338 N 221.715 -0.905404 -1.28997 0
M  V30 2339 C 222.961 -0.535039 -1.95615 0
M  V30 2340 C 223.294 0.917404 -1.71165 0
M  V30 2341 O 222.569 1.65123 -1.02785 0
M  V30 2342 C 222.852 -0.834918 -3.50287 0
M  V30 2343 C 222.705 -2.33948 -3.84172 0
M  V30 2344 C 224.024 -0.325318 -4.38896 0
M  V30 2345 H 221.143 -0.195861 -0.710498 0
M  V30 2346 H 223.785 -1.13313 -1.52513 0
M  V30 2347 H 221.935 -0.325904 -3.87131 0
M  V30 2348 H 223.607 -2.91847 -3.57243 0
M  V30 2349 H 221.85 -2.79789 -3.31513 0
M  V30 2350 H 222.521 -2.49987 -4.92149 0
M  V30 2351 H 224.997 -0.761256 -4.09077 0
M  V30 2352 H 223.873 -0.564295 -5.45992 0
M  V30 2353 H 224.134 0.774144 -4.35269 0
M  V30 2354 N 223.193 1.4272 -0.668489 0
M  V30 2355 C 224.439 2.01923 -0.188419 0
M  V30 2356 C 224.772 1.52704 1.19979 0
M  V30 2357 O 224.047 0.726566 1.8042 0
M  V30 2358 C 224.33 3.59451 -0.216085 0
M  V30 2359 C 224.183 4.18864 -1.6393 0
M  V30 2360 C 225.502 4.37903 0.439179 0
M  V30 2361 H 222.621 0.733674 -0.0699412 0
M  V30 2362 H 225.263 1.69822 -0.852076 0
M  V30 2363 H 223.413 3.86929 0.349012 0
M  V30 2364 H 225.085 4.02362 -2.25616 0
M  V30 2365 H 223.328 3.74933 -2.18193 0
M  V30 2366 H 223.999 5.27987 -1.61039 0
M  V30 2367 H 226.475 4.16079 -0.0417878 0
M  V30 2368 H 225.351 5.47519 0.389157 0
M  V30 2369 H 225.612 4.15303 1.51577 0
M  V30 2370 N 224.671 0.411399 1.52136 0
M  V30 2371 C 225.604 -0.457614 2.23565 0
M  V30 2372 C 226.582 -1.04613 1.24478 0
M  V30 2373 O 227.766 -1.09356 1.53536 0
M  V30 2374 C 224.893 -1.6354 2.96602 0
M  V30 2375 C 223.939 -1.17005 4.10137 0
M  V30 2376 S 224.772 -0.13333 5.35334 0
M  V30 2377 C 225.928 -1.31638 6.119 0
M  V30 2378 H 226.161 0.148883 2.96927 0
M  V30 2379 H 223.694 0.195713 1.53155 0
M  V30 2380 H 225.652 -2.31074 3.39286 0
M  V30 2381 H 224.313 -2.21324 2.22878 0
M  V30 2382 H 223.506 -2.05005 4.60422 0
M  V30 2383 H 223.108 -0.573319 3.6958 0
M  V30 2384 H 225.4 -2.23957 6.39413 0
M  V30 2385 H 226.343 -0.854014 7.02931 0
M  V30 2386 H 226.751 -1.54321 5.42997 0
M  V30 2387 N 226.149 -1.5696 0.141893 0
M  V30 2388 C 227.379 -2.00031 -0.516828 0
M  V30 2389 C 227.787 -1.02091 -1.59293 0
M  V30 2390 O 227.13 -0.00909657 -1.83698 0
M  V30 2391 C 227.192 -3.39534 -1.1814 0
M  V30 2392 C 226.856 -4.56313 -0.250513 0
M  V30 2393 C 227.853 -5.17295 0.519839 0
M  V30 2394 C 225.538 -5.02061 -0.154907 0
M  V30 2395 C 227.532 -6.2243 1.3733 0
M  V30 2396 C 225.219 -6.07053 0.702161 0
M  V30 2397 C 226.217 -6.67106 1.46487 0
M  V30 2398 O 225.905 -7.70066 2.30767 0
M  V30 2399 H 225.637 -0.661451 -0.139493 0
M  V30 2400 H 228.191 -2.04086 0.231926 0
M  V30 2401 H 226.421 -3.32302 -1.97769 0
M  V30 2402 H 228.11 -3.66745 -1.73933 0
M  V30 2403 H 228.876 -4.82852 0.45598 0
M  V30 2404 H 224.755 -4.5505 -0.7383 0
M  V30 2405 H 228.299 -6.69233 1.96909 0
M  V30 2406 H 224.196 -6.40923 0.76733 0
M  V30 2407 H 224.964 -7.87264 2.23959 0
M  V30 2408 N 227.627 0.131896 -1.57047 0
M  V30 2409 C 228.577 1.1679 -1.95816 0
M  V30 2410 C 229.561 1.37756 -0.831393 0
M  V30 2411 O 230.753 1.39065 -1.09499 0
M  V30 2412 C 227.882 2.49778 -2.35512 0
M  V30 2413 C 226.968 2.32342 -3.54793 0
M  V30 2414 N 227.359 1.8469 -4.70875 0
M  V30 2415 C 225.657 2.63043 -3.60173 0
M  V30 2416 C 226.358 1.80656 -5.52936 0
M  V30 2417 N 225.334 2.24528 -4.95064 0
M  V30 2418 H 229.136 0.791818 -2.83033 0
M  V30 2419 H 226.65 0.339791 -1.58805 0
M  V30 2420 H 228.647 3.24692 -2.61498 0
M  V30 2421 H 227.307 2.88156 -1.49654 0
M  V30 2422 H 228.318 1.54429 -4.9434 0
M  V30 2423 H 224.995 3.05193 -2.84892 0
M  V30 2424 H 226.385 1.45178 -6.56028 0
M  V30 2425 N 229.106 1.52395 0.401703 0
M  V30 2426 C 230.038 1.72505 1.50912 0
M  V30 2427 C 231.051 0.605468 1.51122 0
M  V30 2428 O 232.24 0.880828 1.55254 0
M  V30 2429 C 229.34 1.75711 2.89791 0
M  V30 2430 C 228.513 3.04824 3.1369 0
M  V30 2431 C 227.572 2.99743 4.32482 0
M  V30 2432 O 226.598 3.73635 4.29402 0
M  V30 2433 N 227.8 2.18047 5.37992 0
M  V30 2434 H 230.565 2.68049 1.34052 0
M  V30 2435 H 228.126 1.50724 0.591084 0
M  V30 2436 H 230.118 1.69834 3.6734 0
M  V30 2437 H 228.688 0.876092 3.00072 0
M  V30 2438 H 227.908 3.2429 2.24119 0
M  V30 2439 H 229.196 3.90221 3.26504 0
M  V30 2440 H 228.594 1.57456 5.43345 0
M  V30 2441 H 227.151 2.18021 6.14256 0
M  V30 2442 N 230.584 -0.659388 1.43143 0
M  V30 2443 C 231.995 -1.24041 1.39537 0
M  V30 2444 C 232.346 -1.95963 0.0963364 0
M  V30 2445 O 231.471 -2.00892 -0.804438 0
M  V30 2446 C 232.066 -2.25601 2.52764 0
M  V30 2447 C 230.625 -2.79195 2.52443 0
M  V30 2448 C 229.772 -1.53743 2.30778 0
M  V30 2449 H 232.723 -0.451792 1.52133 0
M  V30 2450 H 232.744 -3.07651 2.23899 0
M  V30 2451 H 232.256 -1.73226 3.47296 0
M  V30 2452 H 230.357 -3.35649 1.61773 0
M  V30 2453 H 230.47 -3.2716 3.50004 0
M  V30 2454 H 228.834 -1.80869 1.79328 0
M  V30 2455 H 229.617 -1.03312 3.27386 0
M  V30 2456 N 232.062 -1.29571 -0.897171 0
M  V30 2457 C 233.287 -1.20705 -1.68656 0
M  V30 2458 C 233.712 0.228582 -1.86706 0
M  V30 2459 O 233.07 1.16494 -1.3892 0
M  V30 2460 C 233.118 -1.9282 -3.04717 0
M  V30 2461 O 232.222 -1.24697 -3.93096 0
M  V30 2462 H 231.563 -0.418126 -0.515816 0
M  V30 2463 H 234.093 -1.71183 -1.12061 0
M  V30 2464 H 234.103 -2.01372 -3.54843 0
M  V30 2465 H 232.778 -2.97239 -2.90899 0
M  V30 2466 H 231.355 -1.2442 -3.51531 0
M  V30 2467 N 233.54 1.10788 -1.12088 0
M  V30 2468 C 234.503 2.15207 -0.788577 0
M  V30 2469 C 235.503 1.59609 0.195317 0
M  V30 2470 O 236.693 1.74174 -0.0300193 0
M  V30 2471 C 233.825 3.4047 -0.171174 0
M  V30 2472 H 235.018 2.46116 -1.71368 0
M  V30 2473 H 232.571 1.26089 -0.923652 0
M  V30 2474 H 233.306 3.15176 0.763832 0
M  V30 2475 H 233.091 3.82109 -0.879514 0
M  V30 2476 H 234.581 4.17576 0.04496 0
M  V30 2477 N 235.018 0.912232 1.28515 0
M  V30 2478 C 236.429 0.591352 1.77087 0
M  V30 2479 C 236.78 -0.8933 1.74684 0
M  V30 2480 O 235.905 -1.69876 1.34056 0
M  V30 2481 C 236.5 1.06668 3.2157 0
M  V30 2482 C 235.059 0.79675 3.67871 0
M  V30 2483 C 234.206 1.23427 2.48316 0
M  V30 2484 H 237.157 1.09365 1.15 0
M  V30 2485 H 237.178 0.407455 3.78312 0
M  V30 2486 H 236.69 2.14726 3.23287 0
M  V30 2487 H 234.791 -0.270679 3.71616 0
M  V30 2488 H 234.904 1.40343 4.58084 0
M  V30 2489 H 233.268 0.653036 2.46186 0
M  V30 2490 H 234.051 2.32316 2.52753 0
M  V30 2491 N 236.496 -1.42363 0.676048 0
M  V30 2492 C 237.459 -2.29199 0.00766941 0
M  V30 2493 C 238.459 -1.43389 -0.727745 0
M  V30 2494 O 239.649 -1.64764 -0.56556 0
M  V30 2495 C 236.781 -3.2591 -0.999785 0
M  V30 2496 H 237.974 -2.89794 0.771988 0
M  V30 2497 H 235.527 -1.50024 0.438468 0
M  V30 2498 H 236.262 -2.70256 -1.79255 0
M  V30 2499 H 236.047 -3.89202 -0.475829 0
M  V30 2500 H 237.537 -3.91028 -1.46583 0
M  V30 2501 N 237.974 -0.419461 -1.51915 0
M  V30 2502 C 239.222 0.152637 -2.01523 0
M  V30 2503 C 239.543 1.44762 -1.30649 0
M  V30 2504 O 238.813 1.90997 -0.435535 0
M  V30 2505 H 237.393 0.0593966 -0.744635 0
M  V30 2506 H 240.055 -0.558073 -1.86739 0
M  V30 2507 H 239.151 0.341369 -3.10227 0
M  V30 2508 N 239.452 1.56882 -0.150215 0
M  V30 2509 C 240.701 1.95403 0.500071 0
M  V30 2510 C 241.014 1.03777 1.658 0
M  V30 2511 O 242.22 1.31889 2.37313 0
M  V30 2512 C 240.676 3.4738 0.941018 0
M  V30 2513 C 240.284 4.47596 -0.190158 0
M  V30 2514 C 242.028 3.9476 1.56091 0
M  V30 2515 C 239.935 5.90787 0.269237 0
M  V30 2516 H 238.865 0.729515 0.190588 0
M  V30 2517 H 241.516 1.81988 -0.235074 0
M  V30 2518 H 239.898 3.56138 1.73152 0
M  V30 2519 H 241.072 4.50536 -0.967157 0
M  V30 2520 H 239.387 4.10151 -0.718666 0
M  V30 2521 H 241.984 4.99181 1.9163 0
M  V30 2522 H 242.327 3.36494 2.45107 0
M  V30 2523 H 242.86 3.88932 0.835249 0
M  V30 2524 H 239.599 6.52879 -0.585621 0
M  V30 2525 H 239.119 5.912 1.01204 0
M  V30 2526 H 240.798 6.42979 0.720176 0
M  V30 2527 N 240.93 -0.123565 1.57115 0
M  V30 2528 C 242.178 -0.83051 1.84247 0
M  V30 2529 C 242.499 -1.80629 0.73471 0
M  V30 2530 O 241.769 -1.94403 -0.241688 0
M  V30 2531 H 240.349 -0.309694 0.679778 0
M  V30 2532 H 243.011 -0.111976 1.94578 0
M  V30 2533 H 242.107 -1.37852 2.80006 0
M  V30 2534 N 242.408 -1.52605 -0.393616 0
M  V30 2535 C 243.656 -1.67093 -1.13685 0
M  V30 2536 C 243.977 -0.411011 -1.90619 0
M  V30 2537 O 243.247 0.574491 -1.87287 0
M  V30 2538 H 241.827 -0.615923 -0.422668 0
M  V30 2539 H 244.489 -1.89704 -0.447039 0
M  V30 2540 H 243.585 -2.51922 -1.84232 0
M  V30 2541 N 243.887 0.651787 -1.4349 0
M  V30 2542 C 245.298 1.233 -1.40193 0
M  V30 2543 C 245.649 1.9591 -0.106727 0
M  V30 2544 O 244.774 2.01316 0.793773 0
M  V30 2545 C 245.369 2.24257 -2.53957 0
M  V30 2546 C 243.928 2.77852 -2.5392 0
M  V30 2547 C 243.075 1.52517 -2.3159 0
M  V30 2548 H 246.026 0.443717 -1.52371 0
M  V30 2549 H 246.047 3.0646 -2.25528 0
M  V30 2550 H 245.559 1.71382 -3.4821 0
M  V30 2551 H 243.66 3.34786 -1.63551 0
M  V30 2552 H 243.773 3.25299 -3.51735 0
M  V30 2553 H 242.137 1.79915 -1.80285 0
M  V30 2554 H 242.92 1.01574 -3.27929 0
M  V30 2555 N 245.365 1.30045 0.890287 0
M  V30 2556 C 246.595 1.21296 1.67245 0
M  V30 2557 C 247.003 -0.227471 1.87828 0
M  V30 2558 O 246.346 -1.16296 1.422 0
M  V30 2559 C 246.408 1.86519 3.07329 0
M  V30 2560 C 246.072 3.35837 3.09939 0
M  V30 2561 C 247.069 4.31915 2.89389 0
M  V30 2562 C 244.754 3.77196 3.31706 0
M  V30 2563 C 246.748 5.67325 2.90552 0
M  V30 2564 C 244.435 5.12725 3.32499 0
M  V30 2565 C 245.433 6.076 3.11947 0
M  V30 2566 O 245.121 7.40655 3.12547 0
M  V30 2567 H 244.853 0.4211 0.528821 0
M  V30 2568 H 247.407 1.72111 1.12103 0
M  V30 2569 H 245.637 1.30228 3.64112 0
M  V30 2570 H 247.326 1.71963 3.67673 0
M  V30 2571 H 248.092 4.01294 2.72375 0
M  V30 2572 H 243.971 3.03796 3.4674 0
M  V30 2573 H 247.515 6.41354 2.74429 0
M  V30 2574 H 243.412 5.42988 3.49047 0
M  V30 2575 H 244.18 7.49577 3.28749 0
M  V30 2576 N 246.843 -1.10192 1.12674 0
M  V30 2577 C 247.776 -2.15847 0.740625 0
M  V30 2578 C 248.754 -1.60352 -0.269421 0
M  V30 2579 O 249.938 -1.87796 -0.16278 0
M  V30 2580 C 247.065 -3.38562 0.096641 0
M  V30 2581 C 246.111 -4.12758 1.07391 0
M  V30 2582 S 246.944 -4.67997 2.60267 0
M  V30 2583 C 248.1 -5.94021 1.97206 0
M  V30 2584 H 248.333 -2.48266 1.63558 0
M  V30 2585 H 245.866 -1.22019 0.946087 0
M  V30 2586 H 247.824 -4.09621 -0.268535 0
M  V30 2587 H 246.485 -3.04377 -0.775462 0
M  V30 2588 H 245.678 -5.00755 0.570997 0
M  V30 2589 H 245.28 -3.47523 1.38216 0
M  V30 2590 H 247.572 -6.64589 1.31634 0
M  V30 2591 H 248.515 -6.48979 2.83253 0
M  V30 2592 H 248.923 -5.46169 1.42686 0
M  V30 2593 N 248.321 -0.919034 -1.28029 0
M  V30 2594 C 249.568 -0.554934 -1.94748 0
M  V30 2595 C 249.896 0.90231 -1.72304 0
M  V30 2596 O 249.151 1.65767 -1.04018 0
M  V30 2597 C 249.45 -0.816855 -3.4794 0
M  V30 2598 C 249.116 -2.25448 -3.90492 0
M  V30 2599 C 247.778 -2.64752 -4.01821 0
M  V30 2600 C 250.13 -3.18977 -4.12193 0
M  V30 2601 C 247.458 -3.96727 -4.32232 0
M  V30 2602 C 249.81 -4.50523 -4.44086 0
M  V30 2603 C 248.474 -4.89673 -4.53626 0
M  V30 2604 H 247.744 -0.203065 -0.712633 0
M  V30 2605 H 250.391 -1.16136 -1.52265 0
M  V30 2606 H 248.696 -0.127677 -3.91592 0
M  V30 2607 H 250.393 -0.514238 -3.97689 0
M  V30 2608 H 246.983 -1.93952 -3.82205 0
M  V30 2609 H 251.167 -2.89817 -4.02889 0
M  V30 2610 H 246.423 -4.26754 -4.37825 0
M  V30 2611 H 250.597 -5.23005 -4.59825 0
M  V30 2612 H 248.224 -5.91969 -4.76946 0
M  V30 2613 N 249.799 1.42003 -0.683588 0
M  V30 2614 C 250.731 2.29183 0.0283068 0
M  V30 2615 C 251.744 1.4415 0.756611 0
M  V30 2616 O 252.933 1.67779 0.609306 0
M  V30 2617 C 250.033 3.21765 1.06398 0
M  V30 2618 C 249.206 4.35496 0.407723 0
M  V30 2619 C 248.265 5.08737 1.34437 0
M  V30 2620 O 247.291 5.62948 0.841318 0
M  V30 2621 N 248.493 5.15075 2.67728 0
M  V30 2622 H 251.258 2.9092 -0.720105 0
M  V30 2623 H 248.819 1.53025 -0.528682 0
M  V30 2624 H 250.811 3.6763 1.69204 0
M  V30 2625 H 249.381 2.61418 1.71404 0
M  V30 2626 H 248.601 3.92165 -0.400012 0
M  V30 2627 H 249.889 5.08776 -0.0490956 0
M  V30 2628 H 249.287 4.72457 3.11129 0
M  V30 2629 H 247.844 5.64556 3.2576 0
M  V30 2630 N 251.277 0.427512 1.51691 0
M  V30 2631 C 252.523 -0.134744 2.02953 0
M  V30 2632 C 252.878 -1.41235 1.30654 0
M  V30 2633 O 252.171 -1.87168 0.409713 0
M  V30 2634 C 252.365 -0.418249 3.54944 0
M  V30 2635 C 252.194 0.830327 4.41968 0
M  V30 2636 C 250.964 1.36097 4.86627 0
M  V30 2637 C 253.162 1.7137 4.84909 0
M  V30 2638 N 251.144 2.56311 5.57833 0
M  V30 2639 C 252.515 2.76195 5.55082 0
M  V30 2640 C 254.57 1.72928 4.66905 0
M  V30 2641 C 253.273 3.82512 6.09161 0
M  V30 2642 C 255.299 2.78175 5.21894 0
M  V30 2643 C 254.661 3.8172 5.92004 0
M  V30 2644 H 250.76 -0.0103958 0.781931 0
M  V30 2645 H 253.344 0.585981 1.85673 0
M  V30 2646 H 251.515 -1.10801 3.7226 0
M  V30 2647 H 253.247 -0.970999 3.92879 0
M  V30 2648 H 250.002 0.916311 4.64651 0
M  V30 2649 H 250.426 3.17242 5.98069 0
M  V30 2650 H 255.068 0.942081 4.12171 0
M  V30 2651 H 252.786 4.62077 6.62956 0
M  V30 2652 H 256.372 2.8031 5.09821 0
M  V30 2653 H 255.252 4.61821 6.33791 0
M  V30 2654 N 252.755 -1.56801 0.158532 0
M  V30 2655 C 253.703 -2.18638 -0.793729 0
M  V30 2656 C 254.697 -1.14669 -1.24689 0
M  V30 2657 O 255.903 -1.32895 -1.21403 0
M  V30 2658 H 252.278 -0.700226 -0.274204 0
M  V30 2659 H 254.249 -2.97367 -0.248095 0
M  V30 2660 C 252.998 -2.83139 -2.0181 0
M  V30 2661 H 252.321 -3.62863 -1.67841 0
M  V30 2662 H 253.761 -3.29894 -2.66357 0
M  V30 2663 C 252.22 -1.82244 -2.83353 0
M  V30 2664 O 252.75 -1.3 -3.80083 0
M  V30 2665 N 250.956 -1.51288 -2.48114 0
M  V30 2666 H 250.503 -1.93964 -1.69516 0
M  V30 2667 H 250.461 -0.840296 -3.02963 0
M  V30 2668 N 254.233 0.115231 -1.57178 0
M  V30 2669 C 255.51 0.852873 -1.76027 0
M  V30 2670 C 255.89 1.97892 -0.73498 0
M  V30 2671 O 255.238 2.27232 0.24036 0
M  V30 2672 C 255.448 1.36608 -3.21153 0
M  V30 2673 C 256.796 1.81692 -3.83762 0
M  V30 2674 O 257.82 1.46278 -3.24779 0
M  V30 2675 O 256.679 2.47104 -4.87444 0
M  V30 2676 H 253.773 0.405296 -0.720877 0
M  V30 2677 H 256.319 0.0986785 -1.69413 0
M  V30 2678 H 255.091 0.558357 -3.87296 0
M  V30 2679 H 254.714 2.18287 -3.3232 0
M  V30 2680 N 255.711 1.52812 0.385517 0
M  V30 2681 C 256.988 1.5861 1.14465 0
M  V30 2682 C 257.368 0.381402 2.07626 0
M  V30 2683 O 256.716 -0.629999 2.19643 0
M  V30 2684 C 256.926 2.92664 1.90128 0
M  V30 2685 C 258.274 3.46526 2.45367 0
M  V30 2686 O 259.298 2.94562 2.0028 0
M  V30 2687 O 258.157 4.37323 3.27736 0
M  V30 2688 H 255.251 0.639855 0.523941 0
M  V30 2689 H 257.797 1.65149 0.390389 0
M  V30 2690 H 256.569 3.71788 1.22022 0
M  V30 2691 H 256.192 2.89527 2.72507 0
M  V30 2692 N 257.189 -0.644168 1.43834 0
M  V30 2693 C 258.605 -0.960875 1.27434 0
M  V30 2694 C 258.805 -2.00499 0.200618 0
M  V30 2695 O 257.861 -2.49018 -0.417906 0
M  V30 2696 C 259.174 -1.43653 2.64167 0
M  V30 2697 C 260.722 -1.55271 2.71772 0
M  V30 2698 C 261.197 -2.06224 4.08944 0
M  V30 2699 N 262.688 -2.13513 4.11055 0
M  V30 2700 C 263.423 -2.54081 5.14033 0
M  V30 2701 N 262.919 -2.9388 6.27381 0
M  V30 2702 N 264.712 -2.54101 5.01387 0
M  V30 2703 H 256.863 0.0465779 2.12349 0
M  V30 2704 H 259.126 -0.0417638 0.94708 0
M  V30 2705 H 258.832 -0.743706 3.43747 0
M  V30 2706 H 258.706 -2.40993 2.90176 0
M  V30 2707 H 261.093 -2.23653 1.92519 0
M  V30 2708 H 261.174 -0.563395 2.49519 0
M  V30 2709 H 260.818 -1.38441 4.88668 0
M  V30 2710 H 260.748 -3.06003 4.28567 0
M  V30 2711 H 263.239 -1.85493 3.29242 0
M  V30 2712 H 263.552 -3.2361 7.01781 0
M  V30 2713 H 261.897 -2.91663 6.30839 0
M  V30 2714 H 265.088 -2.22391 4.11898 0
M  V30 2715 H 265.261 -2.85394 5.81768 0
M  V30 2716 N 258.668 -1.30515 -0.883378 0
M  V30 2717 C 259.908 -1.20716 -1.64946 0
M  V30 2718 C 260.272 0.234072 -1.90568 0
M  V30 2719 O 261.473 0.455335 -2.64915 0
M  V30 2720 C 259.744 -2.01444 -2.9522 0
M  V30 2721 S 261.303 -2.0836 -3.86175 0
M  V30 2722 H 258.121 -0.430165 -0.566109 0
M  V30 2723 H 260.723 -1.65011 -1.04841 0
M  V30 2724 H 259.427 -3.05268 -2.74298 0
M  V30 2725 H 258.958 -1.57817 -3.60357 0
M  V30 2726 H 260.973 -1.21215 -4.81167 0
M  V30 2727 N 260.146 1.09593 -1.13257 0
M  V30 2728 C 261.094 2.18271 -0.803783 0
M  V30 2729 C 262.088 1.68054 0.213148 0
M  V30 2730 O 263.294 1.79862 0.0704699 0
M  V30 2731 H 259.669 0.711949 -0.242143 0
M  V30 2732 H 261.64 2.43235 -1.72856 0
M  V30 2733 C 260.389 3.46536 -0.28424 0
M  V30 2734 H 259.712 3.85545 -1.05807 0
M  V30 2735 H 261.152 4.23899 -0.0925945 0
M  V30 2736 C 259.611 3.22036 0.989684 0
M  V30 2737 O 260.141 3.44509 2.06584 0
M  V30 2738 N 258.347 2.7565 0.920086 0
M  V30 2739 H 257.894 2.57562 0.0442019 0
M  V30 2740 H 257.852 2.59635 1.77306 0
M  V30 2741 N 261.624 0.925811 1.2754 0
M  V30 2742 C 262.557 0.367836 2.25216 0
M  V30 2743 C 263.535 -0.534738 1.53556 0
M  V30 2744 O 264.719 -0.475672 1.824 0
M  V30 2745 C 261.846 -0.47298 3.35381 0
M  V30 2746 C 260.892 0.365898 4.24928 0
M  V30 2747 S 261.725 1.78025 5.05042 0
M  V30 2748 C 262.881 0.947068 6.18693 0
M  V30 2749 H 263.114 1.19568 2.72196 0
M  V30 2750 H 260.647 0.727867 1.36167 0
M  V30 2751 H 262.605 -0.952242 3.99303 0
M  V30 2752 H 261.266 -1.27533 2.87044 0
M  V30 2753 H 260.459 -0.277582 5.03235 0
M  V30 2754 H 260.061 0.779261 3.65792 0
M  V30 2755 H 262.353 0.182201 6.77255 0
M  V30 2756 H 263.296 1.70309 6.87314 0
M  V30 2757 H 263.704 0.489913 5.6237 0
M  V30 2758 N 263.102 -1.41638 0.69111 0
M  V30 2759 C 264.049 -2.30789 0.0229705 0
M  V30 2760 C 265.019 -1.46863 -0.775911 0
M  V30 2761 O 266.204 -1.75661 -0.74485 0
M  V30 2762 C 263.344 -3.32868 -0.910666 0
M  V30 2763 C 262.457 -4.31875 -0.103874 0
M  V30 2764 C 261.592 -5.21024 -1.03475 0
M  V30 2765 C 260.631 -6.11702 -0.220598 0
M  V30 2766 N 259.768 -6.93349 -1.10504 0
M  V30 2767 H 264.608 -2.87366 0.788978 0
M  V30 2768 H 262.145 -1.41535 0.400794 0
M  V30 2769 H 264.103 -3.90596 -1.46597 0
M  V30 2770 H 262.733 -2.77851 -1.64312 0
M  V30 2771 H 261.785 -3.76131 0.568285 0
M  V30 2772 H 263.097 -4.96003 0.527504 0
M  V30 2773 H 262.251 -5.83565 -1.65943 0
M  V30 2774 H 260.99 -4.57112 -1.69999 0
M  V30 2775 H 259.995 -5.48215 0.417187 0
M  V30 2776 H 261.22 -6.77668 0.440784 0
M  V30 2777 H 259.166 -6.3205 -1.75638 0
M  V30 2778 H 259.083 -7.54146 -0.529125 0
M  V30 2779 H 260.351 -7.60362 -1.71667 0
M  V30 2780 N 264.58 -0.43555 -1.51462 0
M  V30 2781 C 265.528 0.391205 -2.29287 0
M  V30 2782 C 266.522 1.02247 -1.35062 0
M  V30 2783 O 267.728 0.957646 -1.52411 0
M  V30 2784 H 264.103 0.144968 -0.737895 0
M  V30 2785 H 266.074 -0.286051 -2.97026 0
M  V30 2786 C 264.823 1.48096 -3.14583 0
M  V30 2787 H 264.146 1.00457 -3.86973 0
M  V30 2788 H 265.586 2.03273 -3.72097 0
M  V30 2789 C 264.045 2.46321 -2.29843 0
M  V30 2790 O 264.575 3.50815 -1.95682 0
M  V30 2791 N 262.781 2.17166 -1.931 0
M  V30 2792 H 262.328 1.32218 -2.21079 0
M  V30 2793 H 262.286 2.83127 -1.36698 0
M  V30 2794 N 266.058 1.56714 -0.166846 0
M  V30 2795 C 267.006 2.19056 0.782123 0
M  V30 2796 C 268 1.15328 1.24079 0
M  V30 2797 O 269.206 1.33537 1.20697 0
M  V30 2798 H 265.581 0.70167 0.270486 0
M  V30 2799 H 267.552 2.97494 0.232322 0
M  V30 2800 C 266.301 2.84206 2.00306 0
M  V30 2801 H 265.624 3.63748 1.65914 0
M  V30 2802 H 267.064 3.31302 2.64604 0
M  V30 2803 C 265.523 1.83744 2.82382 0
M  V30 2804 O 266.053 1.32014 3.79388 0
M  V30 2805 N 264.259 1.52601 2.47308 0
M  V30 2806 H 263.806 1.9486 1.68485 0
M  V30 2807 H 263.764 0.856351 3.02513 0
M  V30 2808 N 267.536 -0.106894 1.57237 0
M  V30 2809 C 268.783 -0.812526 1.85484 0
M  V30 2810 C 269.111 -1.79304 0.753687 0
M  V30 2811 O 268.366 -1.94047 -0.253853 0
M  V30 2812 C 268.665 -1.58628 3.20268 0
M  V30 2813 C 268.331 -0.748967 4.44636 0
M  V30 2814 C 266.993 -0.518104 4.78403 0
M  V30 2815 C 269.345 -0.166122 5.20935 0
M  V30 2816 C 266.673 0.305659 5.85903 0
M  V30 2817 C 269.025 0.644899 6.29304 0
M  V30 2818 C 267.689 0.885965 6.61594 0
M  V30 2819 H 266.959 -0.297324 0.678734 0
M  V30 2820 H 269.606 -0.0744332 1.91355 0
M  V30 2821 H 267.911 -2.39562 3.10028 0
M  V30 2822 H 269.608 -2.13643 3.39349 0
M  V30 2823 H 266.198 -0.939006 4.18187 0
M  V30 2824 H 270.382 -0.33167 4.95191 0
M  V30 2825 H 265.638 0.501528 6.0934 0
M  V30 2826 H 269.812 1.10345 6.87602 0
M  V30 2827 H 267.439 1.52609 7.44725 0
M  V30 2828 N 269.014 -1.53014 -0.377408 0
M  V30 2829 C 270.263 -1.67845 -1.11853 0
M  V30 2830 C 270.576 -0.430625 -1.90801 0
M  V30 2831 O 271.782 -0.459261 -2.67587 0
M  V30 2832 C 270.238 -2.96668 -2.03756 0
M  V30 2833 C 269.846 -4.28671 -1.30175 0
M  V30 2834 C 271.59 -3.20865 -2.77932 0
M  V30 2835 C 269.497 -5.48591 -2.20911 0
M  V30 2836 H 268.427 -0.625343 -0.421263 0
M  V30 2837 H 271.078 -1.79514 -0.380409 0
M  V30 2838 H 269.46 -2.78773 -2.8125 0
M  V30 2839 H 270.634 -4.57157 -0.578259 0
M  V30 2840 H 268.949 -4.10825 -0.679108 0
M  V30 2841 H 271.546 -4.07642 -3.46024 0
M  V30 2842 H 271.889 -2.36424 -3.4265 0
M  V30 2843 H 272.422 -3.39379 -2.07525 0
M  V30 2844 H 269.161 -6.35474 -1.6079 0
M  V30 2845 H 268.681 -5.244 -2.91144 0
M  V30 2846 H 270.36 -5.8292 -2.80736 0
M  V30 2847 N 270.492 0.636531 -1.44174 0
M  V30 2848 C 271.732 1.40781 -1.48189 0
M  V30 2849 C 272.096 1.91688 -0.10944 0
M  V30 2850 O 273.297 2.68789 -0.0242741 0
M  V30 2851 C 271.568 2.54575 -2.50851 0
M  V30 2852 S 273.127 3.4284 -2.73873 0
M  V30 2853 H 269.945 0.480345 -0.524204 0
M  V30 2854 H 272.547 0.737416 -1.81059 0
M  V30 2855 H 271.251 2.15478 -3.49281 0
M  V30 2856 H 270.782 3.26447 -2.19536 0
M  V30 2857 H 272.797 4.51846 -2.05059 0
M  V30 2858 N 271.97 1.30982 0.876444 0
M  V30 2859 C 272.917 1.18085 1.98304 0
M  V30 2860 C 273.887 0.0682263 1.6596 0
M  V30 2861 O 275.072 0.239937 1.89285 0
M  V30 2862 C 272.212 0.887475 3.33493 0
M  V30 2863 C 271.325 2.08281 3.78475 0
M  V30 2864 C 270.46 1.72678 5.0235 0
M  V30 2865 C 269.499 2.88657 5.39762 0
M  V30 2866 N 268.636 2.53292 6.54819 0
M  V30 2867 H 273.476 2.1275 2.08666 0
M  V30 2868 H 271.013 1.05839 1.02159 0
M  V30 2869 H 272.971 0.697961 4.1132 0
M  V30 2870 H 271.601 -0.022315 3.22792 0
M  V30 2871 H 270.653 2.3833 2.96484 0
M  V30 2872 H 271.965 2.95108 4.02135 0
M  V30 2873 H 271.119 1.50151 5.87826 0
M  V30 2874 H 269.858 0.830327 4.8058 0
M  V30 2875 H 268.863 3.1184 4.52809 0
M  V30 2876 H 270.088 3.79002 5.63502 0
M  V30 2877 H 268.034 1.66163 6.34607 0
M  V30 2878 H 267.951 3.3365 6.7839 0
M  V30 2879 H 269.219 2.34143 7.43503 0
M  V30 2880 N 273.449 -1.08991 1.13837 0
M  V30 2881 C 274.679 -1.84743 0.924859 0
M  V30 2882 C 275.087 -1.81629 -0.529874 0
M  V30 2883 O 274.43 -1.21397 -1.37872 0
M  V30 2884 C 274.492 -3.33568 1.34061 0
M  V30 2885 C 274.156 -3.60425 2.80968 0
M  V30 2886 C 275.153 -3.55771 3.79108 0
M  V30 2887 C 272.838 -3.88627 3.18236 0
M  V30 2888 C 274.832 -3.78939 5.12527 0
M  V30 2889 C 272.519 -4.11449 4.51833 0
M  V30 2890 C 273.517 -4.06598 5.48787 0
M  V30 2891 O 273.205 -4.28826 6.79973 0
M  V30 2892 H 272.937 -0.590258 0.329502 0
M  V30 2893 H 275.491 -1.38598 1.51591 0
M  V30 2894 H 273.721 -3.80442 0.692853 0
M  V30 2895 H 275.41 -3.90743 1.09886 0
M  V30 2896 H 276.176 -3.34005 3.51661 0
M  V30 2897 H 272.055 -3.91526 2.43369 0
M  V30 2898 H 275.599 -3.75068 5.88192 0
M  V30 2899 H 271.496 -4.32698 4.79002 0
M  V30 2900 H 272.264 -4.46264 6.86142 0
M  V30 2901 N 274.927 -0.932562 -1.27047 0
M  V30 2902 C 276.152 -0.591474 -1.98787 0
M  V30 2903 C 276.577 0.824601 -1.69062 0
M  V30 2904 O 275.935 1.5541 -0.933677 0
M  V30 2905 C 275.983 -0.829808 -3.50922 0
M  V30 2906 O 275.087 0.102266 -4.12273 0
M  V30 2907 H 274.428 -0.227185 -0.623926 0
M  V30 2908 H 276.958 -1.25314 -1.61733 0
M  V30 2909 H 276.968 -0.747292 -4.01098 0
M  V30 2910 H 275.643 -1.86201 -3.7189 0
M  V30 2911 H 274.22 -0.0305761 -3.72887 0
M  V30 2912 N 276.405 1.4127 -0.698611 0
M  V30 2913 C 277.682 1.94955 -0.158762 0
M  V30 2914 C 278.062 1.63781 1.33188 0
M  V30 2915 O 277.41 0.946423 2.07979 0
M  V30 2916 C 277.62 3.46044 -0.453309 0
M  V30 2917 C 278.968 4.22872 -0.382707 0
M  V30 2918 O 279.992 3.54076 -0.388396 0
M  V30 2919 O 278.851 5.45407 -0.345463 0
M  V30 2920 H 275.945 0.82683 -0.0167505 0
M  V30 2921 H 278.491 1.50971 -0.77498 0
M  V30 2922 H 277.263 3.62028 -1.48498 0
M  V30 2923 H 276.886 3.97128 0.19373 0
M  V30 2924 N 277.883 0.443576 1.51229 0
M  V30 2925 C 278.793 -0.370721 2.31652 0
M  V30 2926 C 279.809 -1.02186 1.40833 0
M  V30 2927 O 280.985 -1.01586 1.73903 0
M  V30 2928 C 278.05 -1.45376 3.14749 0
M  V30 2929 C 277.111 -0.822099 4.21355 0
M  V30 2930 C 276.344 -1.85353 5.0048 0
M  V30 2931 O 276.567 -3.07656 4.80316 0
M  V30 2932 O 275.501 -1.4406 5.84406 0
M  V30 2933 H 279.327 0.286002 3.0235 0
M  V30 2934 H 276.912 0.20598 1.47973 0
M  V30 2935 H 278.794 -2.08173 3.66391 0
M  V30 2936 H 277.469 -2.09445 2.46809 0
M  V30 2937 H 276.376 -0.155909 3.73775 0
M  V30 2938 H 277.709 -0.224797 4.91686 0
M  V30 2939 N 279.361 -1.56624 0.175154 0
M  V30 2940 C 280.308 -2.18149 -0.753634 0
M  V30 2941 C 281.278 -1.12265 -1.22417 0
M  V30 2942 O 282.463 -1.40432 -1.29165 0
M  V30 2943 C 279.603 -2.82933 -1.97592 0
M  V30 2944 C 278.716 -4.03289 -1.5486 0
M  V30 2945 C 277.851 -4.55988 -2.72485 0
M  V30 2946 C 276.89 -5.68746 -2.26262 0
M  V30 2947 N 276.027 -6.15938 -3.36994 0
M  V30 2948 H 280.867 -2.9717 -0.222195 0
M  V30 2949 H 278.404 -1.46774 -0.0979422 0
M  V30 2950 H 280.362 -3.18653 -2.69288 0
M  V30 2951 H 278.992 -2.06509 -2.481 0
M  V30 2952 H 278.044 -3.73364 -0.728246 0
M  V30 2953 H 279.356 -4.849 -1.16933 0
M  V30 2954 H 278.51 -4.9391 -3.52332 0
M  V30 2955 H 277.249 -3.73443 -3.13674 0
M  V30 2956 H 276.254 -5.30372 -1.44863 0
M  V30 2957 H 277.479 -6.53095 -1.86127 0
M  V30 2958 H 275.425 -5.36321 -3.77751 0
M  V30 2959 H 275.342 -6.92548 -3.03172 0
M  V30 2960 H 276.61 -6.58511 -4.17114 0
M  V30 2961 N 280.839 0.0985539 -1.57292 0
M  V30 2962 C 282.25 0.653457 -1.74891 0
M  V30 2963 C 282.601 1.7929 -0.796838 0
M  V30 2964 O 281.726 2.16385 0.0254886 0
M  V30 2965 C 282.321 1.19216 -3.17133 0
M  V30 2966 C 280.88 1.69316 -3.36168 0
M  V30 2967 C 280.027 0.601294 -2.70702 0
M  V30 2968 H 282.978 -0.127497 -1.58187 0
M  V30 2969 H 282.999 2.06154 -3.19814 0
M  V30 2970 H 282.511 0.362635 -3.86402 0
M  V30 2971 H 280.612 2.5468 -2.71972 0
M  V30 2972 H 280.725 1.78853 -4.44464 0
M  V30 2973 H 279.089 1.0399 -2.32504 0
M  V30 2974 H 279.872 -0.217592 -3.4261 0
M  V30 2975 N 282.317 1.53212 0.369288 0
M  V30 2976 C 283.28 1.7872 1.43498 0
M  V30 2977 C 284.28 0.657554 1.46741 0
M  V30 2978 O 285.47 0.925736 1.47566 0
M  V30 2979 C 282.602 1.90591 2.82645 0
M  V30 2980 H 283.795 2.73894 1.22156 0
M  V30 2981 H 281.348 1.44233 0.602203 0
M  V30 2982 H 282.083 0.974709 3.09306 0
M  V30 2983 H 281.868 2.72751 2.8169 0
M  V30 2984 H 283.358 2.11931 3.59826 0
M  V30 2985 N 283.795 -0.628877 1.44509 0
M  V30 2986 C 285.041 -1.39045 1.47629 0
M  V30 2987 C 285.374 -1.93892 0.109343 0
M  V30 2988 O 284.649 -1.7379 -0.87334 0
M  V30 2989 C 284.932 -2.55408 2.53848 0
M  V30 2990 C 284.785 -2.05896 3.99909 0
M  V30 2991 C 286.104 -3.5759 2.56549 0
M  V30 2992 H 283.223 -0.504232 0.537512 0
M  V30 2993 H 285.865 -0.710854 1.76201 0
M  V30 2994 H 284.015 -3.13384 2.29615 0
M  V30 2995 H 285.687 -1.52734 4.35282 0
M  V30 2996 H 283.93 -1.37061 4.11578 0
M  V30 2997 H 284.601 -2.89681 4.69882 0
M  V30 2998 H 287.077 -3.09419 2.78207 0
M  V30 2999 H 285.953 -4.36527 3.32769 0
M  V30 3000 H 286.214 -4.11808 1.60832 0
M  V30 3001 N 285.273 -1.31445 -0.869486 0
M  V30 3002 C 286.684 -1.19042 -1.43826 0
M  V30 3003 C 287.035 0.202919 -1.95148 0
M  V30 3004 O 286.16 1.10071 -1.86315 0
M  V30 3005 C 286.755 -2.15499 -2.6143 0
M  V30 3006 C 285.314 -2.07028 -3.14351 0
M  V30 3007 C 284.461 -2.04701 -1.87063 0
M  V30 3008 H 287.412 -1.43489 -0.677984 0
M  V30 3009 H 287.433 -1.74488 -3.38134 0
M  V30 3010 H 286.945 -3.16899 -2.24046 0
M  V30 3011 H 285.046 -1.08825 -3.56354 0
M  V30 3012 H 285.159 -2.96157 -3.766 0
M  V30 3013 H 283.523 -1.49724 -2.06046 0
M  V30 3014 H 284.306 -3.07857 -1.51917 0
M  V30 3015 N 286.751 1.08385 -1.14413 0
M  V30 3016 C 287.976 1.85057 -0.936413 0
M  V30 3017 C 288.401 1.81055 0.509971 0
M  V30 3018 O 287.759 1.1958 1.36273 0
M  V30 3019 C 287.807 3.30505 -1.44217 0
M  V30 3020 O 286.911 4.07491 -0.634409 0
M  V30 3021 H 286.252 0.573425 -0.334784 0
M  V30 3022 H 288.782 1.36799 -1.52142 0
M  V30 3023 H 288.792 3.81348 -1.45043 0
M  V30 3024 H 287.467 3.32734 -2.49522 0
M  V30 3025 H 286.044 3.66368 -0.694902 0
M  V30 3026 N 288.23 0.939286 1.26551 0
M  V30 3027 C 289.646 0.641304 1.46149 0
M  V30 3028 C 289.846 -0.805964 1.84679 0
M  V30 3029 O 288.902 -1.58278 1.96734 0
M  V30 3030 C 290.215 1.6011 2.54529 0
M  V30 3031 C 291.763 1.6106 2.68382 0
M  V30 3032 C 292.238 2.55765 3.79932 0
M  V30 3033 N 293.729 2.5404 3.87322 0
M  V30 3034 C 294.464 3.24004 4.73085 0
M  V30 3035 N 293.96 4.03388 5.63249 0
M  V30 3036 N 295.753 3.12965 4.66914 0
M  V30 3037 H 287.904 1.87478 0.998285 0
M  V30 3038 H 290.167 0.805559 0.499779 0
M  V30 3039 H 289.873 2.63412 2.33039 0
M  V30 3040 H 289.747 1.35171 3.52149 0
M  V30 3041 H 292.134 0.584835 2.89247 0
M  V30 3042 H 292.215 1.90053 1.71212 0
M  V30 3043 H 291.859 3.58458 3.5982 0
M  V30 3044 H 291.789 2.24063 4.76554 0
M  V30 3045 H 294.28 1.96396 3.22858 0
M  V30 3046 H 294.593 4.5373 6.25579 0
M  V30 3047 H 292.938 4.07489 5.63008 0
M  V30 3048 H 296.129 2.50432 3.95476 0
M  V30 3049 H 296.302 3.67759 5.33533 0
M  V30 3050 N 289.708 -1.40897 0.706093 0
M  V30 3051 C 290.618 -2.3455 0.0482286 0
M  V30 3052 C 291.634 -1.56796 -0.754396 0
M  V30 3053 O 292.81 -1.89228 -0.689538 0
M  V30 3054 C 289.875 -3.35625 -0.869303 0
M  V30 3055 C 288.936 -4.29261 -0.0576994 0
M  V30 3056 C 288.169 -5.25508 -0.931531 0
M  V30 3057 O 288.392 -5.27472 -2.17092 0
M  V30 3058 O 287.326 -6.00727 -0.375587 0
M  V30 3059 H 291.152 -2.92407 0.820476 0
M  V30 3060 H 288.737 -1.4193 0.4665 0
M  V30 3061 H 290.619 -3.97635 -1.39514 0
M  V30 3062 H 289.294 -2.80196 -1.62086 0
M  V30 3063 H 288.201 -3.70566 0.512988 0
M  V30 3064 H 289.534 -4.87817 0.655426 0
M  V30 3065 N 291.186 -0.45159 -1.50991 0
M  V30 3066 C 292.149 0.341117 -2.26647 0
M  V30 3067 C 293.149 0.937422 -1.30649 0
M  V30 3068 O 294.339 0.809644 -1.54241 0
M  V30 3069 C 291.471 1.48398 -3.06905 0
M  V30 3070 H 292.664 -0.322117 -2.98165 0
M  V30 3071 H 290.217 -0.205122 -1.54948 0
M  V30 3072 H 290.952 2.18284 -2.39838 0
M  V30 3073 H 290.737 1.06241 -3.77432 0
M  V30 3074 H 292.227 2.04367 -3.64176 0
M  V30 3075 N 292.664 1.56529 -0.183458 0
M  V30 3076 C 293.574 2.22144 0.754272 0
M  V30 3077 C 294.59 1.21684 1.24374 0
M  V30 3078 O 295.766 1.54385 1.29333 0
M  V30 3079 C 292.831 2.85884 1.96141 0
M  V30 3080 C 291.892 4.01579 1.51765 0
M  V30 3081 C 291.125 4.6227 2.66725 0
M  V30 3082 O 291.348 4.21865 3.83909 0
M  V30 3083 O 290.282 5.51936 2.40104 0
M  V30 3084 H 294.108 3.02861 0.225527 0
M  V30 3085 H 291.693 1.49331 0.0453032 0
M  V30 3086 H 293.575 3.26253 2.66715 0
M  V30 3087 H 292.25 2.08154 2.47899 0
M  V30 3088 H 291.157 3.65856 0.781049 0
M  V30 3089 H 292.49 4.80938 1.04686 0
M  V30 3090 N 294.142 -0.090211 1.57342 0
M  V30 3091 C 295.39 -0.791241 1.85967 0
M  V30 3092 C 295.711 -1.7903 0.772859 0
M  V30 3093 O 294.981 -1.94872 -0.200398 0
M  V30 3094 H 293.561 -0.295205 0.686195 0
M  V30 3095 H 296.223 -0.0706782 1.94772 0
M  V30 3096 H 295.319 -1.31882 2.82867 0
M  V30 3097 N 295.62 -1.53406 -0.361157 0
M  V30 3098 C 296.53 -1.83122 -1.4664 0
M  V30 3099 C 297.546 -0.719943 -1.58407 0
M  V30 3100 O 298.722 -1.01046 -1.74218 0
M  V30 3101 C 295.787 -2.01891 -2.81853 0
M  V30 3102 C 294.848 -3.25784 -2.79577 0
M  V30 3103 C 294.081 -3.43648 -4.0834 0
M  V30 3104 O 294.304 -2.65714 -5.0473 0
M  V30 3105 O 293.238 -4.37018 -4.13883 0
M  V30 3106 H 297.064 -2.7703 -1.24451 0
M  V30 3107 H 294.649 -1.38841 -0.551678 0
M  V30 3108 H 296.531 -2.15782 -3.61962 0
M  V30 3109 H 295.206 -1.11173 -3.0401 0
M  V30 3110 H 294.113 -3.17312 -1.98151 0
M  V30 3111 H 295.446 -4.16439 -2.62373 0
M  V30 3112 N 297.098 0.621204 -1.44841 0
M  V30 3113 C 298.008 1.7612 -1.5498 0
M  V30 3114 C 299.024 1.68477 -0.434927 0
M  V30 3115 O 300.2 1.89076 -0.693693 0
M  V30 3116 C 297.265 3.1254 -1.50065 0
M  V30 3117 C 296.326 3.31741 -2.72482 0
M  V30 3118 C 295.559 4.61653 -2.67792 0
M  V30 3119 O 295.782 5.431 -1.74352 0
M  V30 3120 O 294.716 4.83271 -3.58794 0
M  V30 3121 H 298.542 1.70518 -2.51311 0
M  V30 3122 H 296.127 0.783643 -1.27198 0
M  V30 3123 H 298.009 3.93844 -1.49882 0
M  V30 3124 H 296.684 3.18663 -0.568806 0
M  V30 3125 H 295.591 2.50077 -2.7823 0
M  V30 3126 H 296.924 3.30486 -3.64746 0
M  V30 3127 N 298.576 1.31904 0.862503 0
M  V30 3128 C 299.804 1.24998 1.64873 0
M  V30 3129 C 300.219 -0.183425 1.87907 0
M  V30 3130 O 299.576 -1.11794 1.44251 0
M  V30 3131 C 299.627 1.99829 3.01248 0
M  V30 3132 O 299.348 3.37575 2.79239 0
M  V30 3133 C 300.849 1.99852 3.95694 0
M  V30 3134 H 298.069 0.431599 0.513773 0
M  V30 3135 H 300.613 1.73901 1.07604 0
M  V30 3136 H 298.768 1.54668 3.55185 0
M  V30 3137 H 299.182 3.75776 3.65914 0
M  V30 3138 H 300.656 2.56709 4.88676 0
M  V30 3139 H 301.133 0.982852 4.28062 0
M  V30 3140 H 301.739 2.44926 3.47694 0
M  V30 3141 N 300.054 -1.07777 1.14986 0
M  V30 3142 C 300.964 -2.18404 0.856546 0
M  V30 3143 C 301.98 -1.73211 -0.165485 0
M  V30 3144 O 303.156 -2.01399 0.00755219 0
M  V30 3145 C 300.221 -3.44977 0.34526 0
M  V30 3146 C 299.282 -4.0476 1.43065 0
M  V30 3147 C 298.515 -5.25291 0.943663 0
M  V30 3148 O 298.738 -5.70004 -0.212426 0
M  V30 3149 O 297.672 -5.76638 1.72547 0
M  V30 3150 H 301.498 -2.45978 1.78125 0
M  V30 3151 H 299.083 -1.17033 0.928631 0
M  V30 3152 H 300.965 -4.21348 0.0663671 0
M  V30 3153 H 299.64 -3.18965 -0.551631 0
M  V30 3154 H 298.547 -3.29949 1.76309 0
M  V30 3155 H 299.88 -4.35035 2.30229 0
M  V30 3156 N 301.532 -0.945985 -1.26051 0
M  V30 3157 C 302.462 -0.477172 -2.28572 0
M  V30 3158 C 303.443 0.472032 -1.63419 0
M  V30 3159 O 304.628 0.372853 -1.90587 0
M  V30 3160 C 301.758 0.253975 -3.4637 0
M  V30 3161 C 300.712 -0.609135 -4.23643 0
M  V30 3162 C 300.038 0.252252 -5.34105 0
M  V30 3163 C 301.338 -1.8829 -4.8718 0
M  V30 3164 H 303.032 -1.33402 -2.68038 0
M  V30 3165 H 300.578 -0.642904 -1.28852 0
M  V30 3166 H 302.531 0.593016 -4.17207 0
M  V30 3167 H 301.255 1.145 -3.05871 0
M  V30 3168 H 299.914 -0.931138 -3.54578 0
M  V30 3169 H 299.562 1.14278 -4.89846 0
M  V30 3170 H 299.262 -0.32188 -5.86718 0
M  V30 3171 H 300.786 0.586454 -6.07777 0
M  V30 3172 H 302.2 -1.61081 -5.50205 0
M  V30 3173 H 300.597 -2.40199 -5.49931 0
M  V30 3174 H 301.667 -2.59134 -4.09851 0
M  V30 3175 N 303.011 1.40521 -0.713556 0
M  V30 3176 C 304.239 2.05237 -0.261775 0
M  V30 3177 C 304.654 1.53755 1.09567 0
M  V30 3178 O 304.011 0.693268 1.6882 0
M  V30 3179 C 304.062 3.60763 -0.230706 0
M  V30 3180 O 303.783 4.10345 -1.53455 0
M  V30 3181 C 305.284 4.42651 0.239874 0
M  V30 3182 H 302.504 0.660533 -0.118057 0
M  V30 3183 H 305.048 1.79967 -0.971192 0
M  V30 3184 H 303.203 3.8501 0.429661 0
M  V30 3185 H 303.617 5.04526 -1.43366 0
M  V30 3186 H 305.091 5.51599 0.210468 0
M  V30 3187 H 305.568 4.20082 1.28171 0
M  V30 3188 H 306.174 4.23507 -0.390142 0
M  V30 3189 N 304.489 0.459591 1.5075 0
M  V30 3190 C 305.717 -0.0973749 2.06671 0
M  V30 3191 C 306.132 -1.34524 1.32472 0
M  V30 3192 O 305.489 -1.7827 0.390634 0
M  V30 3193 C 305.54 -0.39714 3.59312 0
M  V30 3194 O 305.261 0.801214 4.30711 0
M  V30 3195 C 306.762 -1.00234 4.31819 0
M  V30 3196 H 303.982 0.00195854 0.670997 0
M  V30 3197 H 306.526 0.645072 1.94059 0
M  V30 3198 H 304.681 -1.08951 3.71764 0
M  V30 3199 H 305.095 0.538857 5.21725 0
M  V30 3200 H 306.569 -1.16193 5.39632 0
M  V30 3201 H 307.046 -1.98939 3.91561 0
M  V30 3202 H 307.652 -0.348699 4.23868 0
M  V30 3203 N 305.967 -1.56429 0.191757 0
M  V30 3204 C 307.378 -1.83912 -0.321428 0
M  V30 3205 C 307.729 -1.11231 -1.61623 0
M  V30 3206 O 306.854 -0.37202 -2.13178 0
M  V30 3207 C 307.449 -3.33624 -0.589961 0
M  V30 3208 C 306.008 -3.6153 -1.04753 0
M  V30 3209 C 305.155 -2.7714 -0.0943327 0
M  V30 3210 H 308.106 -1.53161 0.415612 0
M  V30 3211 H 308.127 -3.52213 -1.43966 0
M  V30 3212 H 307.639 -3.86495 0.352588 0
M  V30 3213 H 305.74 -3.14089 -2.00447 0
M  V30 3214 H 305.853 -4.69737 -0.942549 0
M  V30 3215 H 304.217 -2.47638 -0.595589 0
M  V30 3216 H 305 -3.32799 0.842601 0
M  V30 3217 N 307.445 0.0818655 -1.57387 0
M  V30 3218 C 308.691 0.784074 -1.8703 0
M  V30 3219 C 309.024 1.77729 -0.782689 0
M  V30 3220 O 308.299 1.93384 0.208051 0
M  V30 3221 C 308.582 1.50105 -3.27323 0
M  V30 3222 C 308.435 0.524925 -4.46727 0
M  V30 3223 C 309.754 2.44843 -3.65705 0
M  V30 3224 H 306.873 0.283582 -0.680257 0
M  V30 3225 H 309.515 0.0474352 -1.89941 0
M  V30 3226 H 307.665 2.12897 -3.24972 0
M  V30 3227 H 309.337 -0.0970111 -4.61198 0
M  V30 3228 H 307.58 -0.160606 -4.33503 0
M  V30 3229 H 308.251 1.064 -5.41648 0
M  V30 3230 H 310.727 1.92135 -3.69085 0
M  V30 3231 H 309.603 2.92018 -4.64776 0
M  V30 3232 H 309.864 3.29197 -2.95096 0
M  V30 3233 N 308.923 1.53595 0.353017 0
M  V30 3234 C 309.853 1.83902 1.43883 0
M  V30 3235 C 310.834 0.693421 1.55324 0
M  V30 3236 O 312.019 0.944452 1.69687 0
M  V30 3237 C 309.149 2.04016 2.8106 0
M  V30 3238 C 308.103 3.19814 2.84434 0
M  V30 3239 C 307.429 3.25244 4.24406 0
M  V30 3240 C 308.729 4.58133 2.50822 0
M  V30 3241 H 310.423 2.74835 1.1877 0
M  V30 3242 H 307.969 1.32242 0.569917 0
M  V30 3243 H 309.922 2.238 3.57059 0
M  V30 3244 H 308.646 1.09804 3.07588 0
M  V30 3245 H 307.305 2.9987 2.10887 0
M  V30 3246 H 306.953 2.28646 4.48029 0
M  V30 3247 H 306.653 4.03054 4.27576 0
M  V30 3248 H 308.177 3.47228 5.0226 0
M  V30 3249 H 309.591 4.77995 3.16534 0
M  V30 3250 H 307.988 5.38276 2.6529 0
M  V30 3251 H 309.058 4.62387 1.46034 0
M  V30 3252 N 310.401 -0.613514 1.45168 0
M  V30 3253 C 311.812 -1.19539 1.43413 0
M  V30 3254 C 312.163 -1.95558 0.158632 0
M  V30 3255 O 311.288 -2.0335 -0.740119 0
M  V30 3256 C 311.883 -2.17445 2.59813 0
M  V30 3257 C 310.442 -2.71022 2.61197 0
M  V30 3258 C 309.589 -1.46323 2.35552 0
M  V30 3259 H 312.54 -0.403163 1.53494 0
M  V30 3260 H 312.561 -3.00373 2.33574 0
M  V30 3261 H 312.073 -1.62089 3.52631 0
M  V30 3262 H 310.174 -3.30332 1.7237 0
M  V30 3263 H 310.287 -3.15859 3.60236 0
M  V30 3264 H 308.651 -1.75072 1.84992 0
M  V30 3265 H 309.434 -0.92844 3.30507 0
M  V30 3266 N 311.879 -1.3236 -0.855495 0
M  V30 3267 C 312.789 -1.23221 -1.99634 0
M  V30 3268 C 313.805 -0.145983 -1.73387 0
M  V30 3269 O 314.981 -0.366502 -1.98037 0
M  V30 3270 C 312.046 -0.954782 -3.33294 0
M  V30 3271 C 311.107 -2.12937 -3.72769 0
M  V30 3272 C 310.34 -1.86508 -5.00051 0
M  V30 3273 O 310.563 -0.807231 -5.64659 0
M  V30 3274 O 309.497 -2.72591 -5.36636 0
M  V30 3275 H 313.323 -2.19126 -2.1028 0
M  V30 3276 H 310.908 -1.12241 -0.986018 0
M  V30 3277 H 312.79 -0.816519 -4.13414 0
M  V30 3278 H 311.465 -0.0258854 -3.2369 0
M  V30 3279 H 310.372 -2.3231 -2.93228 0
M  V30 3280 H 311.705 -3.04102 -3.87018 0
M  V30 3281 N 313.357 1.07166 -1.15556 0
M  V30 3282 C 314.267 2.17947 -0.868116 0
M  V30 3283 C 315.283 1.73297 0.156297 0
M  V30 3284 O 316.459 2.01392 -0.0182327 0
M  V30 3285 C 313.524 3.44789 -0.36355 0
M  V30 3286 C 312.585 4.03996 -1.45209 0
M  V30 3287 C 311.818 5.24783 -0.971508 0
M  V30 3288 O 312.041 5.70109 0.182194 0
M  V30 3289 O 310.975 5.75715 -1.75603 0
M  V30 3290 H 314.801 2.4503 -1.79427 0
M  V30 3291 H 312.386 1.16539 -0.934824 0
M  V30 3292 H 314.268 4.21307 -0.0887113 0
M  V30 3293 H 312.943 3.19253 0.534708 0
M  V30 3294 H 311.85 3.29009 -1.78056 0
M  V30 3295 H 313.183 4.33808 -2.32533 0
M  V30 3296 N 314.835 0.952656 1.25548 0
M  V30 3297 C 316.063 0.623496 1.97282 0
M  V30 3298 C 316.478 -0.803987 1.70826 0
M  V30 3299 O 315.835 -1.53755 0.983147 0
M  V30 3300 C 315.886 0.870209 3.5087 0
M  V30 3301 O 315.607 2.24156 3.76412 0
M  V30 3302 C 317.108 0.553164 4.39835 0
M  V30 3303 H 314.328 0.233931 0.628902 0
M  V30 3304 H 316.872 1.27649 1.59768 0
M  V30 3305 H 315.027 0.263652 3.86502 0
M  V30 3306 H 315.441 2.31021 4.70882 0
M  V30 3307 H 316.915 0.776342 5.46513 0
M  V30 3308 H 317.392 -0.512215 4.36203 0
M  V30 3309 H 317.998 1.13896 4.09766 0
M  V30 3310 N 316.313 -1.40141 0.720998 0
M  V30 3311 C 317.245 -2.29177 0.0324669 0
M  V30 3312 C 318.258 -1.46105 -0.718126 0
M  V30 3313 O 319.447 -1.69335 -0.564608 0
M  V30 3314 C 316.547 -3.24473 -0.978292 0
M  V30 3315 C 315.72 -4.36423 -0.292115 0
M  V30 3316 C 314.779 -5.12122 -1.20901 0
M  V30 3317 O 313.805 -5.64981 -0.691766 0
M  V30 3318 N 315.007 -5.21992 -2.53978 0
M  V30 3319 H 317.772 -2.88909 0.796984 0
M  V30 3320 H 315.333 -1.51569 0.569068 0
M  V30 3321 H 317.325 -3.71987 -1.59398 0
M  V30 3322 H 315.895 -2.65871 -1.64413 0
M  V30 3323 H 315.115 -3.90967 0.503847 0
M  V30 3324 H 316.403 -5.08467 0.183971 0
M  V30 3325 H 315.801 -4.8054 -2.98493 0
M  V30 3326 H 314.358 -5.72995 -3.10677 0
M  V30 3327 N 317.792 -0.46758 -1.50504 0
M  V30 3328 C 318.702 0.33382 -2.32213 0
M  V30 3329 C 319.718 0.999323 -1.42441 0
M  V30 3330 O 320.894 0.988068 -1.75497 0
M  V30 3331 C 317.959 1.4035 -3.17022 0
M  V30 3332 C 317.02 0.754961 -4.2261 0
M  V30 3333 C 316.253 1.77367 -5.03365 0
M  V30 3334 O 316.476 2.99976 -4.8515 0
M  V30 3335 O 315.41 1.34744 -5.86624 0
M  V30 3336 H 319.236 -0.334067 -3.01857 0
M  V30 3337 H 316.821 -0.229496 -1.47627 0
M  V30 3338 H 318.703 2.02318 -3.69656 0
M  V30 3339 H 317.378 2.05492 -2.5011 0
M  V30 3340 H 316.285 0.0964244 -3.73976 0
M  V30 3341 H 317.618 0.146545 -4.91982 0
M  V30 3342 N 319.27 1.56325 -0.20005 0
M  V30 3343 C 320.18 2.22931 0.730668 0
M  V30 3344 C 321.196 1.22997 1.23076 0
M  V30 3345 O 322.372 1.55748 1.27689 0
M  V30 3346 C 319.437 2.87948 1.93098 0
M  V30 3347 C 318.498 4.03166 1.47497 0
M  V30 3348 C 317.731 4.65073 2.61807 0
M  V30 3349 O 317.954 4.25913 3.79413 0
M  V30 3350 O 316.888 5.54452 2.34237 0
M  V30 3351 H 320.714 3.03084 0.193391 0
M  V30 3352 H 318.299 1.49371 0.0294621 0
M  V30 3353 H 320.181 3.29063 2.6324 0
M  V30 3354 H 318.856 2.10771 2.45677 0
M  V30 3355 H 317.763 3.66664 0.742201 0
M  V30 3356 H 319.096 4.82022 0.995796 0
M  V30 3357 N 320.748 -0.0735177 1.57428 0
M  V30 3358 C 322.025 -0.805903 1.78226 0
M  V30 3359 C 322.405 -1.95874 0.787189 0
M  V30 3360 O 321.753 -2.2779 -0.180029 0
M  V30 3361 C 321.963 -1.28045 3.24662 0
M  V30 3362 C 323.311 -1.71453 3.88444 0
M  V30 3363 O 324.335 -1.37616 3.28543 0
M  V30 3364 O 323.194 -2.34093 4.93825 0
M  V30 3365 H 320.288 -0.386041 0.73137 0
M  V30 3366 H 322.834 -0.0537269 1.69615 0
M  V30 3367 H 321.606 -0.455476 3.8864 0
M  V30 3368 H 321.229 -2.094 3.37991 0
M  V30 3369 N 322.226 -1.5378 -0.344866 0
M  V30 3370 C 323.189 -1.80981 -1.40637 0
M  V30 3371 C 324.189 -0.680816 -1.45676 0
M  V30 3372 O 325.379 -0.949095 -1.46075 0
M  V30 3373 C 322.511 -1.95063 -2.79577 0
M  V30 3374 H 323.704 -2.75803 -1.17783 0
M  V30 3375 H 321.257 -1.45173 -0.579181 0
M  V30 3376 H 321.992 -1.02379 -3.07716 0
M  V30 3377 H 321.777 -2.77198 -2.77315 0
M  V30 3378 H 323.267 -2.17629 -3.56409 0
M  V30 3379 N 323.704 0.605807 -1.45491 0
M  V30 3380 C 324.651 1.7164 -1.54299 0
M  V30 3381 C 325.621 1.61486 -0.388761 0
M  V30 3382 O 326.806 1.81039 -0.602445 0
M  V30 3383 C 323.946 3.09953 -1.51734 0
M  V30 3384 C 323.059 3.309 -2.77721 0
M  V30 3385 C 322.194 4.59329 -2.66816 0
M  V30 3386 C 321.233 4.7354 -3.87848 0
M  V30 3387 N 320.37 5.9327 -3.75467 0
M  V30 3388 H 325.21 1.63449 -2.49176 0
M  V30 3389 H 322.747 0.796957 -1.23641 0
M  V30 3390 H 324.705 3.89977 -1.48235 0
M  V30 3391 H 323.335 3.17098 -0.604068 0
M  V30 3392 H 322.387 2.44639 -2.913 0
M  V30 3393 H 323.699 3.37274 -3.67488 0
M  V30 3394 H 322.853 5.4755 -2.61292 0
M  V30 3395 H 321.592 4.55355 -1.74651 0
M  V30 3396 H 320.597 3.83741 -3.93729 0
M  V30 3397 H 321.822 4.79309 -4.81082 0
M  V30 3398 H 319.768 5.90338 -2.86072 0
M  V30 3399 H 319.685 6.00811 -4.5887 0
M  V30 3400 H 320.953 6.83984 -3.73879 0
M  V30 3401 N 325.182 1.32811 0.848464 0
M  V30 3402 C 326.129 1.22265 1.95755 0
M  V30 3403 C 327.099 0.103413 1.65778 0
M  V30 3404 O 328.284 0.280033 1.88734 0
M  V30 3405 C 325.424 0.958014 3.31536 0
M  V30 3406 C 324.537 2.16262 3.73971 0
M  V30 3407 C 323.672 1.83295 4.98575 0
M  V30 3408 C 322.711 3.00041 5.33518 0
M  V30 3409 N 321.848 2.67125 6.49299 0
M  V30 3410 H 326.688 2.17128 2.04107 0
M  V30 3411 H 324.225 1.07982 0.998913 0
M  V30 3412 H 326.183 0.785052 4.09747 0
M  V30 3413 H 324.813 0.046159 3.22767 0
M  V30 3414 H 323.865 2.44565 2.91362 0
M  V30 3415 H 325.177 3.03572 3.95785 0
M  V30 3416 H 324.331 1.62586 5.84509 0
M  V30 3417 H 323.07 0.932078 4.7871 0
M  V30 3418 H 322.075 3.21374 4.46093 0
M  V30 3419 H 323.3 3.90869 5.55336 0
M  V30 3420 H 321.246 1.79586 6.3094 0
M  V30 3421 H 321.163 3.47965 6.71161 0
M  V30 3422 H 322.431 2.49861 7.3837 0
M  V30 3423 N 326.66 -1.06551 1.16123 0
M  V30 3424 C 327.888 -1.83005 0.965237 0
M  V30 3425 C 328.303 -1.82423 -0.486542 0
M  V30 3426 O 327.66 -1.24152 -1.33763 0
M  V30 3427 C 327.711 -3.29733 1.48183 0
M  V30 3428 O 327.432 -3.30416 2.87674 0
M  V30 3429 C 328.933 -4.22926 1.32848 0
M  V30 3430 H 326.153 -0.577118 0.342309 0
M  V30 3431 H 328.697 -1.3445 1.54089 0
M  V30 3432 H 326.852 -3.75609 0.948517 0
M  V30 3433 H 327.266 -4.22149 3.11272 0
M  V30 3434 H 328.74 -5.23916 1.73827 0
M  V30 3435 H 329.217 -4.38346 0.273692 0
M  V30 3436 H 329.823 -3.82894 1.85127 0
M  V30 3437 N 328.138 -0.959301 -1.25041 0
M  V30 3438 C 329.385 -0.616611 -1.92884 0
M  V30 3439 C 329.713 0.847036 -1.75087 0
M  V30 3440 O 328.968 1.62374 -1.09239 0
M  V30 3441 C 329.267 -0.927136 -3.45165 0
M  V30 3442 C 328.933 -2.37757 -3.83122 0
M  V30 3443 C 327.595 -2.77402 -3.93194 0
M  V30 3444 C 329.947 -3.31929 -4.01836 0
M  V30 3445 C 327.275 -4.10277 -4.19392 0
M  V30 3446 C 329.627 -4.64423 -4.29528 0
M  V30 3447 C 328.291 -5.03857 -4.37818 0
M  V30 3448 H 327.561 -0.225634 -0.705812 0
M  V30 3449 H 330.208 -1.20921 -1.48493 0
M  V30 3450 H 328.513 -0.252195 -3.90987 0
M  V30 3451 H 330.21 -0.6405 -3.95852 0
M  V30 3452 H 326.8 -2.06013 -3.75841 0
M  V30 3453 H 330.984 -3.02488 -3.93465 0
M  V30 3454 H 326.24 -4.40467 -4.24027 0
M  V30 3455 H 330.414 -5.37369 -4.42953 0
M  V30 3456 H 328.041 -6.06843 -4.57871 0
M  V30 3457 N 329.616 1.39756 -0.72842 0
M  V30 3458 C 330.563 2.30647 -0.0841519 0
M  V30 3459 C 331.533 1.48869 0.7367 0
M  V30 3460 O 332.718 1.77574 0.698015 0
M  V30 3461 C 329.858 3.35165 0.822091 0
M  V30 3462 C 328.971 4.31999 -0.0106663 0
M  V30 3463 C 328.106 5.23585 0.896241 0
M  V30 3464 C 327.145 6.12072 0.0583381 0
M  V30 3465 N 326.282 6.96035 0.920818 0
M  V30 3466 H 331.122 2.85173 -0.864891 0
M  V30 3467 H 328.659 1.40422 -0.438179 0
M  V30 3468 H 330.617 3.94345 1.36189 0
M  V30 3469 H 329.247 2.8211 1.56888 0
M  V30 3470 H 328.299 3.74492 -0.66781 0
M  V30 3471 H 329.611 4.9443 -0.658825 0
M  V30 3472 H 328.765 5.87759 1.50412 0
M  V30 3473 H 327.504 4.61459 1.57819 0
M  V30 3474 H 326.509 5.46916 -0.562389 0
M  V30 3475 H 327.734 6.76261 -0.6203 0
M  V30 3476 H 325.68 6.36485 1.58818 0
M  V30 3477 H 325.597 7.55284 0.32899 0
M  V30 3478 H 326.865 7.64646 1.51447 0
M  V30 3479 N 331.094 0.475555 1.50254 0
M  V30 3480 C 332.004 -0.321501 2.32387 0
M  V30 3481 C 333.02 -0.991755 1.42969 0
M  V30 3482 O 334.196 -0.978747 1.76018 0
M  V30 3483 C 331.261 -1.38667 3.17762 0
M  V30 3484 C 330.322 -0.732538 4.23004 0
M  V30 3485 C 329.555 -1.74695 5.04299 0
M  V30 3486 O 329.778 -2.97399 4.86734 0
M  V30 3487 O 328.712 -1.31631 5.8733 0
M  V30 3488 H 332.538 0.350071 3.01676 0
M  V30 3489 H 330.123 0.237321 1.47503 0
M  V30 3490 H 332.005 -2.00354 3.70724 0
M  V30 3491 H 330.68 -2.04163 2.51196 0
M  V30 3492 H 329.587 -0.0765902 3.74022 0
M  V30 3493 H 330.92 -0.120452 4.92053 0
M  V30 3494 N 332.573 -1.56217 0.208337 0
M  V30 3495 C 333.798 -2.02782 -0.435222 0
M  V30 3496 C 334.223 -1.08738 -1.53485 0
M  V30 3497 O 333.581 -0.0731855 -1.81152 0
M  V30 3498 C 333.629 -3.47687 -0.956335 0
M  V30 3499 O 332.733 -3.56773 -2.06849 0
M  V30 3500 H 332.074 -0.656403 -0.100158 0
M  V30 3501 H 334.604 -2.02033 0.3231 0
M  V30 3502 H 334.614 -3.87745 -1.26955 0
M  V30 3503 H 333.289 -4.15624 -0.15143 0
M  V30 3504 H 331.866 -3.28597 -1.76292 0
M  V30 3505 N 334.051 0.0651679 -1.57465 0
M  V30 3506 C 335.467 0.420105 -1.53972 0
M  V30 3507 C 335.667 1.78782 -0.929474 0
M  V30 3508 O 334.723 2.46771 -0.534839 0
M  V30 3509 C 336.036 0.355084 -2.98596 0
M  V30 3510 C 337.584 0.434792 -3.09965 0
M  V30 3511 C 338.059 0.399609 -4.56253 0
M  V30 3512 N 339.55 0.459488 -4.60915 0
M  V30 3513 C 340.285 0.454584 -5.71595 0
M  V30 3514 N 339.781 0.404102 -6.9162 0
M  V30 3515 N 341.574 0.501635 -5.59857 0
M  V30 3516 H 333.725 -0.830328 -1.95498 0
M  V30 3517 H 335.988 -0.312244 -0.895102 0
M  V30 3518 H 335.694 -0.583357 -3.46828 0
M  V30 3519 H 335.568 1.16275 -3.58831 0
M  V30 3520 H 337.955 1.36366 -2.61703 0
M  V30 3521 H 338.036 -0.40157 -2.52628 0
M  V30 3522 H 337.68 -0.525436 -5.05175 0
M  V30 3523 H 337.61 1.25359 -5.11461 0
M  V30 3524 H 340.101 0.502482 -3.74544 0
M  V30 3525 H 340.414 0.404468 -7.71741 0
M  V30 3526 H 338.759 0.37069 -6.94011 0
M  V30 3527 H 341.95 0.538812 -4.64989 0
M  V30 3528 H 342.123 0.494345 -6.46112 0
M  V30 3529 N 335.529 1.53961 0.336706 0
M  V30 3530 C 336.439 1.85432 1.43708 0
M  V30 3531 C 337.455 0.745053 1.57242 0
M  V30 3532 O 338.631 1.03804 1.72588 0
M  V30 3533 C 335.696 2.06349 2.78605 0
M  V30 3534 C 334.757 3.30191 2.74358 0
M  V30 3535 C 333.99 3.50101 4.02822 0
M  V30 3536 O 334.213 2.7371 5.00439 0
M  V30 3537 O 333.147 4.43547 4.06878 0
M  V30 3538 H 336.973 2.78975 1.20028 0
M  V30 3539 H 334.558 1.39701 0.52952 0
M  V30 3540 H 336.44 2.21513 3.58483 0
M  V30 3541 H 335.115 1.15995 3.02203 0
M  V30 3542 H 334.022 3.20425 1.93078 0
M  V30 3543 H 335.355 4.2056 2.55715 0
M  V30 3544 N 337.007 -0.598083 1.45811 0
M  V30 3545 C 337.97 -1.69018 1.54808 0
M  V30 3546 C 338.97 -1.55037 0.426652 0
M  V30 3547 O 340.16 -1.59932 0.690456 0
M  V30 3548 C 337.292 -3.0835 1.45371 0
M  V30 3549 H 338.485 -1.62403 2.52121 0
M  V30 3550 H 336.038 -0.814626 1.33392 0
M  V30 3551 H 336.773 -3.20534 0.492793 0
M  V30 3552 H 336.558 -3.19907 2.26721 0
M  V30 3553 H 338.048 -3.8788 1.54721 0
M  V30 3554 N 338.485 -1.33259 -0.841409 0
M  V30 3555 C 339.448 -1.23221 -1.9326 0
M  V30 3556 C 340.448 -0.151895 -1.60081 0
M  V30 3557 O 341.638 -0.403246 -1.69468 0
M  V30 3558 C 338.77 -0.898123 -3.28856 0
M  V30 3559 H 339.963 -2.2021 -2.03587 0
M  V30 3560 H 337.516 -1.17281 -1.03319 0
M  V30 3561 H 338.251 0.0693841 -3.24226 0
M  V30 3562 H 338.036 -1.67934 -3.54317 0
M  V30 3563 H 339.526 -0.852563 -4.08805 0
M  V30 3564 N 339.963 1.05934 -1.16686 0
M  V30 3565 C 340.893 2.1546 -0.899949 0
M  V30 3566 C 341.874 1.69391 0.155154 0
M  V30 3567 O 343.059 1.94199 0.00648693 0
M  V30 3568 C 340.189 3.44939 -0.404241 0
M  V30 3569 C 339.143 4.04536 -1.39767 0
M  V30 3570 C 338.469 5.29268 -0.760216 0
M  V30 3571 C 339.769 4.42893 -2.76845 0
M  V30 3572 H 341.463 2.38046 -1.81588 0
M  V30 3573 H 339.009 1.14404 -0.874514 0
M  V30 3574 H 340.962 4.20901 -0.204971 0
M  V30 3575 H 339.686 3.21983 0.547206 0
M  V30 3576 H 338.345 3.30635 -1.58355 0
M  V30 3577 H 337.993 5.02611 0.197831 0
M  V30 3578 H 337.693 5.70101 -1.42332 0
M  V30 3579 H 339.217 6.07924 -0.57105 0
M  V30 3580 H 340.631 5.09921 -2.62019 0
M  V30 3581 H 339.028 4.94721 -3.39663 0
M  V30 3582 H 340.098 3.53584 -3.31823 0
M  V30 3583 N 341.441 0.965919 1.2453 0
M  V30 3584 C 342.389 0.486506 2.27455 0
M  V30 3585 C 343.383 -0.449041 1.6334 0
M  V30 3586 O 344.589 -0.324527 1.7705 0
M  V30 3587 H 340.964 0.138857 0.739069 0
M  V30 3588 H 342.935 1.3666 2.65267 0
M  V30 3589 C 341.684 -0.209481 3.47068 0
M  V30 3590 H 341.007 0.50129 3.96645 0
M  V30 3591 H 342.447 -0.508775 4.20936 0
M  V30 3592 C 340.906 -1.43586 3.0477 0
M  V30 3593 O 341.436 -2.53299 3.11773 0
M  V30 3594 N 339.642 -1.30126 2.59838 0
M  V30 3595 H 339.189 -0.408583 2.54339 0
M  V30 3596 H 339.147 -2.12294 2.31902 0
M  V30 3597 N 342.919 -1.39368 0.735821 0
M  V30 3598 C 343.849 -2.33234 0.111506 0
M  V30 3599 C 344.83 -1.53954 -0.723334 0
M  V30 3600 O 346.015 -1.82344 -0.668147 0
M  V30 3601 C 343.145 -3.38057 -0.795917 0
M  V30 3602 C 342.099 -4.2795 -0.065172 0
M  V30 3603 C 341.425 -5.23479 -1.08967 0
M  V30 3604 C 342.725 -5.10741 1.09273 0
M  V30 3605 H 344.419 -2.85692 0.895571 0
M  V30 3606 H 341.965 -1.37364 0.432109 0
M  V30 3607 H 343.918 -4.02675 -1.24221 0
M  V30 3608 H 342.642 -2.8404 -1.61211 0
M  V30 3609 H 341.301 -3.64813 0.361511 0
M  V30 3610 H 340.949 -4.65758 -1.89944 0
M  V30 3611 H 340.649 -5.84472 -0.605489 0
M  V30 3612 H 342.173 -5.90974 -1.53565 0
M  V30 3613 H 343.587 -5.68699 0.724841 0
M  V30 3614 H 341.984 -5.8088 1.50659 0
M  V30 3615 H 343.054 -4.45525 1.91404 0
M  V30 3616 N 344.397 -0.483516 -1.5 0
M  V30 3617 C 345.36 0.292965 -2.2732 0
M  V30 3618 C 346.36 0.909499 -1.32608 0
M  V30 3619 O 347.55 0.776745 -1.55924 0
M  V30 3620 C 344.682 1.41854 -3.09984 0
M  V30 3621 H 345.875 -0.385289 -2.97415 0
M  V30 3622 H 343.428 -0.237942 -1.54478 0
M  V30 3623 H 344.163 2.13148 -2.44414 0
M  V30 3624 H 343.948 0.982114 -3.79601 0
M  V30 3625 H 345.438 1.96597 -3.68429 0
M  V30 3626 N 345.875 1.56104 -0.216619 0
M  V30 3627 C 347.105 2.02269 0.420802 0
M  V30 3628 C 347.513 1.09575 1.5424 0
M  V30 3629 O 346.856 0.0967308 1.83445 0
M  V30 3630 C 346.918 3.44784 1.01806 0
M  V30 3631 C 346.582 4.56988 0.0325154 0
M  V30 3632 C 347.579 5.14225 -0.766055 0
M  V30 3633 C 345.264 5.02228 -0.0848092 0
M  V30 3634 C 347.258 6.15169 -1.6687 0
M  V30 3635 C 344.945 6.03011 -0.990994 0
M  V30 3636 C 345.943 6.59357 -1.78149 0
M  V30 3637 O 345.631 7.58179 -2.67245 0
M  V30 3638 H 345.363 0.667353 0.107776 0
M  V30 3639 H 347.917 2.02747 -0.329034 0
M  V30 3640 H 346.147 3.41359 1.81689 0
M  V30 3641 H 347.836 3.74626 1.56237 0
M  V30 3642 H 348.602 4.80126 -0.685836 0
M  V30 3643 H 344.481 4.58054 0.520349 0
M  V30 3644 H 348.025 6.59076 -2.28615 0
M  V30 3645 H 343.922 6.36532 -1.07225 0
M  V30 3646 H 344.69 7.75682 -2.61265 0
M  V30 3647 N 347.353 -0.0568162 1.57498 0
M  V30 3648 C 348.602 -0.752001 1.87157 0
M  V30 3649 C 348.915 -1.77978 0.811375 0
M  V30 3650 O 350.121 -2.52559 0.996293 0
M  V30 3651 C 348.577 -1.38844 3.3204 0
M  V30 3652 C 348.185 -0.398456 4.46225 0
M  V30 3653 C 349.929 -2.06512 3.70882 0
M  V30 3654 C 347.836 -1.04166 5.82154 0
M  V30 3655 H 346.766 -0.28461 0.698222 0
M  V30 3656 H 349.417 -0.00561272 1.83499 0
M  V30 3657 H 347.799 -2.1836 3.30356 0
M  V30 3658 H 348.973 0.367977 4.59328 0
M  V30 3659 H 347.288 0.174592 4.16034 0
M  V30 3660 H 349.885 -2.55437 4.6974 0
M  V30 3661 H 350.228 -2.87117 3.01445 0
M  V30 3662 H 350.761 -1.33808 3.7462 0
M  V30 3663 H 347.5 -0.275614 6.5492 0
M  V30 3664 H 347.02 -1.7786 5.72823 0
M  V30 3665 H 348.699 -1.55715 6.27982 0
M  V30 3666 N 348.832 -1.54138 -0.328536 0
M  V30 3667 C 349.762 -1.86167 -1.40939 0
M  V30 3668 C 350.743 -0.718044 -1.54202 0
M  V30 3669 O 351.928 -0.971328 -1.68163 0
M  V30 3670 C 349.058 -2.08461 -2.77779 0
M  V30 3671 C 348.012 -3.24299 -2.7931 0
M  V30 3672 C 347.338 -3.31955 -4.19178 0
M  V30 3673 C 348.638 -4.62065 -2.43502 0
M  V30 3674 H 350.332 -2.76689 -1.14383 0
M  V30 3675 H 347.878 -1.33132 -0.548806 0
M  V30 3676 H 349.831 -2.29453 -3.53454 0
M  V30 3677 H 348.555 -1.14684 -3.05802 0
M  V30 3678 H 347.214 -3.03187 -2.0609 0
M  V30 3679 H 346.862 -2.35745 -4.44335 0
M  V30 3680 H 346.562 -4.09805 -4.2111 0
M  V30 3681 H 348.086 -3.55175 -4.96672 0
M  V30 3682 H 349.5 -4.8297 -3.08889 0
M  V30 3683 H 347.897 -5.42429 -2.56693 0
M  V30 3684 H 348.967 -4.64652 -1.38659 0
M  V30 3685 N 350.31 0.590341 -1.46126 0
M  V30 3686 C 351.559 1.34499 -1.50309 0
M  V30 3687 C 351.872 1.94977 -0.156021 0
M  V30 3688 O 353.078 2.71395 -0.0756037 0
M  V30 3689 C 351.534 2.43723 -2.64815 0
M  V30 3690 C 351.142 1.89582 -4.0591 0
M  V30 3691 C 352.886 3.20579 -2.78262 0
M  V30 3692 C 350.793 2.9639 -5.11769 0
M  V30 3693 H 349.723 0.505593 -0.559368 0
M  V30 3694 H 352.374 0.630848 -1.72315 0
M  V30 3695 H 350.756 3.17902 -2.36124 0
M  V30 3696 H 351.93 1.21997 -4.44357 0
M  V30 3697 H 350.245 1.25418 -3.97063 0
M  V30 3698 H 352.842 4.00276 -3.54519 0
M  V30 3699 H 353.185 3.72684 -1.85505 0
M  V30 3700 H 353.718 2.53505 -3.06562 0
M  V30 3701 H 350.457 2.49181 -6.06291 0
M  V30 3702 H 349.977 3.62487 -4.77873 0
M  V30 3703 H 351.656 3.60474 -5.37278 0
M  V30 3704 N 351.788 1.33704 0.83433 0
M  V30 3705 C 353.199 1.22813 1.4062 0
M  V30 3706 C 353.55 -0.151107 1.95617 0
M  V30 3707 O 352.675 -1.05092 1.89168 0
M  V30 3708 C 353.27 2.22355 2.55624 0
M  V30 3709 C 351.829 2.1529 3.08751 0
M  V30 3710 C 350.976 2.09589 1.8157 0
M  V30 3711 H 353.927 1.45236 0.639702 0
M  V30 3712 H 353.948 1.83391 3.33389 0
M  V30 3713 H 353.46 3.22728 2.15566 0
M  V30 3714 H 351.561 1.18235 3.53343 0
M  V30 3715 H 351.674 3.06038 3.68616 0
M  V30 3716 H 350.038 1.55134 2.02004 0
M  V30 3717 H 350.821 3.11777 1.43701 0
M  V30 3718 N 353.266 -1.05314 1.17247 0
M  V30 3719 C 354.491 -1.82509 0.985148 0
M  V30 3720 C 354.916 -1.82343 -0.461788 0
M  V30 3721 O 354.274 -1.23151 -1.33055 0
M  V30 3722 C 354.322 -3.26566 1.52929 0
M  V30 3723 O 353.426 -4.05666 0.742225 0
M  V30 3724 H 352.767 -0.564347 0.349869 0
M  V30 3725 H 355.297 -1.32718 1.55715 0
M  V30 3726 H 355.307 -3.77369 1.55103 0
M  V30 3727 H 353.982 -3.26001 2.58256 0
M  V30 3728 H 352.559 -3.64397 0.791794 0
M  V30 3729 N 354.744 -0.972509 -1.24016 0
M  V30 3730 C 355.993 -0.632603 -1.91523 0
M  V30 3731 C 356.306 0.836641 -1.76804 0
M  V30 3732 O 357.512 1.28728 -2.39043 0
M  V30 3733 C 355.968 -1.08082 -3.43287 0
M  V30 3734 C 355.576 -2.57386 -3.66683 0
M  V30 3735 C 357.32 -0.814288 -4.16617 0
M  V30 3736 C 355.227 -2.95915 -5.12043 0
M  V30 3737 H 354.157 -0.232898 -0.717129 0
M  V30 3738 H 356.808 -1.17936 -1.40582 0
M  V30 3739 H 355.19 -0.462339 -3.93292 0
M  V30 3740 H 356.364 -3.24405 -3.27258 0
M  V30 3741 H 354.679 -2.81701 -3.06649 0
M  V30 3742 H 357.276 -1.0781 -5.23718 0
M  V30 3743 H 357.619 0.24955 -4.15551 0
M  V30 3744 H 358.152 -1.39397 -3.72577 0
M  V30 3745 H 354.891 -4.0139 -5.18234 0
M  V30 3746 H 354.411 -2.33584 -5.52448 0
M  V30 3747 H 356.09 -2.86086 -5.80314 0
M  V30 3748 N 356.222 1.38976 -0.743202 0
M  V30 3749 C 357.633 1.83123 -0.363732 0
M  V30 3750 C 357.984 1.6205 1.10609 0
M  V30 3751 O 357.109 1.11606 1.854 0
M  V30 3752 C 357.704 3.32439 -0.653408 0
M  V30 3753 C 356.263 3.74974 -0.327338 0
M  V30 3754 C 355.41 2.61878 -0.911875 0
M  V30 3755 H 358.361 1.27852 -0.940191 0
M  V30 3756 H 358.382 3.80432 0.0720031 0
M  V30 3757 H 357.894 3.47745 -1.72323 0
M  V30 3758 H 355.995 3.65252 0.736314 0
M  V30 3759 H 356.108 4.72106 -0.815631 0
M  V30 3760 H 354.472 2.52448 -0.337944 0
M  V30 3761 H 355.255 2.79987 -1.98651 0
M  V30 3762 N 357.7 0.491464 1.49741 0
M  V30 3763 C 358.63 -0.28154 2.31796 0
M  V30 3764 C 359.611 -0.971473 1.3963 0
M  V30 3765 O 360.796 -0.964719 1.68543 0
M  V30 3766 C 357.926 -1.35203 3.19902 0
M  V30 3767 C 356.88 -0.782529 4.20786 0
M  V30 3768 C 356.206 -1.95283 4.97764 0
M  V30 3769 C 357.506 0.21999 5.21837 0
M  V30 3770 H 359.2 0.403355 2.96671 0
M  V30 3771 H 356.746 0.195425 1.42668 0
M  V30 3772 H 358.699 -1.90045 3.76113 0
M  V30 3773 H 357.423 -2.06598 2.52953 0
M  V30 3774 H 356.082 -0.255928 3.65706 0
M  V30 3775 H 355.73 -2.65423 4.2727 0
M  V30 3776 H 355.43 -1.57789 5.66018 0
M  V30 3777 H 356.954 -2.50577 5.56816 0
M  V30 3778 H 358.368 -0.23996 5.72798 0
M  V30 3779 H 356.765 0.51026 5.97927 0
M  V30 3780 H 357.835 1.13911 4.7133 0
M  V30 3781 N 359.178 -1.55987 0.224894 0
M  V30 3782 C 360.108 -2.23426 -0.678457 0
M  V30 3783 C 361.089 -1.20709 -1.19847 0
M  V30 3784 O 362.274 -1.49304 -1.24186 0
M  V30 3785 C 359.404 -2.91676 -1.88527 0
M  V30 3786 C 358.358 -4.00893 -1.49896 0
M  V30 3787 C 357.684 -4.56455 -2.78483 0
M  V30 3788 C 358.984 -5.17769 -0.686461 0
M  V30 3789 H 360.678 -2.99175 -0.116173 0
M  V30 3790 H 358.224 -1.43897 -0.054436 0
M  V30 3791 H 360.177 -3.37547 -2.5227 0
M  V30 3792 H 358.901 -2.1338 -2.47258 0
M  V30 3793 H 357.56 -3.55758 -0.884985 0
M  V30 3794 H 357.208 -3.74886 -3.35365 0
M  V30 3795 H 356.908 -5.30169 -2.53368 0
M  V30 3796 H 358.432 -5.05047 -3.43162 0
M  V30 3797 H 359.846 -5.60001 -1.22767 0
M  V30 3798 H 358.243 -5.97735 -0.532259 0
M  V30 3799 H 359.313 -4.83932 0.306196 0
M  V30 3800 N 360.656 0.0484629 -1.57525 0
M  V30 3801 C 361.586 1.0549 -2.08313 0
M  V30 3802 C 362.567 1.38929 -0.981463 0
M  V30 3803 O 363.752 1.48151 -1.25558 0
M  V30 3804 C 360.882 2.36162 -2.54646 0
M  V30 3805 C 359.836 2.17016 -3.68901 0
M  V30 3806 C 359.162 3.53278 -4.01371 0
M  V30 3807 C 360.462 1.57219 -4.98076 0
M  V30 3808 H 362.156 0.632195 -2.92649 0
M  V30 3809 H 359.702 0.302654 -1.40784 0
M  V30 3810 H 361.655 3.06882 -2.88793 0
M  V30 3811 H 360.379 2.80456 -1.67368 0
M  V30 3812 H 359.038 1.48733 -3.35073 0
M  V30 3813 H 358.686 3.95185 -3.11188 0
M  V30 3814 H 358.386 3.41299 -4.78318 0
M  V30 3815 H 359.91 4.25391 -4.38035 0
M  V30 3816 H 361.324 2.17832 -5.30304 0
M  V30 3817 H 359.721 1.55871 -5.79503 0
M  V30 3818 H 360.791 0.535956 -4.81929 0
M  V30 3819 N 362.134 1.5431 0.320358 0
M  V30 3820 C 363.064 1.86912 1.3995 0
M  V30 3821 C 364.045 0.726211 1.53819 0
M  V30 3822 O 365.23 0.980233 1.67646 0
M  V30 3823 C 362.36 2.09932 2.7667 0
M  V30 3824 C 361.314 3.25776 2.77586 0
M  V30 3825 C 360.64 3.34173 4.17412 0
M  V30 3826 C 361.94 4.6335 2.41048 0
M  V30 3827 H 363.634 2.77292 1.12914 0
M  V30 3828 H 361.18 1.33421 0.541738 0
M  V30 3829 H 363.133 2.31324 3.52232 0
M  V30 3830 H 361.857 1.16304 3.0519 0
M  V30 3831 H 360.516 3.04276 2.04479 0
M  V30 3832 H 360.164 2.38098 4.43078 0
M  V30 3833 H 359.864 4.12033 4.18931 0
M  V30 3834 H 361.388 3.57803 4.94782 0
M  V30 3835 H 362.802 4.84602 3.06324 0
M  V30 3836 H 361.199 5.43782 2.53813 0
M  V30 3837 H 362.269 4.65381 1.36193 0
M  V30 3838 N 363.613 -0.582584 1.46437 0
M  V30 3839 C 364.543 -1.70187 1.59871 0
M  V30 3840 C 365.524 -1.64066 0.449042 0
M  V30 3841 O 366.709 -1.82081 0.6753 0
M  V30 3842 C 363.839 -3.08827 1.58881 0
M  V30 3843 C 362.793 -3.29779 2.72819 0
M  V30 3844 C 362.119 -4.68947 2.5689 0
M  V30 3845 C 363.419 -3.17601 4.1464 0
M  V30 3846 H 365.113 -1.592 2.53566 0
M  V30 3847 H 362.659 -0.764472 1.22032 0
M  V30 3848 H 364.612 -3.86951 1.66873 0
M  V30 3849 H 363.336 -3.20713 0.617306 0
M  V30 3850 H 361.995 -2.54054 2.64296 0
M  V30 3851 H 361.643 -4.77599 1.57823 0
M  V30 3852 H 361.343 -4.83919 3.33312 0
M  V30 3853 H 362.867 -5.4924 2.66773 0
M  V30 3854 H 364.281 -3.8557 4.24274 0
M  V30 3855 H 362.678 -3.44094 4.9165 0
M  V30 3856 H 363.748 -2.14681 4.34788 0
M  V30 3857 N 365.091 -1.34144 -0.827227 0
M  V30 3858 C 366.337 -1.26446 -1.58554 0
M  V30 3859 C 366.67 0.1664 -1.93486 0
M  V30 3860 O 365.945 1.1107 -1.59667 0
M  V30 3861 C 366.228 -2.15111 -2.8879 0
M  V30 3862 C 366.081 -3.66712 -2.60465 0
M  V30 3863 C 367.4 -2.03311 -3.90324 0
M  V30 3864 H 364.519 -0.46067 -0.575284 0
M  V30 3865 H 367.161 -1.64356 -0.953269 0
M  V30 3866 H 365.311 -1.8291 -3.42748 0
M  V30 3867 H 366.983 -4.09259 -2.1285 0
M  V30 3868 H 365.226 -3.88014 -1.93978 0
M  V30 3869 H 365.897 -4.24112 -3.53317 0
M  V30 3870 H 368.373 -2.31574 -3.45706 0
M  V30 3871 H 367.249 -2.67582 -4.79261 0
M  V30 3872 H 367.51 -1.00879 -4.30437 0
M  V30 3873 N 366.569 1.04691 -1.17803 0
M  V30 3874 C 367.815 1.78045 -0.970969 0
M  V30 3875 C 368.148 1.87686 0.498751 0
M  V30 3876 O 367.423 1.38035 1.37027 0
M  V30 3877 C 367.706 3.2166 -1.61884 0
M  V30 3878 C 367.559 3.20001 -3.161 0
M  V30 3879 C 368.878 4.1962 -1.3269 0
M  V30 3880 H 365.997 0.64633 -0.354155 0
M  V30 3881 H 368.639 1.22333 -1.45378 0
M  V30 3882 H 366.789 3.69232 -1.20831 0
M  V30 3883 H 368.461 2.80467 -3.66246 0
M  V30 3884 H 366.704 2.58203 -3.48588 0
M  V30 3885 H 367.375 4.21386 -3.56564 0
M  V30 3886 H 369.851 3.80567 -1.68249 0
M  V30 3887 H 368.727 5.18339 -1.80599 0
M  V30 3888 H 368.988 4.414 -0.248622 0
M  V30 3889 N 368.047 0.979072 1.23499 0
M  V30 3890 C 369.275 0.665202 1.95915 0
M  V30 3891 C 369.69 -0.767571 1.72493 0
M  V30 3892 O 369.047 -1.51635 1.01554 0
M  V30 3893 C 369.098 0.944438 3.48945 0
M  V30 3894 O 368.819 2.3209 3.71572 0
M  V30 3895 C 370.32 0.646336 4.38563 0
M  V30 3896 H 367.54 0.247218 0.623798 0
M  V30 3897 H 370.084 1.31009 1.57025 0
M  V30 3898 H 368.239 0.345575 3.85856 0
M  V30 3899 H 368.653 2.40957 4.65876 0
M  V30 3900 H 370.127 0.892091 5.44744 0
M  V30 3901 H 370.604 -0.419575 4.37191 0
M  V30 3902 H 371.21 1.22562 4.07258 0
M  V30 3903 N 369.525 -1.3858 0.750561 0
M  V30 3904 C 370.753 -2.04471 0.316098 0
M  V30 3905 C 371.168 -1.56606 -1.05452 0
M  V30 3906 O 370.525 -0.737784 -1.66922 0
M  V30 3907 C 370.576 -3.60025 0.326275 0
M  V30 3908 O 370.297 -4.06133 1.6428 0
M  V30 3909 C 371.798 -4.43131 -0.122429 0
M  V30 3910 H 369.018 -0.65717 0.135528 0
M  V30 3911 H 371.562 -1.77329 1.01857 0
M  V30 3912 H 369.717 -3.86014 -0.327431 0
M  V30 3913 H 370.131 -5.00547 1.56693 0
M  V30 3914 H 371.605 -5.51963 -0.0641473 0
M  V30 3915 H 372.082 -4.23333 -1.16988 0
M  V30 3916 H 372.688 -4.22323 0.50229 0
M  V30 3917 N 371.003 -0.499398 -1.49478 0
M  V30 3918 C 372.249 0.0457576 -2.02748 0
M  V30 3919 C 372.582 1.36793 -1.37846 0
M  V30 3920 O 371.857 1.87596 -0.513601 0
M  V30 3921 C 372.14 0.199986 -3.59544 0
M  V30 3922 C 371.993 -1.1452 -4.34977 0
M  V30 3923 C 373.312 0.94137 -4.29914 0
M  V30 3924 H 370.431 0.0151552 -0.736844 0
M  V30 3925 H 373.073 -0.650498 -1.78518 0
M  V30 3926 H 371.223 0.793007 -3.8032 0
M  V30 3927 H 372.895 -1.77697 -4.25701 0
M  V30 3928 H 371.138 -1.73488 -3.97598 0
M  V30 3929 H 371.809 -0.990607 -5.43039 0
M  V30 3930 H 374.285 0.43844 -4.13784 0
M  V30 3931 H 373.161 1.01812 -5.39375 0
M  V30 3932 H 373.422 1.98471 -3.95046 0
M  V30 3933 N 372.481 1.55866 -0.233164 0
M  V30 3934 C 373.727 1.98897 0.395959 0
M  V30 3935 C 374.06 1.12091 1.58585 0
M  V30 3936 O 373.335 0.181182 1.93654 0
M  V30 3937 C 373.618 3.50658 0.819224 0
M  V30 3938 C 373.471 4.48233 -0.375109 0
M  V30 3939 C 374.79 4.07135 1.67121 0
M  V30 3940 H 371.909 0.723102 0.142451 0
M  V30 3941 H 374.551 1.87082 -0.331725 0
M  V30 3942 H 372.701 3.60857 1.43925 0
M  V30 3943 H 374.373 4.50031 -1.01341 0
M  V30 3944 H 372.616 4.21624 -1.02058 0
M  V30 3945 H 373.287 5.51988 -0.0358328 0
M  V30 3946 H 375.763 3.99952 1.14795 0
M  V30 3947 H 374.639 5.13615 1.93625 0
M  V30 3948 H 374.9 3.54736 2.63846 0
M  V30 3949 N 373.959 -0.0401083 1.57549 0
M  V30 3950 C 375.199 -0.738098 1.90608 0
M  V30 3951 C 375.563 -1.73107 0.830539 0
M  V30 3952 O 376.764 -2.4765 1.04513 0
M  V30 3953 C 375.035 -1.39985 3.28845 0
M  V30 3954 S 376.594 -2.12852 3.83718 0
M  V30 3955 H 373.412 -0.24477 0.667539 0
M  V30 3956 H 376.014 0.00693599 1.95499 0
M  V30 3957 H 374.718 -0.663775 4.04997 0
M  V30 3958 H 374.249 -2.18366 3.2723 0
M  V30 3959 H 376.264 -3.39842 3.61555 0
M  V30 3960 N 375.437 -1.54477 -0.31217 0
M  V30 3961 C 376.683 -1.74417 -1.04644 0
M  V30 3962 C 377.038 -0.517641 -1.85306 0
M  V30 3963 O 376.331 0.489973 -1.85229 0
M  V30 3964 C 376.525 -2.967 -1.99258 0
M  V30 3965 C 376.354 -4.31128 -1.27901 0
M  V30 3966 C 375.124 -4.95087 -1.01079 0
M  V30 3967 C 377.322 -5.09662 -0.689119 0
M  V30 3968 N 375.304 -6.13322 -0.266323 0
M  V30 3969 C 376.675 -6.19952 -0.0768523 0
M  V30 3970 C 378.73 -4.94355 -0.593061 0
M  V30 3971 C 377.433 -7.16604 0.622165 0
M  V30 3972 C 379.459 -5.91328 0.0922792 0
M  V30 3973 C 378.821 -7.00978 0.693443 0
M  V30 3974 H 374.92 -0.69094 -0.366231 0
M  V30 3975 H 377.504 -1.91946 -0.326319 0
M  V30 3976 H 375.675 -2.80616 -2.68532 0
M  V30 3977 H 377.407 -3.05216 -2.65755 0
M  V30 3978 H 374.162 -4.55235 -1.30607 0
M  V30 3979 H 374.586 -6.76937 0.0920973 0
M  V30 3980 H 379.228 -4.09719 -1.04355 0
M  V30 3981 H 376.946 -8.0079 1.08445 0
M  V30 3982 H 380.532 -5.81562 0.166396 0
M  V30 3983 H 379.412 -7.74725 1.21533 0
M  V30 3984 N 376.915 0.57481 -1.46744 0
M  V30 3985 C 378.161 1.3347 -1.52688 0
M  V30 3986 C 378.494 1.93353 -0.181229 0
M  V30 3987 O 377.769 1.76912 0.808237 0
M  V30 3988 C 378.052 2.45811 -2.63152 0
M  V30 3989 C 377.905 1.90912 -4.07275 0
M  V30 3990 C 379.224 3.47822 -2.69644 0
M  V30 3991 H 376.343 0.483935 -0.555856 0
M  V30 3992 H 378.985 0.644968 -1.78718 0
M  V30 3993 H 377.135 3.04646 -2.41088 0
M  V30 3994 H 378.807 1.36473 -4.4065 0
M  V30 3995 H 377.05 1.21691 -4.16382 0
M  V30 3996 H 377.721 2.72042 -4.80309 0
M  V30 3997 H 380.197 2.9888 -2.895 0
M  V30 3998 H 379.073 4.23876 -3.48742 0
M  V30 3999 H 379.334 4.05555 -1.76005 0
M  V30 4000 N 378.394 1.34581 0.820102 0
M  V30 4001 C 379.64 1.28294 1.57836 0
M  V30 4002 C 379.995 -0.145099 1.91852 0
M  V30 4003 O 379.288 -1.09209 1.57429 0
M  V30 4004 C 379.482 2.10997 2.8847 0
M  V30 4005 C 379.311 3.61698 2.67216 0
M  V30 4006 C 378.081 4.3097 2.63805 0
M  V30 4007 C 380.279 4.55638 2.38534 0
M  V30 4008 N 378.261 5.67502 2.34126 0
M  V30 4009 C 379.632 5.80194 2.18574 0
M  V30 4010 C 381.687 4.44523 2.24285 0
M  V30 4011 C 380.39 6.94886 1.8581 0
M  V30 4012 C 382.416 5.5905 1.92916 0
M  V30 4013 C 381.778 6.82627 1.73782 0
M  V30 4014 H 377.877 0.524697 0.579842 0
M  V30 4015 H 380.461 1.69323 0.961139 0
M  V30 4016 H 378.632 1.7226 3.48111 0
M  V30 4017 H 380.364 1.96333 3.53886 0
M  V30 4018 H 377.119 3.83438 2.77978 0
M  V30 4019 H 377.543 6.39525 2.22118 0
M  V30 4020 H 382.185 3.49599 2.37782 0
M  V30 4021 H 379.903 7.89789 1.7105 0
M  V30 4022 H 383.489 5.52396 1.82619 0
M  V30 4023 H 382.369 7.69748 1.49861 0
M  V30 4024 N 379.872 -1.04064 1.18357 0
M  V30 4025 C 381.121 -1.76662 0.973313 0
M  V30 4026 C 381.434 -1.89154 -0.497991 0
M  V30 4027 O 382.64 -2.58606 -0.826762 0
M  V30 4028 C 381.096 -3.17624 1.69242 0
M  V30 4029 C 380.704 -3.13225 3.20303 0
M  V30 4030 C 382.448 -3.946 1.56497 0
M  V30 4031 C 380.355 -4.49046 3.84853 0
M  V30 4032 H 379.285 -0.662214 0.36054 0
M  V30 4033 H 381.936 -1.16553 1.41731 0
M  V30 4034 H 380.318 -3.78129 1.1762 0
M  V30 4035 H 381.492 -2.62172 3.78949 0
M  V30 4036 H 379.807 -2.49749 3.33189 0
M  V30 4037 H 382.404 -4.95042 2.02084 0
M  V30 4038 H 382.747 -4.13074 0.517243 0
M  V30 4039 H 383.28 -3.4067 2.05399 0
M  V30 4040 H 380.019 -4.35777 4.89672 0
M  V30 4041 H 379.539 -5.00203 3.30994 0
M  V30 4042 H 381.218 -5.17961 3.87718 0
M  V30 4043 N 381.35 -0.985608 -1.22978 0
M  V30 4044 C 382.59 -0.665487 -1.93263 0
M  V30 4045 C 382.954 0.78706 -1.75127 0
M  V30 4046 O 384.155 1.21826 -2.39608 0
M  V30 4047 C 382.426 -1.0515 -3.41582 0
M  V30 4048 S 383.985 -0.848637 -4.30516 0
M  V30 4049 H 380.803 -0.24355 -0.667985 0
M  V30 4050 H 383.405 -1.26635 -1.48942 0
M  V30 4051 H 382.109 -2.10517 -3.52293 0
M  V30 4052 H 381.64 -0.442134 -3.90908 0
M  V30 4053 H 383.655 0.264717 -4.95493 0
M  V30 4054 N 382.828 1.3818 -0.7579 0
M  V30 4055 C 384.244 1.5353 -0.435972 0
M  V30 4056 C 384.444 1.71961 1.05032 0
M  V30 4057 O 383.5 1.73307 1.83633 0
M  V30 4058 C 384.813 2.73989 -1.23898 0
M  V30 4059 C 386.361 2.87841 -1.22949 0
M  V30 4060 C 386.836 4.11266 -2.01554 0
M  V30 4061 N 388.327 4.18352 -1.98837 0
M  V30 4062 C 389.062 5.12856 -2.5645 0
M  V30 4063 N 388.558 6.13005 -3.22794 0
M  V30 4064 N 390.351 5.05238 -2.46356 0
M  V30 4065 H 382.502 1.24467 -1.7211 0
M  V30 4066 H 384.765 0.604982 -0.729864 0
M  V30 4067 H 384.471 2.66789 -2.29165 0
M  V30 4068 H 384.345 3.67294 -0.858764 0
M  V30 4069 H 386.732 2.9452 -0.184854 0
M  V30 4070 H 386.813 1.95534 -1.64924 0
M  V30 4071 H 386.457 4.05349 -3.06031 0
M  V30 4072 H 386.387 5.02661 -1.5697 0
M  V30 4073 H 388.878 3.46628 -1.50524 0
M  V30 4074 H 389.191 6.81619 -3.64165 0
M  V30 4075 H 387.536 6.13325 -3.2689 0
M  V30 4076 H 390.727 4.25938 -1.9415 0
M  V30 4077 H 390.9 5.78707 -2.91552 0
M  V30 4078 N 384.306 0.507319 1.49211 0
M  V30 4079 C 385.253 -0.267728 2.29242 0
M  V30 4080 C 386.223 -0.954609 1.35928 0
M  V30 4081 O 387.408 -0.960046 1.64887 0
M  V30 4082 C 384.548 -1.32243 3.18756 0
M  V30 4083 C 383.661 -0.64669 4.27132 0
M  V30 4084 C 382.796 -1.68238 5.03855 0
M  V30 4085 C 381.835 -0.98885 6.0406 0
M  V30 4086 N 380.972 -1.96903 6.73924 0
M  V30 4087 H 385.812 0.420968 2.95012 0
M  V30 4088 H 383.349 0.219443 1.45454 0
M  V30 4089 H 385.307 -1.94599 3.69036 0
M  V30 4090 H 383.937 -1.97981 2.54958 0
M  V30 4091 H 382.989 0.0902926 3.80293 0
M  V30 4092 H 384.301 -0.101058 4.98698 0
M  V30 4093 H 383.455 -2.38081 5.58034 0
M  V30 4094 H 382.194 -2.26187 4.32077 0
M  V30 4095 H 381.199 -0.276222 5.49106 0
M  V30 4096 H 382.424 -0.415767 6.77826 0
M  V30 4097 H 380.37 -2.53803 6.04913 0
M  V30 4098 H 380.287 -1.47423 7.41487 0
M  V30 4099 H 381.555 -2.66015 7.32705 0
M  V30 4100 N 385.784 -1.5574 0.241426 0
M  V30 4101 C 387.2 -1.59196 -0.113548 0
M  V30 4102 C 387.4 -1.25852 -1.57364 0
M  V30 4103 O 386.456 -1.00322 -2.31715 0
M  V30 4104 C 387.769 -2.99814 0.230695 0
M  V30 4105 C 389.317 -3.12513 0.174547 0
M  V30 4106 C 389.792 -4.55342 0.492744 0
M  V30 4107 N 391.283 -4.61076 0.443043 0
M  V30 4108 C 392.018 -5.6956 0.662484 0
M  V30 4109 N 391.514 -6.86328 0.944761 0
M  V30 4110 N 393.307 -5.58957 0.593564 0
M  V30 4111 H 385.458 -1.75685 1.19368 0
M  V30 4112 H 387.721 -0.81756 0.479896 0
M  V30 4113 H 387.427 -3.28932 1.24485 0
M  V30 4114 H 387.301 -3.74568 -0.444833 0
M  V30 4115 H 389.688 -2.83179 -0.830277 0
M  V30 4116 H 389.769 -2.40045 0.883845 0
M  V30 4117 H 389.413 -4.85396 1.4951 0
M  V30 4118 H 389.343 -5.26062 -0.23797 0
M  V30 4119 H 391.834 -3.77179 0.233374 0
M  V30 4120 H 392.147 -7.64935 1.09977 0
M  V30 4121 H 390.492 -6.88025 0.982175 0
M  V30 4122 H 393.683 -4.66611 0.373123 0
M  V30 4123 H 393.856 -6.43433 0.767981 0
M  V30 4124 N 387.262 0.0317525 -1.57568 0
M  V30 4125 C 388.209 1.0332 -2.06382 0
M  V30 4126 C 389.179 1.36082 -0.952414 0
M  V30 4127 O 390.364 1.46466 -1.2228 0
M  V30 4128 C 387.504 2.32989 -2.54578 0
M  V30 4129 C 386.617 2.0641 -3.79498 0
M  V30 4130 C 385.752 3.2993 -4.16317 0
M  V30 4131 C 384.791 2.98893 -5.34162 0
M  V30 4132 N 383.928 4.14857 -5.66426 0
M  V30 4133 H 388.768 0.609982 -2.9169 0
M  V30 4134 H 386.305 0.289573 -1.44222 0
M  V30 4135 H 388.263 3.0875 -2.80587 0
M  V30 4136 H 386.893 2.73039 -1.7219 0
M  V30 4137 H 385.945 1.21158 -3.6059 0
M  V30 4138 H 387.257 1.79513 -4.65378 0
M  V30 4139 H 386.411 4.1406 -4.4344 0
M  V30 4140 H 385.15 3.59938 -3.29083 0
M  V30 4141 H 384.155 2.13164 -5.06795 0
M  V30 4142 H 385.38 2.70165 -6.23047 0
M  V30 4143 H 383.326 4.44821 -4.82151 0
M  V30 4144 H 383.243 3.91374 -6.4681 0
M  V30 4145 H 384.511 4.99868 -5.98124 0
M  V30 4146 N 388.74 1.54641 0.303973 0
M  V30 4147 C 390.156 1.45788 0.649463 0
M  V30 4148 C 390.356 0.64666 1.90842 0
M  V30 4149 O 389.412 0.153183 2.52035 0
M  V30 4150 C 390.725 2.89718 0.805227 0
M  V30 4151 C 392.273 2.99742 0.901305 0
M  V30 4152 C 392.748 4.44863 1.08909 0
M  V30 4153 N 394.239 4.48559 1.15536 0
M  V30 4154 C 394.974 5.58026 1.3189 0
M  V30 4155 N 394.47 6.77422 1.45161 0
M  V30 4156 N 396.263 5.45708 1.34755 0
M  V30 4157 H 388.414 2.05854 -0.523237 0
M  V30 4158 H 390.677 0.932186 -0.172431 0
M  V30 4159 H 390.383 3.51666 -0.0489108 0
M  V30 4160 H 390.257 3.36964 1.69513 0
M  V30 4161 H 392.644 2.3791 1.74593 0
M  V30 4162 H 392.725 2.55797 -0.0125531 0
M  V30 4163 H 392.369 5.07288 0.249241 0
M  V30 4164 H 392.299 4.86436 2.01713 0
M  V30 4165 H 394.79 3.6254 1.06646 0
M  V30 4166 H 395.103 7.56604 1.57387 0
M  V30 4167 H 393.448 6.80292 1.42223 0
M  V30 4168 H 396.639 4.51378 1.23996 0
M  V30 4169 H 396.812 6.3107 1.47157 0
M  V30 4170 N 390.218 -0.567019 1.47046 0
M  V30 4171 C 391.128 -1.70247 1.6141 0
M  V30 4172 C 392.144 -1.66746 0.497157 0
M  V30 4173 O 393.32 -1.86371 0.763389 0
M  V30 4174 C 390.385 -3.06756 1.61561 0
M  V30 4175 C 389.446 -3.21399 2.84607 0
M  V30 4176 C 388.679 -4.51396 2.84741 0
M  V30 4177 O 388.902 -5.36255 1.94388 0
M  V30 4178 O 387.836 -4.69621 3.76483 0
M  V30 4179 H 391.662 -1.61073 2.57467 0
M  V30 4180 H 389.247 -0.735894 1.30019 0
M  V30 4181 H 391.129 -3.8801 1.64396 0
M  V30 4182 H 389.804 -3.16333 0.686684 0
M  V30 4183 H 388.711 -2.39579 2.8732 0
M  V30 4184 H 390.044 -3.16721 3.76761 0
M  V30 4185 N 391.696 -1.35014 -0.812953 0
M  V30 4186 C 392.628 -1.23262 -1.93233 0
M  V30 4187 C 393.641 -0.157371 -1.62038 0
M  V30 4188 O 394.83 -0.410096 -1.73725 0
M  V30 4189 C 391.93 -0.87392 -3.27438 0
M  V30 4190 C 391.103 -2.04622 -3.86586 0
M  V30 4191 C 390.162 -1.66432 -4.99186 0
M  V30 4192 O 389.188 -2.38222 -5.16951 0
M  V30 4193 N 390.39 -0.584248 -5.77552 0
M  V30 4194 H 393.155 -2.19699 -2.03844 0
M  V30 4195 H 390.716 -1.281 -0.99005 0
M  V30 4196 H 392.708 -0.600039 -4.00227 0
M  V30 4197 H 391.278 0.00057392 -3.126 0
M  V30 4198 H 390.498 -2.48427 -3.06068 0
M  V30 4199 H 391.786 -2.82999 -4.22835 0
M  V30 4200 H 391.184 0.0123526 -5.65699 0
M  V30 4201 H 389.741 -0.37013 -6.50748 0
M  V30 4202 N 393.175 1.03435 -1.18907 0
M  V30 4203 C 394.586 1.58195 -0.991523 0
M  V30 4204 C 394.937 1.90801 0.457081 0
M  V30 4205 O 394.062 1.70272 1.33553 0
M  V30 4206 C 394.657 2.87432 -1.79355 0
M  V30 4207 C 393.216 3.38785 -1.64017 0
M  V30 4208 C 392.363 2.12292 -1.78402 0
M  V30 4209 H 395.314 0.860299 -1.33359 0
M  V30 4210 H 395.335 3.58096 -1.28638 0
M  V30 4211 H 394.847 2.63669 -2.84781 0
M  V30 4212 H 392.948 3.67547 -0.611536 0
M  V30 4213 H 393.061 4.12186 -2.44212 0
M  V30 4214 H 391.425 2.23901 -1.2141 0
M  V30 4215 H 392.208 1.90977 -2.85277 0
M  V30 4216 N 394.653 0.992116 1.22453 0
M  V30 4217 C 395.93 0.583508 1.86694 0
M  V30 4218 C 396.31 -0.9392 1.89056 0
M  V30 4219 O 395.658 -1.82081 1.38053 0
M  V30 4220 C 395.868 1.20304 3.2761 0
M  V30 4221 C 397.216 1.30308 4.0411 0
M  V30 4222 O 398.24 1.15737 3.36873 0
M  V30 4223 O 397.099 1.53615 5.24466 0
M  V30 4224 H 394.193 0.198129 0.802916 0
M  V30 4225 H 396.739 1.08794 1.30238 0
M  V30 4226 H 395.511 2.24461 3.2052 0
M  V30 4227 H 395.134 0.684144 3.9167 0
M  V30 4228 N 396.131 -1.37776 0.765217 0
M  V30 4229 C 397.542 -1.82521 0.392819 0
M  V30 4230 C 397.893 -1.63789 -1.08017 0
M  V30 4231 O 397.018 -1.14542 -1.83601 0
M  V30 4232 C 397.613 -3.31358 0.706214 0
M  V30 4233 C 396.172 -3.74406 0.386952 0
M  V30 4234 C 395.319 -2.60394 0.953422 0
M  V30 4235 H 398.27 -1.2634 0.960412 0
M  V30 4236 H 398.291 -3.80498 -0.0114706 0
M  V30 4237 H 397.803 -3.44959 1.77833 0
M  V30 4238 H 395.904 -3.66377 -0.678112 0
M  V30 4239 H 396.017 -4.70749 0.890636 0
M  V30 4240 H 394.381 -2.51878 0.378064 0
M  V30 4241 H 395.164 -2.76791 2.03081 0
M  V30 4242 N 397.609 -0.515225 -1.4894 0
M  V30 4243 C 398.834 0.022727 -2.07388 0
M  V30 4244 C 399.259 1.2876 -1.37122 0
M  V30 4245 O 398.617 1.76067 -0.432431 0
M  V30 4246 C 398.665 0.244869 -3.59768 0
M  V30 4247 O 397.769 1.31667 -3.90817 0
M  V30 4248 H 397.11 -0.0325506 -0.663202 0
M  V30 4249 H 399.64 -0.718918 -1.91553 0
M  V30 4250 H 399.65 0.47205 -4.0526 0
M  V30 4251 H 398.325 -0.679194 -4.10317 0
M  V30 4252 H 396.902 1.07331 -3.5712 0
M  V30 4253 N 399.087 1.5561 -0.249682 0
M  V30 4254 C 400.315 2.03411 0.378352 0
M  V30 4255 C 400.73 1.12886 1.51335 0
M  V30 4256 O 400.087 0.143833 1.81932 0
M  V30 4257 C 400.138 3.50537 0.88351 0
M  V30 4258 O 399.859 4.37614 -0.20626 0
M  V30 4259 C 401.36 4.14113 1.58195 0
M  V30 4260 H 398.58 0.664994 0.08958 0
M  V30 4261 H 401.124 2.01044 -0.374357 0
M  V30 4262 H 399.279 3.5343 1.58639 0
M  V30 4263 H 399.693 5.24199 0.177782 0
M  V30 4264 H 401.167 5.18741 1.8871 0
M  V30 4265 H 401.644 3.60767 2.50487 0
M  V30 4266 H 402.25 4.15151 0.923573 0
M  V30 4267 N 400.565 -0.0233959 1.57583 0
M  V30 4268 C 401.512 -1.02224 2.06927 0
M  V30 4269 C 402.482 -1.35575 0.959617 0
M  V30 4270 O 403.667 -1.45815 1.23055 0
M  V30 4271 C 400.807 -2.31636 2.5581 0
M  V30 4272 C 399.92 -2.04394 3.80588 0
M  V30 4273 C 399.055 -3.27717 4.18061 0
M  V30 4274 C 398.094 -2.96056 5.3574 0
M  V30 4275 N 397.231 -4.11847 5.68618 0
M  V30 4276 H 402.071 -0.594504 2.9201 0
M  V30 4277 H 399.608 -0.281921 1.44373 0
M  V30 4278 H 401.566 -3.07258 2.82221 0
M  V30 4279 H 400.196 -2.72122 1.73636 0
M  V30 4280 H 399.248 -1.19244 3.61227 0
M  V30 4281 H 400.56 -1.77042 4.66323 0
M  V30 4282 H 399.714 -4.11702 4.4563 0
M  V30 4283 H 398.453 -3.58188 3.30988 0
M  V30 4284 H 397.458 -2.10474 5.07918 0
M  V30 4285 H 398.683 -2.66857 6.24471 0
M  V30 4286 H 396.629 -4.42258 4.84504 0
M  V30 4287 H 396.546 -3.87938 6.48876 0
M  V30 4288 H 397.814 -4.96689 6.00766 0
M  V30 4289 N 402.043 -1.548 -0.295768 0
M  V30 4290 C 402.99 -1.86113 -1.36494 0
M  V30 4291 C 403.96 -0.7105 -1.50137 0
M  V30 4292 O 405.145 -0.959626 -1.64912 0
M  V30 4293 C 402.285 -2.11861 -2.72413 0
M  V30 4294 C 401.398 -3.39471 -2.67177 0
M  V30 4295 C 400.533 -3.55035 -3.95125 0
M  V30 4296 C 399.572 -4.76418 -3.84308 0
M  V30 4297 N 398.709 -4.8876 -5.04042 0
M  V30 4298 H 403.549 -2.77314 -1.09091 0
M  V30 4299 H 401.086 -1.37315 -0.52753 0
M  V30 4300 H 403.044 -2.24786 -3.51464 0
M  V30 4301 H 401.674 -1.2392 -2.98066 0
M  V30 4302 H 400.726 -3.35139 -1.79962 0
M  V30 4303 H 402.038 -4.28646 -2.55076 0
M  V30 4304 H 401.192 -3.67653 -4.82614 0
M  V30 4305 H 399.931 -2.64002 -4.10066 0
M  V30 4306 H 398.936 -4.63827 -2.95202 0
M  V30 4307 H 400.161 -5.68863 -3.70906 0
M  V30 4308 H 398.107 -4.00652 -5.19436 0
M  V30 4309 H 398.024 -5.71945 -4.94384 0
M  V30 4310 H 399.292 -5.0574 -5.93167 0
M  V30 4311 N 403.521 0.559213 -1.47345 0
M  V30 4312 C 404.453 1.68161 -1.55738 0
M  V30 4313 C 405.466 1.56636 -0.443744 0
M  V30 4314 O 406.655 1.6363 -0.713258 0
M  V30 4315 C 403.755 3.06611 -1.4437 0
M  V30 4316 C 402.928 3.4391 -2.70268 0
M  V30 4317 C 401.987 4.61515 -2.52765 0
M  V30 4318 O 401.013 4.66197 -3.26572 0
M  V30 4319 N 402.215 5.57883 -1.6046 0
M  V30 4320 H 404.98 1.61408 -2.52522 0
M  V30 4321 H 402.541 0.7458 -1.43699 0
M  V30 4322 H 404.533 3.83117 -1.30398 0
M  V30 4323 H 403.103 3.07602 -0.556766 0
M  V30 4324 H 402.323 2.56873 -2.99015 0
M  V30 4325 H 403.611 3.65605 -3.53851 0
M  V30 4326 H 403.009 5.56855 -0.996422 0
M  V30 4327 H 401.566 6.33723 -1.52441 0
M  V30 4328 N 404.999 1.35443 0.805782 0
M  V30 4329 C 405.949 1.24972 1.90699 0
M  V30 4330 C 406.933 0.144806 1.60247 0
M  V30 4331 O 408.125 0.376102 1.72958 0
M  V30 4332 C 405.254 1.02475 3.27649 0
M  V30 4333 C 404.34 2.17361 3.64164 0
M  V30 4334 N 404.731 3.42591 3.72109 0
M  V30 4335 C 403.029 2.08765 3.94123 0
M  V30 4336 C 403.73 4.18144 4.04389 0
M  V30 4337 N 402.706 3.4691 4.18515 0
M  V30 4338 H 406.508 2.19852 1.95044 0
M  V30 4339 H 404.022 1.27928 1.00041 0
M  V30 4340 H 406.019 0.930617 4.06381 0
M  V30 4341 H 404.679 0.0848009 3.24589 0
M  V30 4342 H 405.69 3.76932 3.55166 0
M  V30 4343 H 402.367 1.22629 3.99084 0
M  V30 4344 H 403.757 5.26367 4.17597 0
M  V30 4345 N 406.477 -1.02803 1.19454 0
M  V30 4346 C 407.705 -1.79841 1.02297 0
M  V30 4347 C 408.12 -1.83879 -0.428259 0
M  V30 4348 O 407.477 -1.28345 -1.29745 0
M  V30 4349 C 407.528 -3.24852 1.58598 0
M  V30 4350 O 407.249 -3.21097 2.98041 0
M  V30 4351 C 408.75 -4.18485 1.46236 0
M  V30 4352 H 405.97 -0.565936 0.360496 0
M  V30 4353 H 408.514 -1.2948 1.58288 0
M  V30 4354 H 406.669 -3.72401 1.06753 0
M  V30 4355 H 407.083 -4.12033 3.24545 0
M  V30 4356 H 408.557 -5.18121 1.90407 0
M  V30 4357 H 409.034 -4.37254 0.41301 0
M  V30 4358 H 409.64 -3.76811 1.97215 0
M  V30 4359 N 407.956 -0.998596 -1.21925 0
M  V30 4360 C 409.205 -0.673085 -1.90138 0
M  V30 4361 C 409.518 0.79895 -1.78539 0
M  V30 4362 O 410.724 1.23628 -2.4172 0
M  V30 4363 C 409.18 -1.15339 -3.40918 0
M  V30 4364 C 408.788 -2.65106 -3.61141 0
M  V30 4365 C 410.532 -0.902476 -4.14796 0
M  V30 4366 C 408.439 -3.0671 -5.05651 0
M  V30 4367 H 407.369 -0.248057 -0.712028 0
M  V30 4368 H 410.02 -1.20891 -1.38049 0
M  V30 4369 H 408.402 -0.545658 -3.92223 0
M  V30 4370 H 409.576 -3.31274 -3.20304 0
M  V30 4371 H 407.891 -2.88142 -3.00605 0
M  V30 4372 H 410.488 -1.18895 -5.21314 0
M  V30 4373 H 410.831 0.161349 -4.15987 0
M  V30 4374 H 411.364 -1.47269 -3.69536 0
M  V30 4375 H 408.103 -4.12292 -5.09603 0
M  V30 4376 H 407.623 -2.45249 -5.47369 0
M  V30 4377 H 409.302 -2.9833 -5.74115 0
M  V30 4378 N 409.434 1.37368 -0.772513 0
M  V30 4379 C 410.68 2.00423 -0.3467 0
M  V30 4380 C 411.035 1.60224 1.06518 0
M  V30 4381 O 410.328 0.838712 1.72268 0
M  V30 4382 C 410.522 3.54817 -0.428876 0
M  V30 4383 C 410.351 4.10011 -1.84719 0
M  V30 4384 C 409.121 4.40927 -2.46803 0
M  V30 4385 C 411.319 4.30955 -2.80681 0
M  V30 4386 N 409.301 4.8184 -3.80399 0
M  V30 4387 C 410.672 4.74486 -3.99078 0
M  V30 4388 C 412.727 4.1309 -2.77958 0
M  V30 4389 C 411.43 5.02023 -5.15136 0
M  V30 4390 C 413.456 4.41764 -3.9319 0
M  V30 4391 C 412.818 4.85535 -5.10328 0
M  V30 4392 H 408.917 0.762413 -0.173927 0
M  V30 4393 H 411.501 1.66666 -1.00651 0
M  V30 4394 H 409.672 3.87881 0.200757 0
M  V30 4395 H 411.404 4.04696 0.0190668 0
M  V30 4396 H 408.159 4.30033 -1.98415 0
M  V30 4397 H 408.583 5.06604 -4.49089 0
M  V30 4398 H 413.225 3.7842 -1.88568 0
M  V30 4399 H 410.943 5.35582 -6.05126 0
M  V30 4400 H 414.529 4.29528 -3.92425 0
M  V30 4401 H 413.409 5.07296 -5.98013 0
M  V30 4402 N 410.912 0.523116 1.48665 0
M  V30 4403 C 412.323 0.0808997 1.86525 0
M  V30 4404 C 412.674 -1.33975 1.43336 0
M  V30 4405 O 411.799 -2.00221 0.821009 0
M  V30 4406 C 412.394 0.140037 3.3851 0
M  V30 4407 C 410.953 -0.246948 3.75589 0
M  V30 4408 C 410.1 0.502845 2.72703 0
M  V30 4409 H 413.051 0.734736 1.40667 0
M  V30 4410 H 413.072 -0.649945 3.74908 0
M  V30 4411 H 412.584 1.17412 3.69914 0
M  V30 4412 H 410.685 -1.28343 3.49798 0
M  V30 4413 H 410.798 0.0878859 4.79019 0
M  V30 4414 H 409.162 -0.0500581 2.54651 0
M  V30 4415 H 409.945 1.53743 3.0695 0
M  V30 4416 N 412.39 -1.55475 0.257931 0
M  V30 4417 C 413.615 -2.04064 -0.370488 0
M  V30 4418 C 414.04 -1.13565 -1.49948 0
M  V30 4419 O 413.398 -0.130781 -1.80828 0
M  V30 4420 C 413.446 -3.50554 -0.845237 0
M  V30 4421 O 412.55 -3.63173 -1.95394 0
M  V30 4422 H 411.891 -0.659257 -0.0792243 0
M  V30 4423 H 414.421 -2.00903 0.387212 0
M  V30 4424 H 414.431 -3.91588 -1.14555 0
M  V30 4425 H 413.106 -4.15896 -0.0191259 0
M  V30 4426 H 411.683 -3.34039 -1.65748 0
M  V30 4427 N 413.868 0.0150385 -1.57593 0
M  V30 4428 C 415.279 0.559832 -1.78109 0
M  V30 4429 C 415.63 1.74814 -0.890756 0
M  V30 4430 O 414.755 2.16216 -0.0892482 0
M  V30 4431 C 415.35 1.02238 -3.23006 0
M  V30 4432 C 413.909 1.51258 -3.44671 0
M  V30 4433 C 413.056 0.456955 -2.73509 0
M  V30 4434 H 416.007 -0.211169 -1.57289 0
M  V30 4435 H 416.028 1.88912 -3.30292 0
M  V30 4436 H 415.54 0.157302 -3.87781 0
M  V30 4437 H 413.641 2.39905 -2.8509 0
M  V30 4438 H 413.754 1.55042 -4.5332 0
M  V30 4439 H 412.118 0.915196 -2.37689 0
M  V30 4440 H 412.901 -0.398896 -3.40975 0
M  V30 4441 N 415.346 1.54954 0.287554 0
M  V30 4442 C 416.296 1.8322 1.357 0
M  V30 4443 C 417.28 0.690152 1.45347 0
M  V30 4444 O 418.472 0.951137 1.49273 0
M  V30 4445 C 415.601 2.09481 2.71979 0
M  V30 4446 C 414.687 3.29906 2.66502 0
M  V30 4447 N 415.078 4.50154 2.30641 0
M  V30 4448 C 413.376 3.32203 2.97585 0
M  V30 4449 C 414.077 5.32209 2.34794 0
M  V30 4450 N 413.053 4.70258 2.72688 0
M  V30 4451 H 416.855 2.73746 1.0696 0
M  V30 4452 H 414.369 1.54635 0.496167 0
M  V30 4453 H 416.366 2.27882 3.49107 0
M  V30 4454 H 415.026 1.2023 3.0162 0
M  V30 4455 H 416.037 4.76515 2.02865 0
M  V30 4456 H 412.714 2.53101 3.32034 0
M  V30 4457 H 414.104 6.38321 2.09753 0
M  V30 4458 N 416.824 -0.551391 1.4764 0
M  V30 4459 C 417.756 -1.67333 1.56628 0
M  V30 4460 C 418.769 -1.56398 0.452045 0
M  V30 4461 O 419.958 -1.6325 0.721926 0
M  V30 4462 C 417.058 -3.05841 1.45994 0
M  V30 4463 C 416.231 -3.42472 2.72088 0
M  V30 4464 C 415.29 -4.60168 2.55209 0
M  V30 4465 O 414.316 -4.64458 3.2904 0
M  V30 4466 N 415.518 -5.57024 1.63416 0
M  V30 4467 H 418.283 -1.60066 2.53375 0
M  V30 4468 H 415.844 -0.738169 1.44093 0
M  V30 4469 H 417.836 -3.8242 1.32428 0
M  V30 4470 H 416.406 -3.07302 0.573071 0
M  V30 4471 H 415.626 -2.55284 3.00373 0
M  V30 4472 H 416.914 -3.63723 3.55785 0
M  V30 4473 H 416.312 -5.56319 1.02594 0
M  V30 4474 H 414.869 -6.32906 1.558 0
M  V30 4475 N 418.302 -1.35869 -0.798587 0
M  V30 4476 C 419.55 -1.29332 -1.55298 0
M  V30 4477 C 419.871 0.129729 -1.94568 0
M  V30 4478 O 419.141 1.06796 -1.6423 0
M  V30 4479 H 417.721 -0.475737 -0.57592 0
M  V30 4480 H 420.383 -1.70062 -0.952093 0
M  V30 4481 H 419.479 -1.91458 -2.46476 0
M  V30 4482 N 419.78 1.02168 -1.19998 0
M  V30 4483 C 420.728 2.12717 -0.940967 0
M  V30 4484 C 421.722 1.69069 0.105841 0
M  V30 4485 O 422.928 1.79946 -0.0440583 0
M  V30 4486 H 419.303 0.695108 -0.28693 0
M  V30 4487 H 421.274 2.3175 -1.87975 0
M  V30 4488 C 420.023 3.44027 -0.504049 0
M  V30 4489 H 419.346 3.78036 -1.30112 0
M  V30 4490 H 420.786 4.22452 -0.361991 0
M  V30 4491 C 419.245 3.27678 0.782878 0
M  V30 4492 O 419.775 3.56949 1.84256 0
M  V30 4493 N 417.981 2.80943 0.742921 0
M  V30 4494 H 417.528 2.57322 -0.119687 0
M  V30 4495 H 417.486 2.70385 1.60435 0
M  V30 4496 N 421.258 1.00505 1.21394 0
M  V30 4497 C 422.483 0.706367 1.95001 0
M  V30 4498 C 422.908 -0.72463 1.73582 0
M  V30 4499 O 422.266 -1.49702 1.0227 0
M  V30 4500 C 422.314 1.03299 3.45487 0
M  V30 4501 O 421.418 0.138275 4.12168 0
M  V30 4502 H 420.759 0.263175 0.609619 0
M  V30 4503 H 423.289 1.34531 1.54151 0
M  V30 4504 H 423.299 0.979872 3.96059 0
M  V30 4505 H 421.974 2.07567 3.60401 0
M  V30 4506 H 420.551 0.247928 3.72075 0
M  V30 4507 N 422.737 -1.36956 0.779787 0
M  V30 4508 C 424.148 -1.82094 0.412156 0
M  V30 4509 C 424.499 -1.64926 -1.06273 0
M  V30 4510 O 423.624 -1.16483 -1.82375 0
M  V30 4511 C 424.219 -3.3059 0.741319 0
M  V30 4512 C 422.778 -3.73974 0.426641 0
M  V30 4513 C 421.925 -2.59368 0.980987 0
M  V30 4514 H 424.876 -1.25314 0.973758 0
M  V30 4515 H 424.897 -3.80489 0.028887 0
M  V30 4516 H 424.409 -3.43054 1.81482 0
M  V30 4517 H 422.51 -3.67076 -0.639215 0
M  V30 4518 H 422.623 -4.69778 0.940515 0
M  V30 4519 H 420.987 -2.51463 0.404757 0
M  V30 4520 H 421.77 -2.74621 2.06005 0
M  V30 4521 N 424.215 -0.530993 -1.48385 0
M  V30 4522 C 425.492 0.0671788 -1.95485 0
M  V30 4523 C 425.872 1.51191 -1.47324 0
M  V30 4524 O 425.22 2.17507 -0.700202 0
M  V30 4525 C 425.43 -0.0511206 -3.48963 0
M  V30 4526 C 426.778 0.107632 -4.24464 0
M  V30 4527 O 427.802 0.0226248 -3.56193 0
M  V30 4528 O 426.661 0.285972 -5.45751 0
M  V30 4529 H 423.755 0.0787365 -0.823243 0
M  V30 4530 H 426.301 -0.595662 -1.58902 0
M  V30 4531 H 425.073 -1.05747 -3.7674 0
M  V30 4532 H 424.696 0.650525 -3.92242 0
M  V30 4533 N 425.693 1.55336 -0.266172 0
M  V30 4534 C 426.623 2.25146 0.618981 0
M  V30 4535 C 427.604 1.23845 1.16604 0
M  V30 4536 O 428.789 1.52544 1.20183 0
M  V30 4537 C 425.919 2.96572 1.80728 0
M  V30 4538 C 424.873 4.04726 1.39215 0
M  V30 4539 C 424.199 4.63678 2.66283 0
M  V30 4540 C 425.499 5.19407 0.548942 0
M  V30 4541 H 427.193 2.99377 0.0368116 0
M  V30 4542 H 424.739 1.43991 0.0162651 0
M  V30 4543 H 426.692 3.44116 2.43232 0
M  V30 4544 H 425.416 2.19861 2.41514 0
M  V30 4545 H 424.075 3.57979 0.790351 0
M  V30 4546 H 423.723 3.83646 3.25308 0
M  V30 4547 H 423.423 5.367 2.39222 0
M  V30 4548 H 424.947 5.13967 3.29651 0
M  V30 4549 H 426.361 5.63059 1.07876 0
M  V30 4550 H 424.758 5.98936 0.373593 0
M  V30 4551 H 425.828 4.8295 -0.434394 0
M  V30 4552 N 427.171 -0.0066808 1.57599 0
M  V30 4553 C 428.081 -1.01671 2.11424 0
M  V30 4554 C 429.097 -1.38143 1.05795 0
M  V30 4555 O 430.273 -1.47011 1.37658 0
M  V30 4556 C 427.338 -2.29192 2.60139 0
M  V30 4557 C 426.399 -1.99094 3.80342 0
M  V30 4558 C 425.632 -3.20535 4.26724 0
M  V30 4559 O 425.855 -4.3199 3.72479 0
M  V30 4560 O 424.789 -3.04924 5.18946 0
M  V30 4561 H 428.615 -0.589181 2.9793 0
M  V30 4562 H 426.2 -0.225091 1.47695 0
M  V30 4563 H 428.082 -3.0412 2.917 0
M  V30 4564 H 426.757 -2.71195 1.76733 0
M  V30 4565 H 425.664 -1.21663 3.53764 0
M  V30 4566 H 426.997 -1.61931 4.648 0
M  V30 4567 N 428.649 -1.55105 -0.279332 0
M  V30 4568 C 429.895 -1.75672 -1.01327 0
M  V30 4569 C 430.228 -0.552739 -1.86168 0
M  V30 4570 O 429.503 0.449827 -1.89227 0
M  V30 4571 C 429.786 -3.05825 -1.90114 0
M  V30 4572 C 429.639 -4.36565 -1.08309 0
M  V30 4573 C 430.958 -3.31975 -2.8893 0
M  V30 4574 H 428.077 -0.639149 -0.366957 0
M  V30 4575 H 430.719 -1.87833 -0.286154 0
M  V30 4576 H 428.869 -2.95588 -2.52111 0
M  V30 4577 H 430.541 -4.58751 -0.484314 0
M  V30 4578 H 428.784 -4.32076 -0.386362 0
M  V30 4579 H 429.455 -5.23946 -1.73737 0
M  V30 4580 H 431.931 -3.41963 -2.37067 0
M  V30 4581 H 430.807 -4.2432 -3.48201 0
M  V30 4582 H 431.068 -2.51309 -3.63725 0
M  V30 4583 N 430.127 0.543554 -1.4793 0
M  V30 4584 C 431.357 1.32324 -1.58663 0
M  V30 4585 C 431.765 1.8766 -0.240896 0
M  V30 4586 O 431.108 1.66411 0.778011 0
M  V30 4587 C 431.17 2.52094 -2.56299 0
M  V30 4588 C 430.834 2.17944 -4.01683 0
M  V30 4589 C 431.831 1.74422 -4.89768 0
M  V30 4590 C 429.516 2.28884 -4.47121 0
M  V30 4591 C 431.51 1.42287 -6.21316 0
M  V30 4592 C 429.197 1.96361 -5.78693 0
M  V30 4593 C 430.195 1.53132 -6.65612 0
M  V30 4594 O 429.883 1.21029 -7.94737 0
M  V30 4595 H 429.615 0.409174 -0.538101 0
M  V30 4596 H 432.169 0.663887 -1.94375 0
M  V30 4597 H 430.399 3.20965 -2.15681 0
M  V30 4598 H 432.088 3.14165 -2.57012 0
M  V30 4599 H 432.854 1.65452 -4.55907 0
M  V30 4600 H 428.733 2.61488 -3.79664 0
M  V30 4601 H 432.277 1.08472 -6.89115 0
M  V30 4602 H 428.174 2.04967 -6.12094 0
M  V30 4603 H 428.942 1.34543 -8.07366 0
M  V30 4604 N 431.605 1.3629 0.791371 0
M  V30 4605 C 432.553 1.30514 1.92533 0
M  V30 4606 C 433.547 0.197285 1.68247 0
M  V30 4607 O 434.753 0.364176 1.76278 0
M  V30 4608 H 431.128 0.406263 0.632815 0
M  V30 4609 H 433.099 2.26282 1.94523 0
M  V30 4610 C 431.848 1.10933 3.29529 0
M  V30 4611 H 431.171 1.95427 3.48781 0
M  V30 4612 H 432.611 1.10937 4.0923 0
M  V30 4613 C 431.07 -0.186123 3.36385 0
M  V30 4614 O 431.6 -1.17664 3.84081 0
M  V30 4615 N 429.806 -0.230128 2.89687 0
M  V30 4616 H 429.353 0.576545 2.51065 0
M  V30 4617 H 429.311 -1.09658 2.94657 0
M  V30 4618 N 433.083 -1.0153 1.20538 0
M  V30 4619 C 434.329 -1.75408 1.01783 0
M  V30 4620 C 434.662 -1.88943 -0.448814 0
M  V30 4621 O 433.937 -1.4162 -1.33319 0
M  V30 4622 C 434.22 -3.17255 1.70356 0
M  V30 4623 C 434.073 -3.11508 3.24473 0
M  V30 4624 C 435.392 -4.15955 1.43769 0
M  V30 4625 H 432.511 -0.636713 0.371167 0
M  V30 4626 H 435.153 -1.18436 1.4857 0
M  V30 4627 H 433.303 -3.65898 1.30578 0
M  V30 4628 H 434.975 -2.70658 3.73553 0
M  V30 4629 H 433.218 -2.4887 3.55311 0
M  V30 4630 H 433.889 -4.11784 3.67611 0
M  V30 4631 H 436.365 -3.75973 1.7828 0
M  V30 4632 H 435.241 -5.13368 1.94279 0
M  V30 4633 H 435.502 -4.40586 0.365564 0
M  V30 4634 N 434.561 -1.01147 -1.20859 0
M  V30 4635 C 435.81 -0.693214 -1.89413 0
M  V30 4636 C 436.123 0.779969 -1.79376 0
M  V30 4637 O 437.329 1.21057 -2.43017 0
M  V30 4638 C 435.785 -1.18949 -3.39675 0
M  V30 4639 C 435.393 -2.68921 -3.58309 0
M  V30 4640 C 437.137 -0.94642 -4.13815 0
M  V30 4641 C 435.044 -3.12056 -5.0237 0
M  V30 4642 H 433.974 -0.255595 -0.709357 0
M  V30 4643 H 436.625 -1.22349 -1.36759 0
M  V30 4644 H 435.007 -0.587228 -3.91622 0
M  V30 4645 H 436.181 -3.34652 -3.16772 0
M  V30 4646 H 434.496 -2.91314 -2.97532 0
M  V30 4647 H 437.093 -1.24417 -5.20023 0
M  V30 4648 H 437.436 0.117219 -4.16135 0
M  V30 4649 H 437.969 -1.5118 -3.67953 0
M  V30 4650 H 434.708 -4.17674 -5.05202 0
M  V30 4651 H 434.228 -2.51041 -5.44737 0
M  V30 4652 H 435.907 -3.04403 -5.70918 0
M  V30 4653 N 436.039 1.36541 -0.78704 0
M  V30 4654 C 437.455 1.52571 -0.46844 0
M  V30 4655 C 437.655 1.7415 1.01361 0
M  V30 4656 O 436.711 1.77163 1.79915 0
M  V30 4657 C 438.024 2.71299 -1.29682 0
M  V30 4658 C 439.572 2.85169 -1.29027 0
M  V30 4659 C 440.047 4.06898 -2.10233 0
M  V30 4660 N 441.538 4.1404 -2.07666 0
M  V30 4661 C 442.273 5.07301 -2.67271 0
M  V30 4662 N 441.769 6.06021 -3.35724 0
M  V30 4663 N 443.562 4.99898 -2.57018 0
M  V30 4664 H 435.713 1.20788 -1.74711 0
M  V30 4665 H 437.976 0.589364 -0.742532 0
M  V30 4666 H 437.682 2.61868 -2.34773 0
M  V30 4667 H 437.556 3.6539 -0.936479 0
M  V30 4668 H 439.943 2.94062 -0.247284 0
M  V30 4669 H 440.024 1.91992 -1.69035 0
M  V30 4670 H 439.668 3.98766 -3.1456 0
M  V30 4671 H 439.598 4.99218 -1.67597 0
M  V30 4672 H 442.089 3.43357 -1.57843 0
M  V30 4673 H 442.402 6.73741 -3.78541 0
M  V30 4674 H 440.747 6.06253 -3.39826 0
M  V30 4675 H 443.938 4.21724 -2.03142 0
M  V30 4676 H 444.111 5.72392 -3.03761 0
M  V30 4677 N 437.518 0.538854 1.48102 0
M  V30 4678 C 438.465 -0.219042 2.29758 0
M  V30 4679 C 439.435 -0.925562 1.37922 0
M  V30 4680 O 440.62 -0.924855 1.66886 0
M  V30 4681 C 437.76 -1.25452 3.2149 0
M  V30 4682 C 436.873 -0.555943 4.28408 0
M  V30 4683 C 436.008 -1.57512 5.0731 0
M  V30 4684 C 435.047 -0.860498 6.06021 0
M  V30 4685 N 434.184 -1.82564 6.77949 0
M  V30 4686 H 439.024 0.483449 2.94052 0
M  V30 4687 H 436.561 0.250247 1.44956 0
M  V30 4688 H 438.519 -1.86727 3.7308 0
M  V30 4689 H 437.149 -1.92528 2.591 0
M  V30 4690 H 436.201 0.170938 3.80016 0
M  V30 4691 H 437.513 0.00474616 4.988 0
M  V30 4692 H 436.667 -2.26191 5.62959 0
M  V30 4693 H 435.406 -2.16972 4.36778 0
M  V30 4694 H 434.411 -0.159686 5.49568 0
M  V30 4695 H 435.636 -0.271897 6.78555 0
M  V30 4696 H 433.582 -2.40915 6.10161 0
M  V30 4697 H 433.499 -1.31662 7.44447 0
M  V30 4698 H 434.767 -2.50414 7.38182 0
M  V30 4699 N 438.996 -1.55193 0.274407 0
M  V30 4700 C 439.928 -2.1989 -0.646595 0
M  V30 4701 C 440.941 -1.1834 -1.11801 0
M  V30 4702 O 442.13 -1.4507 -1.04004 0
M  V30 4703 C 439.23 -2.8104 -1.89393 0
M  V30 4704 C 438.403 -4.08274 -1.56943 0
M  V30 4705 C 437.462 -4.53478 -2.66916 0
M  V30 4706 O 436.488 -5.19267 -2.33132 0
M  V30 4707 N 437.69 -4.2356 -3.9696 0
M  V30 4708 H 440.455 -2.99556 -0.0928686 0
M  V30 4709 H 438.016 -1.61618 0.0954783 0
M  V30 4710 H 440.008 -3.08226 -2.62257 0
M  V30 4711 H 438.578 -2.05372 -2.35672 0
M  V30 4712 H 437.798 -3.88384 -0.674655 0
M  V30 4713 H 439.086 -4.91173 -1.32764 0
M  V30 4714 H 438.484 -3.70799 -4.27229 0
M  V30 4715 H 437.041 -4.55518 -4.66205 0
M  V30 4716 N 440.474 -0.00167713 -1.576 0
M  V30 4717 C 441.699 0.69739 -1.95323 0
M  V30 4718 C 442.124 1.6642 -0.876706 0
M  V30 4719 O 441.482 1.80548 0.165007 0
M  V30 4720 C 441.53 1.40403 -3.32144 0
M  V30 4721 O 440.634 2.5185 -3.26566 0
M  V30 4722 H 439.975 0.185373 -0.637599 0
M  V30 4723 H 442.505 -0.0553665 -2.04525 0
M  V30 4724 H 442.515 1.76707 -3.67748 0
M  V30 4725 H 441.19 0.695167 -4.10049 0
M  V30 4726 H 439.767 2.17861 -3.0264 0
M  V30 4727 N 441.952 1.55251 0.271103 0
M  V30 4728 C 442.862 1.9136 1.35714 0
M  V30 4729 C 443.878 0.811075 1.5394 0
M  V30 4730 O 445.054 1.11031 1.6803 0
M  V30 4731 C 442.119 2.1798 2.69603 0
M  V30 4732 C 441.18 3.4153 2.60107 0
M  V30 4733 C 440.413 3.66871 3.8761 0
M  V30 4734 O 440.636 2.94689 4.8838 0
M  V30 4735 O 439.57 4.60405 3.87699 0
M  V30 4736 H 443.396 2.83815 1.08088 0
M  V30 4737 H 440.981 1.41821 0.469792 0
M  V30 4738 H 442.863 2.36518 3.48765 0
M  V30 4739 H 441.538 1.28708 2.97012 0
M  V30 4740 H 440.445 3.28325 1.79314 0
M  V30 4741 H 441.778 4.31027 2.37647 0
M  V30 4742 N 443.43 -0.535701 1.48216 0
M  V30 4743 C 444.393 -1.623 1.61838 0
M  V30 4744 C 445.393 -1.53087 0.492024 0
M  V30 4745 O 446.583 -1.5686 0.757668 0
M  V30 4746 C 443.715 -3.01907 1.58319 0
M  V30 4747 H 444.908 -1.51564 2.58783 0
M  V30 4748 H 442.461 -0.757317 1.36727 0
M  V30 4749 H 443.196 -3.18155 0.628299 0
M  V30 4750 H 442.981 -3.10003 2.40085 0
M  V30 4751 H 444.471 -3.80969 1.71033 0
M  V30 4752 N 444.908 -1.36708 -0.784132 0
M  V30 4753 C 446.185 -1.21776 -1.53069 0
M  V30 4754 C 446.565 0.193876 -2.10208 0
M  V30 4755 O 445.913 1.20012 -1.94446 0
M  V30 4756 C 446.123 -2.30395 -2.62143 0
M  V30 4757 C 447.471 -2.67325 -3.29882 0
M  V30 4758 O 448.495 -2.29478 -2.7243 0
M  V30 4759 O 447.354 -3.32485 -4.33724 0
M  V30 4760 H 444.448 -0.474459 -0.677361 0
M  V30 4761 H 446.994 -1.48454 -0.82216 0
M  V30 4762 H 445.766 -3.2498 -2.17953 0
M  V30 4763 H 445.389 -2.05112 -3.40609 0
M  V30 4764 N 446.386 1.0089 -1.21074 0
M  V30 4765 C 447.316 2.1145 -0.990523 0
M  V30 4766 C 448.297 1.69897 0.0831699 0
M  V30 4767 O 449.482 1.94052 -0.0758853 0
M  V30 4768 C 446.612 3.42914 -0.550177 0
M  V30 4769 C 445.566 3.98244 -1.56799 0
M  V30 4770 C 444.892 5.25568 -0.984013 0
M  V30 4771 C 446.192 4.30752 -2.95381 0
M  V30 4772 H 447.886 2.3013 -1.91521 0
M  V30 4773 H 445.432 1.10592 -0.92225 0
M  V30 4774 H 447.385 4.19653 -0.383305 0
M  V30 4775 H 446.109 3.24014 0.41015 0
M  V30 4776 H 444.768 3.23621 -1.72236 0
M  V30 4777 H 444.416 5.02998 -0.0155216 0
M  V30 4778 H 444.116 5.63551 -1.66384 0
M  V30 4779 H 445.64 6.04955 -0.828378 0
M  V30 4780 H 447.054 4.98349 -2.8341 0
M  V30 4781 H 445.451 4.79869 -3.60341 0
M  V30 4782 H 446.521 3.39192 -3.46521 0
M  V30 4783 N 447.864 1.01787 1.20321 0
M  V30 4784 C 448.827 0.593972 2.2137 0
M  V30 4785 C 449.827 -0.336553 1.57239 0
M  V30 4786 O 451.017 -0.125069 1.7375 0
M  V30 4787 C 448.149 -0.132433 3.40643 0
M  V30 4788 H 449.342 1.48791 2.60387 0
M  V30 4789 H 446.895 0.807803 1.33807 0
M  V30 4790 H 447.63 -1.04123 3.0713 0
M  V30 4791 H 447.415 0.53605 3.88418 0
M  V30 4792 H 448.905 -0.416314 4.1552 0
M  V30 4793 N 449.342 -1.36122 0.79427 0
M  V30 4794 C 450.252 -2.33769 0.197296 0
M  V30 4795 C 451.268 -1.61276 -0.653153 0
M  V30 4796 O 452.444 -1.9323 -0.5678 0
M  V30 4797 C 449.509 -3.40474 -0.654098 0
M  V30 4798 C 448.57 -4.28759 0.215411 0
M  V30 4799 C 447.803 -5.30368 -0.595443 0
M  V30 4800 O 448.026 -5.40211 -1.83107 0
M  V30 4801 O 446.96 -6.019 0.00721351 0
M  V30 4802 H 450.786 -2.86597 1.00478 0
M  V30 4803 H 448.371 -1.38676 0.555818 0
M  V30 4804 H 450.253 -4.05703 -1.13944 0
M  V30 4805 H 448.928 -2.89937 -1.43938 0
M  V30 4806 H 447.835 -3.66554 0.747615 0
M  V30 4807 H 449.168 -4.82661 0.964332 0
M  V30 4808 N 450.82 -0.546701 -1.47814 0
M  V30 4809 C 452.048 -0.0232857 -2.06887 0
M  V30 4810 C 452.463 1.26571 -1.4009 0
M  V30 4811 O 451.82 1.7569 -0.493906 0
M  V30 4812 C 451.871 0.186975 -3.61016 0
M  V30 4813 O 451.592 -1.05097 -4.25307 0
M  V30 4814 C 453.093 0.748872 -4.36929 0
M  V30 4815 H 450.313 -0.0410763 -0.669742 0
M  V30 4816 H 452.857 -0.757117 -1.89968 0
M  V30 4817 H 451.012 0.870903 -3.77484 0
M  V30 4818 H 451.426 -0.842121 -5.17695 0
M  V30 4819 H 452.9 0.845334 -5.45489 0
M  V30 4820 H 453.377 1.75772 -4.02493 0
M  V30 4821 H 453.983 0.100979 -4.2518 0
M  V30 4822 N 452.299 1.55045 -0.282633 0
M  V30 4823 C 453.715 1.59441 0.0712997 0
M  V30 4824 C 453.915 1.2998 1.53972 0
M  V30 4825 O 452.971 1.06431 2.28973 0
M  V30 4826 C 454.284 2.99097 -0.310104 0
M  V30 4827 C 455.832 3.1194 -0.257343 0
M  V30 4828 C 456.307 4.53875 -0.613297 0
M  V30 4829 N 457.798 4.5974 -0.565134 0
M  V30 4830 C 458.533 5.67603 -0.81326 0
M  V30 4831 N 458.029 6.83582 -1.1264 0
M  V30 4832 N 459.822 5.57187 -0.741553 0
M  V30 4833 H 451.973 1.72458 -1.23984 0
M  V30 4834 H 454.236 0.804549 -0.501403 0
M  V30 4835 H 453.942 3.25516 -1.33163 0
M  V30 4836 H 453.816 3.75616 0.345366 0
M  V30 4837 H 456.203 2.85281 0.754905 0
M  V30 4838 H 456.284 2.37618 -0.947178 0
M  V30 4839 H 455.928 4.81261 -1.62327 0
M  V30 4840 H 455.858 5.26508 0.09841 0
M  V30 4841 H 458.349 3.76427 -0.333294 0
M  V30 4842 H 458.662 7.6175 -1.30219 0
M  V30 4843 H 457.007 6.85179 -1.16425 0
M  V30 4844 H 460.198 4.65457 -0.496705 0
M  V30 4845 H 460.371 6.41171 -0.938306 0
M  V30 4846 N 453.777 0.010035 1.57597 0
M  V30 4847 C 455.188 -0.531426 1.78977 0
M  V30 4848 C 455.539 -1.73375 0.918454 0
M  V30 4849 O 454.664 -2.16047 0.123635 0
M  V30 4850 C 455.259 -0.97086 3.24592 0
M  V30 4851 C 453.818 -1.45756 3.47033 0
M  V30 4852 C 452.965 -0.413384 2.74201 0
M  V30 4853 H 455.916 0.236166 1.56933 0
M  V30 4854 H 455.937 -1.83633 3.33255 0
M  V30 4855 H 455.449 -0.0955893 3.87982 0
M  V30 4856 H 453.55 -2.35339 2.88871 0
M  V30 4857 H 453.663 -1.4781 4.55729 0
M  V30 4858 H 452.027 -0.877266 2.39115 0
M  V30 4859 H 452.81 0.453092 3.40297 0
M  V30 4860 N 455.255 -1.55392 -0.262866 0
M  V30 4861 C 456.532 -1.67204 -1.01499 0
M  V30 4862 C 456.912 -0.545186 -2.03939 0
M  V30 4863 O 456.26 0.453467 -2.23955 0
M  V30 4864 C 456.47 -3.06847 -1.6627 0
M  V30 4865 C 457.818 -3.64928 -2.17054 0
M  V30 4866 O 458.842 -3.09545 -1.76239 0
M  V30 4867 O 457.701 -4.61984 -2.91947 0
M  V30 4868 H 454.795 -0.679467 -0.471438 0
M  V30 4869 H 457.341 -1.67729 -0.257918 0
M  V30 4870 H 456.113 -3.80309 -0.920915 0
M  V30 4871 H 455.736 -3.10266 -2.48638 0
M  V30 4872 N 456.733 0.527833 -1.48498 0
M  V30 4873 C 457.663 1.64136 -1.66077 0
M  V30 4874 C 458.644 1.62286 -0.509625 0
M  V30 4875 O 459.829 1.79449 -0.742413 0
M  V30 4876 C 456.959 3.02717 -1.70234 0
M  V30 4877 C 455.913 3.19426 -2.8487 0
M  V30 4878 C 455.239 4.5909 -2.74118 0
M  V30 4879 C 456.539 3.01993 -4.26142 0
M  V30 4880 H 458.233 1.4968 -2.593 0
M  V30 4881 H 455.779 0.718654 -1.24785 0
M  V30 4882 H 457.732 3.80491 -1.8112 0
M  V30 4883 H 456.456 3.18201 -0.735911 0
M  V30 4884 H 455.115 2.4407 -2.73542 0
M  V30 4885 H 454.763 4.71413 -1.7544 0
M  V30 4886 H 454.463 4.71214 -3.51042 0
M  V30 4887 H 455.987 5.3896 -2.86974 0
M  V30 4888 H 457.401 3.69558 -4.38292 0
M  V30 4889 H 455.798 3.2561 -5.04082 0
M  V30 4890 H 456.868 1.98396 -4.42456 0
M  V30 4891 N 458.211 1.37122 0.776871 0
M  V30 4892 C 459.158 1.3247 1.88998 0
M  V30 4893 C 460.128 0.191143 1.64997 0
M  V30 4894 O 461.313 0.379683 1.86984 0
M  V30 4895 C 458.453 1.13241 3.25992 0
M  V30 4896 C 457.566 2.35782 3.61982 0
M  V30 4897 C 456.701 2.09465 4.88158 0
M  V30 4898 C 455.74 3.279 5.16864 0
M  V30 4899 N 454.877 3.01167 6.34226 0
M  V30 4900 H 459.717 2.27642 1.9231 0
M  V30 4901 H 457.254 1.13125 0.94027 0
M  V30 4902 H 459.212 1.00115 4.0501 0
M  V30 4903 H 457.842 0.217186 3.22069 0
M  V30 4904 H 456.894 2.59666 2.77989 0
M  V30 4905 H 458.206 3.24125 3.79137 0
M  V30 4906 H 457.36 1.93341 5.75069 0
M  V30 4907 H 456.099 1.18452 4.73097 0
M  V30 4908 H 455.104 3.44569 4.2843 0
M  V30 4909 H 456.329 4.19757 5.33836 0
M  V30 4910 H 454.275 2.12779 6.20533 0
M  V30 4911 H 454.192 3.83052 6.51772 0
M  V30 4912 H 455.46 2.88649 7.24087 0
M  V30 4913 N 459.689 -1.00246 1.21608 0
M  V30 4914 C 460.637 -2.11193 0.97469 0
M  V30 4915 C 461.631 -1.69216 -0.0789303 0
M  V30 4916 O 462.837 -1.79853 0.0726806 0
M  V30 4917 H 459.212 -0.690455 0.297953 0
M  V30 4918 H 461.183 -2.2873 1.91638 0
M  V30 4919 C 459.932 -3.43182 0.558717 0
M  V30 4920 H 459.255 -3.75918 1.3611 0
M  V30 4921 H 460.695 -4.21823 0.429154 0
M  V30 4922 C 459.154 -3.28882 -0.730648 0
M  V30 4923 O 459.684 -3.59835 -1.78554 0
M  V30 4924 N 457.89 -2.8209 -0.698131 0
M  V30 4925 H 457.437 -2.57099 0.16061 0
M  V30 4926 H 457.395 -2.72903 -1.56113 0
M  V30 4927 N 461.167 -1.02423 -1.1978 0
M  V30 4928 C 462.416 -0.713265 -1.88667 0
M  V30 4929 C 462.729 0.7609 -1.80193 0
M  V30 4930 O 463.935 1.18473 -2.44288 0
M  V30 4931 C 462.391 -1.22545 -3.38394 0
M  V30 4932 C 461.999 -2.72706 -3.55437 0
M  V30 4933 C 463.743 -0.990257 -4.12788 0
M  V30 4934 C 461.65 -3.17367 -4.99031 0
M  V30 4935 H 460.58 -0.263105 -0.706606 0
M  V30 4936 H 463.231 -1.23792 -1.35454 0
M  V30 4937 H 461.613 -0.628732 -3.90977 0
M  V30 4938 H 462.787 -3.37993 -3.13205 0
M  V30 4939 H 461.102 -2.94453 -2.94425 0
M  V30 4940 H 463.699 -1.29926 -5.18675 0
M  V30 4941 H 464.042 0.0730761 -4.16236 0
M  V30 4942 H 464.575 -1.55074 -3.66329 0
M  V30 4943 H 461.314 -4.23009 -5.00743 0
M  V30 4944 H 460.834 -2.56805 -5.42044 0
M  V30 4945 H 462.513 -3.10441 -5.67658 0
M  V30 4946 N 462.645 1.35699 -0.801477 0
M  V30 4947 C 463.87 2.03687 -0.390678 0
M  V30 4948 C 464.295 1.60015 0.988778 0
M  V30 4949 O 463.653 0.774357 1.63931 0
M  V30 4950 C 463.701 3.57439 -0.476404 0
M  V30 4951 O 462.805 4.09208 0.512106 0
M  V30 4952 H 462.146 0.64344 -0.163956 0
M  V30 4953 H 464.676 1.73403 -1.08594 0
M  V30 4954 H 464.686 4.06544 -0.344357 0
M  V30 4955 H 463.361 3.88576 -1.48262 0
M  V30 4956 H 461.938 3.7134 0.340721 0
M  V30 4957 N 464.123 0.554532 1.47522 0
M  V30 4958 C 465.37 0.029479 2.02479 0
M  V30 4959 C 465.698 -1.31929 1.42916 0
M  V30 4960 O 464.953 -1.87112 0.573385 0
M  V30 4961 C 465.252 -0.115927 3.57212 0
M  V30 4962 C 464.918 1.16161 4.3568 0
M  V30 4963 C 463.58 1.51168 4.56839 0
M  V30 4964 C 465.932 2.0083 4.80954 0
M  V30 4965 C 463.26 2.70696 5.2052 0
M  V30 4966 C 465.612 3.19559 5.45953 0
M  V30 4967 C 464.276 3.54882 5.65345 0
M  V30 4968 H 463.546 0.0107871 0.740921 0
M  V30 4969 H 466.193 0.725506 1.77225 0
M  V30 4970 H 464.498 -0.894902 3.81443 0
M  V30 4971 H 466.195 -0.53749 3.97381 0
M  V30 4972 H 462.785 0.879026 4.19489 0
M  V30 4973 H 466.969 1.75093 4.64388 0
M  V30 4974 H 462.225 2.98236 5.33728 0
M  V30 4975 H 466.399 3.85456 5.79997 0
M  V30 4976 H 464.026 4.47596 6.1446 0
M  V30 4977 N 465.601 -1.54893 0.290851 0
M  V30 4978 C 467.017 -1.59476 -0.0628432 0
M  V30 4979 C 467.217 -1.30795 -1.5328 0
M  V30 4980 O 466.273 -1.07644 -2.28406 0
M  V30 4981 C 467.586 -2.98928 0.325962 0
M  V30 4982 C 469.134 -3.11799 0.273882 0
M  V30 4983 C 469.609 -4.53544 0.637359 0
M  V30 4984 N 471.1 -4.59433 0.589507 0
M  V30 4985 C 471.835 -5.67164 0.84335 0
M  V30 4986 N 471.331 -6.82975 1.16263 0
M  V30 4987 N 473.124 -5.56786 0.771091 0
M  V30 4988 H 465.275 -1.71798 1.24896 0
M  V30 4989 H 467.538 -0.801879 0.505663 0
M  V30 4990 H 467.244 -3.24805 1.34887 0
M  V30 4991 H 467.118 -3.75793 -0.325441 0
M  V30 4992 H 469.505 -2.85677 -0.739765 0
M  V30 4993 H 469.586 -2.37112 0.959766 0
M  V30 4994 H 469.23 -4.80394 1.64877 0
M  V30 4995 H 469.16 -5.26553 -0.0704866 0
M  V30 4996 H 471.651 -3.76245 0.353252 0
M  V30 4997 H 471.964 -7.61048 1.34257 0
M  V30 4998 H 470.309 -6.84552 1.20057 0
M  V30 4999 H 473.5 -4.65187 0.521383 0
M  V30 5000 H 473.673 -6.40664 0.972295 0
M  V30 5001 N 467.08 -0.0183926 -1.57589 0
M  V30 5002 C 468.326 0.663543 -1.91638 0
M  V30 5003 C 468.659 1.72392 -0.894134 0
M  V30 5004 O 467.934 1.94316 0.0846449 0
M  V30 5005 C 468.217 1.28984 -3.36207 0
M  V30 5006 C 468.07 0.239761 -4.49161 0
M  V30 5007 C 469.389 2.2109 -3.80536 0
M  V30 5008 H 466.508 0.239746 -0.696915 0
M  V30 5009 H 469.15 -0.073456 -1.89858 0
M  V30 5010 H 467.3 1.91799 -3.37854 0
M  V30 5011 H 468.972 -0.390119 -4.59647 0
M  V30 5012 H 467.215 -0.435972 -4.31604 0
M  V30 5013 H 467.886 0.717383 -5.47319 0
M  V30 5014 H 470.362 1.68273 -3.80557 0
M  V30 5015 H 469.238 2.61869 -4.82406 0
M  V30 5016 H 469.499 3.09764 -3.15434 0
M  V30 5017 N 468.558 1.5553 0.254621 0
M  V30 5018 C 469.798 1.7876 0.991179 0
M  V30 5019 C 470.162 0.586669 1.82817 0
M  V30 5020 O 471.363 0.697585 2.5959 0
M  V30 5021 C 469.634 3.06679 1.83529 0
M  V30 5022 S 471.193 3.511 2.632 0
M  V30 5023 H 468.011 0.627916 0.333531 0
M  V30 5024 H 470.613 1.93766 0.259778 0
M  V30 5025 H 469.317 3.92158 1.20996 0
M  V30 5026 H 468.848 2.94388 2.60958 0
M  V30 5027 H 470.863 3.11823 3.8598 0
M  V30 5028 N 470.036 -0.519951 1.48776 0
M  V30 5029 C 471.261 -1.30447 1.6124 0
M  V30 5030 C 471.686 -1.86055 0.276591 0
M  V30 5031 O 471.044 -1.64915 -0.753183 0
M  V30 5032 C 471.092 -2.42406 2.66967 0
M  V30 5033 O 470.196 -3.45728 2.24824 0
M  V30 5034 H 469.537 -0.385924 0.540332 0
M  V30 5035 H 472.067 -0.624572 1.94834 0
M  V30 5036 H 472.077 -2.88447 2.88552 0
M  V30 5037 H 470.752 -2.01294 3.63941 0
M  V30 5038 H 469.329 -3.05737 2.13494 0
M  V30 5039 N 471.514 -1.37532 -0.769588 0
M  V30 5040 C 472.762 -1.32597 -1.5252 0
M  V30 5041 C 473.083 0.0884294 -1.94799 0
M  V30 5042 O 472.353 1.03289 -1.66458 0
M  V30 5043 H 470.933 -0.487846 -0.565699 0
M  V30 5044 H 473.595 -1.72044 -0.915806 0
M  V30 5045 H 472.691 -1.96643 -2.42359 0
M  V30 5046 N 472.992 0.995999 -1.22138 0
M  V30 5047 C 473.902 2.11985 -1.00496 0
M  V30 5048 C 474.918 1.7394 0.0457701 0
M  V30 5049 O 476.094 2.00868 -0.146273 0
M  V30 5050 C 473.159 3.41779 -0.582086 0
M  V30 5051 C 472.22 3.93943 -1.70608 0
M  V30 5052 C 471.453 5.17542 -1.30328 0
M  V30 5053 O 471.676 5.70114 -0.180743 0
M  V30 5054 O 470.61 5.63382 -2.11861 0
M  V30 5055 H 474.436 2.33123 -1.94647 0
M  V30 5056 H 472.021 1.10358 -1.00705 0
M  V30 5057 H 473.903 4.1989 -0.356467 0
M  V30 5058 H 472.578 3.22007 0.330592 0
M  V30 5059 H 471.485 3.17019 -1.98619 0
M  V30 5060 H 472.818 4.18141 -2.59651 0
M  V30 5061 N 474.47 1.03057 1.19235 0
M  V30 5062 C 475.433 0.617418 2.20727 0
M  V30 5063 C 476.433 -0.319856 1.57587 0
M  V30 5064 O 477.623 -0.106633 1.73873 0
M  V30 5065 C 474.755 -0.096296 3.40764 0
M  V30 5066 H 475.948 1.51544 2.58794 0
M  V30 5067 H 473.501 0.821949 1.32942 0
M  V30 5068 H 474.236 -1.00859 3.08217 0
M  V30 5069 H 474.021 0.577217 3.87828 0
M  V30 5070 H 475.511 -0.372219 4.15938 0
M  V30 5071 N 475.948 -1.35272 0.808662 0
M  V30 5072 C 477.176 -2.02946 0.402537 0
M  V30 5073 C 477.591 -1.60937 -0.987147 0
M  V30 5074 O 476.948 -0.807917 -1.63643 0
M  V30 5075 C 476.999 -3.58317 0.47868 0
M  V30 5076 O 476.72 -3.98799 1.81358 0
M  V30 5077 C 478.221 -4.43251 0.0656281 0
M  V30 5078 H 475.441 -0.650831 0.163279 0
M  V30 5079 H 477.985 -1.72849 1.09286 0
M  V30 5080 H 476.14 -3.87055 -0.163415 0
M  V30 5081 H 476.554 -4.93451 1.77781 0
M  V30 5082 H 478.028 -5.51738 0.170017 0
M  V30 5083 H 478.505 -4.27913 -0.989278 0
M  V30 5084 H 479.111 -4.19813 0.68096 0
M  V30 5085 N 477.426 -0.562348 -1.47226 0
M  V30 5086 C 478.837 -0.130325 -1.86245 0
M  V30 5087 C 479.188 1.30128 -1.46838 0
M  V30 5088 O 478.313 1.97974 -0.873805 0
M  V30 5089 C 478.908 -0.229738 -3.3802 0
M  V30 5090 C 477.467 0.14728 -3.76112 0
M  V30 5091 C 476.614 -0.574971 -2.71274 0
M  V30 5092 H 479.565 -0.771773 -1.3867 0
M  V30 5093 H 479.586 0.550316 -3.76499 0
M  V30 5094 H 479.098 -1.27178 -3.66671 0
M  V30 5095 H 477.199 1.19023 -3.53078 0
M  V30 5096 H 477.312 -0.214858 -4.78618 0
M  V30 5097 H 475.676 -0.0174756 -2.54694 0
M  V30 5098 H 476.459 -1.61827 -3.02766 0
M  V30 5099 N 478.904 1.54736 -0.299062 0
M  V30 5100 C 480.181 1.92187 0.363802 0
M  V30 5101 C 480.561 1.22607 1.71845 0
M  V30 5102 O 479.909 0.361141 2.25628 0
M  V30 5103 C 480.119 3.45678 0.480377 0
M  V30 5104 C 481.467 4.17885 0.752147 0
M  V30 5105 O 482.491 3.51702 0.564264 0
M  V30 5106 O 481.35 5.35048 1.11294 0
M  V30 5107 H 478.444 0.801681 0.203066 0
M  V30 5108 H 480.99 1.66115 -0.346978 0
M  V30 5109 H 479.762 3.88443 -0.471999 0
M  V30 5110 H 479.385 3.77779 1.2397 0
M  V30 5111 N 480.382 0.0267497 1.57577 0
M  V30 5112 C 481.659 -0.690926 1.82991 0
M  V30 5113 C 482.039 -1.90471 0.910164 0
M  V30 5114 O 481.387 -2.28474 -0.0347985 0
M  V30 5115 C 481.597 -1.07139 3.32148 0
M  V30 5116 C 482.945 -1.46402 3.98562 0
M  V30 5117 O 483.969 -1.16443 3.36629 0
M  V30 5118 O 482.828 -2.02214 5.07712 0
M  V30 5119 H 479.922 -0.338747 0.75444 0
M  V30 5120 H 482.468 0.0542506 1.69613 0
M  V30 5121 H 481.24 -0.207394 3.9075 0
M  V30 5122 H 480.863 -1.87481 3.50623 0
M  V30 5123 N 481.861 -1.55662 -0.24637 0
M  V30 5124 C 482.794 -1.85332 -1.33143 0
M  V30 5125 C 483.772 -0.708464 -1.46354 0
M  V30 5126 O 484.956 -0.954274 -1.6256 0
M  V30 5127 C 482.083 -2.0385 -2.70487 0
M  V30 5128 C 481.129 -3.26488 -2.74423 0
M  V30 5129 S 481.962 -4.83124 -2.30979 0
M  V30 5130 C 483.118 -5.04647 -3.70246 0
M  V30 5131 H 483.351 -2.77077 -1.07777 0
M  V30 5132 H 480.884 -1.47776 -0.44738 0
M  V30 5133 H 482.842 -2.15202 -3.49569 0
M  V30 5134 H 481.503 -1.12947 -2.9309 0
M  V30 5135 H 480.696 -3.36413 -3.7529 0
M  V30 5136 H 480.298 -3.13864 -2.03385 0
M  V30 5137 H 482.59 -4.92023 -4.65746 0
M  V30 5138 H 483.533 -6.06625 -3.65255 0
M  V30 5139 H 483.941 -4.32491 -3.62784 0
M  V30 5140 N 483.339 0.512053 -1.4905 0
M  V30 5141 C 484.564 1.2959 -1.6193 0
M  V30 5142 C 484.989 1.85906 -0.286454 0
M  V30 5143 O 484.347 1.65312 0.744426 0
M  V30 5144 C 484.395 2.40987 -2.68249 0
M  V30 5145 O 483.499 3.44531 -2.26654 0
M  V30 5146 H 482.84 0.383053 -0.542371 0
M  V30 5147 H 485.37 0.614231 -1.95162 0
M  V30 5148 H 485.38 2.86913 -2.90078 0
M  V30 5149 H 484.055 1.99361 -3.65004 0
M  V30 5150 H 482.632 3.046 -2.15112 0
M  V30 5151 N 484.817 1.37938 0.762283 0
M  V30 5152 C 486.057 1.35076 1.53407 0
M  V30 5153 C 486.421 -0.061546 1.91901 0
M  V30 5154 O 487.622 -0.214973 2.67939 0
M  V30 5155 C 485.893 2.27206 2.75884 0
M  V30 5156 S 487.452 2.42283 3.65848 0
M  V30 5157 H 484.27 0.479387 0.52508 0
M  V30 5158 H 486.872 1.7378 0.895586 0
M  V30 5159 H 485.576 3.28724 2.457 0
M  V30 5160 H 485.107 1.8962 3.44685 0
M  V30 5161 H 487.122 1.64044 4.68299 0
M  V30 5162 N 486.295 -0.989507 1.22664 0
M  V30 5163 C 487.572 -1.70326 0.961688 0
M  V30 5164 C 487.952 -2.04537 -0.522279 0
M  V30 5165 O 487.3 -1.73136 -1.49118 0
M  V30 5166 C 487.51 -2.95135 1.86269 0
M  V30 5167 C 488.858 -3.67842 2.12078 0
M  V30 5168 O 489.882 -3.0515 1.83745 0
M  V30 5169 O 488.741 -4.80644 2.60083 0
M  V30 5170 H 485.835 -0.743589 0.361946 0
M  V30 5171 H 488.381 -1.04555 1.33665 0
M  V30 5172 H 487.153 -2.66382 2.8663 0
M  V30 5173 H 486.776 -3.68645 1.48952 0
M  V30 5174 N 487.773 -1.03688 -1.18687 0
M  V30 5175 C 489.003 -0.756819 -1.92239 0
M  V30 5176 C 489.411 0.689374 -1.76194 0
M  V30 5177 O 488.754 1.48126 -1.08648 0
M  V30 5178 C 488.816 -1.03851 -3.44173 0
M  V30 5179 C 488.48 -2.47785 -3.83994 0
M  V30 5180 C 489.477 -3.4595 -3.88091 0
M  V30 5181 C 487.162 -2.82397 -4.154 0
M  V30 5182 C 489.156 -4.76779 -4.23038 0
M  V30 5183 C 486.843 -4.13433 -4.50018 0
M  V30 5184 C 487.841 -5.10434 -4.53813 0
M  V30 5185 O 487.529 -6.39122 -4.87625 0
M  V30 5186 H 487.261 -0.275678 -0.617234 0
M  V30 5187 H 489.815 -1.38658 -1.51536 0
M  V30 5188 H 488.045 -0.351612 -3.85098 0
M  V30 5189 H 489.734 -0.746846 -3.9897 0
M  V30 5190 H 490.5 -3.20549 -3.63969 0
M  V30 5191 H 486.379 -2.07568 -4.11627 0
M  V30 5192 H 489.923 -5.52488 -4.25914 0
M  V30 5193 H 485.82 -4.38604 -4.736 0
M  V30 5194 H 486.588 -6.43715 -5.05542 0
M  V30 5195 N 489.251 1.34841 -0.815825 0
M  V30 5196 C 490.528 1.92908 -0.323416 0
M  V30 5197 C 490.908 1.74479 1.18828 0
M  V30 5198 O 490.256 1.11928 1.99209 0
M  V30 5199 C 490.466 3.40957 -0.744952 0
M  V30 5200 C 491.814 4.18107 -0.739716 0
M  V30 5201 O 492.838 3.49511 -0.68708 0
M  V30 5202 O 491.697 5.40517 -0.806456 0
M  V30 5203 H 488.791 0.822436 -0.0867646 0
M  V30 5204 H 491.337 1.4386 -0.90014 0
M  V30 5205 H 490.109 3.4814 -1.78646 0
M  V30 5206 H 489.732 3.97341 -0.143535 0
M  V30 5207 N 490.729 0.570148 1.46925 0
M  V30 5208 C 491.677 -0.183181 2.31878 0
M  V30 5209 C 492.671 -0.896721 1.43719 0
M  V30 5210 O 493.877 -0.816536 1.60414 0
M  V30 5211 H 490.252 -0.077944 0.74795 0
M  V30 5212 H 492.223 0.552312 2.93244 0
M  V30 5213 C 490.972 -1.19172 3.2664 0
M  V30 5214 H 490.295 -0.652088 3.94446 0
M  V30 5215 H 491.735 -1.68946 3.88887 0
M  V30 5216 C 490.194 -2.24627 2.51086 0
M  V30 5217 O 490.724 -3.31773 2.26472 0
M  V30 5218 N 488.93 -1.98898 2.11867 0
M  V30 5219 H 488.477 -1.11777 2.32086 0
M  V30 5220 H 488.435 -2.6967 1.61634 0
M  V30 5221 N 492.207 -1.54576 0.307264 0
M  V30 5222 C 493.14 -2.19946 -0.608195 0
M  V30 5223 C 494.118 -1.17096 -1.12815 0
M  V30 5224 O 495.302 -1.45766 -1.19518 0
M  V30 5225 C 492.429 -2.84826 -1.8328 0
M  V30 5226 C 491.475 -4.01256 -1.44554 0
M  V30 5227 S 492.308 -5.33197 -0.49612 0
M  V30 5228 C 493.464 -6.01563 -1.72838 0
M  V30 5229 H 493.697 -2.97253 -0.0528544 0
M  V30 5230 H 491.23 -1.54129 0.0913837 0
M  V30 5231 H 493.188 -3.22832 -2.53554 0
M  V30 5232 H 491.849 -2.07353 -2.35931 0
M  V30 5233 H 491.042 -4.45457 -2.35762 0
M  V30 5234 H 490.644 -3.6484 -0.822671 0
M  V30 5235 H 492.936 -6.22751 -2.6681 0
M  V30 5236 H 493.879 -6.9552 -1.32882 0
M  V30 5237 H 494.287 -5.31279 -1.90795 0
M  V30 5238 N 493.685 -0.035106 -1.57561 0
M  V30 5239 C 494.648 0.929819 -2.09492 0
M  V30 5240 C 495.648 1.25026 -1.01119 0
M  V30 5241 O 496.838 1.18961 -1.27255 0
M  V30 5242 C 493.97 2.24457 -2.56577 0
M  V30 5243 H 495.163 0.479935 -2.96035 0
M  V30 5244 H 492.716 0.213033 -1.54841 0
M  V30 5245 H 493.451 2.74061 -1.73382 0
M  V30 5246 H 493.236 2.02508 -3.35757 0
M  V30 5247 H 494.726 2.93607 -2.96959 0
M  V30 5248 N 495.163 1.55791 0.238111 0
M  V30 5249 C 496.409 1.78297 0.966337 0
M  V30 5250 C 496.742 0.601903 1.84637 0
M  V30 5251 O 496.017 -0.399499 1.90353 0
M  V30 5252 C 496.3 3.10758 1.81939 0
M  V30 5253 C 496.153 4.39283 0.966958 0
M  V30 5254 C 497.472 3.39519 2.80027 0
M  V30 5255 H 494.591 0.648654 0.349882 0
M  V30 5256 H 497.233 1.88525 0.236253 0
M  V30 5257 H 495.383 3.02168 2.44185 0
M  V30 5258 H 497.055 4.59873 0.362514 0
M  V30 5259 H 495.298 4.32948 0.271669 0
M  V30 5260 H 495.969 5.28368 1.59784 0
M  V30 5261 H 498.445 3.48128 2.27917 0
M  V30 5262 H 497.321 4.33402 3.36829 0
M  V30 5263 H 497.582 2.60864 3.56934 0
M  V30 5264 N 496.642 -0.504142 1.49319 0
M  V30 5265 C 497.59 -1.62689 1.66238 0
M  V30 5266 C 498.584 -1.6095 0.528349 0
M  V30 5267 O 499.79 -1.65496 0.707887 0
M  V30 5268 H 496.165 -0.539247 0.524134 0
M  V30 5269 H 498.136 -1.45571 2.60484 0
M  V30 5270 C 496.885 -3.00841 1.74328 0
M  V30 5271 H 496.208 -3.02884 2.60963 0
M  V30 5272 H 497.648 -3.78945 1.90202 0
M  V30 5273 C 496.107 -3.33355 0.487416 0
M  V30 5274 O 496.637 -3.99819 -0.388294 0
M  V30 5275 N 494.843 -2.88469 0.351306 0
M  V30 5276 H 494.39 -2.34557 1.06492 0
M  V30 5277 H 494.348 -3.10591 -0.487899 0
M  V30 5278 N 498.12 -1.38341 -0.754957 0
M  V30 5279 C 499.531 -1.30803 -1.3322 0
M  V30 5280 C 499.882 0.0368 -1.96165 0
M  V30 5281 O 499.007 0.938844 -1.94974 0
M  V30 5282 C 499.602 -2.3688 -2.42225 0
M  V30 5283 C 498.161 -2.32925 -2.95674 0
M  V30 5284 C 497.308 -2.19819 -1.69042 0
M  V30 5285 H 500.259 -1.48719 -0.553937 0
M  V30 5286 H 500.28 -2.02517 -3.22129 0
M  V30 5287 H 499.792 -3.34747 -1.96383 0
M  V30 5288 H 497.893 -1.38635 -3.45848 0
M  V30 5289 H 498.006 -3.27008 -3.50146 0
M  V30 5290 H 496.37 -1.66648 -1.92615 0
M  V30 5291 H 497.153 -3.19625 -1.25279 0
M  V30 5292 N 499.598 0.982988 -1.23187 0
M  V30 5293 C 500.823 1.76455 -1.08988 0
M  V30 5294 C 501.248 1.84726 0.354691 0
M  V30 5295 O 500.606 1.30699 1.25649 0
M  V30 5296 C 500.654 3.17094 -1.71708 0
M  V30 5297 O 499.758 4.00648 -0.977477 0
M  V30 5298 H 499.099 0.542988 -0.382177 0
M  V30 5299 H 501.629 1.23413 -1.63188 0
M  V30 5300 H 501.639 3.67684 -1.76841 0
M  V30 5301 H 500.314 3.10389 -2.76823 0
M  V30 5302 H 498.891 3.59161 -1.0029 0
M  V30 5303 N 501.076 1.04316 1.18135 0
M  V30 5304 C 501.986 0.646876 2.25505 0
M  V30 5305 C 503.002 -0.328008 1.7088 0
M  V30 5306 O 504.178 -0.182309 2.00573 0
M  V30 5307 C 501.243 0.0185664 3.46695 0
M  V30 5308 C 500.304 1.04277 4.16443 0
M  V30 5309 C 499.537 0.444352 5.31847 0
M  V30 5310 O 499.76 -0.748735 5.65465 0
M  V30 5311 O 498.694 1.17428 5.90334 0
M  V30 5312 H 502.52 1.54147 2.61672 0
M  V30 5313 H 500.105 0.814188 1.25265 0
M  V30 5314 H 501.987 -0.331068 4.20097 0
M  V30 5315 H 500.662 -0.849814 3.12346 0
M  V30 5316 H 499.569 1.44425 3.45098 0
M  V30 5317 H 500.902 1.882 4.54798 0
M  V30 5318 N 502.554 -1.34406 0.822964 0
M  V30 5319 C 503.779 -2.0304 0.423034 0
M  V30 5320 C 504.204 -1.61568 -0.963196 0
M  V30 5321 O 503.562 -0.800339 -1.62678 0
M  V30 5322 C 503.61 -3.56636 0.53321 0
M  V30 5323 O 502.714 -4.09971 -0.446939 0
M  V30 5324 H 502.055 -0.64075 0.174171 0
M  V30 5325 H 504.585 -1.71653 1.11339 0
M  V30 5326 H 504.595 -4.05945 0.408991 0
M  V30 5327 H 503.27 -3.86168 1.54425 0
M  V30 5328 H 501.847 -3.71835 -0.281601 0
M  V30 5329 N 504.032 -0.577932 -1.46621 0
M  V30 5330 C 505.28 -0.061566 -2.02006 0
M  V30 5331 C 505.601 1.30117 -1.4524 0
M  V30 5332 O 504.871 1.85313 -0.63529 0
M  V30 5333 H 503.451 -0.0197692 -0.746738 0
M  V30 5334 H 506.113 -0.752631 -1.79782 0
M  V30 5335 H 505.209 0.0110238 -3.12098 0
M  V30 5336 N 505.51 1.54411 -0.315457 0
M  V30 5337 C 506.757 2.00419 0.289543 0
M  V30 5338 C 507.085 1.20373 1.52776 0
M  V30 5339 O 506.34 0.271769 1.93804 0
M  V30 5340 C 506.639 3.50936 0.676652 0
M  V30 5341 C 506.305 4.48532 -0.461472 0
M  V30 5342 C 504.967 4.74936 -0.773879 0
M  V30 5343 C 507.319 5.06567 -1.22637 0
M  V30 5344 C 504.647 5.56634 -1.85405 0
M  V30 5345 C 506.999 5.89441 -2.29657 0
M  V30 5346 C 505.663 6.1415 -2.61488 0
M  V30 5347 H 504.933 0.733386 0.105951 0
M  V30 5348 H 507.58 1.86434 -0.437554 0
M  V30 5349 H 505.885 3.62606 1.48405 0
M  V30 5350 H 507.582 3.83971 1.15618 0
M  V30 5351 H 504.172 4.28096 -0.207893 0
M  V30 5352 H 508.356 4.86157 -0.998271 0
M  V30 5353 H 503.612 5.74012 -2.10523 0
M  V30 5354 H 507.786 6.33432 -2.89374 0
M  V30 5355 H 505.413 6.77245 -3.45317 0
M  V30 5356 N 506.988 0.0434614 1.5754 0
M  V30 5357 C 508.234 -0.632971 1.92669 0
M  V30 5358 C 508.567 -1.70947 0.921446 0
M  V30 5359 O 507.842 -1.94426 -0.0537202 0
M  V30 5360 C 508.125 -1.23619 3.38216 0
M  V30 5361 C 507.978 -0.168274 4.49485 0
M  V30 5362 C 509.297 -2.15008 3.84005 0
M  V30 5363 H 506.416 -0.228629 0.700641 0
M  V30 5364 H 509.058 0.103651 1.89717 0
M  V30 5365 H 507.208 -1.864 3.40863 0
M  V30 5366 H 508.88 0.463196 4.58969 0
M  V30 5367 H 507.123 0.504581 4.30855 0
M  V30 5368 H 507.794 -0.630218 5.48391 0
M  V30 5369 H 510.27 -1.62198 3.83185 0
M  V30 5370 H 509.146 -2.54161 4.86511 0
M  V30 5371 H 509.407 -3.04707 3.20322 0
M  V30 5372 N 508.466 -1.55915 -0.229846 0
M  V30 5373 C 509.694 -1.82617 -0.972562 0
M  V30 5374 C 510.109 -0.621488 -1.78278 0
M  V30 5375 O 509.466 0.409956 -1.77836 0
M  V30 5376 C 509.517 -3.0774 -1.89679 0
M  V30 5377 O 509.238 -4.23559 -1.11934 0
M  V30 5378 C 510.739 -3.47368 -2.75409 0
M  V30 5379 H 507.959 -0.60727 -0.285419 0
M  V30 5380 H 510.503 -2.02996 -0.247579 0
M  V30 5381 H 508.658 -2.89361 -2.57583 0
M  V30 5382 H 509.072 -4.94586 -1.74599 0
M  V30 5383 H 510.546 -4.37977 -3.35977 0
M  V30 5384 H 511.023 -2.68737 -3.47386 0
M  V30 5385 H 511.629 -3.68158 -2.12931 0
M  V30 5386 N 509.944 0.496216 -1.49584 0
M  V30 5387 C 510.874 1.60576 -1.69521 0
M  V30 5388 C 511.855 1.61169 -0.543933 0
M  V30 5389 O 513.04 1.77834 -0.78031 0
M  V30 5390 C 510.17 2.99038 -1.76616 0
M  V30 5391 C 509.124 3.13312 -2.91581 0
M  V30 5392 C 508.45 4.53172 -2.83794 0
M  V30 5393 C 509.75 2.92886 -4.32452 0
M  V30 5394 H 511.444 1.44146 -2.62416 0
M  V30 5395 H 508.99 0.692024 -1.26282 0
M  V30 5396 H 510.943 3.76564 -1.8915 0
M  V30 5397 H 509.667 3.16568 -0.80324 0
M  V30 5398 H 508.326 2.38213 -2.78658 0
M  V30 5399 H 507.974 4.67585 -1.854 0
M  V30 5400 H 507.674 4.63662 -3.60958 0
M  V30 5401 H 509.198 5.32752 -2.98342 0
M  V30 5402 H 510.612 3.60178 -4.46032 0
M  V30 5403 H 509.009 3.14844 -5.10875 0
M  V30 5404 H 510.079 1.88966 -4.46565 0
M  V30 5405 N 511.423 1.38739 0.74761 0
M  V30 5406 C 512.669 1.35475 1.50912 0
M  V30 5407 C 513.002 -0.0533093 1.94127 0
M  V30 5408 O 512.277 -1.01572 1.65871 0
M  V30 5409 C 512.56 2.31582 2.75757 0
M  V30 5410 C 512.413 3.81274 2.38642 0
M  V30 5411 C 513.732 2.25722 3.77806 0
M  V30 5412 H 510.851 0.493427 0.547447 0
M  V30 5413 H 513.493 1.69634 0.855823 0
M  V30 5414 H 511.643 2.02582 3.31501 0
M  V30 5415 H 513.315 4.20972 1.88626 0
M  V30 5416 H 511.558 3.98664 1.71025 0
M  V30 5417 H 512.229 4.4399 3.27989 0
M  V30 5418 H 514.705 2.51336 3.31616 0
M  V30 5419 H 513.581 2.95069 4.62845 0
M  V30 5420 H 513.842 1.25803 4.23823 0
M  V30 5421 N 512.901 -0.976442 1.23707 0
M  V30 5422 C 514.126 -1.75875 1.09922 0
M  V30 5423 C 514.551 -1.84911 -0.34489 0
M  V30 5424 O 513.909 -1.31363 -1.24954 0
M  V30 5425 C 513.957 -3.16179 1.73388 0
M  V30 5426 O 513.061 -4.00124 0.99871 0
M  V30 5427 H 512.402 -0.540954 0.385052 0
M  V30 5428 H 514.932 -1.22546 1.6384 0
M  V30 5429 H 514.942 -3.66741 1.78788 0
M  V30 5430 H 513.617 -3.08917 2.78466 0
M  V30 5431 H 512.194 -3.58624 1.02193 0
M  V30 5432 N 514.379 -1.04941 -1.1758 0
M  V30 5433 C 515.625 -0.759112 -1.88057 0
M  V30 5434 C 515.958 0.711918 -1.8068 0
M  V30 5435 O 515.233 1.52035 -1.21308 0
M  V30 5436 C 515.516 -1.237 -3.38187 0
M  V30 5437 C 515.369 -2.77078 -3.54327 0
M  V30 5438 C 516.688 -0.834014 -4.32125 0
M  V30 5439 H 513.807 -0.277237 -0.682868 0
M  V30 5440 H 516.449 -1.30296 -1.38286 0
M  V30 5441 H 514.599 -0.774337 -3.80705 0
M  V30 5442 H 516.271 -3.31449 -3.20842 0
M  V30 5443 H 514.514 -3.16477 -2.96689 0
M  V30 5444 H 515.185 -3.05577 -4.59703 0
M  V30 5445 H 517.661 -1.23228 -3.97434 0
M  V30 5446 H 516.537 -1.19603 -5.35711 0
M  V30 5447 H 516.798 0.262195 -4.41322 0
M  V30 5448 N 515.857 1.33968 -0.830081 0
M  V30 5449 C 516.767 2.33164 -0.259207 0
M  V30 5450 C 517.783 1.62951 0.610164 0
M  V30 5451 O 518.959 1.94668 0.516369 0
M  V30 5452 C 516.024 3.42088 0.563598 0
M  V30 5453 C 515.085 4.28037 -0.329014 0
M  V30 5454 C 514.318 5.3176 0.454616 0
M  V30 5455 O 514.541 5.44876 1.6872 0
M  V30 5456 O 513.475 6.01669 -0.166794 0
M  V30 5457 H 517.301 2.83832 -1.08041 0
M  V30 5458 H 514.886 1.37154 -0.59239 0
M  V30 5459 H 516.768 4.08581 1.03147 0
M  V30 5460 H 515.443 2.93651 1.36201 0
M  V30 5461 H 514.35 3.64443 -0.844538 0
M  V30 5462 H 515.683 4.79934 -1.09196 0
M  V30 5463 N 517.335 0.585699 1.46312 0
M  V30 5464 C 518.56 0.0762461 2.0726 0
M  V30 5465 C 518.985 -1.22071 1.43109 0
M  V30 5466 O 518.343 -1.73804 0.515942 0
M  V30 5467 C 518.391 -0.0729404 3.60526 0
M  V30 5468 O 517.495 -1.1287 3.96654 0
M  V30 5469 H 516.836 0.0641558 0.660893 0
M  V30 5470 H 519.366 0.809492 1.87905 0
M  V30 5471 H 519.376 -0.278158 4.07051 0
M  V30 5472 H 518.051 0.874188 4.06609 0
M  V30 5473 H 516.628 -0.901703 3.61834 0
M  V30 5474 N 518.813 -1.54241 0.323641 0
M  V30 5475 C 520.061 -2.00174 -0.278359 0
M  V30 5476 C 520.382 -1.2134 -1.52648 0
M  V30 5477 O 519.652 -0.315244 -1.93347 0
M  V30 5478 H 518.232 -0.739463 -0.105845 0
M  V30 5479 H 520.894 -1.89864 0.440204 0
M  V30 5480 H 519.99 -3.07486 -0.5347 0
M  V30 5481 N 520.291 -0.0518155 -1.57515 0
M  V30 5482 C 521.538 0.621823 -1.92716 0
M  V30 5483 C 521.866 1.70813 -0.930229 0
M  V30 5484 O 521.121 1.95616 0.0573708 0
M  V30 5485 C 521.42 1.25607 -3.34601 0
M  V30 5486 C 521.086 0.297901 -4.49915 0
M  V30 5487 C 519.748 0.034243 -4.81188 0
M  V30 5488 C 522.1 -0.358738 -5.19964 0
M  V30 5489 C 519.428 -0.893479 -5.79857 0
M  V30 5490 C 521.78 -1.27466 -6.19625 0
M  V30 5491 C 520.444 -1.54698 -6.49326 0
M  V30 5492 H 519.714 0.227541 -0.705199 0
M  V30 5493 H 522.361 -0.118432 -1.91133 0
M  V30 5494 H 520.666 2.07161 -3.32553 0
M  V30 5495 H 522.363 1.78424 -3.59118 0
M  V30 5496 H 518.953 0.513581 -4.25512 0
M  V30 5497 H 523.137 -0.168133 -4.96015 0
M  V30 5498 H 518.393 -1.11193 -6.01204 0
M  V30 5499 H 522.567 -1.78953 -6.73015 0
M  V30 5500 H 520.194 -2.26748 -7.25596 0
M  V30 5501 N 521.769 1.56035 0.221574 0
M  V30 5502 C 523.015 1.79312 0.947372 0
M  V30 5503 C 523.348 0.621453 1.83988 0
M  V30 5504 O 522.623 -0.379287 1.90766 0
M  V30 5505 C 522.906 3.1267 1.78633 0
M  V30 5506 C 522.759 4.40284 0.920312 0
M  V30 5507 C 524.078 3.4247 2.7641 0
M  V30 5508 H 521.197 0.652328 0.342982 0
M  V30 5509 H 523.839 1.88765 0.216244 0
M  V30 5510 H 521.989 3.04741 2.40967 0
M  V30 5511 H 523.661 4.60232 0.313718 0
M  V30 5512 H 521.904 4.33212 0.225734 0
M  V30 5513 H 522.575 5.30033 1.54171 0
M  V30 5514 H 525.051 3.50526 2.24211 0
M  V30 5515 H 523.927 4.3695 3.32213 0
M  V30 5516 H 524.188 2.64635 3.54148 0
M  V30 5517 N 523.247 -0.488276 1.49845 0
M  V30 5518 C 524.475 -1.26527 1.63702 0
M  V30 5519 C 524.89 -1.8618 0.313447 0
M  V30 5520 O 524.247 -1.68432 -0.702624 0
M  V30 5521 C 524.298 -2.3864 2.71538 0
M  V30 5522 O 524.019 -1.81437 3.98763 0
M  V30 5523 C 525.52 -3.29805 2.96215 0
M  V30 5524 H 522.74 -0.383295 0.55075 0
M  V30 5525 H 525.284 -0.584779 1.95961 0
M  V30 5526 H 523.439 -3.02496 2.42023 0
M  V30 5527 H 523.853 -2.55135 4.58265 0
M  V30 5528 H 525.327 -4.04722 3.75372 0
M  V30 5529 H 525.804 -3.87563 2.06619 0
M  V30 5530 H 526.41 -2.71703 3.27196 0
M  V30 5531 N 524.725 -1.39134 -0.740242 0
M  V30 5532 C 525.673 -1.3757 -1.87556 0
M  V30 5533 C 526.667 -0.259593 -1.67399 0
M  V30 5534 O 527.873 -0.429349 -1.74804 0
M  V30 5535 H 524.248 -0.42947 -0.6173 0
M  V30 5536 H 526.219 -2.33345 -1.85991 0
M  V30 5537 C 524.968 -1.23087 -3.25184 0
M  V30 5538 H 524.291 -2.08237 -3.41288 0
M  V30 5539 H 525.731 -1.26049 -4.0483 0
M  V30 5540 C 524.19 0.0611471 -3.36845 0
M  V30 5541 O 524.72 1.03328 -3.88183 0
M  V30 5542 N 522.926 0.122454 -2.90342 0
M  V30 5543 H 522.473 -0.669329 -2.48752 0
M  V30 5544 H 522.431 0.986463 -2.98523 0
M  V30 5545 N 526.204 0.969867 -1.24223 0
M  V30 5546 C 527.481 1.68774 -0.988664 0
M  V30 5547 C 527.861 2.05342 0.489673 0
M  V30 5548 O 527.209 1.75486 1.46345 0
M  V30 5549 C 527.419 2.92135 -1.90941 0
M  V30 5550 C 528.767 3.64422 -2.17903 0
M  V30 5551 O 529.791 3.02188 -1.88576 0
M  V30 5552 O 528.65 4.76446 -2.67697 0
M  V30 5553 H 525.744 0.737736 -0.37373 0
M  V30 5554 H 528.29 1.02415 -1.35312 0
M  V30 5555 H 527.062 2.61788 -2.90831 0
M  V30 5556 H 526.685 3.66228 -1.54798 0
M  V30 5557 N 527.682 1.05563 1.17022 0
M  V30 5558 C 528.931 0.763036 1.8671 0
M  V30 5559 C 529.244 -0.712857 1.82147 0
M  V30 5560 O 530.45 -1.11955 2.47343 0
M  V30 5561 C 528.906 1.31474 3.35026 0
M  V30 5562 C 528.514 2.82034 3.48081 0
M  V30 5563 C 530.258 1.09935 4.10018 0
M  V30 5564 C 528.165 3.30486 4.90442 0
M  V30 5565 H 527.095 0.281747 0.699382 0
M  V30 5566 H 529.746 1.2734 1.32124 0
M  V30 5567 H 528.128 0.732171 3.89173 0
M  V30 5568 H 529.302 3.46178 3.04133 0
M  V30 5569 H 527.617 3.02156 2.86515 0
M  V30 5570 H 530.214 1.43632 5.15048 0
M  V30 5571 H 530.557 0.0373072 4.16283 0
M  V30 5572 H 531.09 1.64732 3.62089 0
M  V30 5573 H 527.829 4.36137 4.89352 0
M  V30 5574 H 527.349 2.71086 5.35044 0
M  V30 5575 H 529.028 3.25382 5.59227 0
M  V30 5576 N 529.16 -1.33526 0.837174 0
M  V30 5577 C 530.39 -2.01754 0.444848 0
M  V30 5578 C 530.798 -1.63149 -0.958072 0
M  V30 5579 O 530.141 -0.839827 -1.63379 0
M  V30 5580 C 530.203 -3.56228 0.483917 0
M  V30 5581 C 529.867 -4.18205 1.84265 0
M  V30 5582 C 530.864 -4.37699 2.80563 0
M  V30 5583 C 528.549 -4.54667 2.13503 0
M  V30 5584 C 530.543 -4.928 4.04261 0
M  V30 5585 C 528.23 -5.09475 3.37458 0
M  V30 5586 C 529.228 -5.28488 4.32654 0
M  V30 5587 O 528.916 -5.82132 5.54417 0
M  V30 5588 H 528.648 -0.652928 0.175104 0
M  V30 5589 H 531.202 -1.71469 1.13082 0
M  V30 5590 H 529.432 -3.85833 -0.258826 0
M  V30 5591 H 531.121 -4.05752 0.109653 0
M  V30 5592 H 531.887 -4.0988 2.59274 0
M  V30 5593 H 527.766 -4.39164 1.40201 0
M  V30 5594 H 531.31 -5.07555 4.78574 0
M  V30 5595 H 527.207 -5.36725 3.58604 0
M  V30 5596 H 527.975 -6.00548 5.56133 0
M  V30 5597 N 530.638 -0.59345 -1.46 0
M  V30 5598 C 531.548 0.135817 -2.34207 0
M  V30 5599 C 532.564 0.875008 -1.50398 0
M  V30 5600 O 533.74 0.835778 -1.83239 0
M  V30 5601 C 530.805 1.12977 -3.27776 0
M  V30 5602 C 529.866 0.394081 -4.27487 0
M  V30 5603 C 529.099 1.34068 -5.16586 0
M  V30 5604 O 529.322 2.5778 -5.08828 0
M  V30 5605 O 528.256 0.845426 -5.95933 0
M  V30 5606 H 532.082 -0.588691 -2.9794 0
M  V30 5607 H 529.667 -0.353784 -1.45151 0
M  V30 5608 H 531.549 1.70261 -3.85473 0
M  V30 5609 H 530.224 1.83556 -2.66625 0
M  V30 5610 H 529.131 -0.220869 -3.73447 0
M  V30 5611 H 530.464 -0.270939 -4.91454 0
M  V30 5612 N 532.116 1.54067 -0.331816 0
M  V30 5613 C 533.363 2.00715 0.268269 0
M  V30 5614 C 533.691 1.21986 1.51491 0
M  V30 5615 O 532.946 0.292309 1.93505 0
M  V30 5616 C 533.245 3.51634 0.639392 0
M  V30 5617 C 532.911 4.48018 -0.509019 0
M  V30 5618 C 531.573 4.74089 -0.824209 0
M  V30 5619 C 533.925 5.05237 -1.28003 0
M  V30 5620 C 531.253 5.54637 -1.91298 0
M  V30 5621 C 533.605 5.86972 -2.35895 0
M  V30 5622 C 532.269 6.11342 -2.67987 0
M  V30 5623 H 531.539 0.734469 0.0981667 0
M  V30 5624 H 534.186 1.8596 -0.457304 0
M  V30 5625 H 532.491 3.6416 1.44551 0
M  V30 5626 H 534.188 3.85175 1.11539 0
M  V30 5627 H 530.778 4.27851 -0.253287 0
M  V30 5628 H 534.962 4.8507 -1.04978 0
M  V30 5629 H 530.218 5.71747 -2.16599 0
M  V30 5630 H 534.392 6.30327 -2.96076 0
M  V30 5631 H 532.019 6.73544 -3.5248 0
M  V30 5632 N 533.594 0.0601682 1.57485 0
M  V30 5633 C 534.819 -0.624416 1.97777 0
M  V30 5634 C 535.244 -1.63051 0.937867 0
M  V30 5635 O 534.602 -1.81036 -0.0978845 0
M  V30 5636 C 534.65 -1.27979 3.37126 0
M  V30 5637 O 533.754 -2.39556 3.35688 0
M  V30 5638 H 533.095 -0.161581 0.64404 0
M  V30 5639 H 535.625 0.131237 2.04179 0
M  V30 5640 H 535.635 -1.62937 3.74053 0
M  V30 5641 H 534.31 -0.542501 4.12347 0
M  V30 5642 H 532.887 -2.06478 3.10517 0
M  V30 5643 N 535.072 -1.5615 -0.213296 0
M  V30 5644 C 536.483 -1.69645 -0.779582 0
M  V30 5645 C 536.834 -0.663615 -1.84636 0
M  V30 5646 O 535.959 0.183633 -2.15619 0
M  V30 5647 C 536.554 -3.07567 -1.42084 0
M  V30 5648 C 535.113 -3.22889 -1.93442 0
M  V30 5649 C 534.26 -2.65581 -0.797612 0
M  V30 5650 H 537.211 -1.58696 0.0114951 0
M  V30 5651 H 537.232 -3.03884 -2.28986 0
M  V30 5652 H 536.744 -3.82716 -0.644187 0
M  V30 5653 H 534.845 -2.52623 -2.73884 0
M  V30 5654 H 534.958 -4.30197 -2.10872 0
M  V30 5655 H 533.322 -2.24278 -1.20712 0
M  V30 5656 H 534.105 -3.43284 -0.033494 0
M  V30 5657 N 536.55 0.480323 -1.50102 0
M  V30 5658 C 537.827 1.24159 -1.51142 0
M  V30 5659 C 538.207 2.09605 -0.250818 0
M  V30 5660 O 537.555 2.15274 0.766118 0
M  V30 5661 C 537.765 2.08057 -2.80202 0
M  V30 5662 C 539.113 2.66556 -3.30504 0
M  V30 5663 O 540.137 2.18308 -2.81461 0
M  V30 5664 O 538.996 3.54442 -4.15973 0
M  V30 5665 H 536.09 0.562928 -0.605839 0
M  V30 5666 H 538.636 0.492899 -1.62384 0
M  V30 5667 H 537.408 1.45032 -3.6343 0
M  V30 5668 H 537.031 2.90079 -2.71919 0
M  V30 5669 N 538.028 1.39524 0.732853 0
M  V30 5670 C 538.96 1.34318 1.85718 0
M  V30 5671 C 539.973 0.251576 1.60844 0
M  V30 5672 O 541.162 0.510685 1.71039 0
M  V30 5673 C 538.262 1.06334 3.21786 0
M  V30 5674 C 537.435 2.26813 3.73998 0
M  V30 5675 C 536.494 1.95253 4.88634 0
M  V30 5676 O 535.52 2.67957 5.02183 0
M  V30 5677 N 536.722 0.919984 5.73164 0
M  V30 5678 H 539.487 2.3121 1.90688 0
M  V30 5679 H 537.048 1.33654 0.91368 0
M  V30 5680 H 539.04 0.832363 3.96048 0
M  V30 5681 H 537.61 0.181682 3.12072 0
M  V30 5682 H 536.83 2.65849 2.91064 0
M  V30 5683 H 538.118 3.0717 4.05616 0
M  V30 5684 H 537.516 0.317487 5.64808 0
M  V30 5685 H 536.073 0.748905 6.47483 0
M  V30 5686 N 539.506 -0.963266 1.24736 0
M  V30 5687 C 540.439 -2.05758 0.986852 0
M  V30 5688 C 541.417 -1.62398 -0.0809272 0
M  V30 5689 O 542.601 -1.88414 0.0569347 0
M  V30 5690 C 539.728 -3.35135 0.490095 0
M  V30 5691 C 538.774 -3.97451 1.54709 0
M  V30 5692 S 539.607 -4.34519 3.12976 0
M  V30 5693 C 540.763 -5.67026 2.65014 0
M  V30 5694 H 540.996 -2.27539 1.91346 0
M  V30 5695 H 538.529 -1.10176 1.08169 0
M  V30 5696 H 540.487 -4.09962 0.21012 0
M  V30 5697 H 539.148 -3.11335 -0.415873 0
M  V30 5698 H 538.341 -4.90704 1.15003 0
M  V30 5699 H 537.943 -3.29071 1.77731 0
M  V30 5700 H 540.235 -6.44748 2.08102 0
M  V30 5701 H 541.178 -6.11594 3.56873 0
M  V30 5702 H 541.586 -5.25847 2.05294 0
M  V30 5703 N 540.985 -1.06182 -1.16461 0
M  V30 5704 C 542.233 -0.776326 -1.86595 0
M  V30 5705 C 542.554 0.69921 -1.82033 0
M  V30 5706 O 541.824 1.50579 -1.2531 0
M  V30 5707 H 540.404 -0.284184 -0.690832 0
M  V30 5708 H 543.066 -1.34308 -1.41235 0
M  V30 5709 H 542.162 -1.10022 -2.92064 0
M  V30 5710 N 542.463 1.3308 -0.844243 0
M  V30 5711 C 543.879 1.50447 -0.532729 0
M  V30 5712 C 544.079 1.78292 0.938837 0
M  V30 5713 O 543.135 1.84635 1.72239 0
M  V30 5714 C 544.448 2.65555 -1.41072 0
M  V30 5715 C 545.996 2.7944 -1.41005 0
M  V30 5716 C 546.471 3.97616 -2.27301 0
M  V30 5717 N 547.962 4.0486 -2.2504 0
M  V30 5718 C 548.697 4.95508 -2.88547 0
M  V30 5719 N 548.193 5.91236 -3.61126 0
M  V30 5720 N 549.986 4.88548 -2.77989 0
M  V30 5721 H 542.137 1.13269 -1.79677 0
M  V30 5722 H 544.4 0.55734 -0.766861 0
M  V30 5723 H 544.106 2.51675 -2.45668 0
M  V30 5724 H 543.98 3.61089 -1.09061 0
M  V30 5725 H 546.367 2.92749 -0.371784 0
M  V30 5726 H 546.448 1.8465 -1.77026 0
M  V30 5727 H 546.092 3.85066 -3.3119 0
M  V30 5728 H 546.022 4.91661 -1.88619 0
M  V30 5729 H 548.513 3.36353 -1.72264 0
M  V30 5730 H 548.826 6.57079 -4.06776 0
M  V30 5731 H 547.171 5.91295 -3.65234 0
M  V30 5732 H 550.362 4.12729 -2.20846 0
M  V30 5733 H 550.535 5.58994 -3.27765 0
M  V30 5734 N 543.941 0.601185 1.45683 0
M  V30 5735 C 545.166 0.0982245 2.07167 0
M  V30 5736 C 545.591 -1.20546 1.44396 0
M  V30 5737 O 544.949 -1.73247 0.534347 0
M  V30 5738 C 544.997 -0.0346976 3.60583 0
M  V30 5739 O 544.101 -1.08657 3.97828 0
M  V30 5740 H 543.442 0.0711618 0.660176 0
M  V30 5741 H 545.972 0.829376 1.87036 0
M  V30 5742 H 545.982 -0.234969 4.07323 0
M  V30 5743 H 544.657 0.917265 4.05659 0
M  V30 5744 H 543.234 -0.863275 3.6277 0
M  V30 5745 N 545.419 -1.53889 0.339982 0
M  V30 5746 C 546.366 -2.24902 -0.518452 0
M  V30 5747 C 547.336 -1.24593 -1.09844 0
M  V30 5748 O 548.521 -1.53317 -1.13572 0
M  V30 5749 C 545.661 -3.02262 -1.66529 0
M  V30 5750 C 544.774 -4.17418 -1.11295 0
M  V30 5751 C 543.909 -4.82273 -2.2268 0
M  V30 5752 C 542.948 -5.89503 -1.6478 0
M  V30 5753 N 542.085 -6.48153 -2.69893 0
M  V30 5754 H 546.925 -2.97853 0.0936579 0
M  V30 5755 H 544.462 -1.46986 0.0579924 0
M  V30 5756 H 546.42 -3.45371 -2.3404 0
M  V30 5757 H 545.05 -2.31614 -2.24844 0
M  V30 5758 H 544.102 -3.78976 -0.328886 0
M  V30 5759 H 545.414 -4.94554 -0.649414 0
M  V30 5760 H 544.568 -5.28435 -2.98063 0
M  V30 5761 H 543.307 -4.04552 -2.72376 0
M  V30 5762 H 542.312 -5.42728 -0.879004 0
M  V30 5763 H 543.537 -6.6913 -1.1594 0
M  V30 5764 H 541.483 -5.73298 -3.1885 0
M  V30 5765 H 541.4 -7.20752 -2.28151 0
M  V30 5766 H 542.668 -6.98968 -3.45056 0
M  V30 5767 N 546.897 -0.0685191 -1.57451 0
M  V30 5768 C 547.807 0.914677 -2.16034 0
M  V30 5769 C 548.823 1.32938 -1.12265 0
M  V30 5770 O 549.999 1.40275 -1.44516 0
M  V30 5771 C 547.064 2.16519 -2.70777 0
M  V30 5772 C 546.125 1.80721 -3.89408 0
M  V30 5773 C 545.358 2.9981 -4.41531 0
M  V30 5774 O 545.581 4.13727 -3.92666 0
M  V30 5775 O 544.515 2.79817 -5.32903 0
M  V30 5776 H 548.341 0.446364 -3.00402 0
M  V30 5777 H 545.926 0.154367 -1.486 0
M  V30 5778 H 547.808 2.89856 -3.05878 0
M  V30 5779 H 546.483 2.62454 -1.89471 0
M  V30 5780 H 545.39 1.04646 -3.59166 0
M  V30 5781 H 546.723 1.39571 -4.71997 0
M  V30 5782 N 548.375 1.56261 0.205012 0
M  V30 5783 C 549.6 1.84491 0.947512 0
M  V30 5784 C 550.025 0.650894 1.76479 0
M  V30 5785 O 549.383 -0.40035 1.76824 0
M  V30 5786 C 549.431 3.10863 1.82747 0
M  V30 5787 O 548.535 2.90719 2.925 0
M  V30 5788 H 547.876 0.607783 0.267386 0
M  V30 5789 H 550.406 2.03485 0.213323 0
M  V30 5790 H 550.416 3.41399 2.23407 0
M  V30 5791 H 549.091 3.97392 1.2269 0
M  V30 5792 H 547.668 2.71457 2.55667 0
M  V30 5793 N 549.853 -0.472356 1.50355 0
M  V30 5794 C 551.101 -1.22211 1.60962 0
M  V30 5795 C 551.422 -1.92497 0.311439 0
M  V30 5796 O 550.692 -1.8405 -0.671002 0
M  V30 5797 H 549.272 -0.454092 0.593135 0
M  V30 5798 H 551.934 -0.544977 1.87126 0
M  V30 5799 H 551.03 -1.9707 2.42012 0
M  V30 5800 N 551.331 -1.39911 -0.725443 0
M  V30 5801 C 552.577 -1.38862 -1.48624 0
M  V30 5802 C 552.932 0.0125913 -1.92396 0
M  V30 5803 O 552.225 0.981046 -1.64578 0
M  V30 5804 C 552.419 -2.30368 -2.7325 0
M  V30 5805 C 552.248 -3.79247 -2.41665 0
M  V30 5806 C 551.018 -4.48119 -2.3349 0
M  V30 5807 C 553.216 -4.70988 -2.06579 0
M  V30 5808 N 551.198 -5.82282 -1.94476 0
M  V30 5809 C 552.569 -5.93873 -1.78087 0
M  V30 5810 C 554.624 -4.58917 -1.9313 0
M  V30 5811 C 553.327 -7.06036 -1.37499 0
M  V30 5812 C 555.353 -5.71012 -1.53946 0
M  V30 5813 C 554.715 -6.92976 -1.26345 0
M  V30 5814 H 550.814 -0.563394 -0.54232 0
M  V30 5815 H 553.398 -1.75542 -0.842213 0
M  V30 5816 H 551.569 -1.95831 -3.35417 0
M  V30 5817 H 553.301 -2.20245 -3.39521 0
M  V30 5818 H 550.056 -4.01677 -2.50904 0
M  V30 5819 H 550.48 -6.53307 -1.77535 0
M  V30 5820 H 555.122 -3.65149 -2.13134 0
M  V30 5821 H 552.84 -7.99697 -1.16237 0
M  V30 5822 H 556.426 -5.63664 -1.44132 0
M  V30 5823 H 555.306 -7.78243 -0.964787 0
M  V30 5824 N 552.809 0.956637 -1.25245 0
M  V30 5825 C 554.055 1.70352 -1.10036 0
M  V30 5826 C 554.388 1.90869 0.358156 0
M  V30 5827 O 553.663 1.47819 1.26411 0
M  V30 5828 C 553.946 3.08766 -1.85298 0
M  V30 5829 C 553.799 2.95672 -3.38966 0
M  V30 5830 C 555.118 4.08622 -1.63451 0
M  V30 5831 H 552.237 0.618279 -0.401123 0
M  V30 5832 H 554.879 1.11212 -1.54051 0
M  V30 5833 H 553.029 3.59252 -1.47887 0
M  V30 5834 H 554.701 2.52527 -3.86041 0
M  V30 5835 H 552.944 2.31634 -3.6678 0
M  V30 5836 H 553.615 3.93776 -3.86839 0
M  V30 5837 H 556.091 3.67038 -1.96015 0
M  V30 5838 H 554.967 5.03514 -2.18551 0
M  V30 5839 H 555.228 4.3834 -0.575357 0
M  V30 5840 N 554.287 1.06798 1.15896 0
M  V30 5841 C 555.197 0.694564 2.24083 0
M  V30 5842 C 556.213 -0.291687 1.71538 0
M  V30 5843 O 557.389 -0.139723 2.00915 0
M  V30 5844 C 554.454 0.0921014 3.46578 0
M  V30 5845 C 553.515 1.13087 4.14137 0
M  V30 5846 C 552.748 0.557064 5.30785 0
M  V30 5847 O 552.971 -0.628623 5.66925 0
M  V30 5848 O 551.905 1.29924 5.8771 0
M  V30 5849 H 555.731 1.59663 2.58344 0
M  V30 5850 H 553.316 0.840575 1.2351 0
M  V30 5851 H 555.198 -0.241884 4.20705 0
M  V30 5852 H 553.873 -0.78337 3.14078 0
M  V30 5853 H 552.78 1.51712 3.41957 0
M  V30 5854 H 554.113 1.97805 4.50704 0
M  V30 5855 N 555.766 -1.3263 0.851289 0
M  V30 5856 C 556.714 -2.30882 0.282202 0
M  V30 5857 C 557.708 -1.58697 -0.592589 0
M  V30 5858 O 558.914 -1.73461 -0.480768 0
M  V30 5859 H 555.289 -0.748492 0.0725487 0
M  V30 5860 H 557.26 -2.76374 1.12516 0
M  V30 5861 C 556.009 -3.43828 -0.517449 0
M  V30 5862 H 555.332 -3.99532 0.146392 0
M  V30 5863 H 556.772 -4.1474 -0.88128 0
M  V30 5864 C 555.231 -2.90786 -1.70133 0
M  V30 5865 O 555.761 -2.88 -2.80034 0
M  V30 5866 N 553.967 -2.4723 -1.52728 0
M  V30 5867 H 553.514 -2.49695 -0.633257 0
M  V30 5868 H 553.472 -2.12094 -2.32085 0
M  V30 5869 N 557.244 -0.608902 -1.45362 0
M  V30 5870 C 558.154 0.110969 -2.34337 0
M  V30 5871 C 559.17 0.859007 -1.51318 0
M  V30 5872 O 560.346 0.816296 -1.84116 0
M  V30 5873 C 557.411 1.09494 -3.28956 0
M  V30 5874 C 556.472 0.348718 -4.27881 0
M  V30 5875 C 555.705 1.28582 -5.17979 0
M  V30 5876 O 555.928 2.52369 -5.11533 0
M  V30 5877 O 554.862 0.782172 -5.96796 0
M  V30 5878 H 558.688 -0.620258 -2.97299 0
M  V30 5879 H 556.273 -0.36916 -1.44767 0
M  V30 5880 H 558.155 1.66163 -3.87257 0
M  V30 5881 H 556.83 1.80717 -2.68557 0
M  V30 5882 H 555.737 -0.260465 -3.73192 0
M  V30 5883 H 557.07 -0.323049 -4.91139 0
M  V30 5884 N 558.722 1.53707 -0.348139 0
M  V30 5885 C 559.971 2.0017 0.247992 0
M  V30 5886 C 560.284 1.23983 1.51286 0
M  V30 5887 O 561.49 1.60946 2.18652 0
M  V30 5888 C 559.946 3.56515 0.492459 0
M  V30 5889 C 559.554 4.41562 -0.756777 0
M  V30 5890 C 561.298 4.11381 1.0472 0
M  V30 5891 C 559.205 5.89426 -0.482856 0
M  V30 5892 H 558.135 0.747806 0.0964452 0
M  V30 5893 H 560.786 1.77532 -0.464179 0
M  V30 5894 H 559.168 3.75236 1.26545 0
M  V30 5895 H 560.342 4.34615 -1.53122 0
M  V30 5896 H 558.657 3.97711 -1.23348 0
M  V30 5897 H 561.254 5.19468 1.26717 0
M  V30 5898 H 561.597 3.64885 2.00411 0
M  V30 5899 H 562.13 3.96389 0.334801 0
M  V30 5900 H 558.869 6.40164 -1.40962 0
M  V30 5901 H 558.389 5.99264 0.253416 0
M  V30 5902 H 560.068 6.4692 -0.101816 0
M  V30 5903 N 560.2 0.0768682 1.57412 0
M  V30 5904 C 561.43 -0.5991 1.97723 0
M  V30 5905 C 561.838 -1.63378 0.954166 0
M  V30 5906 O 561.181 -1.83578 -0.0668706 0
M  V30 5907 C 561.243 -1.32078 3.34358 0
M  V30 5908 C 560.907 -0.438985 4.54887 0
M  V30 5909 C 561.904 0.305492 5.19002 0
M  V30 5910 C 559.589 -0.362378 5.00991 0
M  V30 5911 C 561.583 1.11475 6.27576 0
M  V30 5912 C 559.27 0.450543 6.09437 0
M  V30 5913 C 560.268 1.18777 6.72593 0
M  V30 5914 O 559.956 1.98727 7.7895 0
M  V30 5915 H 559.688 -0.166725 0.655117 0
M  V30 5916 H 562.242 0.147337 2.04871 0
M  V30 5917 H 560.472 -2.1134 3.2384 0
M  V30 5918 H 562.161 -1.88949 3.5924 0
M  V30 5919 H 562.927 0.25593 4.84324 0
M  V30 5920 H 558.806 -0.925832 4.51608 0
M  V30 5921 H 562.35 1.69068 6.76803 0
M  V30 5922 H 558.247 0.501651 6.43548 0
M  V30 5923 H 559.015 1.91214 7.95851 0
M  V30 5924 N 561.678 -1.56367 -0.196722 0
M  V30 5925 C 562.926 -1.80172 -0.915554 0
M  V30 5926 C 563.247 -0.649649 -1.8386 0
M  V30 5927 O 562.517 0.332111 -1.93064 0
M  V30 5928 H 561.097 -0.664592 -0.341067 0
M  V30 5929 H 563.759 -1.93844 -0.202622 0
M  V30 5930 H 562.855 -2.7327 -1.50764 0
M  V30 5931 N 563.156 0.464375 -1.50603 0
M  V30 5932 C 564.386 1.23727 -1.65454 0
M  V30 5933 C 564.794 1.86119 -0.340032 0
M  V30 5934 O 564.137 1.70301 0.688706 0
M  V30 5935 C 564.199 2.38153 -2.69301 0
M  V30 5936 C 563.863 1.96345 -4.12671 0
M  V30 5937 C 564.86 1.48215 -4.98326 0
M  V30 5938 C 562.545 2.04861 -4.58625 0
M  V30 5939 C 564.539 1.09152 -6.27985 0
M  V30 5940 C 562.226 1.65409 -5.88288 0
M  V30 5941 C 563.224 1.17634 -6.72794 0
M  V30 5942 O 562.912 0.787312 -8.00035 0
M  V30 5943 H 562.644 0.380075 -0.559034 0
M  V30 5944 H 565.198 0.559919 -1.97621 0
M  V30 5945 H 563.428 3.09081 -2.32392 0
M  V30 5946 H 565.117 3.00099 -2.73304 0
M  V30 5947 H 565.883 1.41052 -4.64036 0
M  V30 5948 H 561.762 2.40996 -3.92991 0
M  V30 5949 H 565.306 0.717909 -6.93896 0
M  V30 5950 H 561.203 1.72233 -6.22098 0
M  V30 5951 H 561.971 0.915567 -8.13363 0
M  V30 5952 O 564.673 1.49538 0.609965 0
M  V30 5953 H 565.364 1.46731 1.26451 0
M  V30 END ATOM
M  V30 BEGIN BOND
M  V30 END BOND
M  V30 END CTAB
M  END
$$$$
