drugbank_target|Q6ZMR3 L-lactate dehydrogenase A-like 6A (DB00157)
 OpenBabel12092119283D

  0  0  0     0  0            999 V3000
M  V30 BEGIN CTAB
M  V30 COUNTS 5204 5248 0 0 0
M  V30 BEGIN ATOM
M  V30 1 H -0.908 1.98254 -0.117106 0
M  V30 2 N 0 1.576 0 0
M  V30 3 C 0.933 2.03868 1.02534 0
M  V30 4 C 1.911 0.928543 1.3348 0
M  V30 5 O 3.095 1.19667 1.45644 0
M  V30 6 C 0.222 2.43627 2.35294 0
M  V30 7 C -0.732 3.65373 2.2001 0
M  V30 8 S 0.101 5.13292 1.52614 0
M  V30 9 C 1.257 5.56322 2.86805 0
M  V30 10 H 1.49 2.90518 0.631377 0
M  V30 11 H -0.977 1.52953 0.210867 0
M  V30 12 H 0.981 2.67203 3.11629 0
M  V30 13 H -0.358 1.57376 2.7183 0
M  V30 14 H -1.165 3.90944 3.18086 0
M  V30 15 H -1.563 3.418 1.51819 0
M  V30 16 H 0.729 5.58782 3.83104 0
M  V30 17 H 1.672 6.56266 2.65933 0
M  V30 18 H 2.08 4.83886 2.90714 0
M  V30 19 N 1.4781 -0.272755 1.55222 0
M  V30 20 C 2.4411 -1.32041 1.87344 0
M  V30 21 C 3.4411 -1.42342 0.74803 0
M  V30 22 O 4.6311 -1.41488 1.0162 0
M  V30 23 C 1.7631 -2.70173 2.07893 0
M  V30 24 H 2.9561 -1.04789 2.80997 0
M  V30 25 H 0.5091 -0.51083 1.47717 0
M  V30 26 H 1.2441 -3.02605 1.16622 0
M  V30 27 H 1.0291 -2.64082 2.89833 0
M  V30 28 H 2.5191 -3.45869 2.34017 0
M  V30 29 N 2.9562 -1.48159 -0.537278 0
M  V30 30 C 4.1842 -1.59454 -1.31841 0
M  V30 31 C 4.5992 -0.252065 -1.8711 0
M  V30 32 O 3.9562 0.757621 -1.66031 0
M  V30 33 C 4.0072 -2.63546 -2.47439 0
M  V30 34 O 3.7282 -3.92583 -1.94449 0
M  V30 35 C 5.2292 -2.85212 -3.39366 0
M  V30 36 H 2.4492 -0.53785 -0.401196 0
M  V30 37 H 4.9932 -1.93932 -0.648891 0
M  V30 38 H 3.1482 -2.31946 -3.1029 0
M  V30 39 H 3.5622 -4.49629 -2.70063 0
M  V30 40 H 5.0362 -3.61863 -4.16844 0
M  V30 41 H 5.5132 -1.93765 -3.94147 0
M  V30 42 H 6.1192 -3.18086 -2.82314 0
M  V30 43 N 4.4343 0.785586 -1.36625 0
M  V30 44 C 5.6833 1.53883 -1.30396 0
M  V30 45 C 5.9963 1.95271 0.113452 0
M  V30 46 O 7.2023 2.69858 0.298142 0
M  V30 47 C 5.6583 2.77808 -2.28802 0
M  V30 48 C 5.2663 2.43574 -3.75999 0
M  V30 49 C 7.0103 3.55783 -2.31558 0
M  V30 50 C 4.9173 3.63919 -4.66173 0
M  V30 51 H 3.8473 0.577678 -0.484566 0
M  V30 52 H 6.4983 0.861705 -1.62009 0
M  V30 53 H 4.8803 3.47339 -1.90188 0
M  V30 54 H 6.0543 1.81916 -4.23371 0
M  V30 55 H 4.3693 1.78803 -3.76056 0
M  V30 56 H 6.9663 4.45205 -2.96137 0
M  V30 57 H 7.3093 3.94644 -1.3252 0
M  V30 58 H 7.8423 2.93235 -2.68809 0
M  V30 59 H 4.5813 3.3015 -5.66287 0
M  V30 60 H 4.1013 4.2473 -4.23515 0
M  V30 61 H 5.7803 4.30901 -4.82632 0
M  V30 62 N 5.9124 1.20967 1.01018 0
M  V30 63 C 6.8594 0.964281 2.09691 0
M  V30 64 C 7.8294 -0.107853 1.65749 0
M  V30 65 O 9.0144 0.0381987 1.90762 0
M  V30 66 C 6.1544 0.52943 3.41015 0
M  V30 67 C 5.2674 1.67043 3.98398 0
M  V30 68 C 4.4024 1.18525 5.17808 0
M  V30 69 C 3.4414 2.29892 5.67288 0
M  V30 70 N 2.5784 1.82546 6.77954 0
M  V30 71 H 7.4184 1.89463 2.30017 0
M  V30 72 H 4.9554 0.944289 1.1279 0
M  V30 73 H 6.9134 0.258588 4.16398 0
M  V30 74 H 5.5434 -0.363919 3.20742 0
M  V30 75 H 4.5954 2.05603 3.20049 0
M  V30 76 H 5.9074 2.50877 4.31117 0
M  V30 77 H 5.0614 0.870762 6.00419 0
M  V30 78 H 3.8004 0.316887 4.86669 0
M  V30 79 H 2.8054 2.6215 4.83278 0
M  V30 80 H 4.0304 3.17216 6.00459 0
M  V30 81 H 1.9764 0.980454 6.48632 0
M  V30 82 H 1.8934 2.59956 7.09901 0
M  V30 83 H 3.1614 1.54115 7.64113 0
M  V30 84 N 7.3905 -1.2043 1.01659 0
M  V30 85 C 8.6155 -1.94318 0.724942 0
M  V30 86 C 9.0405 -1.74266 -0.708034 0
M  V30 87 O 8.3985 -1.03694 -1.48719 0
M  V30 88 C 8.4465 -3.44486 1.06591 0
M  V30 89 O 7.5505 -4.12017 0.177599 0
M  V30 90 H 6.8915 -0.60708 0.26898 0
M  V30 91 H 9.4215 -1.52861 1.35995 0
M  V30 92 H 9.4315 -3.95106 1.01762 0
M  V30 93 H 8.1065 -3.58404 2.10997 0
M  V30 94 H 6.6835 -3.71821 0.283421 0
M  V30 95 N 8.8686 -0.792821 -1.36206 0
M  V30 96 C 9.7786 -0.194808 -2.3379 0
M  V30 97 C 10.7946 0.654869 -1.61206 0
M  V30 98 O 11.9706 0.569856 -1.9317 0
M  V30 99 C 9.0356 0.657721 -3.40404 0
M  V30 100 C 8.0966 -0.210849 -4.28782 0
M  V30 101 C 7.3296 0.601086 -5.30304 0
M  V30 102 O 7.5526 1.83682 -5.40016 0
M  V30 103 O 6.4866 -0.000808277 -6.019 0
M  V30 104 H 10.3126 -1.00172 -2.86704 0
M  V30 105 H 7.8976 -0.554341 -1.38735 0
M  V30 106 H 9.7796 1.14375 -4.05581 0
M  V30 107 H 8.4546 1.44247 -2.89784 0
M  V30 108 H 7.3616 -0.743714 -3.66633 0
M  V30 109 H 8.6946 -0.959195 -4.82763 0
M  V30 110 N 10.3467 1.47872 -0.545128 0
M  V30 111 C 11.2767 2.32661 0.197793 0
M  V30 112 C 12.2577 1.43041 0.920504 0
M  V30 113 O 13.4427 1.71912 0.90333 0
M  V30 114 C 10.5727 3.24569 1.23582 0
M  V30 115 C 9.5267 4.23333 0.630323 0
M  V30 116 C 8.8527 5.0448 1.77211 0
M  V30 117 C 10.1527 5.20704 -0.407974 0
M  V30 118 H 11.8467 2.95024 -0.510045 0
M  V30 119 H 9.3927 1.4187 -0.246731 0
M  V30 120 H 11.3457 3.8272 1.76362 0
M  V30 121 H 10.0697 2.60236 1.97344 0
M  V30 122 H 8.7287 3.6639 0.123922 0
M  V30 123 H 8.3767 4.36561 2.49847 0
M  V30 124 H 8.0767 5.71339 1.37281 0
M  V30 125 H 9.6007 5.65487 2.3034 0
M  V30 126 H 11.0147 5.7329 0.033305 0
M  V30 127 H 9.4117 5.95699 -0.725486 0
M  V30 128 H 10.4817 4.66917 -1.30828 0
M  V30 129 N 11.8248 0.280983 1.55075 0
M  V30 130 C 13.0738 -0.334784 1.98902 0
M  V30 131 C 13.3868 -1.56534 1.17288 0
M  V30 132 O 14.5928 -2.25443 1.51287 0
M  V30 133 C 13.0488 -0.646994 3.54037 0
M  V30 134 C 12.6568 0.564085 4.44435 0
M  V30 135 C 14.4008 -1.22506 4.06439 0
M  V30 136 C 12.3078 0.226137 5.90967 0
M  V30 137 H 11.2378 -0.128866 0.742906 0
M  V30 138 H 13.8888 0.386556 1.79382 0
M  V30 139 H 12.2708 -1.42739 3.6938 0
M  V30 140 H 13.4448 1.34082 4.40861 0
M  V30 141 H 11.7598 1.0594 4.02698 0
M  V30 142 H 14.3568 -1.49182 5.13468 0
M  V30 143 H 14.6998 -2.16085 3.55827 0
M  V30 144 H 15.2328 -0.50682 3.94558 0
M  V30 145 H 11.9718 1.12996 6.45687 0
M  V30 146 H 11.4918 -0.513717 5.97596 0
M  V30 147 H 13.1708 -0.179539 6.46751 0
M  V30 148 N 13.3029 -1.57598 0.00835791 0
M  V30 149 C 14.2499 -2.08945 -0.980346 0
M  V30 150 C 15.2199 -0.986738 -1.33614 0
M  V30 151 O 16.4049 -1.25968 -1.43306 0
M  V30 152 C 13.5449 -2.60425 -2.26435 0
M  V30 153 C 12.6579 -3.84628 -1.96685 0
M  V30 154 C 11.7929 -4.24579 -3.19228 0
M  V30 155 C 10.8319 -5.41596 -2.85202 0
M  V30 156 N 9.9689 -5.768 -4.00307 0
M  V30 157 H 14.8089 -2.93148 -0.535551 0
M  V30 158 H 12.3459 -1.44912 -0.252776 0
M  V30 159 H 14.3039 -2.88354 -3.01509 0
M  V30 160 H 12.9339 -1.79083 -2.68568 0
M  V30 161 H 11.9859 -3.63556 -1.11942 0
M  V30 162 H 13.2979 -4.69796 -1.67611 0
M  V30 163 H 12.4519 -4.53834 -4.02641 0
M  V30 164 H 11.1909 -3.38137 -3.51447 0
M  V30 165 H 10.1959 -5.12056 -2.00198 0
M  V30 166 H 11.4209 -6.29721 -2.54222 0
M  V30 167 H 9.3669 -4.93316 -4.32407 0
M  V30 168 H 9.2839 -6.5656 -3.74786 0
M  V30 169 H 10.5519 -6.10652 -4.84484 0
M  V30 170 N 14.781 0.264519 -1.55364 0
M  V30 171 C 15.729 1.34702 -1.89626 0
M  V30 172 C 16.723 1.50712 -0.773459 0
M  V30 173 O 17.929 1.52395 -0.957897 0
M  V30 174 H 14.304 0.450682 -0.601988 0
M  V30 175 H 16.275 1.0306 -2.80038 0
M  V30 176 C 15.024 2.6989 -2.19214 0
M  V30 177 H 14.347 2.58365 -3.05103 0
M  V30 178 H 15.787 3.44553 -2.47102 0
M  V30 179 C 14.246 3.21637 -1.00254 0
M  V30 180 O 14.776 4.00973 -0.241501 0
M  V30 181 N 12.982 2.7943 -0.797938 0
M  V30 182 H 12.529 2.15026 -1.4185 0
M  V30 183 H 12.487 3.144 -0.00363422 0
M  V30 184 N 16.2591 1.48442 0.529413 0
M  V30 185 C 17.5061 1.56488 1.28521 0
M  V30 186 C 17.8341 0.239042 1.93025 0
M  V30 187 O 17.0891 -0.770713 1.79885 0
M  V30 188 C 17.3881 2.6523 2.39558 0
M  V30 189 C 17.0541 4.07648 1.92702 0
M  V30 190 C 15.7161 4.46411 1.79641 0
M  V30 191 C 18.0681 4.96896 1.573 0
M  V30 192 C 15.3961 5.72226 1.29514 0
M  V30 193 C 17.7481 6.23202 1.08636 0
M  V30 194 C 16.4121 6.60821 0.941919 0
M  V30 195 H 15.6821 0.572631 0.470292 0
M  V30 196 H 18.3291 1.82161 0.59072 0
M  V30 197 H 16.6341 2.33419 3.14679 0
M  V30 198 H 18.3311 2.68671 2.97686 0
M  V30 199 H 14.9211 3.77036 2.03819 0
M  V30 200 H 19.1051 4.67626 1.66251 0
M  V30 201 H 14.3611 6.00097 1.17019 0
M  V30 202 H 18.5351 6.91753 0.803136 0
M  V30 203 H 16.1621 7.58198 0.5513 0
M  V30 204 N 17.7372 -0.778329 1.37039 0
M  V30 205 C 18.7002 -1.87301 1.32102 0
M  V30 206 C 19.7002 -1.59198 0.226405 0
M  V30 207 O 20.8902 -1.67403 0.481861 0
M  V30 208 C 18.0222 -3.24309 1.05055 0
M  V30 209 H 19.2152 -1.93093 2.29467 0
M  V30 210 H 16.7682 -0.977358 1.21973 0
M  V30 211 H 17.5032 -3.24196 0.0819373 0
M  V30 212 H 17.2882 -3.46098 1.84279 0
M  V30 213 H 18.7782 -4.04382 1.04234 0
M  V30 214 N 19.2153 -1.21501 -1.00376 0
M  V30 215 C 20.1253 -0.991447 -2.12621 0
M  V30 216 C 21.1413 0.0568446 -1.73907 0
M  V30 217 O 22.3173 -0.13348 -2.00957 0
M  V30 218 C 19.3823 -0.560312 -3.42142 0
M  V30 219 C 18.4433 -1.68096 -3.95022 0
M  V30 220 C 17.6763 -1.2703 -5.18362 0
M  V30 221 O 17.8993 -0.144438 -5.70217 0
M  V30 222 O 16.8333 -2.08269 -5.64719 0
M  V30 223 H 20.6593 -1.93158 -2.34358 0
M  V30 224 H 18.2443 -0.999999 -1.10997 0
M  V30 225 H 20.1263 -0.329724 -4.20108 0
M  V30 226 H 18.8013 0.351089 -3.2179 0
M  V30 227 H 17.7083 -1.96597 -3.18278 0
M  V30 228 H 19.0413 -2.56983 -4.19786 0
M  V30 229 N 20.6934 1.19889 -1.02296 0
M  V30 230 C 21.6034 2.26571 -0.608508 0
M  V30 231 C 22.6194 1.70299 0.356964 0
M  V30 232 O 23.7954 2.00235 0.216326 0
M  V30 233 C 20.8604 3.46677 0.0402814 0
M  V30 234 C 19.9214 4.18153 -0.97194 0
M  V30 235 C 19.1544 5.32525 -0.354016 0
M  V30 236 O 19.3774 5.64112 0.844604 0
M  V30 237 O 18.3114 5.92242 -1.07391 0
M  V30 238 H 22.1374 2.64251 -1.49684 0
M  V30 239 H 19.7224 1.26629 -0.792809 0
M  V30 240 H 21.6044 4.19475 0.402324 0
M  V30 241 H 20.2794 3.10858 0.902707 0
M  V30 242 H 19.1864 3.47499 -1.38546 0
M  V30 243 H 20.5194 4.57927 -1.80454 0
M  V30 244 N 22.1715 0.800033 1.35784 0
M  V30 245 C 23.0815 0.207204 2.33683 0
M  V30 246 C 24.0975 -0.64631 1.61551 0
M  V30 247 O 25.2735 -0.559604 1.93469 0
M  V30 248 C 22.3385 -0.639659 3.40748 0
M  V30 249 C 21.3995 0.233585 4.28664 0
M  V30 250 C 20.6325 -0.572954 5.30616 0
M  V30 251 O 20.8555 -1.80816 5.40982 0
M  V30 252 O 19.7895 0.0327285 6.01891 0
M  V30 253 H 23.6155 1.01692 2.86169 0
M  V30 254 H 21.2005 0.561691 1.38439 0
M  V30 255 H 23.0825 -1.12223 4.06182 0
M  V30 256 H 21.7575 -1.42708 2.90544 0
M  V30 257 H 20.6645 0.763147 3.66233 0
M  V30 258 H 21.9975 0.984784 4.82248 0
M  V30 259 N 23.6496 -1.47581 0.552962 0
M  V30 260 C 24.6126 -2.28439 -0.186605 0
M  V30 261 C 25.6126 -1.36706 -0.84665 0
M  V30 262 O 26.8026 -1.59378 -0.703164 0
M  V30 263 C 23.9346 -3.16264 -1.2724 0
M  V30 264 H 25.1276 -2.95294 0.523609 0
M  V30 265 H 22.6806 -1.532 0.309745 0
M  V30 266 H 23.4156 -2.54091 -2.01514 0
M  V30 267 H 23.2006 -3.83769 -0.803968 0
M  V30 268 H 24.6906 -3.77198 -1.79196 0
M  V30 269 N 25.1277 -0.289203 -1.54924 0
M  V30 270 C 26.3767 0.324231 -1.99077 0
M  V30 271 C 26.6897 1.5591 -1.18117 0
M  V30 272 O 27.8957 2.24637 -1.52481 0
M  V30 273 C 26.3517 0.628209 -3.54375 0
M  V30 274 C 25.9597 -0.587647 -4.44129 0
M  V30 275 C 27.7037 1.20349 -4.07083 0
M  V30 276 C 25.6107 -0.257475 -5.90839 0
M  V30 277 H 24.5407 0.124924 -0.743579 0
M  V30 278 H 27.1917 -0.396063 -1.79175 0
M  V30 279 H 25.5737 1.40778 -3.70132 0
M  V30 280 H 26.7477 -1.36418 -4.40144 0
M  V30 281 H 25.0627 -1.08074 -4.0213 0
M  V30 282 H 27.6597 1.46456 -5.14252 0
M  V30 283 H 28.0027 2.14195 -3.56968 0
M  V30 284 H 28.5357 0.485889 -3.94821 0
M  V30 285 H 25.2747 -1.16419 -6.45079 0
M  V30 286 H 24.7947 0.482018 -5.9786 0
M  V30 287 H 26.4737 0.145238 -6.46837 0
M  V30 288 N 26.6058 1.57591 -0.0167156 0
M  V30 289 C 27.5558 2.05953 0.978137 0
M  V30 290 C 28.5398 0.957532 1.29306 0
M  V30 291 O 29.7318 1.22119 1.28125 0
M  V30 292 C 26.8608 2.58006 2.26468 0
M  V30 293 C 25.9468 3.75113 1.97867 0
M  V30 294 N 26.3378 4.86187 1.39486 0
M  V30 295 C 24.6358 3.83363 2.27924 0
M  V30 296 C 25.3368 5.67502 1.27735 0
M  V30 297 N 24.3128 5.14023 1.76866 0
M  V30 298 H 28.1148 2.89236 0.521522 0
M  V30 299 H 25.6288 1.61301 0.188596 0
M  V30 300 H 27.6258 2.90937 2.98599 0
M  V30 301 H 26.2858 1.76148 2.72767 0
M  V30 302 H 27.2968 5.06695 1.07147 0
M  V30 303 H 23.9738 3.1239 2.76982 0
M  V30 304 H 25.3638 6.66791 0.826978 0
M  V30 305 N 28.0839 -0.256276 1.55502 0
M  V30 306 C 29.0339 -1.31981 1.85916 0
M  V30 307 C 30.0179 -1.43927 0.719296 0
M  V30 308 O 31.2099 -1.47326 0.981019 0
M  V30 309 C 28.3389 -2.67703 2.14918 0
M  V30 310 C 27.4249 -2.59801 3.35208 0
M  V30 311 N 27.8159 -2.21524 4.54709 0
M  V30 312 C 26.1139 -2.90832 3.38131 0
M  V30 313 C 26.8149 -2.24024 5.36832 0
M  V30 314 N 25.7909 -2.63158 4.75656 0
M  V30 315 H 29.5929 -1.01423 2.75845 0
M  V30 316 H 27.1069 -0.464911 1.55603 0
M  V30 317 H 29.1039 -3.44445 2.34869 0
M  V30 318 H 27.7639 -2.99137 1.26282 0
M  V30 319 H 28.7749 -1.93223 4.80505 0
M  V30 320 H 25.4519 -3.26867 2.59739 0
M  V30 321 H 26.8419 -1.9685 6.42417 0
M  V30 322 N 29.562 -1.4872 -0.521534 0
M  V30 323 C 30.51 -1.64328 -1.64618 0
M  V30 324 C 31.504 -0.50953 -1.61555 0
M  V30 325 O 32.71 -0.688525 -1.66311 0
M  V30 326 H 29.085 -0.517805 -0.545328 0
M  V30 327 H 31.056 -2.58767 -1.48601 0
M  V30 328 C 29.805 -1.70805 -3.02855 0
M  V30 329 H 29.128 -2.5741 -3.05909 0
M  V30 330 H 30.568 -1.85766 -3.81139 0
M  V30 331 C 29.027 -0.448479 -3.33902 0
M  V30 332 O 29.557 0.434928 -3.99339 0
M  V30 333 N 27.763 -0.317616 -2.88859 0
M  V30 334 H 27.31 -1.03748 -2.35784 0
M  V30 335 H 27.268 0.524113 -3.10001 0
M  V30 336 N 31.0401 0.771051 -1.3745 0
M  V30 337 C 31.9871 1.88435 -1.3327 0
M  V30 338 C 32.9571 1.64914 -0.198136 0
M  V30 339 O 34.1421 1.86821 -0.387606 0
M  V30 340 C 31.2821 3.25509 -1.14622 0
M  V30 341 C 30.3951 3.60979 -2.37314 0
M  V30 342 C 29.5301 4.87265 -2.11533 0
M  V30 343 C 28.5691 5.15469 -3.30088 0
M  V30 344 N 27.7061 6.32944 -3.03853 0
M  V30 345 H 32.5461 1.91344 -2.28455 0
M  V30 346 H 30.0831 0.935466 -1.13523 0
M  V30 347 H 32.0411 4.04582 -1.01831 0
M  V30 348 H 30.6711 3.21974 -0.230837 0
M  V30 349 H 29.7231 2.76885 -2.60842 0
M  V30 350 H 31.0351 3.77759 -3.25729 0
M  V30 351 H 30.1891 5.74244 -1.95777 0
M  V30 352 H 28.9281 4.7259 -1.20457 0
M  V30 353 H 27.9331 4.26966 -3.46382 0
M  V30 354 H 29.1581 5.32052 -4.22016 0
M  V30 355 H 27.1041 6.19625 -2.15407 0
M  V30 356 H 27.0211 6.50143 -3.85812 0
M  V30 357 H 28.2891 7.22857 -2.91716 0
M  V30 358 N 32.5182 1.22032 0.997298 0
M  V30 359 C 33.7672 1.03637 1.73038 0
M  V30 360 C 34.0802 -0.429475 1.90827 0
M  V30 361 O 35.2862 -0.732995 2.61418 0
M  V30 362 C 33.7422 1.80582 3.11317 0
M  V30 363 C 33.3502 3.31387 3.01474 0
M  V30 364 C 35.0942 1.70621 3.88701 0
M  V30 365 C 33.0012 4.00791 4.3488 0
M  V30 366 H 31.9312 0.384179 0.648785 0
M  V30 367 H 34.5822 1.4584 1.11368 0
M  V30 368 H 32.9642 1.31175 3.73643 0
M  V30 369 H 34.1382 3.88155 2.4834 0
M  V30 370 H 32.4532 3.41976 2.37575 0
M  V30 371 H 35.0502 2.19799 4.87434 0
M  V30 372 H 35.3932 0.665823 4.10941 0
M  V30 373 H 35.9262 2.17547 3.33044 0
M  V30 374 H 32.6652 5.05064 4.1784 0
M  V30 375 H 32.1852 3.48811 4.87945 0
M  V30 376 H 33.8642 4.06139 5.03647 0
M  V30 377 N 33.9963 -1.19345 1.0293 0
M  V30 378 C 35.2213 -1.93538 0.745511 0
M  V30 379 C 35.6463 -1.75007 -0.689511 0
M  V30 380 O 35.0043 -1.05265 -1.47611 0
M  V30 381 C 35.0523 -3.43336 1.10239 0
M  V30 382 O 34.1563 -4.11806 0.221289 0
M  V30 383 H 33.4973 -0.604193 0.275404 0
M  V30 384 H 36.0273 -1.5141 1.37609 0
M  V30 385 H 36.0373 -3.94004 1.05947 0
M  V30 386 H 34.7123 -3.56146 2.14786 0
M  V30 387 H 33.2893 -3.715 0.322842 0
M  V30 388 N 35.4744 -0.807222 -1.35358 0
M  V30 389 C 36.7234 -0.384376 -1.98004 0
M  V30 390 C 37.0364 1.0543 -1.64754 0
M  V30 391 O 38.2424 1.58029 -2.20769 0
M  V30 392 C 36.6984 -0.636326 -3.5423 0
M  V30 393 C 36.3064 -2.08759 -3.96388 0
M  V30 394 C 38.0504 -0.278869 -4.23583 0
M  V30 395 C 35.9574 -2.28525 -5.45463 0
M  V30 396 H 34.8874 -0.139986 -0.740891 0
M  V30 397 H 37.5384 -0.991369 -1.54415 0
M  V30 398 H 35.9204 0.0406256 -3.95979 0
M  V30 399 H 37.0944 -2.8024 -3.6579 0
M  V30 400 H 35.4094 -2.40497 -3.39926 0
M  V30 401 H 38.0064 -0.404599 -5.33167 0
M  V30 402 H 38.3494 0.775012 -4.09022 0
M  V30 403 H 38.8824 -0.909764 -3.87257 0
M  V30 404 H 35.6214 -3.32361 -5.64992 0
M  V30 405 H 35.1414 -1.61569 -5.77629 0
M  V30 406 H 36.8204 -2.10109 -6.11934 0
M  V30 407 N 36.9525 1.47285 -0.560781 0
M  V30 408 C 38.1985 2.02764 -0.0381184 0
M  V30 409 C 38.5315 1.43384 1.30976 0
M  V30 410 O 37.8065 0.590733 1.85312 0
M  V30 411 C 38.0895 3.60064 0.0511427 0
M  V30 412 C 37.9425 4.2987 -1.32408 0
M  V30 413 C 39.2615 4.33439 0.762795 0
M  V30 414 H 36.3805 0.736841 -0.0153264 0
M  V30 415 H 39.0225 1.75675 -0.723759 0
M  V30 416 H 37.1725 3.83274 0.635065 0
M  V30 417 H 38.8445 4.17989 -1.95148 0
M  V30 418 H 37.0875 3.90085 -1.8978 0
M  V30 419 H 37.7585 5.38478 -1.21431 0
M  V30 420 H 40.2345 4.15243 0.266965 0
M  V30 421 H 39.1105 5.43124 0.794221 0
M  V30 422 H 39.3715 4.02915 1.81966 0
M  V30 423 N 38.4306 0.297415 1.54768 0
M  V30 424 C 39.6786 -0.312295 1.99673 0
M  V30 425 C 39.9996 -1.54686 1.18732 0
M  V30 426 O 39.2696 -1.93854 0.282382 0
M  V30 427 H 37.8496 -0.118381 0.73756 0
M  V30 428 H 40.5116 0.407915 1.90583 0
M  V30 429 H 39.6076 -0.586813 3.06534 0
M  V30 430 N 39.9087 -1.5758 0.0250728 0
M  V30 431 C 41.1367 -1.9593 -0.664747 0
M  V30 432 C 41.5517 -0.901352 -1.65895 0
M  V30 433 O 40.9087 0.117255 -1.82123 0
M  V30 434 C 40.9597 -3.34342 -1.37468 0
M  V30 435 O 40.6807 -4.36079 -0.420324 0
M  V30 436 C 42.1817 -3.873 -2.1567 0
M  V30 437 H 39.4017 -0.645405 -0.183557 0
M  V30 438 H 41.9457 -2.04329 0.0836372 0
M  V30 439 H 40.1007 -3.27175 -2.0745 0
M  V30 440 H 40.5147 -5.16297 -0.923991 0
M  V30 441 H 41.9887 -4.86504 -2.60803 0
M  V30 442 H 42.4657 -3.21331 -2.99405 0
M  V30 443 H 43.0717 -3.97723 -1.50654 0
M  V30 444 N 41.3868 0.248026 -1.55636 0
M  V30 445 C 42.6348 0.974295 -1.77065 0
M  V30 446 C 42.9558 1.85897 -0.588849 0
M  V30 447 O 42.2258 1.91868 0.395407 0
M  V30 448 H 40.8058 0.362733 -0.653019 0
M  V30 449 H 43.4678 0.266244 -1.93073 0
M  V30 450 H 42.5638 1.59667 -2.68166 0
M  V30 451 N 42.8649 1.48995 0.513639 0
M  V30 452 C 44.0899 1.61792 1.29762 0
M  V30 453 C 44.5149 0.284475 1.85936 0
M  V30 454 O 43.8729 -0.746185 1.65232 0
M  V30 455 C 43.9209 2.67993 2.41272 0
M  V30 456 O 43.0249 2.26287 3.44772 0
M  V30 457 H 42.3659 0.541963 0.38363 0
M  V30 458 H 44.8959 1.95097 0.616307 0
M  V30 459 H 44.9059 2.89772 2.87221 0
M  V30 460 H 43.5809 3.64791 1.9975 0
M  V30 461 H 42.1579 2.14788 3.04829 0
M  V30 462 N 44.343 -0.763751 1.37857 0
M  V30 463 C 45.589 -1.52483 1.33704 0
M  V30 464 C 45.922 -1.94051 -0.0759612 0
M  V30 465 O 45.197 -1.64675 -1.03501 0
M  V30 466 C 45.48 -2.78441 2.28348 0
M  V30 467 C 45.333 -2.43075 3.78463 0
M  V30 468 C 46.652 -3.80415 2.21298 0
M  V30 469 H 43.771 -0.553169 0.487005 0
M  V30 470 H 46.413 -0.875562 1.68624 0
M  V30 471 H 44.563 -3.33842 1.987 0
M  V30 472 H 46.235 -1.93527 4.18742 0
M  V30 473 H 44.478 -1.75666 3.96641 0
M  V30 474 H 45.149 -3.33149 4.40132 0
M  V30 475 H 47.625 -3.34527 2.47449 0
M  V30 476 H 46.501 -4.66257 2.89647 0
M  V30 477 H 46.762 -4.25262 1.20849 0
M  V30 478 N 45.8211 -1.22559 -0.990812 0
M  V30 479 C 47.0691 -1.04933 -1.72724 0
M  V30 480 C 47.3901 0.416158 -1.90508 0
M  V30 481 O 46.6601 1.29918 -1.46622 0
M  V30 482 H 45.2401 -0.385296 -0.639965 0
M  V30 483 H 47.9021 -1.54105 -1.19322 0
M  V30 484 H 46.9981 -1.52886 -2.72089 0
M  V30 485 N 47.2992 1.18797 -1.03562 0
M  V30 486 C 48.5452 1.8893 -0.737113 0
M  V30 487 C 48.8782 1.79837 0.732956 0
M  V30 488 O 48.1532 1.19525 1.5344 0
M  V30 489 C 48.4362 3.39607 -1.19745 0
M  V30 490 C 48.2892 3.57537 -2.72924 0
M  V30 491 C 49.6082 4.33069 -0.783526 0
M  V30 492 H 46.7272 0.686057 -0.269249 0
M  V30 493 H 49.3692 1.39797 -1.28673 0
M  V30 494 H 47.5192 3.81583 -0.729855 0
M  V30 495 H 49.1912 3.24688 -3.27682 0
M  V30 496 H 47.4342 3.00363 -3.12993 0
M  V30 497 H 48.1052 4.63238 -3.00191 0
M  V30 498 H 50.5812 3.98846 -1.18581 0
M  V30 499 H 49.4572 5.3707 -1.13343 0
M  V30 500 H 49.7182 4.40986 0.313681 0
M  V30 501 N 48.7773 0.814389 1.34928 0
M  V30 502 C 49.7403 0.235759 2.27984 0
M  V30 503 C 50.7403 -0.581412 1.49921 0
M  V30 504 O 51.9303 -0.398758 1.69575 0
M  V30 505 C 49.0623 -0.670433 3.34242 0
M  V30 506 H 50.2553 1.05659 2.80671 0
M  V30 507 H 47.8083 0.585614 1.44915 0
M  V30 508 H 48.5433 -1.51466 2.86755 0
M  V30 509 H 48.3283 -0.0860822 3.92005 0
M  V30 510 H 49.8183 -1.06935 4.03676 0
M  V30 511 N 50.2554 -1.46986 0.568584 0
M  V30 512 C 51.4954 -2.04336 0.0512999 0
M  V30 513 C 51.8594 -1.43214 -1.27881 0
M  V30 514 O 53.0604 -1.91679 -1.88448 0
M  V30 515 C 51.3314 -3.57389 -0.0282328 0
M  V30 516 S 52.8904 -4.36056 -0.489991 0
M  V30 517 H 49.7084 -0.71034 0.0306349 0
M  V30 518 H 52.3104 -1.80212 0.757891 0
M  V30 519 H 51.0144 -3.99395 0.944011 0
M  V30 520 H 50.5454 -3.86028 -0.75803 0
M  V30 521 H 52.5604 -4.6441 -1.74752 0
M  V30 522 N 51.7335 -0.305618 -1.54608 0
M  V30 523 C 52.6965 0.555591 -2.22364 0
M  V30 524 C 53.6965 1.05768 -1.21119 0
M  V30 525 O 54.8865 0.952972 -1.45822 0
M  V30 526 C 52.0185 1.76974 -2.91364 0
M  V30 527 H 53.2115 -0.0364572 -2.99878 0
M  V30 528 H 50.7645 -0.0565007 -1.56198 0
M  V30 529 H 51.4995 2.40151 -2.17941 0
M  V30 530 H 51.2845 1.41732 -3.65588 0
M  V30 531 H 52.7745 2.38148 -3.43038 0
M  V30 532 N 53.2116 1.57565 -0.0334293 0
M  V30 533 C 54.4606 1.91155 0.643639 0
M  V30 534 C 54.7736 0.91192 1.73042 0
M  V30 535 O 55.9796 1.13923 2.46442 0
M  V30 536 C 54.4356 3.39443 1.1961 0
M  V30 537 C 54.0436 4.47774 0.142381 0
M  V30 538 C 55.7876 3.82094 1.84944 0
M  V30 539 C 53.6946 5.87162 0.706727 0
M  V30 540 H 52.6246 0.713368 0.244176 0
M  V30 541 H 55.2756 1.8323 -0.0994323 0
M  V30 542 H 53.6576 3.42313 1.99092 0
M  V30 543 H 54.8316 4.56469 -0.630296 0
M  V30 544 H 53.1466 4.14352 -0.412446 0
M  V30 545 H 55.7436 4.83591 2.2813 0
M  V30 546 H 56.0866 3.17386 2.69392 0
M  V30 547 H 56.6196 3.81665 1.12145 0
M  V30 548 H 53.3586 6.55424 -0.0997178 0
M  V30 549 H 52.8786 5.82064 1.44779 0
M  V30 550 H 54.5576 6.35866 1.19514 0
M  V30 551 N 54.6897 -0.239769 1.55765 0
M  V30 552 C 55.9147 -0.988373 1.82335 0
M  V30 553 C 56.3397 -1.77886 0.611421 0
M  V30 554 O 55.6977 -1.75889 -0.439639 0
M  V30 555 C 55.7457 -1.89627 3.06715 0
M  V30 556 O 54.8497 -2.98904 2.84131 0
M  V30 557 H 54.1907 -0.280858 0.601677 0
M  V30 558 H 56.7207 -0.258597 2.02959 0
M  V30 559 H 56.7307 -2.30957 3.36338 0
M  V30 560 H 55.4057 -1.31511 3.9456 0
M  V30 561 H 53.9827 -2.61651 2.65694 0
M  V30 562 N 56.1678 -1.49265 -0.50573 0
M  V30 563 C 57.4168 -1.57761 -1.25675 0
M  V30 564 C 57.7298 -0.267371 -1.93764 0
M  V30 565 O 58.9358 -0.230827 -2.70517 0
M  V30 566 C 57.3918 -2.78332 -2.28165 0
M  V30 567 C 56.9998 -4.16096 -1.66037 0
M  V30 568 C 58.7438 -2.96155 -3.04125 0
M  V30 569 C 56.6508 -5.27895 -2.6661 0
M  V30 570 H 55.5808 -0.587391 -0.472745 0
M  V30 571 H 58.2318 -1.75644 -0.53118 0
M  V30 572 H 56.6138 -2.53934 -3.03865 0
M  V30 573 H 57.7878 -4.50612 -0.963622 0
M  V30 574 H 56.1028 -4.03591 -1.02484 0
M  V30 575 H 58.6998 -3.76849 -3.79327 0
M  V30 576 H 59.0428 -2.06534 -3.61455 0
M  V30 577 H 59.5758 -3.2057 -2.35541 0
M  V30 578 H 56.3148 -6.1956 -2.14068 0
M  V30 579 H 55.8348 -4.97839 -3.34539 0
M  V30 580 H 57.5138 -5.57031 -3.29129 0
M  V30 581 N 57.6459 0.756429 -1.3826 0
M  V30 582 C 58.5759 1.88374 -1.37976 0
M  V30 583 C 59.5569 1.68311 -0.246082 0
M  V30 584 O 60.7419 1.88944 -0.44874 0
M  V30 585 C 57.8719 3.25864 -1.20125 0
M  V30 586 C 56.8259 3.60523 -2.30666 0
M  V30 587 C 56.1519 4.9672 -1.97923 0
M  V30 588 C 57.4519 3.65692 -3.72916 0
M  V30 589 H 59.1459 1.88869 -2.32312 0
M  V30 590 H 56.6919 0.907272 -1.11824 0
M  V30 591 H 58.6449 4.0438 -1.18552 0
M  V30 592 H 57.3689 3.25841 -0.222498 0
M  V30 593 H 56.0279 2.84324 -2.3142 0
M  V30 594 H 55.6759 4.93253 -0.985393 0
M  V30 595 H 55.3759 5.20878 -2.71955 0
M  V30 596 H 56.8999 5.77618 -1.97964 0
M  V30 597 H 58.3139 4.34328 -3.74208 0
M  V30 598 H 56.7109 4.01358 -4.4613 0
M  V30 599 H 57.7809 2.65987 -4.05436 0
M  V30 600 N 59.124 1.23083 0.984299 0
M  V30 601 C 60.054 1.03292 2.09411 0
M  V30 602 C 61.035 -0.048923 1.7003 0
M  V30 603 O 62.22 0.114967 1.93859 0
M  V30 604 C 59.35 0.619155 3.41736 0
M  V30 605 C 58.304 1.64791 3.95004 0
M  V30 606 C 57.63 1.0897 5.23478 0
M  V30 607 C 58.93 3.03999 4.24714 0
M  V30 608 H 60.624 1.96119 2.26225 0
M  V30 609 H 58.17 0.944344 1.08711 0
M  V30 610 H 60.123 0.467777 4.18796 0
M  V30 611 H 58.847 -0.344786 3.24775 0
M  V30 612 H 57.506 1.78721 3.20085 0
M  V30 613 H 57.154 0.11686 5.02864 0
M  V30 614 H 56.854 1.77704 5.60085 0
M  V30 615 H 58.378 0.950093 6.03163 0
M  V30 616 H 59.792 2.93393 4.92538 0
M  V30 617 H 58.189 3.69936 4.72512 0
M  V30 618 H 59.259 3.53285 3.32142 0
M  V30 619 N 60.6021 -1.18246 1.0419 0
M  V30 620 C 61.5491 -2.2192 0.634037 0
M  V30 621 C 62.5191 -1.62179 -0.358765 0
M  V30 622 O 63.7041 -1.89122 -0.252466 0
M  V30 623 C 60.8441 -3.451 0.00445535 0
M  V30 624 C 59.9571 -4.19174 1.04487 0
M  V30 625 C 59.0921 -5.29813 0.383676 0
M  V30 626 C 58.1311 -5.9566 1.4091 0
M  V30 627 N 57.2681 -6.97834 0.772784 0
M  V30 628 H 62.1081 -2.56164 1.52263 0
M  V30 629 H 59.6451 -1.25843 0.761701 0
M  V30 630 H 61.6031 -4.15485 -0.377919 0
M  V30 631 H 60.2331 -3.11472 -0.847652 0
M  V30 632 H 59.2851 -3.47604 1.54518 0
M  V30 633 H 60.5971 -4.64267 1.82368 0
M  V30 634 H 59.7511 -6.06677 -0.0528366 0
M  V30 635 H 58.4901 -4.85825 -0.427208 0
M  V30 636 H 57.4951 -5.17535 1.85574 0
M  V30 637 H 58.7201 -6.4173 2.22171 0
M  V30 638 H 56.6661 -6.55998 -0.0177708 0
M  V30 639 H 56.5831 -7.41186 1.48928 0
M  V30 640 H 57.8511 -7.78665 0.36071 0
M  V30 641 N 62.0802 -0.821533 -1.34494 0
M  V30 642 C 63.3282 -0.408139 -1.97936 0
M  V30 643 C 63.6492 1.03193 -1.65457 0
M  V30 644 O 62.9192 1.71622 -0.944595 0
M  V30 645 H 61.4992 -0.147928 -0.732206 0
M  V30 646 H 64.1612 -1.05067 -1.64155 0
M  V30 647 H 63.2572 -0.52601 -3.07635 0
M  V30 648 N 63.5583 1.46682 -0.576371 0
M  V30 649 C 64.4883 2.33028 0.148397 0
M  V30 650 C 65.4693 1.44961 0.889956 0
M  V30 651 O 66.6543 1.73789 0.866662 0
M  V30 652 C 63.7843 3.27117 1.1667 0
M  V30 653 C 62.7383 4.24575 0.540386 0
M  V30 654 C 62.0643 5.08126 1.6647 0
M  V30 655 C 63.3643 5.19722 -0.518331 0
M  V30 656 H 65.0583 2.93875 -0.572509 0
M  V30 657 H 62.6043 1.41315 -0.276768 0
M  V30 658 H 64.5573 3.86374 1.68204 0
M  V30 659 H 63.2813 2.64364 1.9178 0
M  V30 660 H 61.9403 3.66571 0.0461769 0
M  V30 661 H 61.5883 4.41762 2.40531 0
M  V30 662 H 61.2883 5.74122 1.25131 0
M  V30 663 H 62.8123 5.70246 2.18293 0
M  V30 664 H 64.2263 5.73232 -0.0883058 0
M  V30 665 H 62.6233 5.94026 -0.851679 0
M  V30 666 H 63.6933 4.64037 -1.40703 0
M  V30 667 N 65.0364 0.313813 1.54444 0
M  V30 668 C 66.2614 -0.296681 2.05267 0
M  V30 669 C 66.6864 -1.45757 1.18897 0
M  V30 670 O 66.0444 -1.80239 0.195886 0
M  V30 671 C 66.0924 -0.71831 3.53373 0
M  V30 672 O 65.1964 -1.82175 3.69981 0
M  V30 673 H 64.5374 -0.0554061 0.661684 0
M  V30 674 H 67.0674 0.459387 1.99376 0
M  V30 675 H 67.0774 -1.00364 3.95463 0
M  V30 676 H 65.7524 0.130821 4.15694 0
M  V30 677 H 64.3294 -1.53598 3.39797 0
M  V30 678 N 66.5145 -1.57545 0.0417849 0
M  V30 679 C 67.7915 -1.83642 -0.673433 0
M  V30 680 C 68.1715 -0.928298 -1.89594 0
M  V30 681 O 67.5195 0.0129955 -2.28496 0
M  V30 682 C 67.7295 -3.33155 -1.03964 0
M  V30 683 C 69.0775 -3.99941 -1.42592 0
M  V30 684 O 70.1015 -3.37725 -1.13226 0
M  V30 685 O 68.9605 -5.09619 -1.9736 0
M  V30 686 H 66.0545 -0.757638 -0.331533 0
M  V30 687 H 68.6005 -1.69554 0.070433 0
M  V30 688 H 67.3725 -3.9093 -0.170098 0
M  V30 689 H 66.9955 -3.52396 -1.84126 0
M  V30 690 N 67.9926 0.231505 -1.5589 0
M  V30 691 C 68.9026 1.308 -1.94752 0
M  V30 692 C 69.9186 1.51826 -0.849989 0
M  V30 693 O 71.0946 1.6515 -1.15271 0
M  V30 694 C 68.1596 2.63968 -2.24771 0
M  V30 695 C 67.2206 2.51331 -3.48039 0
M  V30 696 C 66.4536 3.78148 -3.76616 0
M  V30 697 O 66.6766 4.80722 -3.07022 0
M  V30 698 O 65.6106 3.75857 -4.70123 0
M  V30 699 H 69.4366 1.0083 -2.86474 0
M  V30 700 H 67.0216 0.433547 -1.42971 0
M  V30 701 H 68.9036 3.42633 -2.45318 0
M  V30 702 H 67.5786 2.9364 -1.36225 0
M  V30 703 H 66.4856 1.709 -3.32782 0
M  V30 704 H 67.8186 2.26601 -4.36936 0
M  V30 705 N 69.4707 1.49531 0.497807 0
M  V30 706 C 70.4007 1.6935 1.60757 0
M  V30 707 C 71.3817 0.542218 1.61227 0
M  V30 708 O 72.5667 0.778417 1.77917 0
M  V30 709 C 69.6967 1.76298 2.99226 0
M  V30 710 C 68.6507 2.91248 3.13622 0
M  V30 711 C 67.9767 2.83312 4.53474 0
M  V30 712 C 69.2767 4.3214 2.93346 0
M  V30 713 H 70.9707 2.62263 1.44425 0
M  V30 714 H 68.5167 1.26208 0.693367 0
M  V30 715 H 70.4697 1.88749 3.76765 0
M  V30 716 H 69.1937 0.799871 3.16654 0
M  V30 717 H 67.8527 2.78404 2.38509 0
M  V30 718 H 67.5007 1.84902 4.67782 0
M  V30 719 H 67.2007 3.60465 4.64046 0
M  V30 720 H 68.7247 2.97775 5.33069 0
M  V30 721 H 70.1387 4.45649 3.60652 0
M  V30 722 H 68.5357 5.1054 3.15387 0
M  V30 723 H 69.6057 4.46363 1.89441 0
M  V30 724 N 70.9488 -0.749086 1.3866 0
M  V30 725 C 72.1948 -1.51056 1.35314 0
M  V30 726 C 72.5278 -1.94121 -0.0553751 0
M  V30 727 O 71.8028 -1.65763 -1.01749 0
M  V30 728 C 72.0858 -2.76003 2.31288 0
M  V30 729 C 71.9388 -2.39047 3.8102 0
M  V30 730 C 73.2578 -3.78046 2.2532 0
M  V30 731 H 70.3768 -0.547972 0.492844 0
M  V30 732 H 73.0188 -0.857628 1.69543 0
M  V30 733 H 71.1688 -3.31716 2.02229 0
M  V30 734 H 72.8408 -1.89074 4.20771 0
M  V30 735 H 71.0838 -1.71449 3.98482 0
M  V30 736 H 71.7548 -3.28462 4.4364 0
M  V30 737 H 74.2308 -3.31884 2.50983 0
M  V30 738 H 73.1068 -4.63159 2.94576 0
M  V30 739 H 73.3678 -4.23957 1.25352 0
M  V30 740 N 72.4269 -1.23603 -0.977757 0
M  V30 741 C 73.3569 -1.04401 -2.0886 0
M  V30 742 C 74.3379 0.0399052 -1.70053 0
M  V30 743 O 75.5229 -0.125246 -1.93796 0
M  V30 744 C 72.6529 -0.637269 -3.41403 0
M  V30 745 C 71.6069 -1.66883 -3.94124 0
M  V30 746 C 70.9329 -1.11745 -5.22893 0
M  V30 747 C 72.2329 -3.06247 -4.23096 0
M  V30 748 H 73.9269 -1.97316 -2.25182 0
M  V30 749 H 71.4729 -0.950096 -1.08209 0
M  V30 750 H 73.4259 -0.48998 -4.18542 0
M  V30 751 H 72.1499 0.327557 -3.24953 0
M  V30 752 H 70.8089 -1.80416 -3.19133 0
M  V30 753 H 70.4569 -0.143527 -5.02795 0
M  V30 754 H 70.1569 -1.80672 -5.59134 0
M  V30 755 H 71.6809 -0.982067 -6.02651 0
M  V30 756 H 73.0949 -2.96001 -4.90975 0
M  V30 757 H 71.4919 -3.72436 -4.70544 0
M  V30 758 H 72.5619 -3.55041 -3.30263 0
M  V30 759 N 73.905 1.17692 -1.04816 0
M  V30 760 C 75.151 1.88137 -0.75711 0
M  V30 761 C 75.484 1.80604 0.713841 0
M  V30 762 O 74.759 1.21146 1.52164 0
M  V30 763 C 75.042 3.38318 -1.2334 0
M  V30 764 C 74.895 3.54622 -2.76701 0
M  V30 765 C 76.214 4.32214 -0.829415 0
M  V30 766 H 73.333 0.683163 -0.27651 0
M  V30 767 H 75.975 1.38424 -1.30149 0
M  V30 768 H 74.125 3.80787 -0.770286 0
M  V30 769 H 75.797 3.21194 -3.31107 0
M  V30 770 H 74.04 2.97026 -3.16161 0
M  V30 771 H 74.711 4.60028 -3.05088 0
M  V30 772 H 77.187 3.97565 -1.22805 0
M  V30 773 H 76.063 5.35838 -1.19033 0
M  V30 774 H 76.324 4.41294 0.266891 0
M  V30 775 N 75.3831 0.828654 1.34056 0
M  V30 776 C 76.6601 0.341809 1.9259 0
M  V30 777 C 77.0401 -1.17158 1.75605 0
M  V30 778 O 76.3881 -1.98132 1.13824 0
M  V30 779 C 76.5981 0.777453 3.4023 0
M  V30 780 C 77.9461 0.779579 4.17382 0
M  V30 781 O 78.9701 0.7204 3.48839 0
M  V30 782 O 77.8291 0.857996 5.39723 0
M  V30 783 H 74.9231 0.0946085 0.821571 0
M  V30 784 H 77.4691 0.913827 1.42994 0
M  V30 785 H 76.2411 1.8196 3.46419 0
M  V30 786 H 75.8641 0.181444 3.97186 0
M  V30 787 N 76.8612 -1.46375 0.584142 0
M  V30 788 C 78.1072 -2.02678 0.0703716 0
M  V30 789 C 78.4402 -1.4545 -1.28678 0
M  V30 790 O 77.7152 -0.62014 -1.84349 0
M  V30 791 C 77.9982 -3.60099 0.00614674 0
M  V30 792 C 77.8512 -4.27709 1.3923 0
M  V30 793 C 79.1702 -4.34598 -0.693742 0
M  V30 794 H 76.2892 -0.736504 0.027047 0
M  V30 795 H 78.9312 -1.74501 0.751615 0
M  V30 796 H 77.0812 -3.84236 -0.574009 0
M  V30 797 H 78.7532 -4.14832 2.01773 0
M  V30 798 H 76.9962 -3.87016 1.95962 0
M  V30 799 H 77.6672 -5.36478 1.29982 0
M  V30 800 H 80.1432 -4.15615 -0.200869 0
M  V30 801 H 79.0192 -5.44318 -0.707714 0
M  V30 802 H 79.2802 -4.05759 -1.75533 0
M  V30 803 N 78.3393 -0.321999 -1.54275 0
M  V30 804 C 79.6163 0.335232 -1.92706 0
M  V30 805 C 79.9963 1.70006 -1.25145 0
M  V30 806 O 79.3443 2.25067 -0.394596 0
M  V30 807 C 79.5543 0.429008 -3.46353 0
M  V30 808 C 80.9023 0.690029 -4.18956 0
M  V30 809 O 81.9263 0.511992 -3.52501 0
M  V30 810 O 80.7853 1.03338 -5.36641 0
M  V30 811 H 77.8793 0.191143 -0.804608 0
M  V30 812 H 80.4253 -0.3716 -1.65581 0
M  V30 813 H 79.1973 -0.529611 -3.87699 0
M  V30 814 H 78.8203 1.18348 -3.79578 0
M  V30 815 N 79.8174 1.5752 -0.0501392 0
M  V30 816 C 80.7274 2.14952 0.939827 0
M  V30 817 C 81.7434 1.10706 1.34239 0
M  V30 818 O 82.9194 1.42869 1.41952 0
M  V30 819 C 79.9844 2.68232 2.19665 0
M  V30 820 C 79.0454 3.87272 1.85253 0
M  V30 821 C 78.2784 4.38002 3.04943 0
M  V30 822 O 78.5014 3.87811 4.18281 0
M  V30 823 O 77.4354 5.29602 2.86017 0
M  V30 824 H 81.2614 2.9986 0.481392 0
M  V30 825 H 78.8464 1.4841 0.171699 0
M  V30 826 H 80.7284 3.02475 2.93406 0
M  V30 827 H 79.4034 1.86395 2.64648 0
M  V30 828 H 78.3104 3.5792 1.0883 0
M  V30 829 H 79.6434 4.70336 1.4507 0
M  V30 830 N 81.2955 -0.223234 1.56011 0
M  V30 831 C 82.5435 -0.946003 1.78592 0
M  V30 832 C 82.8645 -1.84936 0.618349 0
M  V30 833 O 82.1345 -1.92473 -0.364833 0
M  V30 834 H 80.7145 -0.352298 0.658707 0
M  V30 835 H 83.3765 -0.235494 1.93472 0
M  V30 836 H 82.4725 -1.55381 2.70672 0
M  V30 837 N 82.7736 -1.49793 -0.48987 0
M  V30 838 C 83.7206 -1.67281 -1.59014 0
M  V30 839 C 84.6906 -0.514177 -1.57941 0
M  V30 840 O 85.8756 -0.742533 -1.75759 0
M  V30 841 C 83.0156 -1.75569 -2.97102 0
M  V30 842 C 82.1286 -3.0281 -3.08107 0
M  V30 843 C 81.2636 -3.02008 -4.36995 0
M  V30 844 C 80.3026 -4.23782 -4.41673 0
M  V30 845 N 79.4396 -4.20826 -5.62005 0
M  V30 846 H 84.2796 -2.61224 -1.43409 0
M  V30 847 H 81.8166 -1.29508 -0.697565 0
M  V30 848 H 83.7746 -1.78354 -3.77155 0
M  V30 849 H 82.4046 -0.850827 -3.11385 0
M  V30 850 H 81.4566 -3.09584 -2.21047 0
M  V30 851 H 82.7686 -3.92801 -3.07423 0
M  V30 852 H 81.9226 -3.03418 -5.25378 0
M  V30 853 H 80.6616 -2.09815 -4.4026 0
M  V30 854 H 79.6666 -4.22604 -3.5169 0
M  V30 855 H 80.8916 -5.17181 -4.40115 0
M  V30 856 H 78.8376 -3.31476 -5.66091 0
M  V30 857 H 78.7546 -5.04564 -5.62984 0
M  V30 858 H 80.0226 -4.26355 -6.52565 0
M  V30 859 N 84.2517 0.741722 -1.39055 0
M  V30 860 C 85.1817 1.869 -1.39966 0
M  V30 861 C 86.1627 1.6804 -0.26392 0
M  V30 862 O 87.3477 1.88458 -0.468755 0
M  V30 863 C 84.4777 3.24572 -1.23574 0
M  V30 864 C 83.4317 3.58056 -2.34477 0
M  V30 865 C 82.7577 4.94593 -2.0318 0
M  V30 866 C 84.0577 3.61716 -3.76774 0
M  V30 867 H 85.7517 1.86395 -2.34302 0
M  V30 868 H 83.2977 0.895361 -1.1278 0
M  V30 869 H 85.2507 4.031 -1.22834 0
M  V30 870 H 83.9747 3.25587 -0.257045 0
M  V30 871 H 82.6337 2.81854 -2.34423 0
M  V30 872 H 82.2817 4.92181 -1.03765 0
M  V30 873 H 81.9817 5.17964 -2.77465 0
M  V30 874 H 83.5057 5.75486 -2.04079 0
M  V30 875 H 84.9197 4.30335 -3.78794 0
M  V30 876 H 83.3167 3.96603 -4.50362 0
M  V30 877 H 84.3867 2.61672 -4.08235 0
M  V30 878 N 85.7298 1.2412 0.971189 0
M  V30 879 C 86.6768 1.0305 2.06517 0
M  V30 880 C 87.6468 -0.0550666 1.66009 0
M  V30 881 O 88.8318 0.0988688 1.90544 0
M  V30 882 C 85.9718 0.637653 3.39158 0
M  V30 883 C 85.0848 1.79633 3.92882 0
M  V30 884 C 84.2198 1.34939 5.13775 0
M  V30 885 C 83.2588 2.47823 5.59687 0
M  V30 886 N 82.3958 2.04022 6.71803 0
M  V30 887 H 87.2358 1.96685 2.23873 0
M  V30 888 H 84.7728 0.979694 1.09729 0
M  V30 889 H 86.7308 0.390931 4.15364 0
M  V30 890 H 85.3608 -0.261693 3.21737 0
M  V30 891 H 84.4128 2.15681 3.13346 0
M  V30 892 H 85.7248 2.64466 4.22918 0
M  V30 893 H 84.8788 1.06134 5.97345 0
M  V30 894 H 83.6178 0.471557 4.85415 0
M  V30 895 H 82.6228 2.77392 4.74693 0
M  V30 896 H 83.8478 3.36158 5.90063 0
M  V30 897 H 81.7938 1.18632 6.45184 0
M  V30 898 H 81.7108 2.82409 7.01271 0
M  V30 899 H 82.9788 1.78347 7.58823 0
M  V30 900 N 87.2079 -1.17134 1.05439 0
M  V30 901 C 88.4559 -1.87085 0.764429 0
M  V30 902 C 88.7769 -1.81584 -0.710787 0
M  V30 903 O 88.0469 -1.24349 -1.51374 0
M  V30 904 H 86.6269 -0.692627 0.279779 0
M  V30 905 H 89.2889 -1.42087 1.33406 0
M  V30 906 H 88.3849 -2.92759 1.0816 0
M  V30 907 N 88.686 -0.835752 -1.33615 0
M  V30 908 C 89.596 -0.269088 -2.33052 0
M  V30 909 C 90.612 0.603251 -1.63208 0
M  V30 910 O 91.788 0.508112 -1.94885 0
M  V30 911 C 88.853 0.549091 -3.42324 0
M  V30 912 C 87.914 -0.347156 -4.27894 0
M  V30 913 C 87.147 0.43207 -5.31948 0
M  V30 914 O 87.37 1.66409 -5.45586 0
M  V30 915 O 86.304 -0.192298 -6.01593 0
M  V30 916 H 90.13 -1.09243 -2.83372 0
M  V30 917 H 87.715 -0.598198 -1.36901 0
M  V30 918 H 89.597 1.01414 -4.09015 0
M  V30 919 H 88.272 1.34955 -2.94226 0
M  V30 920 H 87.179 -0.859979 -3.64081 0
M  V30 921 H 88.512 -1.1123 -4.79467 0
M  V30 922 N 90.1641 1.46063 -0.591896 0
M  V30 923 C 91.3921 2.06717 -0.0868936 0
M  V30 924 C 91.8071 1.43916 1.22203 0
M  V30 925 O 91.1641 0.547698 1.74088 0
M  V30 926 C 91.2151 3.6142 0.0758725 0
M  V30 927 O 90.9361 4.21874 -1.18126 0
M  V30 928 C 92.4371 4.39025 0.61416 0
M  V30 929 H 89.6571 0.668162 -0.0616518 0
M  V30 930 H 92.2011 1.8755 -0.815175 0
M  V30 931 H 90.3561 3.79983 0.754413 0
M  V30 932 H 90.7701 5.14861 -1.00092 0
M  V30 933 H 92.2441 5.4783 0.677193 0
M  V30 934 H 92.7211 4.07708 1.63312 0
M  V30 935 H 93.3271 4.2529 -0.0298142 0
M  V30 936 N 91.6422 0.330177 1.54103 0
M  V30 937 C 92.5752 -0.575477 2.20825 0
M  V30 938 C 93.5532 -1.11064 1.18758 0
M  V30 939 O 94.7372 -1.17341 1.47524 0
M  V30 940 C 91.8642 -1.79032 2.87516 0
M  V30 941 C 90.9102 -1.38581 4.03358 0
M  V30 942 S 91.7432 -0.416911 5.33875 0
M  V30 943 C 92.8992 -1.63889 6.04062 0
M  V30 944 H 93.1322 -0.00872114 2.97299 0
M  V30 945 H 90.6652 0.114254 1.53977 0
M  V30 946 H 92.6232 -2.48734 3.2656 0
M  V30 947 H 91.2842 -2.32827 2.10832 0
M  V30 948 H 90.4772 -2.29123 4.48908 0
M  V30 949 H 90.0792 -0.768419 3.66021 0
M  V30 950 H 92.3712 -2.57536 6.26643 0
M  V30 951 H 93.3142 -1.22542 6.97416 0
M  V30 952 H 93.7222 -1.82887 5.34053 0
M  V30 953 N 93.1203 -1.57491 0.0584922 0
M  V30 954 C 94.3973 -1.84346 -0.653918 0
M  V30 955 C 94.7773 -0.948355 -1.88599 0
M  V30 956 O 94.1253 -0.0112403 -2.28497 0
M  V30 957 C 94.3353 -3.34239 -1.00425 0
M  V30 958 C 95.6833 -4.01431 -1.38342 0
M  V30 959 O 96.7073 -3.38907 -1.09637 0
M  V30 960 O 95.5663 -5.11683 -1.91943 0
M  V30 961 H 92.6603 -0.761112 -0.323478 0
M  V30 962 H 95.2063 -1.6947 0.0884125 0
M  V30 963 H 93.9783 -3.91089 -0.128625 0
M  V30 964 H 93.6013 -3.54329 -1.80378 0
M  V30 965 N 94.5984 0.214957 -1.56127 0
M  V30 966 C 95.5284 1.2695 -1.95974 0
M  V30 967 C 96.5094 1.48539 -0.828868 0
M  V30 968 O 97.6944 1.60611 -1.09168 0
M  V30 969 C 94.8244 2.61794 -2.28214 0
M  V30 970 C 93.7784 2.54851 -3.43853 0
M  V30 971 C 93.1044 3.93785 -3.61715 0
M  V30 972 C 94.4044 2.09065 -4.78632 0
M  V30 973 H 96.0984 0.93846 -2.84312 0
M  V30 974 H 93.6444 0.449996 -1.36788 0
M  V30 975 H 95.5974 3.35731 -2.54682 0
M  V30 976 H 94.3214 2.96599 -1.36736 0
M  V30 977 H 92.9804 1.8337 -3.17444 0
M  V30 978 H 92.6284 4.25908 -2.67602 0
M  V30 979 H 92.3284 3.90019 -4.39498 0
M  V30 980 H 93.8524 4.69374 -3.90539 0
M  V30 981 H 95.2664 2.7275 -5.04262 0
M  V30 982 H 93.6634 2.16346 -5.59745 0
M  V30 983 H 94.7334 1.04315 -4.73547 0
M  V30 984 N 96.0765 1.50051 0.48192 0
M  V30 985 C 97.0085 1.64263 1.59844 0
M  V30 986 C 98.0215 0.52451 1.54119 0
M  V30 987 O 99.2105 0.797293 1.59704 0
M  V30 988 C 96.3105 1.60102 2.98698 0
M  V30 989 C 95.4835 2.87767 3.29407 0
M  V30 990 C 94.5425 2.76397 4.47762 0
M  V30 991 O 93.5685 3.50348 4.48603 0
M  V30 992 N 94.7705 1.89222 5.48794 0
M  V30 993 H 97.5355 2.60566 1.48073 0
M  V30 994 H 95.0965 1.47379 0.670149 0
M  V30 995 H 97.0885 1.50123 3.75826 0
M  V30 996 H 95.6585 0.715798 3.04294 0
M  V30 997 H 94.8785 3.11954 2.40994 0
M  V30 998 H 96.1665 3.72365 3.4673 0
M  V30 999 H 95.5645 1.28434 5.50928 0
M  V30 1000 H 94.1215 1.85154 6.24949 0
M  V30 1001 N 97.5546 -0.734337 1.39446 0
M  V30 1002 C 98.5046 -1.83949 1.34709 0
M  V30 1003 C 99.4886 -1.59279 0.227851 0
M  V30 1004 O 100.681 -1.70771 0.465438 0
M  V30 1005 C 97.8096 -3.21884 1.19356 0
M  V30 1006 C 96.8956 -3.52381 2.35984 0
M  V30 1007 N 97.2866 -3.53811 3.61457 0
M  V30 1008 C 95.5846 -3.82747 2.28956 0
M  V30 1009 C 96.2856 -3.82122 4.38586 0
M  V30 1010 N 95.2616 -3.9993 3.68181 0
M  V30 1011 H 99.0636 -1.83361 2.29687 0
M  V30 1012 H 96.5776 -0.932609 1.32952 0
M  V30 1013 H 98.5746 -4.00998 1.14046 0
M  V30 1014 H 97.2346 -3.23711 0.253295 0
M  V30 1015 H 98.2456 -3.35107 3.94872 0
M  V30 1016 H 94.9226 -3.92175 1.43194 0
M  V30 1017 H 96.3126 -3.89691 5.47349 0
M  V30 1018 N 99.0327 -1.24633 -0.964593 0
M  V30 1019 C 100.281 -1.08573 -1.70459 0
M  V30 1020 C 100.602 0.375655 -1.91347 0
M  V30 1021 O 99.8717 1.26779 -1.49345 0
M  V30 1022 H 98.4517 -0.398784 -0.631649 0
M  V30 1023 H 101.114 -1.56601 -1.16026 0
M  V30 1024 H 100.21 -1.58623 -2.68785 0
M  V30 1025 N 100.511 1.16574 -1.06058 0
M  V30 1026 C 101.736 1.91493 -0.796562 0
M  V30 1027 C 102.161 1.76773 0.642868 0
M  V30 1028 O 101.519 1.09142 1.44768 0
M  V30 1029 C 101.567 3.40293 -1.19303 0
M  V30 1030 O 100.671 4.11074 -0.330394 0
M  V30 1031 H 100.012 0.596678 -0.291326 0
M  V30 1032 H 102.542 1.47708 -1.41575 0
M  V30 1033 H 102.552 3.91057 -1.16356 0
M  V30 1034 H 101.227 3.50326 -2.24153 0
M  V30 1035 H 99.8038 3.70513 -0.421225 0
M  V30 1036 N 101.989 0.842826 1.3317 0
M  V30 1037 C 103.4 0.496651 1.79973 0
M  V30 1038 C 103.751 -0.984641 1.69703 0
M  V30 1039 O 102.876 -1.76743 1.24863 0
M  V30 1040 C 103.471 0.894727 3.26772 0
M  V30 1041 C 102.03 0.600629 3.71577 0
M  V30 1042 C 101.177 1.10091 2.5451 0
M  V30 1043 H 104.128 1.03116 1.20635 0
M  V30 1044 H 104.149 0.206347 3.7994 0
M  V30 1045 H 103.661 1.97287 3.34215 0
M  V30 1046 H 101.762 -0.467284 3.69658 0
M  V30 1047 H 101.875 1.15863 4.64879 0
M  V30 1048 H 100.239 0.52162 2.49301 0
M  V30 1049 H 101.022 2.18591 2.64713 0
M  V30 1050 N 103.467 -1.45747 0.599634 0
M  V30 1051 C 104.714 -2.02292 0.0917284 0
M  V30 1052 C 105.042 -1.46906 -1.27472 0
M  V30 1053 O 104.297 -0.630652 -1.8526 0
M  V30 1054 C 104.596 -3.57399 -0.00602758 0
M  V30 1055 C 104.262 -4.31902 1.29503 0
M  V30 1056 C 102.924 -4.51974 1.65144 0
M  V30 1057 C 105.276 -4.74551 2.15525 0
M  V30 1058 C 102.604 -5.11949 2.86574 0
M  V30 1059 C 104.956 -5.35868 3.36196 0
M  V30 1060 C 103.62 -5.54165 3.72099 0
M  V30 1061 H 102.89 -0.740239 0.0335658 0
M  V30 1062 H 105.537 -1.7491 0.779661 0
M  V30 1063 H 103.842 -3.84014 -0.777183 0
M  V30 1064 H 105.539 -3.98846 -0.415038 0
M  V30 1065 H 102.129 -4.16588 1.00761 0
M  V30 1066 H 106.313 -4.58784 1.8929 0
M  V30 1067 H 101.569 -5.24305 3.14507 0
M  V30 1068 H 105.743 -5.6787 4.03109 0
M  V30 1069 H 103.37 -6.00406 4.6628 0
M  V30 1070 N 104.945 -0.338344 -1.53925 0
M  V30 1071 C 105.878 0.563758 -2.21127 0
M  V30 1072 C 106.856 1.10433 -1.19345 0
M  V30 1073 O 108.04 1.16557 -1.48144 0
M  V30 1074 C 105.167 1.77505 -2.88461 0
M  V30 1075 C 104.213 1.3644 -4.04087 0
M  V30 1076 S 105.046 0.388593 -5.34088 0
M  V30 1077 C 106.202 1.60683 -6.04923 0
M  V30 1078 H 106.435 -0.00704546 -2.97299 0
M  V30 1079 H 103.968 -0.122418 -1.53914 0
M  V30 1080 H 105.926 2.46999 -3.27875 0
M  V30 1081 H 104.587 2.31706 -2.12064 0
M  V30 1082 H 103.78 2.26739 -4.50117 0
M  V30 1083 H 103.382 0.748998 -3.66423 0
M  V30 1084 H 105.674 2.54209 -6.28 0
M  V30 1085 H 106.617 1.18842 -6.98056 0
M  V30 1086 H 107.025 1.80052 -5.35015 0
M  V30 1087 N 106.423 1.57458 -0.0668435 0
M  V30 1088 C 107.37 2.12439 0.902122 0
M  V30 1089 C 108.34 1.03565 1.2986 0
M  V30 1090 O 109.525 1.312 1.38532 0
M  V30 1091 C 106.665 2.6865 2.16614 0
M  V30 1092 C 105.778 3.91663 1.82274 0
M  V30 1093 C 104.913 4.36134 3.0325 0
M  V30 1094 C 103.952 5.51808 2.64904 0
M  V30 1095 N 103.089 5.9126 3.78624 0
M  V30 1096 H 107.929 2.94934 0.426382 0
M  V30 1097 H 105.466 1.4575 0.198819 0
M  V30 1098 H 107.424 2.99346 2.90599 0
M  V30 1099 H 106.054 1.88928 2.61737 0
M  V30 1100 H 105.106 3.6746 0.983719 0
M  V30 1101 H 106.418 4.75693 1.50059 0
M  V30 1102 H 105.572 4.68465 3.85519 0
M  V30 1103 H 104.311 3.50948 3.38655 0
M  V30 1104 H 103.316 5.19133 1.81055 0
M  V30 1105 H 104.541 6.38722 2.30675 0
M  V30 1106 H 102.487 5.09024 4.138 0
M  V30 1107 H 102.404 6.70018 3.5016 0
M  V30 1108 H 103.672 6.28212 4.61486 0
M  V30 1109 N 107.901 -0.206675 1.56239 0
M  V30 1110 C 108.834 -1.28383 1.88661 0
M  V30 1111 C 109.812 -1.44504 0.745481 0
M  V30 1112 O 110.996 -1.60079 0.995336 0
M  V30 1113 C 108.123 -2.65211 2.10667 0
M  V30 1114 C 107.169 -2.66025 3.33366 0
M  V30 1115 S 108.002 -2.18609 4.88846 0
M  V30 1116 C 109.158 -3.57283 5.13906 0
M  V30 1117 H 109.391 -1.00691 2.7973 0
M  V30 1118 H 106.924 -0.409627 1.48867 0
M  V30 1119 H 108.882 -3.43979 2.24029 0
M  V30 1120 H 107.543 -2.90121 1.20369 0
M  V30 1121 H 106.736 -3.66607 3.45855 0
M  V30 1122 H 106.338 -1.95331 3.18938 0
M  V30 1123 H 108.63 -4.53074 5.03717 0
M  V30 1124 H 109.573 -3.49699 6.15724 0
M  V30 1125 H 109.981 -3.51659 4.41583 0
M  V30 1126 N 109.379 -1.50304 -0.473955 0
M  V30 1127 C 110.79 -1.54042 -1.0549 0
M  V30 1128 C 111.141 -0.342248 -1.93192 0
M  V30 1129 O 110.266 0.545157 -2.09421 0
M  V30 1130 C 110.861 -2.79152 -1.91989 0
M  V30 1131 C 109.42 -2.8558 -2.45196 0
M  V30 1132 C 108.567 -2.48295 -1.2347 0
M  V30 1133 H 111.518 -1.5661 -0.256693 0
M  V30 1134 H 111.539 -2.60845 -2.7702 0
M  V30 1135 H 111.051 -3.66339 -1.28131 0
M  V30 1136 H 109.152 -2.02738 -3.12615 0
M  V30 1137 H 109.265 -3.88403 -2.80499 0
M  V30 1138 H 107.629 -2.00669 -1.56856 0
M  V30 1139 H 108.412 -3.37787 -0.612789 0
M  V30 1140 N 110.857 0.726932 -1.39834 0
M  V30 1141 C 111.805 1.86235 -1.39353 0
M  V30 1142 C 112.799 1.67144 -0.275555 0
M  V30 1143 O 114.005 1.74387 -0.44601 0
M  V30 1144 H 110.38 0.613174 -0.43534 0
M  V30 1145 H 112.351 1.83756 -2.35109 0
M  V30 1146 C 111.1 3.23995 -1.26185 0
M  V30 1147 H 110.423 3.39285 -2.11484 0
M  V30 1148 H 111.863 4.03609 -1.29907 0
M  V30 1149 C 110.322 3.36888 0.0290018 0
M  V30 1150 O 110.852 3.89152 0.99619 0
M  V30 1151 N 109.058 2.90446 0.0947437 0
M  V30 1152 H 108.605 2.48102 -0.693035 0
M  V30 1153 H 108.563 2.99451 0.957932 0
M  V30 1154 N 112.336 1.25143 0.95797 0
M  V30 1155 C 113.585 1.0909 1.69654 0
M  V30 1156 C 113.898 -0.368548 1.92097 0
M  V30 1157 O 115.104 -0.649455 2.63618 0
M  V30 1158 C 113.56 1.90395 3.05414 0
M  V30 1159 C 113.168 3.4081 2.90779 0
M  V30 1160 C 114.912 1.82901 3.83076 0
M  V30 1161 C 112.819 4.14423 4.21909 0
M  V30 1162 H 111.749 0.404625 0.636235 0
M  V30 1163 H 114.4 1.4931 1.06672 0
M  V30 1164 H 112.782 1.42996 3.69281 0
M  V30 1165 H 113.956 3.95859 2.35865 0
M  V30 1166 H 112.271 3.49361 2.26575 0
M  V30 1167 H 114.868 2.35196 4.80195 0
M  V30 1168 H 115.211 0.796224 4.08615 0
M  V30 1169 H 115.744 2.28033 3.25954 0
M  V30 1170 H 112.483 5.18102 4.01561 0
M  V30 1171 H 112.003 3.64159 4.76601 0
M  V30 1172 H 113.682 4.21956 4.90471 0
M  V30 1173 N 113.814 -1.1601 1.06675 0
M  V30 1174 C 115.06 -1.86909 0.786945 0
M  V30 1175 C 115.393 -1.81717 -0.685018 0
M  V30 1176 O 114.668 -1.23551 -1.50218 0
M  V30 1177 C 114.951 -3.36313 1.28707 0
M  V30 1178 C 114.804 -3.50175 2.82308 0
M  V30 1179 C 116.123 -4.3084 0.898071 0
M  V30 1180 H 113.242 -0.678677 0.287343 0
M  V30 1181 H 115.884 -1.36336 1.32334 0
M  V30 1182 H 114.034 -3.79513 0.830768 0
M  V30 1183 H 115.706 -3.15886 3.36175 0
M  V30 1184 H 113.949 -2.91959 3.20847 0
M  V30 1185 H 114.62 -4.55116 3.12368 0
M  V30 1186 H 117.096 -3.95561 1.29114 0
M  V30 1187 H 115.972 -5.33876 1.27543 0
M  V30 1188 H 116.233 -4.41662 -0.196651 0
M  V30 1189 N 115.292 -0.849877 -1.32721 0
M  V30 1190 C 116.517 -0.463856 -2.02146 0
M  V30 1191 C 116.942 0.930449 -1.63476 0
M  V30 1192 O 116.3 1.61033 -0.832952 0
M  V30 1193 C 116.348 -0.604955 -3.55489 0
M  V30 1194 O 115.452 0.36425 -4.10788 0
M  V30 1195 H 114.793 -0.187046 -0.637111 0
M  V30 1196 H 117.323 -1.14775 -1.69375 0
M  V30 1197 H 117.333 -0.490696 -4.05038 0
M  V30 1198 H 116.008 -1.62174 -3.82978 0
M  V30 1199 H 114.585 0.206628 -3.72327 0
M  V30 1200 N 116.77 1.45427 -0.607355 0
M  V30 1201 C 117.995 2.07124 -0.107006 0
M  V30 1202 C 118.42 1.44906 1.19933 0
M  V30 1203 O 117.778 0.541687 1.73019 0
M  V30 1204 C 117.826 3.60595 0.0194119 0
M  V30 1205 O 116.93 3.98285 1.0697 0
M  V30 1206 H 116.271 0.659868 -0.0739597 0
M  V30 1207 H 118.801 1.86683 -0.837297 0
M  V30 1208 H 118.811 4.07419 0.2177 0
M  V30 1209 H 117.486 4.05266 -0.934453 0
M  V30 1210 H 116.063 3.63133 0.847889 0
M  V30 1211 N 118.248 0.346503 1.53744 0
M  V30 1212 C 119.195 -0.508914 2.25119 0
M  V30 1213 C 120.165 -1.09315 1.25058 0
M  V30 1214 O 121.35 -1.12921 1.53797 0
M  V30 1215 C 118.49 -1.65246 3.02965 0
M  V30 1216 C 117.603 -1.09525 4.17886 0
M  V30 1217 C 116.738 -2.20634 4.83212 0
M  V30 1218 C 115.777 -1.62279 5.90196 0
M  V30 1219 N 114.914 -2.67143 6.49291 0
M  V30 1220 H 119.754 0.106283 2.9781 0
M  V30 1221 H 117.291 0.0642227 1.4696 0
M  V30 1222 H 119.249 -2.32574 3.4636 0
M  V30 1223 H 117.879 -2.2386 2.32565 0
M  V30 1224 H 116.931 -0.312818 3.79112 0
M  V30 1225 H 118.243 -0.628444 4.94825 0
M  V30 1226 H 117.397 -2.95821 5.29693 0
M  V30 1227 H 116.136 -2.70659 4.05703 0
M  V30 1228 H 115.141 -0.855989 5.43096 0
M  V30 1229 H 116.366 -1.13102 6.69615 0
M  V30 1230 H 114.312 -3.16417 5.74645 0
M  V30 1231 H 114.229 -2.25093 7.21713 0
M  V30 1232 H 115.497 -3.4209 7.00425 0
M  V30 1233 N 119.726 -1.57421 0.075193 0
M  V30 1234 C 121.003 -1.85029 -0.634329 0
M  V30 1235 C 121.383 -0.968305 -1.87582 0
M  V30 1236 O 120.731 -0.0354749 -2.28472 0
M  V30 1237 C 120.941 -3.35286 -0.968742 0
M  V30 1238 C 122.289 -4.02875 -1.34077 0
M  V30 1239 O 123.313 -3.40051 -1.06037 0
M  V30 1240 O 122.172 -5.13691 -1.86506 0
M  V30 1241 H 119.266 -0.7645 -0.315387 0
M  V30 1242 H 121.812 -1.69366 0.106382 0
M  V30 1243 H 120.584 -3.91203 -0.0871376 0
M  V30 1244 H 120.207 -3.56223 -1.7661 0
M  V30 1245 N 121.204 0.198386 -1.56346 0
M  V30 1246 C 122.434 0.934215 -1.84271 0
M  V30 1247 C 122.842 1.77496 -0.655125 0
M  V30 1248 O 122.185 1.7961 0.385488 0
M  V30 1249 C 122.247 1.88278 -3.06254 0
M  V30 1250 C 121.911 1.22431 -4.40295 0
M  V30 1251 C 122.908 0.602839 -5.16393 0
M  V30 1252 C 120.593 1.22915 -4.87029 0
M  V30 1253 C 122.587 -0.0050083 -6.374 0
M  V30 1254 C 120.274 0.617465 -6.07973 0
M  V30 1255 C 121.272 0.00146341 -6.83 0
M  V30 1256 O 120.96 -0.600642 -8.01653 0
M  V30 1257 H 120.692 0.278245 -0.616081 0
M  V30 1258 H 123.246 0.211626 -2.04307 0
M  V30 1259 H 121.476 2.64498 -2.82095 0
M  V30 1260 H 123.165 2.48612 -3.20853 0
M  V30 1261 H 123.931 0.591265 -4.81382 0
M  V30 1262 H 119.81 1.69801 -4.28589 0
M  V30 1263 H 123.354 -0.48643 -6.95902 0
M  V30 1264 H 119.251 0.62653 -6.42452 0
M  V30 1265 H 120.019 -0.497225 -8.16988 0
M  V30 1266 N 122.682 1.50554 0.465978 0
M  V30 1267 C 123.612 1.72722 1.57128 0
M  V30 1268 C 124.593 0.576294 1.6004 0
M  V30 1269 O 125.778 0.81598 1.76225 0
M  V30 1270 C 122.908 1.82605 2.95419 0
M  V30 1271 C 121.862 2.97835 3.07373 0
M  V30 1272 C 121.188 2.92867 4.47363 0
M  V30 1273 C 122.488 4.38265 2.84114 0
M  V30 1274 H 124.182 2.65267 1.38829 0
M  V30 1275 H 121.728 1.2765 0.666441 0
M  V30 1276 H 123.681 1.96698 3.72677 0
M  V30 1277 H 122.405 0.866858 3.14886 0
M  V30 1278 H 121.064 2.83401 2.3255 0
M  V30 1279 H 120.712 1.94783 4.63755 0
M  V30 1280 H 120.412 3.70227 4.56296 0
M  V30 1281 H 121.936 3.09015 5.26633 0
M  V30 1282 H 123.35 4.53198 3.51118 0
M  V30 1283 H 121.747 5.17115 3.04487 0
M  V30 1284 H 122.817 4.50281 1.7993 0
M  V30 1285 N 124.16 -0.719506 1.40217 0
M  V30 1286 C 125.406 -1.48152 1.38488 0
M  V30 1287 C 125.739 -1.94195 -0.0141867 0
M  V30 1288 O 125.014 -1.67884 -0.982096 0
M  V30 1289 C 125.297 -2.71035 2.37091 0
M  V30 1290 C 125.15 -2.30912 3.86005 0
M  V30 1291 C 126.469 -3.73182 2.33288 0
M  V30 1292 H 123.588 -0.537395 0.504357 0
M  V30 1293 H 126.23 -0.821472 1.71324 0
M  V30 1294 H 124.38 -3.27352 2.0922 0
M  V30 1295 H 126.052 -1.80107 4.24687 0
M  V30 1296 H 124.295 -1.62958 4.02029 0
M  V30 1297 H 124.966 -3.18978 4.50508 0
M  V30 1298 H 127.442 -3.26485 2.57966 0
M  V30 1299 H 126.318 -4.56806 3.04334 0
M  V30 1300 H 126.579 -4.21202 1.34317 0
M  V30 1301 N 125.638 -1.25649 -0.95132 0
M  V30 1302 C 126.866 -1.13343 -1.73092 0
M  V30 1303 C 127.281 0.312434 -1.86197 0
M  V30 1304 O 126.638 1.21465 -1.36207 0
M  V30 1305 C 126.689 -1.78602 -3.14299 0
M  V30 1306 O 126.41 -3.17537 -3.01831 0
M  V30 1307 C 127.911 -1.72119 -4.08522 0
M  V30 1308 H 125.131 -0.395181 -0.542285 0
M  V30 1309 H 127.675 -1.66076 -1.19328 0
M  V30 1310 H 125.83 -1.29832 -3.64996 0
M  V30 1311 H 126.244 -3.49676 -3.90931 0
M  V30 1312 H 127.718 -2.22435 -5.052 0
M  V30 1313 H 128.195 -0.685635 -4.33815 0
M  V30 1314 H 128.801 -2.20393 -3.63741 0
M  V30 1315 N 127.117 1.15442 -1.07289 0
M  V30 1316 C 128.08 2.18358 -0.696591 0
M  V30 1317 C 129.08 1.58637 0.262837 0
M  V30 1318 O 130.27 1.74145 0.0438809 0
M  V30 1319 C 127.402 3.4089 -0.0266151 0
M  V30 1320 H 128.595 2.53162 -1.60776 0
M  V30 1321 H 126.148 1.29893 -0.869342 0
M  V30 1322 H 126.883 3.11653 0.896822 0
M  V30 1323 H 126.668 3.85495 -0.716657 0
M  V30 1324 H 128.158 4.17009 0.222028 0
M  V30 1325 N 128.595 0.856903 1.32268 0
M  V30 1326 C 129.543 0.291987 2.3076 0
M  V30 1327 C 130.537 -0.585857 1.58947 0
M  V30 1328 O 131.743 -0.47341 1.73663 0
M  V30 1329 H 128.118 0.075721 0.748178 0
M  V30 1330 H 130.089 1.13687 2.75895 0
M  V30 1331 C 128.838 -0.502869 3.44044 0
M  V30 1332 H 128.161 0.163328 3.99466 0
M  V30 1333 H 129.601 -0.863691 4.1511 0
M  V30 1334 C 128.06 -1.68898 2.91505 0
M  V30 1335 O 128.59 -2.78811 2.89184 0
M  V30 1336 N 126.796 -1.51679 2.47875 0
M  V30 1337 H 126.343 -0.622666 2.49961 0
M  V30 1338 H 126.301 -2.31184 2.13076 0
M  V30 1339 N 130.073 -1.45103 0.615059 0
M  V30 1340 C 131.298 -2.07064 0.117988 0
M  V30 1341 C 131.723 -1.4554 -1.19163 0
M  V30 1342 O 131.081 -0.550855 -1.72729 0
M  V30 1343 C 131.129 -3.606 -0.000288387 0
M  V30 1344 O 130.233 -3.98847 -1.04856 0
M  V30 1345 H 129.574 -0.659467 0.0774581 0
M  V30 1346 H 132.104 -1.86236 0.847186 0
M  V30 1347 H 132.114 -4.07529 -0.196091 0
M  V30 1348 H 130.789 -4.04765 0.955932 0
M  V30 1349 H 129.366 -3.63577 -0.828619 0
M  V30 1350 N 131.551 -0.354651 -1.53558 0
M  V30 1351 C 132.499 0.512195 -2.26891 0
M  V30 1352 C 133.493 1.09263 -1.29452 0
M  V30 1353 O 134.699 1.03709 -1.47121 0
M  V30 1354 H 131.074 0.183878 -0.729173 0
M  V30 1355 H 133.045 -0.128202 -2.98124 0
M  V30 1356 C 131.794 1.64563 -3.06291 0
M  V30 1357 H 131.117 1.20829 -3.81104 0
M  V30 1358 H 132.557 2.22711 -3.60799 0
M  V30 1359 C 131.016 2.58158 -2.16462 0
M  V30 1360 O 131.546 3.60695 -1.76811 0
M  V30 1361 N 129.752 2.27096 -1.81317 0
M  V30 1362 H 129.299 1.43751 -2.1376 0
M  V30 1363 H 129.257 2.89975 -1.21498 0
M  V30 1364 N 133.029 1.57378 -0.0835403 0
M  V30 1365 C 133.959 2.1641 0.87686 0
M  V30 1366 C 134.94 1.09429 1.30228 0
M  V30 1367 O 136.125 1.37516 1.37124 0
M  V30 1368 C 133.255 2.73517 2.14022 0
M  V30 1369 C 132.209 3.85769 1.85381 0
M  V30 1370 C 131.535 4.29529 3.18448 0
M  V30 1371 C 132.835 5.09486 1.14984 0
M  V30 1372 H 134.529 2.96914 0.385059 0
M  V30 1373 H 132.075 1.42823 0.18377 0
M  V30 1374 H 134.028 3.13463 2.81636 0
M  V30 1375 H 132.752 1.90252 2.65465 0
M  V30 1376 H 131.411 3.46345 1.20169 0
M  V30 1377 H 131.059 3.43169 3.67755 0
M  V30 1378 H 130.759 5.05204 3.00071 0
M  V30 1379 H 132.283 4.72099 3.8724 0
M  V30 1380 H 133.697 5.46674 1.72687 0
M  V30 1381 H 132.094 5.90515 1.06826 0
M  V30 1382 H 133.164 4.84724 0.130749 0
M  V30 1383 N 134.507 -0.190092 1.56449 0
M  V30 1384 C 135.753 -0.911052 1.81184 0
M  V30 1385 C 136.086 -1.82699 0.658396 0
M  V30 1386 O 135.361 -1.91491 -0.340775 0
M  V30 1387 C 135.644 -1.72297 3.16205 0
M  V30 1388 C 135.497 -0.831419 4.42049 0
M  V30 1389 C 136.816 -2.69454 3.47969 0
M  V30 1390 H 133.935 -0.32977 0.659106 0
M  V30 1391 H 136.577 -0.178169 1.89163 0
M  V30 1392 H 134.727 -2.34778 3.09534 0
M  V30 1393 H 136.399 -0.220929 4.60771 0
M  V30 1394 H 134.642 -0.138406 4.33579 0
M  V30 1395 H 135.313 -1.43461 5.33032 0
M  V30 1396 H 137.789 -2.17104 3.54972 0
M  V30 1397 H 136.665 -3.23342 4.43555 0
M  V30 1398 H 136.926 -3.48744 2.71717 0
M  V30 1399 N 135.985 -1.50799 -0.457987 0
M  V30 1400 C 137.234 -1.6168 -1.20593 0
M  V30 1401 C 137.547 -0.32888 -1.92815 0
M  V30 1402 O 138.753 -0.316773 -2.69646 0
M  V30 1403 C 137.209 -2.8545 -2.19195 0
M  V30 1404 C 136.817 -4.21168 -1.52715 0
M  V30 1405 C 138.561 -3.05681 -2.94549 0
M  V30 1406 C 136.468 -5.3611 -2.4968 0
M  V30 1407 H 135.398 -0.602134 -0.453818 0
M  V30 1408 H 138.049 -1.77245 -0.475031 0
M  V30 1409 H 136.431 -2.63472 -2.95632 0
M  V30 1410 H 137.605 -4.53449 -0.819775 0
M  V30 1411 H 135.92 -4.06648 -0.895922 0
M  V30 1412 H 138.517 -3.88727 -3.67145 0
M  V30 1413 H 138.86 -2.17929 -3.54701 0
M  V30 1414 H 139.393 -3.27901 -2.25223 0
M  V30 1415 H 136.132 -6.26057 -1.94249 0
M  V30 1416 H 135.652 -5.0823 -3.18532 0
M  V30 1417 H 137.331 -5.6722 -3.11241 0
M  V30 1418 N 137.463 0.71206 -1.40597 0
M  V30 1419 C 138.712 1.46754 -1.38369 0
M  V30 1420 C 139.025 1.95598 0.0097839 0
M  V30 1421 O 140.231 2.71059 0.154677 0
M  V30 1422 C 138.687 2.65289 -2.43207 0
M  V30 1423 C 138.295 2.23301 -3.88382 0
M  V30 1424 C 140.039 3.43008 -2.50091 0
M  V30 1425 C 137.946 3.38696 -4.84808 0
M  V30 1426 H 136.876 0.55118 -0.514506 0
M  V30 1427 H 139.527 0.774616 -1.66349 0
M  V30 1428 H 137.909 3.36769 -2.08332 0
M  V30 1429 H 139.083 1.59218 -4.32419 0
M  V30 1430 H 137.398 1.58618 -3.85006 0
M  V30 1431 H 139.995 4.28881 -3.1932 0
M  V30 1432 H 140.338 3.87065 -1.53253 0
M  V30 1433 H 140.871 2.78574 -2.83974 0
M  V30 1434 H 137.61 2.99668 -5.82992 0
M  V30 1435 H 137.13 4.01683 -4.45433 0
M  V30 1436 H 138.809 4.04712 -5.04794 0
M  V30 1437 N 138.941 1.26152 0.944643 0
M  V30 1438 C 140.169 1.14259 1.72489 0
M  V30 1439 C 140.584 -0.302555 1.8636 0
M  V30 1440 O 139.941 -1.20741 1.36849 0
M  V30 1441 C 139.992 1.80266 3.13347 0
M  V30 1442 O 139.713 3.19133 3.00143 0
M  V30 1443 C 141.214 1.74283 4.07603 0
M  V30 1444 H 138.434 0.398051 0.540181 0
M  V30 1445 H 140.978 1.66706 1.18446 0
M  V30 1446 H 139.133 1.31766 3.64303 0
M  V30 1447 H 139.547 3.51744 3.89071 0
M  V30 1448 H 141.021 2.25111 5.04013 0
M  V30 1449 H 141.498 0.708631 4.33446 0
M  V30 1450 H 142.104 2.22319 3.62567 0
M  V30 1451 N 140.419 -1.14872 1.07899 0
M  V30 1452 C 141.382 -2.17986 0.708161 0
M  V30 1453 C 142.382 -1.58775 -0.25442 0
M  V30 1454 O 143.572 -1.74166 -0.034645 0
M  V30 1455 C 140.704 -3.40871 0.0446929 0
M  V30 1456 H 141.897 -2.52306 1.62116 0
M  V30 1457 H 139.45 -1.2943 0.876218 0
M  V30 1458 H 140.185 -3.12124 -0.880281 0
M  V30 1459 H 139.97 -3.8511 0.737091 0
M  V30 1460 H 141.46 -4.17121 -0.19991 0
M  V30 1461 N 141.898 -0.863906 -1.31812 0
M  V30 1462 C 143.146 -0.470904 -1.96537 0
M  V30 1463 C 143.467 0.978771 -1.68657 0
M  V30 1464 O 142.737 1.6853 -0.998717 0
M  V30 1465 H 141.317 -0.171148 -0.72713 0
M  V30 1466 H 143.979 -1.10236 -1.60729 0
M  V30 1467 H 143.075 -0.623616 -3.05806 0
M  V30 1468 N 143.376 1.44774 -0.622745 0
M  V30 1469 C 144.339 2.29069 0.0774015 0
M  V30 1470 C 145.339 1.4059 0.780461 0
M  V30 1471 O 146.529 1.62551 0.626322 0
M  V30 1472 C 143.661 3.21974 1.12006 0
M  V30 1473 H 144.854 2.92459 -0.663901 0
M  V30 1474 H 142.407 1.51548 -0.382486 0
M  V30 1475 H 143.142 2.63417 1.89162 0
M  V30 1476 H 142.927 3.87168 0.619951 0
M  V30 1477 H 144.417 3.85318 1.60995 0
M  V30 1478 N 144.854 0.36279 1.53368 0
M  V30 1479 C 146.27 0.0116182 1.59596 0
M  V30 1480 C 146.47 -1.47012 1.37803 0
M  V30 1481 O 145.526 -2.23136 1.18181 0
M  V30 1482 C 146.839 0.465052 2.97082 0
M  V30 1483 C 148.387 0.419033 3.10182 0
M  V30 1484 C 148.862 0.848235 4.50077 0
M  V30 1485 N 150.353 0.803183 4.56183 0
M  V30 1486 C 151.088 1.107 5.62613 0
M  V30 1487 N 150.584 1.47996 6.76808 0
M  V30 1488 N 152.377 1.02998 5.52583 0
M  V30 1489 H 144.528 1.32775 1.65785 0
M  V30 1490 H 146.791 0.542518 0.777417 0
M  V30 1491 H 146.497 1.49892 3.18159 0
M  V30 1492 H 146.371 -0.149786 3.76902 0
M  V30 1493 H 148.758 -0.605696 2.88817 0
M  V30 1494 H 148.839 1.06933 2.32377 0
M  V30 1495 H 148.483 1.87107 4.7218 0
M  V30 1496 H 148.413 0.175218 5.26308 0
M  V30 1497 H 150.904 0.52838 3.74188 0
M  V30 1498 H 151.217 1.69613 7.53957 0
M  V30 1499 H 149.562 1.51859 6.78206 0
M  V30 1500 H 152.753 0.737817 4.62249 0
M  V30 1501 H 152.926 1.2701 6.35431 0
M  V30 1502 N 146.332 -1.57332 0.0918853 0
M  V30 1503 C 147.264 -2.10869 -0.898168 0
M  V30 1504 C 148.277 -1.04521 -1.24817 0
M  V30 1505 O 149.466 -1.31977 -1.20184 0
M  V30 1506 C 146.566 -2.57083 -2.2082 0
M  V30 1507 C 145.739 -3.87229 -2.03402 0
M  V30 1508 C 144.798 -4.19324 -3.17889 0
M  V30 1509 O 143.824 -4.88598 -2.91994 0
M  V30 1510 N 145.026 -3.74471 -4.43567 0
M  V30 1511 H 147.791 -2.96439 -0.440943 0
M  V30 1512 H 145.352 -1.61631 -0.0933064 0
M  V30 1513 H 147.344 -2.75602 -2.96354 0
M  V30 1514 H 145.914 -1.76541 -2.57977 0
M  V30 1515 H 145.134 -3.7789 -1.12218 0
M  V30 1516 H 146.422 -4.72379 -1.89038 0
M  V30 1517 H 145.82 -3.18546 -4.67488 0
M  V30 1518 H 144.377 -3.98151 -5.16061 0
M  V30 1519 N 147.81 0.181792 -1.56548 0
M  V30 1520 C 148.757 1.22521 -1.95595 0
M  V30 1521 C 149.727 1.4454 -0.818373 0
M  V30 1522 O 150.912 1.57454 -1.07763 0
M  V30 1523 C 148.052 2.56193 -2.31212 0
M  V30 1524 C 147.165 2.41641 -3.58097 0
M  V30 1525 C 146.3 3.68108 -3.82975 0
M  V30 1526 C 145.339 3.48445 -5.03242 0
M  V30 1527 N 144.476 4.66956 -5.24306 0
M  V30 1528 H 149.316 0.885226 -2.84548 0
M  V30 1529 H 146.853 0.425718 -1.40805 0
M  V30 1530 H 148.811 3.34088 -2.49882 0
M  V30 1531 H 147.441 2.88208 -1.45382 0
M  V30 1532 H 146.493 1.54976 -3.474 0
M  V30 1533 H 147.805 2.23052 -4.46149 0
M  V30 1534 H 146.959 4.54441 -4.01956 0
M  V30 1535 H 145.698 3.89666 -2.93278 0
M  V30 1536 H 144.703 2.60499 -4.8417 0
M  V30 1537 H 145.928 3.2832 -5.9446 0
M  V30 1538 H 143.874 4.88752 -4.37559 0
M  V30 1539 H 143.791 4.51242 -6.06561 0
M  V30 1540 H 145.059 5.54602 -5.47756 0
M  V30 1541 N 149.288 1.51039 0.449983 0
M  V30 1542 C 150.235 1.71439 1.54523 0
M  V30 1543 C 151.205 0.555871 1.56522 0
M  V30 1544 O 152.39 0.788871 1.73728 0
M  V30 1545 C 149.53 1.83384 2.92343 0
M  V30 1546 C 148.643 3.10873 2.9997 0
M  V30 1547 C 147.778 3.13488 4.28834 0
M  V30 1548 C 146.817 4.35343 4.30282 0
M  V30 1549 N 145.954 4.35579 5.5065 0
M  V30 1550 H 150.794 2.64934 1.36433 0
M  V30 1551 H 148.331 1.31312 0.662982 0
M  V30 1552 H 150.289 1.88291 3.72293 0
M  V30 1553 H 148.919 0.933086 3.0902 0
M  V30 1554 H 147.971 3.15336 2.12761 0
M  V30 1555 H 149.283 4.00814 2.96901 0
M  V30 1556 H 148.437 3.17241 5.17149 0
M  V30 1557 H 147.176 2.21414 4.34543 0
M  V30 1558 H 146.181 4.3178 3.40362 0
M  V30 1559 H 147.406 5.28668 4.26248 0
M  V30 1560 H 145.352 3.46369 5.57104 0
M  V30 1561 H 145.269 5.19313 5.49409 0
M  V30 1562 H 146.537 4.43507 6.41032 0
M  V30 1563 N 150.766 -0.704594 1.40972 0
M  V30 1564 C 152.014 -1.46169 1.39568 0
M  V30 1565 C 152.335 -1.95 0.00253745 0
M  V30 1566 O 151.605 -1.71095 -0.954114 0
M  V30 1567 H 150.185 -0.542326 0.513704 0
M  V30 1568 H 152.847 -0.834553 1.76128 0
M  V30 1569 H 151.943 -2.32922 2.07735 0
M  V30 1570 N 152.244 -1.26651 -0.937939 0
M  V30 1571 C 153.154 -1.10276 -2.07066 0
M  V30 1572 C 154.17 -0.0354197 -1.73964 0
M  V30 1573 O 155.346 -0.239816 -1.99967 0
M  V30 1574 C 152.411 -0.740887 -3.38691 0
M  V30 1575 C 151.472 -1.88799 -3.85556 0
M  V30 1576 C 150.705 -1.54329 -5.10899 0
M  V30 1577 O 150.928 -0.446494 -5.6865 0
M  V30 1578 O 149.862 -2.37911 -5.52885 0
M  V30 1579 H 153.688 -2.05309 -2.23789 0
M  V30 1580 H 151.273 -1.05743 -1.0554 0
M  V30 1581 H 153.155 -0.55195 -4.1777 0
M  V30 1582 H 151.83 0.180022 -3.23199 0
M  V30 1583 H 150.737 -2.13191 -3.07409 0
M  V30 1584 H 152.07 -2.78874 -4.05574 0
M  V30 1585 N 153.722 1.14298 -1.08507 0
M  V30 1586 C 154.95 1.89219 -0.836876 0
M  V30 1587 C 155.365 1.78638 0.611054 0
M  V30 1588 O 154.722 1.14643 1.41998 0
M  V30 1589 C 154.773 3.39158 -1.25116 0
M  V30 1590 O 154.494 3.49449 -2.64229 0
M  V30 1591 C 155.995 4.31073 -1.03398 0
M  V30 1592 H 153.215 0.599328 -0.301739 0
M  V30 1593 H 155.759 1.44746 -1.44461 0
M  V30 1594 H 153.914 3.81251 -0.687514 0
M  V30 1595 H 154.328 4.42589 -2.81452 0
M  V30 1596 H 155.802 5.34646 -1.37323 0
M  V30 1597 H 156.279 4.3919 0.0289259 0
M  V30 1598 H 156.885 3.94738 -1.58311 0
M  V30 1599 N 155.201 0.870884 1.31352 0
M  V30 1600 C 156.617 0.562932 1.49343 0
M  V30 1601 C 156.817 -0.902725 1.80148 0
M  V30 1602 O 155.873 -1.68484 1.88067 0
M  V30 1603 C 157.186 1.46393 2.62659 0
M  V30 1604 C 158.734 1.46607 2.76542 0
M  V30 1605 C 159.209 2.35266 3.92955 0
M  V30 1606 N 160.7 2.33151 4.00243 0
M  V30 1607 C 161.435 2.98471 4.89594 0
M  V30 1608 N 160.931 3.72964 5.8384 0
M  V30 1609 N 162.724 2.87775 4.82848 0
M  V30 1610 H 154.875 1.81923 1.09626 0
M  V30 1611 H 157.138 0.777934 0.541777 0
M  V30 1612 H 156.844 2.50689 2.46674 0
M  V30 1613 H 156.718 1.16314 3.58819 0
M  V30 1614 H 159.105 0.43069 2.9194 0
M  V30 1615 H 159.186 1.8071 1.81046 0
M  V30 1616 H 158.83 3.38881 3.78315 0
M  V30 1617 H 158.76 1.98487 4.87761 0
M  V30 1618 H 161.251 1.79006 3.32814 0
M  V30 1619 H 161.564 4.19932 6.4875 0
M  V30 1620 H 159.909 3.77073 5.83816 0
M  V30 1621 H 163.1 2.29116 4.08195 0
M  V30 1622 H 163.273 3.38961 5.52277 0
M  V30 1623 N 156.679 -1.44442 0.630414 0
M  V30 1624 C 157.609 -2.33418 -0.0618083 0
M  V30 1625 C 158.59 -1.48165 -0.835541 0
M  V30 1626 O 159.775 -1.76886 -0.801564 0
M  V30 1627 C 156.905 -3.31222 -1.04449 0
M  V30 1628 C 155.859 -4.26288 -0.382436 0
M  V30 1629 C 155.185 -5.13954 -1.47497 0
M  V30 1630 C 156.485 -5.1744 0.710865 0
M  V30 1631 H 158.179 -2.91548 0.681184 0
M  V30 1632 H 155.725 -1.40191 0.329026 0
M  V30 1633 H 157.678 -3.92351 -1.53748 0
M  V30 1634 H 156.402 -2.71299 -1.81836 0
M  V30 1635 H 155.061 -3.6649 0.0899054 0
M  V30 1636 H 154.709 -4.50385 -2.2397 0
M  V30 1637 H 154.409 -5.7837 -1.03737 0
M  V30 1638 H 155.933 -5.77955 -1.96979 0
M  V30 1639 H 157.347 -5.72509 0.300996 0
M  V30 1640 H 155.744 -5.90455 1.07156 0
M  V30 1641 H 156.814 -4.58496 1.57829 0
M  V30 1642 N 158.157 -0.370918 -1.53173 0
M  V30 1643 C 159.434 0.273754 -1.93675 0
M  V30 1644 C 159.814 1.65938 -1.3049 0
M  V30 1645 O 159.162 2.23698 -0.465999 0
M  V30 1646 C 159.372 0.318602 -3.47543 0
M  V30 1647 C 160.72 0.556392 -4.20939 0
M  V30 1648 O 161.744 0.399587 -3.53952 0
M  V30 1649 O 160.603 0.862133 -5.39657 0
M  V30 1650 H 157.697 0.165448 -0.810281 0
M  V30 1651 H 160.243 -0.42409 -1.64315 0
M  V30 1652 H 159.015 -0.652687 -3.85818 0
M  V30 1653 H 158.638 1.06212 -3.83151 0
M  V30 1654 N 159.635 1.57281 -0.100228 0
M  V30 1655 C 160.565 2.17328 0.853857 0
M  V30 1656 C 161.546 1.10804 1.2906 0
M  V30 1657 O 162.731 1.38963 1.35657 0
M  V30 1658 C 159.861 2.75772 2.11109 0
M  V30 1659 C 158.815 3.87713 1.81279 0
M  V30 1660 C 158.141 4.32882 3.13874 0
M  V30 1661 C 159.441 5.10677 1.09574 0
M  V30 1662 H 161.135 2.97305 0.353545 0
M  V30 1663 H 158.681 1.43009 0.168612 0
M  V30 1664 H 160.634 3.16433 2.78296 0
M  V30 1665 H 159.358 1.93057 2.63432 0
M  V30 1666 H 158.017 3.476 1.16489 0
M  V30 1667 H 157.665 3.47051 3.64095 0
M  V30 1668 H 157.365 5.08358 2.94696 0
M  V30 1669 H 158.889 4.7618 3.82211 0
M  V30 1670 H 160.303 5.48474 1.66879 0
M  V30 1671 H 158.7 5.91615 1.00557 0
M  V30 1672 H 159.77 4.84835 0.0793299 0
M  V30 1673 N 161.113 -0.173488 1.56642 0
M  V30 1674 C 162.359 -0.891784 1.8214 0
M  V30 1675 C 162.692 -1.8199 0.677736 0
M  V30 1676 O 161.967 -1.91842 -0.320446 0
M  V30 1677 C 162.25 -1.68933 3.18015 0
M  V30 1678 C 162.103 -0.784487 4.42906 0
M  V30 1679 C 163.422 -2.65748 3.50808 0
M  V30 1680 H 160.541 -0.322761 0.662567 0
M  V30 1681 H 163.183 -0.158095 1.89341 0
M  V30 1682 H 161.333 -2.31482 3.12007 0
M  V30 1683 H 163.005 -0.172046 4.60979 0
M  V30 1684 H 161.248 -0.0924117 4.33702 0
M  V30 1685 H 161.919 -1.37799 5.34524 0
M  V30 1686 H 164.395 -2.13327 3.57255 0
M  V30 1687 H 163.271 -3.18619 4.4696 0
M  V30 1688 H 163.532 -3.45842 2.75401 0
M  V30 1689 N 162.591 -1.51276 -0.441967 0
M  V30 1690 C 163.523 -1.68444 -1.55433 0
M  V30 1691 C 164.536 -0.565187 -1.52674 0
M  V30 1692 O 165.725 -0.839356 -1.57534 0
M  V30 1693 C 162.825 -1.67966 -2.94348 0
M  V30 1694 C 161.998 -2.964 -3.21661 0
M  V30 1695 C 161.057 -2.88171 -4.40277 0
M  V30 1696 O 160.083 -3.62119 -4.39157 0
M  V30 1697 N 161.285 -2.03706 -5.43584 0
M  V30 1698 H 164.05 -2.644 -1.41112 0
M  V30 1699 H 161.611 -1.49104 -0.630838 0
M  V30 1700 H 163.603 -1.60035 -3.71713 0
M  V30 1701 H 162.173 -0.796225 -3.0229 0
M  V30 1702 H 161.393 -3.18234 -2.32638 0
M  V30 1703 H 162.681 -3.81427 -3.36736 0
M  V30 1704 H 162.079 -1.42995 -5.47329 0
M  V30 1705 H 160.636 -2.01658 -6.1982 0
M  V30 1706 N 164.069 0.697108 -1.41344 0
M  V30 1707 C 165.485 1.00751 -1.2378 0
M  V30 1708 C 165.685 2.01105 -0.126066 0
M  V30 1709 O 164.741 2.47295 0.51004 0
M  V30 1710 C 166.054 1.53359 -2.58653 0
M  V30 1711 C 167.602 1.6525 -2.65822 0
M  V30 1712 C 168.077 2.2126 -4.01009 0
M  V30 1713 N 169.568 2.28622 -4.02847 0
M  V30 1714 C 170.303 2.72984 -5.04249 0
M  V30 1715 N 169.799 3.16962 -6.16041 0
M  V30 1716 N 171.592 2.72534 -4.91611 0
M  V30 1717 H 163.743 0.0322662 -2.12375 0
M  V30 1718 H 166.006 0.0768853 -0.944877 0
M  V30 1719 H 165.712 0.870773 -3.4075 0
M  V30 1720 H 165.586 2.51597 -2.81032 0
M  V30 1721 H 167.973 2.30644 -1.84086 0
M  V30 1722 H 168.054 0.655614 -2.47256 0
M  V30 1723 H 167.698 1.56482 -4.83193 0
M  V30 1724 H 167.628 3.21698 -4.16915 0
M  V30 1725 H 170.119 1.97585 -3.22131 0
M  V30 1726 H 170.432 3.49434 -6.89287 0
M  V30 1727 H 168.777 3.14875 -6.1958 0
M  V30 1728 H 171.968 2.37525 -4.0336 0
M  V30 1729 H 172.141 3.06789 -5.70775 0
M  V30 1730 N 165.547 1.27147 0.931209 0
M  V30 1731 C 166.495 1.09398 2.05268 0
M  V30 1732 C 167.489 0.0180591 1.6939 0
M  V30 1733 O 168.695 0.17551 1.79142 0
M  V30 1734 H 165.07 0.336986 0.672268 0
M  V30 1735 H 167.041 2.04416 2.17386 0
M  V30 1736 C 165.79 0.75424 3.39421 0
M  V30 1737 H 165.113 1.57404 3.67511 0
M  V30 1738 H 166.553 0.669903 4.18674 0
M  V30 1739 C 165.012 -0.541197 3.32525 0
M  V30 1740 O 165.542 -1.57664 3.69466 0
M  V30 1741 N 163.748 -0.535517 2.85623 0
M  V30 1742 H 163.295 0.307511 2.55758 0
M  V30 1743 H 163.253 -1.40236 2.81392 0
M  V30 1744 N 167.025 -1.13721 1.09112 0
M  V30 1745 C 168.271 -1.85198 0.826414 0
M  V30 1746 C 168.604 -1.83129 -0.646319 0
M  V30 1747 O 167.879 -1.2671 -1.47563 0
M  V30 1748 C 168.162 -3.33507 1.35812 0
M  V30 1749 C 168.015 -3.44108 2.89672 0
M  V30 1750 C 169.334 -4.28838 0.989256 0
M  V30 1751 H 166.453 -0.67243 0.301675 0
M  V30 1752 H 169.095 -1.33499 1.35197 0
M  V30 1753 H 167.245 -3.77666 0.911082 0
M  V30 1754 H 168.917 -3.08684 3.428 0
M  V30 1755 H 167.16 -2.85087 3.26967 0
M  V30 1756 H 167.831 -4.48388 3.21951 0
M  V30 1757 H 170.307 -3.92734 1.37475 0
M  V30 1758 H 169.183 -5.31051 1.38838 0
M  V30 1759 H 169.444 -4.4198 -0.102924 0
M  V30 1760 N 168.503 -0.877838 -1.30888 0
M  V30 1761 C 169.728 -0.506629 -2.01117 0
M  V30 1762 C 170.153 0.895564 -1.65412 0
M  V30 1763 O 169.511 1.5923 -0.866922 0
M  V30 1764 C 169.559 -0.680223 -3.54126 0
M  V30 1765 O 168.663 0.277033 -4.11468 0
M  V30 1766 H 168.004 -0.200518 -0.633 0
M  V30 1767 H 170.534 -1.18342 -1.66902 0
M  V30 1768 H 170.544 -0.5765 -4.03907 0
M  V30 1769 H 169.219 -1.70261 -3.79452 0
M  V30 1770 H 167.796 0.127606 -3.72682 0
M  V30 1771 N 169.982 1.44106 -0.638065 0
M  V30 1772 C 171.231 2.01194 -0.142744 0
M  V30 1773 C 171.544 1.50835 1.24532 0
M  V30 1774 O 172.75 2.00096 1.83504 0
M  V30 1775 C 171.206 3.59319 -0.20442 0
M  V30 1776 C 170.814 4.18674 -1.59423 0
M  V30 1777 C 172.558 4.23854 0.234079 0
M  V30 1778 C 170.465 5.69045 -1.61065 0
M  V30 1779 H 169.395 0.752367 -0.0495998 0
M  V30 1780 H 172.046 1.65246 -0.797881 0
M  V30 1781 H 170.428 3.92598 0.517946 0
M  V30 1782 H 171.602 3.96921 -2.34074 0
M  V30 1783 H 169.917 3.66453 -1.97741 0
M  V30 1784 H 172.514 5.34155 0.241443 0
M  V30 1785 H 172.857 3.96688 1.2627 0
M  V30 1786 H 173.39 3.95403 -0.436025 0
M  V30 1787 H 170.129 6.00956 -2.61787 0
M  V30 1788 H 169.649 5.929 -0.90718 0
M  V30 1789 H 171.328 6.32809 -1.34766 0
M  V30 1790 N 171.46 0.379036 1.52974 0
M  V30 1791 C 172.707 -0.206421 2.01445 0
M  V30 1792 C 173.035 -1.47668 1.26587 0
M  V30 1793 O 172.29 -1.92514 0.351675 0
M  V30 1794 C 172.589 -0.53096 3.53434 0
M  V30 1795 C 172.255 0.646546 4.46241 0
M  V30 1796 C 170.917 0.969604 4.7133 0
M  V30 1797 C 173.269 1.43479 5.01062 0
M  V30 1798 C 170.597 2.08263 5.48492 0
M  V30 1799 C 172.949 2.53834 5.7944 0
M  V30 1800 C 171.613 2.86659 6.02812 0
M  V30 1801 H 170.883 -0.0755349 0.73714 0
M  V30 1802 H 173.53 0.514271 1.84465 0
M  V30 1803 H 171.835 -1.33285 3.68432 0
M  V30 1804 H 173.532 -0.996417 3.88423 0
M  V30 1805 H 170.122 0.384734 4.2687 0
M  V30 1806 H 174.306 1.19844 4.81613 0
M  V30 1807 H 169.562 2.34078 5.64816 0
M  V30 1808 H 173.736 3.15319 6.20924 0
M  V30 1809 H 171.363 3.73026 6.62387 0
M  V30 1810 N 172.938 -1.57226 0.108567 0
M  V30 1811 C 173.885 -2.14756 -0.845481 0
M  V30 1812 C 174.855 -1.06971 -1.27068 0
M  V30 1813 O 176.04 -1.34827 -1.35005 0
M  V30 1814 C 173.18 -2.74298 -2.09415 0
M  V30 1815 C 172.293 -3.96358 -1.71826 0
M  V30 1816 C 171.428 -4.44021 -2.9158 0
M  V30 1817 C 170.467 -5.58637 -2.50181 0
M  V30 1818 N 169.604 -6.01091 -3.62814 0
M  V30 1819 H 174.444 -2.95961 -0.348035 0
M  V30 1820 H 171.981 -1.46226 -0.160106 0
M  V30 1821 H 173.939 -3.06945 -2.82561 0
M  V30 1822 H 172.569 -1.95801 -2.56636 0
M  V30 1823 H 171.621 -3.69939 -0.885947 0
M  V30 1824 H 172.933 -4.79504 -1.37394 0
M  V30 1825 H 172.087 -4.78522 -3.72963 0
M  V30 1826 H 170.826 -3.59803 -3.29231 0
M  V30 1827 H 169.831 -5.23751 -1.67228 0
M  V30 1828 H 171.056 -6.44613 -2.13659 0
M  V30 1829 H 169.002 -5.19817 -4.00158 0
M  V30 1830 H 168.919 -6.79066 -3.32273 0
M  V30 1831 H 170.187 -6.40227 -4.44668 0
M  V30 1832 N 174.416 0.165178 -1.56732 0
M  V30 1833 C 175.346 1.20651 -1.99914 0
M  V30 1834 C 176.327 1.45827 -0.875705 0
M  V30 1835 O 177.512 1.57057 -1.14223 0
M  V30 1836 C 174.642 2.54401 -2.36427 0
M  V30 1837 C 173.596 2.43782 -3.51787 0
M  V30 1838 C 172.922 3.82078 -3.7406 0
M  V30 1839 C 174.222 1.93732 -4.85041 0
M  V30 1840 H 175.916 0.847534 -2.87154 0
M  V30 1841 H 173.462 0.40625 -1.38151 0
M  V30 1842 H 175.415 3.27458 -2.65234 0
M  V30 1843 H 174.139 2.92098 -1.46103 0
M  V30 1844 H 172.798 1.73178 -3.23117 0
M  V30 1845 H 172.446 4.17179 -2.81017 0
M  V30 1846 H 172.146 3.7584 -4.51684 0
M  V30 1847 H 173.67 4.56712 -4.05274 0
M  V30 1848 H 175.084 2.56569 -5.12684 0
M  V30 1849 H 173.481 1.98428 -5.66345 0
M  V30 1850 H 174.551 0.891962 -4.76626 0
M  V30 1851 N 175.894 1.51508 0.433938 0
M  V30 1852 C 176.827 1.67756 1.54704 0
M  V30 1853 C 177.805 0.525127 1.53887 0
M  V30 1854 O 178.989 0.749393 1.72963 0
M  V30 1855 C 176.116 1.69424 2.9328 0
M  V30 1856 C 175.162 2.90673 3.12108 0
M  V30 1857 S 175.995 4.51431 2.88046 0
M  V30 1858 C 177.151 4.55849 4.28897 0
M  V30 1859 H 177.384 2.61904 1.40689 0
M  V30 1860 H 174.917 1.41235 0.62386 0
M  V30 1861 H 176.875 1.7107 3.73156 0
M  V30 1862 H 175.536 0.764464 3.04655 0
M  V30 1863 H 174.729 2.88251 4.13434 0
M  V30 1864 H 174.331 2.86786 2.40062 0
M  V30 1865 H 176.623 4.31699 5.22152 0
M  V30 1866 H 177.566 5.57676 4.36351 0
M  V30 1867 H 177.974 3.85137 4.12711 0
M  V30 1868 N 177.372 -0.689602 1.41712 0
M  V30 1869 C 178.621 -1.44534 1.40686 0
M  V30 1870 C 178.934 -1.95588 0.0213352 0
M  V30 1871 O 180.14 -2.71271 -0.111534 0
M  V30 1872 C 178.596 -2.61387 2.47396 0
M  V30 1873 C 178.204 -2.17094 3.91885 0
M  V30 1874 C 179.948 -3.38986 2.55517 0
M  V30 1875 C 177.855 -3.3094 4.90135 0
M  V30 1876 H 176.785 -0.542925 0.52321 0
M  V30 1877 H 179.436 -0.748054 1.6756 0
M  V30 1878 H 177.818 -3.33412 2.13664 0
M  V30 1879 H 178.992 -1.52318 4.34897 0
M  V30 1880 H 177.307 -1.52473 3.8748 0
M  V30 1881 H 179.904 -4.23747 3.26102 0
M  V30 1882 H 180.247 -3.84578 1.59391 0
M  V30 1883 H 180.78 -2.74021 2.8837 0
M  V30 1884 H 177.519 -2.90355 5.87685 0
M  V30 1885 H 177.039 -3.94546 4.51767 0
M  V30 1886 H 178.718 -3.9663 5.11169 0
M  V30 1887 N 178.85 -1.27639 -0.924453 0
M  V30 1888 C 180.261 -1.12834 -1.48746 0
M  V30 1889 C 180.612 0.285505 -1.94112 0
M  V30 1890 O 179.737 1.17874 -1.81479 0
M  V30 1891 C 180.332 -2.04217 -2.70334 0
M  V30 1892 C 178.891 -1.93509 -3.22848 0
M  V30 1893 C 178.038 -1.96583 -1.95577 0
M  V30 1894 H 180.989 -1.40484 -0.738233 0
M  V30 1895 H 181.01 -1.59989 -3.4523 0
M  V30 1896 H 180.522 -3.07111 -2.37285 0
M  V30 1897 H 178.623 -0.936131 -3.60649 0
M  V30 1898 H 178.736 -2.79917 -3.88823 0
M  V30 1899 H 177.1 -1.4085 -2.12211 0
M  V30 1900 H 177.883 -3.01137 -1.64837 0
M  V30 1901 N 180.328 1.1314 -1.09713 0
M  V30 1902 C 181.276 2.20717 -0.733934 0
M  V30 1903 C 182.27 1.6729 0.266506 0
M  V30 1904 O 183.476 1.79547 0.127656 0
M  V30 1905 H 179.851 0.719292 -0.21937 0
M  V30 1906 H 181.822 2.48611 -1.6503 0
M  V30 1907 C 180.571 3.47265 -0.173849 0
M  V30 1908 H 179.894 3.88716 -0.934873 0
M  V30 1909 H 181.334 4.23979 0.0423126 0
M  V30 1910 C 179.793 3.18724 1.09164 0
M  V30 1911 O 180.323 3.37762 2.17439 0
M  V30 1912 N 178.529 2.72583 1.00732 0
M  V30 1913 H 178.076 2.57291 0.126121 0
M  V30 1914 H 178.034 2.53862 1.85476 0
M  V30 1915 N 181.806 0.884767 1.30421 0
M  V30 1916 C 183.055 0.499164 1.95426 0
M  V30 1917 C 183.368 -0.95645 1.70621 0
M  V30 1918 O 184.574 -1.44889 2.29607 0
M  V30 1919 C 183.03 0.84177 3.49917 0
M  V30 1920 C 182.638 2.31514 3.83543 0
M  V30 1921 C 184.382 0.525355 4.21237 0
M  V30 1922 C 182.289 2.59939 5.31212 0
M  V30 1923 H 181.219 0.182944 0.73147 0
M  V30 1924 H 183.87 1.07971 1.48373 0
M  V30 1925 H 182.252 0.190311 3.95542 0
M  V30 1926 H 183.426 3.0109 3.48829 0
M  V30 1927 H 181.741 2.59907 3.25326 0
M  V30 1928 H 184.338 0.714762 5.29901 0
M  V30 1929 H 184.681 -0.535222 4.12845 0
M  V30 1930 H 185.214 1.134 3.81294 0
M  V30 1931 H 181.953 3.64736 5.44654 0
M  V30 1932 H 181.473 1.94972 5.67227 0
M  V30 1933 H 183.152 2.45429 5.98643 0
M  V30 1934 N 183.284 -1.43765 0.645699 0
M  V30 1935 C 184.512 -2.06253 0.163556 0
M  V30 1936 C 184.927 -1.48352 -1.16778 0
M  V30 1937 O 184.284 -0.611932 -1.71935 0
M  V30 1938 C 184.335 -3.61453 0.0583186 0
M  V30 1939 O 184.056 -4.172 1.33702 0
M  V30 1940 C 185.557 -4.41002 -0.450795 0
M  V30 1941 H 182.777 -0.665413 0.0864077 0
M  V30 1942 H 185.321 -1.84396 0.884222 0
M  V30 1943 H 183.476 -3.82522 -0.612865 0
M  V30 1944 H 183.89 -5.10791 1.19131 0
M  V30 1945 H 185.364 -5.49966 -0.473403 0
M  V30 1946 H 185.841 -4.13488 -1.48068 0
M  V30 1947 H 186.447 -4.24886 0.187637 0
M  V30 1948 N 184.763 -0.387143 -1.52771 0
M  V30 1949 C 185.695 0.484089 -2.2403 0
M  V30 1950 C 186.708 1.02849 -1.26198 0
M  V30 1951 O 187.897 0.931186 -1.52286 0
M  V30 1952 C 184.997 1.68337 -2.94136 0
M  V30 1953 C 184.17 1.26672 -4.18656 0
M  V30 1954 C 183.229 2.33045 -4.7178 0
M  V30 1955 O 182.255 1.94541 -5.34923 0
M  V30 1956 N 183.457 3.64929 -4.5145 0
M  V30 1957 H 186.222 -0.126404 -2.99433 0
M  V30 1958 H 183.783 -0.213392 -1.60488 0
M  V30 1959 H 185.775 2.39019 -3.26577 0
M  V30 1960 H 184.345 2.20025 -2.22053 0
M  V30 1961 H 183.565 0.388878 -3.92277 0
M  V30 1962 H 184.853 0.964964 -4.99566 0
M  V30 1963 H 184.251 3.98974 -4.01044 0
M  V30 1964 H 182.808 4.31651 -4.88386 0
M  V30 1965 N 186.241 1.57166 -0.116904 0
M  V30 1966 C 187.471 1.99184 0.548586 0
M  V30 1967 C 187.879 0.995436 1.60897 0
M  V30 1968 O 187.222 -0.0201293 1.83689 0
M  V30 1969 C 187.284 3.37611 1.23526 0
M  V30 1970 C 186.948 4.55857 0.323077 0
M  V30 1971 C 187.945 5.18056 -0.437476 0
M  V30 1972 C 185.63 5.01751 0.234761 0
M  V30 1973 C 187.624 6.24536 -1.2741 0
M  V30 1974 C 185.311 6.08093 -0.605496 0
M  V30 1975 C 186.309 6.69352 -1.35856 0
M  V30 1976 O 185.997 7.7364 -2.18487 0
M  V30 1977 H 185.729 0.659148 0.149999 0
M  V30 1978 H 188.283 2.0443 -0.199428 0
M  V30 1979 H 186.513 3.29113 2.0303 0
M  V30 1980 H 188.202 3.63932 1.79745 0
M  V30 1981 H 188.968 4.83516 -0.379105 0
M  V30 1982 H 184.847 4.53817 0.810601 0
M  V30 1983 H 188.391 6.72281 -1.86237 0
M  V30 1984 H 184.288 6.42063 -0.665268 0
M  V30 1985 H 185.056 7.90727 -2.11406 0
M  V30 1986 N 187.719 -0.156864 1.56817 0
M  V30 1987 C 188.944 -0.890331 1.87318 0
M  V30 1988 C 189.369 -1.74394 0.704855 0
M  V30 1989 O 188.727 -1.77972 -0.345786 0
M  V30 1990 C 188.775 -1.73102 3.16336 0
M  V30 1991 O 187.879 -2.83422 2.99576 0
M  V30 1992 H 187.22 -0.24857 0.615718 0
M  V30 1993 H 189.75 -0.150649 2.04045 0
M  V30 1994 H 189.76 -2.12803 3.48107 0
M  V30 1995 H 188.435 -1.10412 4.00976 0
M  V30 1996 H 187.012 -2.47199 2.7919 0
M  V30 1997 N 189.197 -1.51736 -0.425897 0
M  V30 1998 C 190.608 -1.5732 -1.00536 0
M  V30 1999 C 190.959 -0.403537 -1.92005 0
M  V30 2000 O 190.084 0.478256 -2.11049 0
M  V30 2001 C 190.679 -2.85119 -1.8301 0
M  V30 2002 C 189.238 -2.93236 -2.35987 0
M  V30 2003 C 188.385 -2.52098 -1.15508 0
M  V30 2004 H 191.336 -1.57348 -0.206739 0
M  V30 2005 H 191.357 -2.69526 -2.68581 0
M  V30 2006 H 190.869 -3.7023 -1.16411 0
M  V30 2007 H 188.97 -2.12581 -3.06007 0
M  V30 2008 H 189.083 -3.9713 -2.68001 0
M  V30 2009 H 187.447 -2.05558 -1.50393 0
M  V30 2010 H 188.23 -3.39565 -0.505014 0
M  V30 2011 N 190.675 0.682077 -1.42076 0
M  V30 2012 C 191.625 1.78823 -1.41444 0
M  V30 2013 C 192.609 1.58323 -0.28681 0
M  V30 2014 O 193.801 1.68926 -0.528498 0
M  V30 2015 C 190.93 3.17232 -1.3122 0
M  V30 2016 C 190.016 3.4338 -2.489 0
M  V30 2017 N 190.407 3.40152 -3.7434 0
M  V30 2018 C 188.705 3.73986 -2.43003 0
M  V30 2019 C 189.406 3.65581 -4.52466 0
M  V30 2020 N 188.382 3.85989 -3.8277 0
M  V30 2021 H 192.184 1.7471 -2.36334 0
M  V30 2022 H 189.698 0.882622 -1.36321 0
M  V30 2023 H 191.695 3.96489 -1.2885 0
M  V30 2024 H 190.355 3.22547 -0.373263 0
M  V30 2025 H 191.366 3.20221 -4.07037 0
M  V30 2026 H 188.043 3.86591 -1.57651 0
M  V30 2027 H 189.433 3.69108 -5.61435 0
M  V30 2028 N 192.153 1.28127 0.917671 0
M  V30 2029 C 193.393 1.163 1.68088 0
M  V30 2030 C 193.757 -0.284515 1.8988 0
M  V30 2031 O 194.958 -0.525413 2.63615 0
M  V30 2032 C 193.229 1.93546 3.00457 0
M  V30 2033 S 194.788 1.98048 3.91564 0
M  V30 2034 H 191.606 0.415005 0.577315 0
M  V30 2035 H 194.208 1.62173 1.09179 0
M  V30 2036 H 192.912 2.97888 2.82295 0
M  V30 2037 H 192.443 1.48207 3.64415 0
M  V30 2038 H 194.458 1.08415 4.84211 0
M  V30 2039 N 193.631 -1.12557 1.10312 0
M  V30 2040 C 194.578 -2.18247 0.750781 0
M  V30 2041 C 195.548 -1.63853 -0.272293 0
M  V30 2042 O 196.733 -1.90195 -0.151862 0
M  V30 2043 C 193.873 -3.44591 0.187379 0
M  V30 2044 C 192.986 -4.13046 1.2656 0
M  V30 2045 C 192.121 -5.27034 0.663978 0
M  V30 2046 C 191.16 -5.87353 1.72287 0
M  V30 2047 N 190.297 -6.92757 1.1416 0
M  V30 2048 H 195.137 -2.47732 1.65628 0
M  V30 2049 H 192.674 -1.21629 0.827337 0
M  V30 2050 H 194.632 -4.16904 -0.157148 0
M  V30 2051 H 193.262 -3.15527 -0.681355 0
M  V30 2052 H 192.314 -3.38924 1.72727 0
M  V30 2053 H 193.626 -4.53947 2.06721 0
M  V30 2054 H 192.78 -6.06104 0.268824 0
M  V30 2055 H 191.519 -4.87407 -0.169082 0
M  V30 2056 H 190.524 -5.06971 2.12746 0
M  V30 2057 H 191.749 -6.29051 2.55875 0
M  V30 2058 H 189.695 -6.5517 0.329984 0
M  V30 2059 H 189.612 -7.3225 1.88007 0
M  V30 2060 H 190.88 -7.75658 0.772956 0
M  V30 2061 N 195.109 -0.891671 -1.2995 0
M  V30 2062 C 196.039 -0.379797 -2.30391 0
M  V30 2063 C 197.02 0.540919 -1.6127 0
M  V30 2064 O 198.205 0.453352 -1.88834 0
M  V30 2065 C 195.335 0.400654 -3.44981 0
M  V30 2066 C 194.289 -0.428905 -4.25846 0
M  V30 2067 C 193.615 0.478557 -5.32554 0
M  V30 2068 C 194.915 -1.67458 -4.94727 0
M  V30 2069 H 196.609 -1.21914 -2.73454 0
M  V30 2070 H 194.155 -0.587675 -1.31462 0
M  V30 2071 H 196.108 0.769434 -4.14316 0
M  V30 2072 H 194.832 1.27371 -3.0074 0
M  V30 2073 H 193.491 -0.779911 -3.58208 0
M  V30 2074 H 193.139 1.34951 -4.84559 0
M  V30 2075 H 192.839 -0.0727433 -5.87555 0
M  V30 2076 H 194.363 0.843705 -6.04743 0
M  V30 2077 H 195.777 -1.376 -5.56542 0
M  V30 2078 H 194.174 -2.16659 -5.59624 0
M  V30 2079 H 195.244 -2.41518 -4.20473 0
M  V30 2080 N 196.587 1.43421 -0.653314 0
M  V30 2081 C 197.517 2.33487 0.0246656 0
M  V30 2082 C 198.498 1.49475 0.811863 0
M  V30 2083 O 199.683 1.78139 0.773322 0
M  V30 2084 C 196.813 3.32841 0.99166 0
M  V30 2085 C 195.767 4.26842 0.314568 0
M  V30 2086 C 195.093 5.16236 1.39302 0
M  V30 2087 C 196.393 5.16243 -0.793095 0
M  V30 2088 H 198.087 2.90427 -0.727481 0
M  V30 2089 H 195.633 1.39649 -0.351287 0
M  V30 2090 H 197.586 3.94747 1.47487 0
M  V30 2091 H 196.31 2.74158 1.77497 0
M  V30 2092 H 194.969 3.663 -0.148199 0
M  V30 2093 H 194.617 4.53891 2.16776 0
M  V30 2094 H 194.317 5.79948 0.945223 0
M  V30 2095 H 195.841 5.81015 1.87759 0
M  V30 2096 H 197.255 5.71958 -0.392039 0
M  V30 2097 H 195.652 5.88676 -1.16536 0
M  V30 2098 H 196.722 4.55927 -1.65103 0
M  V30 2099 N 198.065 0.39524 1.52563 0
M  V30 2100 C 199.314 -0.186321 2.00838 0
M  V30 2101 C 199.627 -1.47402 1.28577 0
M  V30 2102 O 200.833 -2.13599 1.67593 0
M  V30 2103 C 199.289 -0.382595 3.57861 0
M  V30 2104 C 198.897 0.892202 4.39026 0
M  V30 2105 C 200.641 -0.9202 4.14406 0
M  V30 2106 C 198.548 0.66388 5.87662 0
M  V30 2107 H 197.478 -0.0734041 0.750418 0
M  V30 2108 H 200.129 0.518552 1.76021 0
M  V30 2109 H 198.511 -1.14946 3.7895 0
M  V30 2110 H 199.685 1.66414 4.29701 0
M  V30 2111 H 198 1.35519 3.9373 0
M  V30 2112 H 200.597 -1.10683 5.23119 0
M  V30 2113 H 200.94 -1.89096 3.70875 0
M  V30 2114 H 201.473 -0.212751 3.97231 0
M  V30 2115 H 198.212 1.6058 6.35527 0
M  V30 2116 H 197.732 -0.0690193 5.9976 0
M  V30 2117 H 199.411 0.300699 6.46301 0
M  V30 2118 N 199.544 -1.57102 0.125237 0
M  V30 2119 C 200.79 -1.95697 -0.532035 0
M  V30 2120 C 201.123 -1.009 -1.6593 0
M  V30 2121 O 200.398 -0.047347 -1.94442 0
M  V30 2122 C 200.681 -3.44181 -1.05884 0
M  V30 2123 C 200.534 -4.49752 0.0654392 0
M  V30 2124 C 201.853 -3.94655 -1.9477 0
M  V30 2125 H 198.972 -0.711571 -0.191925 0
M  V30 2126 H 201.614 -1.88923 0.20206 0
M  V30 2127 H 199.764 -3.50085 -1.68442 0
M  V30 2128 H 201.436 -4.55943 0.700982 0
M  V30 2129 H 199.679 -4.27653 0.727709 0
M  V30 2130 H 200.35 -5.50924 -0.344505 0
M  V30 2131 H 202.826 -3.91094 -1.42074 0
M  V30 2132 H 201.702 -4.99057 -2.28546 0
M  V30 2133 H 201.963 -3.35718 -2.87656 0
M  V30 2134 N 201.022 0.148545 -1.56898 0
M  V30 2135 C 202.25 0.876389 -1.87422 0
M  V30 2136 C 202.665 1.74809 -0.713256 0
M  V30 2137 O 202.022 1.79725 0.317025 0
M  V30 2138 C 202.073 1.73438 -3.17178 0
M  V30 2139 O 201.794 0.897809 -4.28802 0
M  V30 2140 C 203.295 2.56993 -3.61205 0
M  V30 2141 H 200.515 0.253489 -0.621277 0
M  V30 2142 H 203.059 0.141798 -2.04008 0
M  V30 2143 H 201.214 2.42205 -3.0235 0
M  V30 2144 H 201.628 1.48672 -5.02988 0
M  V30 2145 H 203.102 3.12773 -4.54838 0
M  V30 2146 H 203.579 3.32958 -2.86419 0
M  V30 2147 H 204.185 1.9352 -3.78722 0
M  V30 2148 N 202.5 1.5196 0.417844 0
M  V30 2149 C 203.448 1.75278 1.52907 0
M  V30 2150 C 204.442 0.619611 1.57662 0
M  V30 2151 O 205.648 0.801457 1.61173 0
M  V30 2152 H 202.023 0.554141 0.508362 0
M  V30 2153 H 203.994 2.68389 1.30422 0
M  V30 2154 C 202.743 1.91262 2.90369 0
M  V30 2155 H 202.066 2.77872 2.8745 0
M  V30 2156 H 203.506 2.11581 3.67436 0
M  V30 2157 C 201.965 0.677431 3.30019 0
M  V30 2158 O 202.495 -0.158799 4.01386 0
M  V30 2159 N 200.701 0.515851 2.85985 0
M  V30 2160 H 200.248 1.19744 2.28077 0
M  V30 2161 H 200.206 -0.309315 3.12875 0
M  V30 2162 N 203.978 -0.674533 1.42435 0
M  V30 2163 C 205.389 -1.25514 1.38214 0
M  V30 2164 C 205.74 -1.96055 0.0755464 0
M  V30 2165 O 204.865 -2.00028 -0.8257 0
M  V30 2166 C 205.46 -2.28269 2.50357 0
M  V30 2167 C 204.019 -2.81856 2.49467 0
M  V30 2168 C 203.166 -1.56182 2.29134 0
M  V30 2169 H 206.117 -0.467902 1.51646 0
M  V30 2170 H 206.138 -3.10009 2.20624 0
M  V30 2171 H 205.65 -1.769 3.45439 0
M  V30 2172 H 203.751 -3.37346 1.58204 0
M  V30 2173 H 203.864 -3.30854 3.46515 0
M  V30 2174 H 202.228 -1.82761 1.774 0
M  V30 2175 H 203.011 -1.06778 3.26272 0
M  V30 2176 N 205.456 -1.28612 -0.910864 0
M  V30 2177 C 206.702 -1.16106 -1.66274 0
M  V30 2178 C 207.035 0.289113 -1.92036 0
M  V30 2179 O 206.31 1.21 -1.52281 0
M  V30 2180 C 206.593 -1.96309 -3.01885 0
M  V30 2181 C 206.446 -3.49405 -2.8326 0
M  V30 2182 C 207.765 -1.78076 -4.02463 0
M  V30 2183 H 204.884 -0.423152 -0.603417 0
M  V30 2184 H 207.526 -1.57961 -1.05586 0
M  V30 2185 H 205.676 -1.60742 -3.53687 0
M  V30 2186 H 207.348 -3.94894 -2.38446 0
M  V30 2187 H 205.591 -3.74893 -2.18261 0
M  V30 2188 H 206.262 -4.00784 -3.79574 0
M  V30 2189 H 208.738 -2.0912 -3.59733 0
M  V30 2190 H 207.614 -2.36561 -4.95308 0
M  V30 2191 H 207.875 -0.733008 -4.35981 0
M  V30 2192 N 206.934 1.1197 -1.10907 0
M  V30 2193 C 208.211 1.79959 -0.766432 0
M  V30 2194 C 208.591 1.97466 0.746363 0
M  V30 2195 O 207.939 1.55491 1.67436 0
M  V30 2196 C 208.149 3.14009 -1.52314 0
M  V30 2197 C 209.497 3.89134 -1.69883 0
M  V30 2198 O 210.521 3.2368 -1.48692 0
M  V30 2199 O 209.38 5.06572 -2.05054 0
M  V30 2200 H 206.474 0.779208 -0.277062 0
M  V30 2201 H 209.02 1.18762 -1.21217 0
M  V30 2202 H 207.792 2.96587 -2.55249 0
M  V30 2203 H 207.415 3.82915 -1.07059 0
M  V30 2204 N 208.412 0.89855 1.29475 0
M  V30 2205 C 209.661 0.519863 1.94885 0
M  V30 2206 C 209.974 -0.9383 1.71625 0
M  V30 2207 O 211.18 -1.42445 2.31131 0
M  V30 2208 C 209.636 0.878836 3.49005 0
M  V30 2209 C 209.244 2.35569 3.81066 0
M  V30 2210 C 210.988 0.570004 4.20656 0
M  V30 2211 C 208.895 2.65558 5.28425 0
M  V30 2212 H 207.825 0.190692 0.729488 0
M  V30 2213 H 210.476 1.09539 1.47219 0
M  V30 2214 H 208.858 0.232253 3.95318 0
M  V30 2215 H 210.032 3.04773 3.45616 0
M  V30 2216 H 208.347 2.63343 3.22552 0
M  V30 2217 H 210.944 0.770925 5.29113 0
M  V30 2218 H 211.287 -0.491404 4.1339 0
M  V30 2219 H 211.82 1.17438 3.8007 0
M  V30 2220 H 208.559 3.70493 5.40754 0
M  V30 2221 H 208.079 2.00977 5.65127 0
M  V30 2222 H 209.758 2.51765 5.96006 0
M  V30 2223 N 209.89 -1.43072 0.660911 0
M  V30 2224 C 210.82 -2.33497 -0.0122829 0
M  V30 2225 C 211.801 -1.49903 -0.803925 0
M  V30 2226 O 212.986 -1.78546 -0.763864 0
M  V30 2227 C 210.116 -3.33363 -0.973994 0
M  V30 2228 C 209.07 -4.27003 -0.291928 0
M  V30 2229 C 208.396 -5.16967 -1.36562 0
M  V30 2230 C 209.696 -5.15816 0.820462 0
M  V30 2231 H 211.39 -2.90038 0.742873 0
M  V30 2232 H 208.936 -1.39461 0.358688 0
M  V30 2233 H 210.889 -3.95524 -1.45392 0
M  V30 2234 H 209.613 -2.75095 -1.7604 0
M  V30 2235 H 208.272 -3.66217 0.167623 0
M  V30 2236 H 207.92 -4.55034 -2.14366 0
M  V30 2237 H 207.62 -5.80441 -0.914454 0
M  V30 2238 H 209.144 -5.82003 -1.84675 0
M  V30 2239 H 210.558 -5.71742 0.422366 0
M  V30 2240 H 208.955 -5.8805 1.19656 0
M  V30 2241 H 210.025 -4.55045 1.67518 0
M  V30 2242 N 211.368 -0.403325 -1.52352 0
M  V30 2243 C 212.596 0.174012 -2.06167 0
M  V30 2244 C 213.011 1.39347 -1.27388 0
M  V30 2245 O 212.368 1.79597 -0.324201 0
M  V30 2246 C 212.419 0.530223 -3.5759 0
M  V30 2247 O 212.14 -0.640806 -4.33388 0
M  V30 2248 C 213.641 1.16192 -4.27802 0
M  V30 2249 H 210.861 0.0229464 -0.670608 0
M  V30 2250 H 213.405 -0.572604 -1.9632 0
M  V30 2251 H 211.56 1.22673 -3.67464 0
M  V30 2252 H 211.974 -0.344851 -5.23365 0
M  V30 2253 H 213.448 1.36141 -5.34948 0
M  V30 2254 H 213.925 2.13335 -3.83907 0
M  V30 2255 H 214.531 0.505775 -4.22282 0
M  V30 2256 N 212.846 1.57033 -0.133567 0
M  V30 2257 C 214.076 1.99754 0.527429 0
M  V30 2258 C 214.484 1.01245 1.59832 0
M  V30 2259 O 213.827 -0.000645496 1.837 0
M  V30 2260 C 213.889 3.38903 1.19939 0
M  V30 2261 C 213.553 4.56174 0.274709 0
M  V30 2262 C 214.55 5.17563 -0.492398 0
M  V30 2263 C 212.235 5.01972 0.18153 0
M  V30 2264 C 214.229 6.2315 -1.34027 0
M  V30 2265 C 211.916 6.07416 -0.669958 0
M  V30 2266 C 212.914 6.67874 -1.42947 0
M  V30 2267 O 212.602 7.71279 -2.2668 0
M  V30 2268 H 212.334 0.660702 0.142999 0
M  V30 2269 H 214.888 2.04207 -0.221099 0
M  V30 2270 H 213.118 3.31248 1.99528 0
M  V30 2271 H 214.807 3.65818 1.75875 0
M  V30 2272 H 215.573 4.83087 -0.430367 0
M  V30 2273 H 211.452 4.54652 0.762422 0
M  V30 2274 H 214.996 6.70268 -1.93357 0
M  V30 2275 H 210.893 6.41321 -0.73333 0
M  V30 2276 H 211.661 7.88441 -2.1978 0
M  V30 2277 N 214.325 -0.140222 1.56975 0
M  V30 2278 C 215.571 -0.852949 1.83991 0
M  V30 2279 C 215.904 -1.80512 0.716187 0
M  V30 2280 O 215.179 -1.92479 -0.279681 0
M  V30 2281 C 215.462 -1.6215 3.21527 0
M  V30 2282 C 215.315 -0.690363 4.4447 0
M  V30 2283 C 216.634 -2.58247 3.56366 0
M  V30 2284 H 213.753 -0.308634 0.669264 0
M  V30 2285 H 216.395 -0.117898 1.89634 0
M  V30 2286 H 214.545 -2.24812 3.16847 0
M  V30 2287 H 216.217 -0.0742264 4.6124 0
M  V30 2288 H 214.46 -0.000396433 4.338 0
M  V30 2289 H 215.131 -1.2643 5.37326 0
M  V30 2290 H 217.607 -2.05701 3.61699 0
M  V30 2291 H 216.483 -3.09067 4.53617 0
M  V30 2292 H 216.744 -3.39923 2.82674 0
M  V30 2293 N 215.803 -1.52179 -0.40978 0
M  V30 2294 C 216.766 -1.74853 -1.48186 0
M  V30 2295 C 217.766 -0.618417 -1.48433 0
M  V30 2296 O 218.956 -0.886286 -1.49969 0
M  V30 2297 C 216.088 -1.8303 -2.87598 0
M  V30 2298 H 217.281 -2.70559 -1.29374 0
M  V30 2299 H 214.834 -1.42586 -0.640233 0
M  V30 2300 H 215.569 -0.89236 -3.11781 0
M  V30 2301 H 215.354 -2.65187 -2.88822 0
M  V30 2302 H 216.844 -2.02316 -3.65319 0
M  V30 2303 N 217.281 0.66697 -1.42791 0
M  V30 2304 C 218.527 1.42754 -1.44889 0
M  V30 2305 C 218.882 1.92283 -0.0669755 0
M  V30 2306 O 218.175 1.68494 0.912154 0
M  V30 2307 C 218.369 2.6349 -2.4147 0
M  V30 2308 C 218.198 2.25776 -3.88915 0
M  V30 2309 C 216.968 2.1476 -4.57391 0
M  V30 2310 C 219.166 1.86927 -4.79127 0
M  V30 2311 N 217.148 1.70232 -5.89826 0
M  V30 2312 C 218.519 1.53378 -6.00729 0
M  V30 2313 C 220.574 1.73989 -4.66511 0
M  V30 2314 C 219.277 1.08187 -7.11117 0
M  V30 2315 C 221.303 1.30203 -5.76889 0
M  V30 2316 C 220.665 0.975818 -6.97608 0
M  V30 2317 H 216.764 0.518559 -0.585338 0
M  V30 2318 H 219.348 0.768906 -1.78874 0
M  V30 2319 H 217.519 3.27033 -2.09533 0
M  V30 2320 H 219.251 3.30123 -2.34096 0
M  V30 2321 H 216.006 2.3408 -4.11708 0
M  V30 2322 H 216.43 1.50369 -6.6009 0
M  V30 2323 H 221.072 1.97853 -3.7365 0
M  V30 2324 H 218.79 0.830701 -8.03819 0
M  V30 2325 H 222.376 1.20701 -5.69142 0
M  V30 2326 H 221.256 0.642157 -7.81566 0
M  V30 2327 N 218.759 1.29093 0.90403 0
M  V30 2328 C 219.706 1.13853 2.00764 0
M  V30 2329 C 220.676 0.0330084 1.66067 0
M  V30 2330 O 221.861 0.199733 1.89752 0
M  V30 2331 C 219.001 0.816537 3.35301 0
M  V30 2332 C 218.114 2.00206 3.82807 0
M  V30 2333 C 217.249 1.61983 5.059 0
M  V30 2334 C 216.288 2.77143 5.45764 0
M  V30 2335 N 215.425 2.39346 6.60044 0
M  V30 2336 H 220.265 2.08276 2.13132 0
M  V30 2337 H 217.802 1.03648 1.04381 0
M  V30 2338 H 219.76 0.610557 4.12708 0
M  V30 2339 H 218.39 -0.090779 3.22672 0
M  V30 2340 H 217.442 2.31988 3.01473 0
M  V30 2341 H 218.754 2.86512 4.08304 0
M  V30 2342 H 217.908 1.37649 5.90879 0
M  V30 2343 H 216.647 0.728202 4.82233 0
M  V30 2344 H 215.652 3.02165 4.59322 0
M  V30 2345 H 216.877 3.66964 5.71414 0
M  V30 2346 H 214.823 1.52665 6.37989 0
M  V30 2347 H 214.74 3.19185 6.85315 0
M  V30 2348 H 216.008 2.1832 7.48303 0
M  V30 2349 N 220.237 -1.11381 1.11499 0
M  V30 2350 C 221.167 -2.19509 0.796125 0
M  V30 2351 C 222.148 -1.68458 -0.235796 0
M  V30 2352 O 223.333 -1.93947 -0.0991344 0
M  V30 2353 C 220.463 -3.46475 0.239205 0
M  V30 2354 C 219.417 -4.10744 1.20307 0
M  V30 2355 C 218.743 -5.32293 0.50683 0
M  V30 2356 C 220.043 -4.55597 2.55399 0
M  V30 2357 H 221.737 -2.46439 1.70024 0
M  V30 2358 H 219.283 -1.18446 0.818935 0
M  V30 2359 H 221.236 -4.214 0.00392006 0
M  V30 2360 H 219.96 -3.19006 -0.700206 0
M  V30 2361 H 218.619 -3.37813 1.42399 0
M  V30 2362 H 218.267 -5.01095 -0.437408 0
M  V30 2363 H 217.967 -5.76243 1.1497 0
M  V30 2364 H 219.491 -6.09956 0.280351 0
M  V30 2365 H 220.905 -5.21841 2.37391 0
M  V30 2366 H 219.302 -5.10363 3.15673 0
M  V30 2367 H 220.372 -3.69013 3.14575 0
M  V30 2368 N 221.715 -0.905404 -1.28997 0
M  V30 2369 C 222.94 -0.549175 -1.99997 0
M  V30 2370 C 223.365 0.860276 -1.67275 0
M  V30 2371 O 222.723 1.57355 -0.900502 0
M  V30 2372 C 222.771 -0.755185 -3.52604 0
M  V30 2373 O 221.875 0.189692 -4.11964 0
M  V30 2374 H 221.216 -0.213899 -0.628604 0
M  V30 2375 H 223.746 -1.21856 -1.64354 0
M  V30 2376 H 223.756 -0.662045 -4.02593 0
M  V30 2377 H 222.431 -1.78271 -3.75755 0
M  V30 2378 H 221.008 0.0485257 -3.72868 0
M  V30 2379 N 223.193 1.4272 -0.668489 0
M  V30 2380 C 224.441 2.01226 -0.187769 0
M  V30 2381 C 224.762 1.53092 1.2078 0
M  V30 2382 O 224.032 0.74993 1.80977 0
M  V30 2383 H 222.612 0.744041 -0.0664272 0
M  V30 2384 H 225.274 1.74723 -0.863583 0
M  V30 2385 H 224.37 3.11556 -0.184166 0
M  V30 2386 N 224.671 0.411399 1.52136 0
M  V30 2387 C 225.918 -0.163645 2.01838 0
M  V30 2388 C 226.246 -1.4495 1.29691 0
M  V30 2389 O 225.501 -1.91725 0.392431 0
M  V30 2390 C 225.8 -0.455872 3.54481 0
M  V30 2391 C 225.466 0.741055 4.44769 0
M  V30 2392 C 224.128 1.06936 4.69167 0
M  V30 2393 C 226.48 1.54075 4.97906 0
M  V30 2394 C 223.808 2.19851 5.43951 0
M  V30 2395 C 226.16 2.66067 5.73926 0
M  V30 2396 C 224.824 2.99381 5.96596 0
M  V30 2397 H 224.094 -0.0598821 0.738576 0
M  V30 2398 H 226.741 0.553283 1.83333 0
M  V30 2399 H 225.046 -1.2544 3.71177 0
M  V30 2400 H 226.743 -0.913802 3.90449 0
M  V30 2401 H 223.333 0.475192 4.25958 0
M  V30 2402 H 227.517 1.30033 4.78963 0
M  V30 2403 H 222.773 2.46006 5.59724 0
M  V30 2404 H 226.947 3.28419 6.14096 0
M  V30 2405 H 224.574 3.86992 6.54325 0
M  V30 2406 N 226.149 -1.5696 0.141893 0
M  V30 2407 C 227.56 -1.82797 -0.379776 0
M  V30 2408 C 227.911 -1.06033 -1.6508 0
M  V30 2409 O 227.036 -0.304011 -2.14254 0
M  V30 2410 C 227.631 -3.31578 -0.695802 0
M  V30 2411 C 226.19 -3.58014 -1.16201 0
M  V30 2412 C 225.337 -2.76699 -0.182455 0
M  V30 2413 H 228.288 -1.54406 0.366675 0
M  V30 2414 H 228.309 -3.47454 -1.55099 0
M  V30 2415 H 227.821 -3.87421 0.229449 0
M  V30 2416 H 225.922 -3.07553 -2.10338 0
M  V30 2417 H 226.035 -4.66501 -1.09151 0
M  V30 2418 H 224.399 -2.45618 -0.674072 0
M  V30 2419 H 225.182 -3.35311 0.736297 0
M  V30 2420 N 227.627 0.131896 -1.57047 0
M  V30 2421 C 228.574 1.16236 -1.99393 0
M  V30 2422 C 229.544 1.41863 -0.863943 0
M  V30 2423 O 230.729 1.53946 -1.12718 0
M  V30 2424 C 227.869 2.48708 -2.39245 0
M  V30 2425 C 226.982 2.30127 -3.65603 0
M  V30 2426 C 226.117 3.55738 -3.94492 0
M  V30 2427 C 225.156 3.32259 -5.14073 0
M  V30 2428 N 224.293 4.50039 -5.38896 0
M  V30 2429 H 229.133 0.794251 -2.87221 0
M  V30 2430 H 226.67 0.380707 -1.42088 0
M  V30 2431 H 228.628 3.25969 -2.60384 0
M  V30 2432 H 227.258 2.83437 -1.54478 0
M  V30 2433 H 226.31 1.43845 -3.52154 0
M  V30 2434 H 227.622 2.08746 -4.5302 0
M  V30 2435 H 226.776 4.41423 -4.1621 0
M  V30 2436 H 225.515 3.80138 -3.05526 0
M  V30 2437 H 224.52 2.44963 -4.92212 0
M  V30 2438 H 225.745 3.09242 -6.04604 0
M  V30 2439 H 223.691 4.74584 -4.52886 0
M  V30 2440 H 223.608 4.31716 -6.2061 0
M  V30 2441 H 224.876 5.36895 -5.65123 0
M  V30 2442 N 229.106 1.52395 0.401703 0
M  V30 2443 C 230.054 1.7689 1.51039 0
M  V30 2444 C 231.048 0.636298 1.56996 0
M  V30 2445 O 232.254 0.818507 1.60314 0
M  V30 2446 H 228.629 0.559502 0.502456 0
M  V30 2447 H 230.6 2.69757 1.27568 0
M  V30 2448 C 229.349 1.94331 2.88324 0
M  V30 2449 H 228.672 2.80905 2.84486 0
M  V30 2450 H 230.112 2.15466 3.65172 0
M  V30 2451 C 228.571 0.712396 3.29282 0
M  V30 2452 O 229.101 -0.116218 4.01532 0
M  V30 2453 N 227.307 0.546154 2.85422 0
M  V30 2454 H 226.854 1.22156 2.26794 0
M  V30 2455 H 226.812 -0.276113 3.13185 0
M  V30 2456 N 230.584 -0.659388 1.43143 0
M  V30 2457 C 232 -0.974337 1.26407 0
M  V30 2458 C 232.2 -2.007 0.179341 0
M  V30 2459 O 231.256 -2.4856 -0.444295 0
M  V30 2460 C 232.569 -1.46447 2.62628 0
M  V30 2461 C 234.117 -1.58144 2.7011 0
M  V30 2462 C 234.592 -2.1055 4.06734 0
M  V30 2463 N 236.083 -2.17861 4.08767 0
M  V30 2464 C 236.818 -2.59519 5.1131 0
M  V30 2465 N 236.314 -3.00518 6.24228 0
M  V30 2466 N 238.107 -2.59404 4.98664 0
M  V30 2467 H 230.258 0.0240528 2.12386 0
M  V30 2468 H 232.521 -0.0518065 0.946583 0
M  V30 2469 H 232.227 -0.780123 3.42939 0
M  V30 2470 H 232.101 -2.44058 2.87603 0
M  V30 2471 H 234.488 -2.25682 1.90136 0
M  V30 2472 H 234.569 -0.589828 2.48907 0
M  V30 2473 H 234.213 -1.43616 4.87172 0
M  V30 2474 H 234.143 -3.10531 4.25298 0
M  V30 2475 H 236.634 -1.88975 3.27257 0
M  V30 2476 H 236.947 -3.31036 6.98309 0
M  V30 2477 H 235.292 -2.98337 6.2771 0
M  V30 2478 H 238.483 -2.26747 4.09516 0
M  V30 2479 H 238.656 -2.91548 5.78709 0
M  V30 2480 N 232.062 -1.29571 -0.897171 0
M  V30 2481 C 233.308 -1.17863 -1.65034 0
M  V30 2482 C 233.641 0.268729 -1.92332 0
M  V30 2483 O 232.916 1.19378 -1.53555 0
M  V30 2484 C 233.199 -1.995 -2.99786 0
M  V30 2485 C 233.052 -3.5239 -2.79538 0
M  V30 2486 C 234.371 -1.82335 -4.00552 0
M  V30 2487 H 231.49 -0.429528 -0.598895 0
M  V30 2488 H 234.132 -1.59072 -1.03905 0
M  V30 2489 H 232.282 -1.64485 -3.51962 0
M  V30 2490 H 233.954 -3.97401 -2.34244 0
M  V30 2491 H 232.197 -3.77187 -2.14273 0
M  V30 2492 H 232.868 -4.04787 -3.75302 0
M  V30 2493 H 235.344 -2.12924 -3.57495 0
M  V30 2494 H 234.22 -2.41801 -4.92771 0
M  V30 2495 H 234.481 -0.779209 -4.35179 0
M  V30 2496 N 233.54 1.10788 -1.12088 0
M  V30 2497 C 234.789 1.82036 -0.868659 0
M  V30 2498 C 235.102 1.85929 0.607426 0
M  V30 2499 O 236.308 2.53346 0.97613 0
M  V30 2500 C 234.764 3.26951 -1.50435 0
M  V30 2501 C 234.372 3.31367 -3.01496 0
M  V30 2502 C 236.116 4.03053 -1.33225 0
M  V30 2503 C 234.023 4.7072 -3.58017 0
M  V30 2504 H 232.953 0.682108 -0.321318 0
M  V30 2505 H 235.604 1.24618 -1.34694 0
M  V30 2506 H 233.986 3.84343 -0.953735 0
M  V30 2507 H 235.16 2.83819 -3.6302 0
M  V30 2508 H 233.475 2.6875 -3.18061 0
M  V30 2509 H 236.072 5.05981 -1.72878 0
M  V30 2510 H 236.415 4.15387 -0.275529 0
M  V30 2511 H 236.948 3.52066 -1.85188 0
M  V30 2512 H 233.687 4.63585 -4.63432 0
M  V30 2513 H 233.207 5.1865 -3.01268 0
M  V30 2514 H 234.886 5.39685 -3.56859 0
M  V30 2515 N 235.018 0.912232 1.28515 0
M  V30 2516 C 236.266 0.543523 1.94654 0
M  V30 2517 C 236.587 -0.9155 1.72173 0
M  V30 2518 O 235.857 -1.64708 1.06058 0
M  V30 2519 H 234.437 0.198017 0.720277 0
M  V30 2520 H 237.099 1.16126 1.56527 0
M  V30 2521 H 236.195 0.736684 3.03281 0
M  V30 2522 N 236.496 -1.42363 0.676048 0
M  V30 2523 C 237.721 -2.06377 0.205705 0
M  V30 2524 C 238.146 -1.50463 -1.12883 0
M  V30 2525 O 237.504 -0.623619 -1.70237 0
M  V30 2526 C 237.552 -3.60277 0.152655 0
M  V30 2527 O 236.656 -4.02935 -0.87845 0
M  V30 2528 H 235.997 -0.655588 0.105359 0
M  V30 2529 H 238.527 -1.82475 0.925412 0
M  V30 2530 H 238.537 -4.07993 -0.0230675 0
M  V30 2531 H 237.212 -4.00346 1.12675 0
M  V30 2532 H 235.789 -3.66764 -0.673668 0
M  V30 2533 N 237.974 -0.419461 -1.51915 0
M  V30 2534 C 239.222 0.152637 -2.01523 0
M  V30 2535 C 239.543 1.44762 -1.30649 0
M  V30 2536 O 238.813 1.90997 -0.435535 0
M  V30 2537 H 237.393 0.0593966 -0.744635 0
M  V30 2538 H 240.055 -0.558073 -1.86739 0
M  V30 2539 H 239.151 0.341369 -3.10227 0
M  V30 2540 N 239.452 1.56882 -0.150215 0
M  V30 2541 C 240.692 1.98119 0.502804 0
M  V30 2542 C 241.056 1.03327 1.61826 0
M  V30 2543 O 242.257 1.33621 2.33236 0
M  V30 2544 C 240.528 3.43329 0.992988 0
M  V30 2545 S 242.087 4.0659 1.65015 0
M  V30 2546 H 238.905 0.692189 0.162467 0
M  V30 2547 H 241.507 1.93988 -0.242689 0
M  V30 2548 H 240.211 4.10046 0.170436 0
M  V30 2549 H 239.742 3.5118 1.77303 0
M  V30 2550 H 241.757 3.99906 2.93752 0
M  V30 2551 N 240.93 -0.123565 1.57115 0
M  V30 2552 C 241.878 -1.17082 2.00984 0
M  V30 2553 C 242.872 -1.43136 0.906009 0
M  V30 2554 O 244.078 -1.43152 1.09121 0
M  V30 2555 H 240.453 -0.394653 0.64012 0
M  V30 2556 H 242.424 -0.774292 2.88179 0
M  V30 2557 C 241.173 -2.49057 2.42623 0
M  V30 2558 H 240.496 -2.29846 3.27125 0
M  V30 2559 H 241.936 -3.20906 2.7712 0
M  V30 2560 C 240.395 -3.11305 1.28805 0
M  V30 2561 O 240.925 -3.97171 0.60153 0
M  V30 2562 N 239.131 -2.71111 1.04628 0
M  V30 2563 H 238.678 -2.01382 1.60634 0
M  V30 2564 H 238.636 -3.1309 0.286685 0
M  V30 2565 N 242.408 -1.52605 -0.393616 0
M  V30 2566 C 243.338 -1.80022 -1.48709 0
M  V30 2567 C 244.319 -0.651995 -1.57108 0
M  V30 2568 O 245.504 -0.89913 -1.72132 0
M  V30 2569 C 242.634 -1.96492 -2.86371 0
M  V30 2570 C 241.588 -3.12161 -2.92813 0
M  V30 2571 C 240.914 -3.13877 -4.3288 0
M  V30 2572 C 242.214 -4.51322 -2.6288 0
M  V30 2573 H 243.908 -2.71589 -1.26015 0
M  V30 2574 H 241.454 -1.30684 -0.604778 0
M  V30 2575 H 243.407 -2.14255 -3.62867 0
M  V30 2576 H 242.131 -1.01611 -3.10391 0
M  V30 2577 H 240.79 -2.94173 -2.18764 0
M  V30 2578 H 240.438 -2.16687 -4.53933 0
M  V30 2579 H 240.138 -3.91576 -4.38112 0
M  V30 2580 H 241.662 -3.33789 -5.1129 0
M  V30 2581 H 243.076 -4.69435 -3.29096 0
M  V30 2582 H 241.473 -5.31053 -2.79468 0
M  V30 2583 H 242.543 -4.58353 -1.58242 0
M  V30 2584 N 243.887 0.651787 -1.4349 0
M  V30 2585 C 245.164 1.40909 -1.35661 0
M  V30 2586 C 245.544 2.11099 -0.00511733 0
M  V30 2587 O 244.892 2.04892 1.0115 0
M  V30 2588 C 245.102 2.3926 -2.54078 0
M  V30 2589 C 246.45 3.03217 -2.97228 0
M  V30 2590 O 247.474 2.49588 -2.54135 0
M  V30 2591 O 246.333 4.00455 -3.71885 0
M  V30 2592 H 243.427 0.629625 -0.536191 0
M  V30 2593 H 245.973 0.678575 -1.55542 0
M  V30 2594 H 244.745 1.86352 -3.44076 0
M  V30 2595 H 244.368 3.1976 -2.36303 0
M  V30 2596 N 245.365 1.30045 0.890287 0
M  V30 2597 C 246.59 1.21598 1.68014 0
M  V30 2598 C 247.015 -0.218678 1.86825 0
M  V30 2599 O 246.373 -1.15756 1.39536 0
M  V30 2600 C 246.421 1.94434 3.03691 0
M  V30 2601 O 245.525 1.2678 3.92429 0
M  V30 2602 H 244.866 0.420856 0.513592 0
M  V30 2603 H 247.396 1.71775 1.11151 0
M  V30 2604 H 247.406 2.03251 3.5377 0
M  V30 2605 H 246.081 2.98777 2.89318 0
M  V30 2606 H 244.658 1.26282 3.50866 0
M  V30 2607 N 246.843 -1.10192 1.12674 0
M  V30 2608 C 247.806 -2.14786 0.799979 0
M  V30 2609 C 248.806 -1.59711 -0.18685 0
M  V30 2610 O 249.996 -1.74156 0.0392558 0
M  V30 2611 C 247.128 -3.40374 0.189228 0
M  V30 2612 H 248.321 -2.45203 1.72671 0
M  V30 2613 H 245.874 -1.25597 0.930326 0
M  V30 2614 H 246.609 -3.15577 -0.747107 0
M  V30 2615 H 246.394 -3.81637 0.899766 0
M  V30 2616 H 247.884 -4.17594 -0.0228143 0
M  V30 2617 N 248.321 -0.919034 -1.28029 0
M  V30 2618 C 249.737 -0.617972 -1.4715 0
M  V30 2619 C 249.937 0.835242 -1.83374 0
M  V30 2620 O 248.993 1.61388 -1.94191 0
M  V30 2621 C 250.306 -1.56041 -2.57044 0
M  V30 2622 C 251.854 -1.56769 -2.7091 0
M  V30 2623 C 252.329 -2.49688 -3.83953 0
M  V30 2624 N 253.82 -2.47845 -3.91314 0
M  V30 2625 C 254.555 -3.16437 -4.78179 0
M  V30 2626 N 254.051 -3.94376 -5.69596 0
M  V30 2627 N 255.844 -3.05498 -4.71834 0
M  V30 2628 H 247.995 -1.85866 -1.02798 0
M  V30 2629 H 250.258 -0.797506 -0.512531 0
M  V30 2630 H 249.964 -2.59671 -2.372 0
M  V30 2631 H 249.838 -1.29551 -3.54255 0
M  V30 2632 H 252.225 -0.538745 -2.90141 0
M  V30 2633 H 252.306 -1.87305 -1.74214 0
M  V30 2634 H 251.95 -3.52688 -3.65477 0
M  V30 2635 H 251.88 -2.16453 -4.80058 0
M  V30 2636 H 254.371 -1.91234 -3.25941 0
M  V30 2637 H 254.684 -4.43721 -6.32718 0
M  V30 2638 H 253.029 -3.98481 -5.69419 0
M  V30 2639 H 256.22 -2.44108 -3.99411 0
M  V30 2640 H 256.393 -3.59225 -5.39316 0
M  V30 2641 N 249.799 1.42003 -0.683588 0
M  V30 2642 C 251.046 2.01413 -0.209514 0
M  V30 2643 C 251.374 1.54088 1.1869 0
M  V30 2644 O 250.629 0.737591 1.81268 0
M  V30 2645 C 250.928 3.56827 -0.202357 0
M  V30 2646 C 250.594 4.23617 -1.54464 0
M  V30 2647 C 249.256 4.41577 -1.91215 0
M  V30 2648 C 251.608 4.61178 -2.42826 0
M  V30 2649 C 248.936 4.9437 -3.15935 0
M  V30 2650 C 251.288 5.15355 -3.66867 0
M  V30 2651 C 249.952 5.31528 -4.03776 0
M  V30 2652 H 249.222 0.737023 -0.0766668 0
M  V30 2653 H 251.869 1.70067 -0.880312 0
M  V30 2654 H 250.174 3.87892 0.551969 0
M  V30 2655 H 251.871 4.00588 0.181793 0
M  V30 2656 H 248.461 4.10004 -1.24877 0
M  V30 2657 H 252.645 4.46968 -2.15717 0
M  V30 2658 H 247.901 5.05076 -3.44541 0
M  V30 2659 H 252.075 5.43402 -4.35531 0
M  V30 2660 H 249.702 5.72199 -5.00492 0
M  V30 2661 N 251.277 0.427512 1.51691 0
M  V30 2662 C 252.693 0.0792977 1.59403 0
M  V30 2663 C 252.893 -1.41035 1.43914 0
M  V30 2664 O 251.949 -2.17922 1.27539 0
M  V30 2665 C 253.262 0.590636 2.94842 0
M  V30 2666 C 254.81 0.550215 3.08126 0
M  V30 2667 C 255.285 1.03836 4.46074 0
M  V30 2668 N 256.776 0.995943 4.52366 0
M  V30 2669 C 257.511 1.34463 5.57411 0
M  V30 2670 N 257.007 1.76569 6.69922 0
M  V30 2671 N 258.8 1.26343 5.47717 0
M  V30 2672 H 250.951 1.39687 1.60004 0
M  V30 2673 H 253.214 0.575003 0.753708 0
M  V30 2674 H 252.92 1.63251 3.11516 0
M  V30 2675 H 252.794 0.0102061 3.77199 0
M  V30 2676 H 255.181 -0.482654 2.91126 0
M  V30 2677 H 255.262 1.16693 2.27632 0
M  V30 2678 H 254.906 2.06965 4.63819 0
M  V30 2679 H 254.836 0.398286 5.25092 0
M  V30 2680 H 257.327 0.68661 3.7161 0
M  V30 2681 H 257.64 2.01438 7.46085 0
M  V30 2682 H 255.985 1.80488 6.71155 0
M  V30 2683 H 259.176 0.933209 4.58703 0
M  V30 2684 H 259.349 1.53846 6.29472 0
M  V30 2685 N 252.755 -1.56801 0.158532 0
M  V30 2686 C 253.985 -2.00568 -0.495583 0
M  V30 2687 C 254.393 -1.03774 -1.58201 0
M  V30 2688 O 253.736 -0.0285797 -1.83678 0
M  V30 2689 C 253.798 -3.40768 -1.14532 0
M  V30 2690 C 253.462 -4.56553 -0.202101 0
M  V30 2691 C 254.459 -5.16714 0.574675 0
M  V30 2692 C 252.144 -5.02197 -0.101648 0
M  V30 2693 C 254.138 -6.20939 1.43924 0
M  V30 2694 C 251.825 -6.06274 0.766508 0
M  V30 2695 C 252.823 -6.65515 1.53555 0
M  V30 2696 O 252.511 -7.67575 2.38922 0
M  V30 2697 H 252.243 -0.662893 -0.13247 0
M  V30 2698 H 254.797 -2.03829 0.253559 0
M  V30 2699 H 253.027 -3.34381 -1.94233 0
M  V30 2700 H 254.716 -3.6857 -1.70033 0
M  V30 2701 H 255.482 -4.82341 0.507167 0
M  V30 2702 H 251.361 -4.55807 -0.689994 0
M  V30 2703 H 254.905 -6.67107 2.03996 0
M  V30 2704 H 250.802 -6.40073 0.835266 0
M  V30 2705 H 251.57 -7.84844 2.32296 0
M  V30 2706 N 254.233 0.115231 -1.57178 0
M  V30 2707 C 255.48 0.822351 -1.8505 0
M  V30 2708 C 255.808 1.79701 -0.744168 0
M  V30 2709 O 255.063 1.93909 0.26414 0
M  V30 2710 C 255.362 1.60324 -3.19423 0
M  V30 2711 C 255.028 0.772536 -4.44233 0
M  V30 2712 C 253.69 0.543468 -4.78121 0
M  V30 2713 C 256.042 0.193746 -5.2084 0
M  V30 2714 C 253.37 -0.274583 -5.86057 0
M  V30 2715 C 255.722 -0.611517 -6.29637 0
M  V30 2716 C 254.386 -0.850867 -6.62055 0
M  V30 2717 H 253.656 0.30092 -0.677147 0
M  V30 2718 H 256.303 0.0845802 -1.91313 0
M  V30 2719 H 254.608 2.41203 -3.08753 0
M  V30 2720 H 256.305 2.1544 -3.38211 0
M  V30 2721 H 252.895 0.96117 -4.17683 0
M  V30 2722 H 257.079 0.357926 -4.95008 0
M  V30 2723 H 252.335 -0.469206 -6.09597 0
M  V30 2724 H 256.509 -1.06697 -6.88178 0
M  V30 2725 H 254.136 -1.48657 -7.45523 0
M  V30 2726 N 255.711 1.52812 0.385517 0
M  V30 2727 C 256.96 1.67249 1.12741 0
M  V30 2728 C 257.273 0.4205 1.91027 0
M  V30 2729 O 258.479 0.445064 2.67827 0
M  V30 2730 C 256.935 2.95583 2.05326 0
M  V30 2731 C 256.543 4.27974 1.32447 0
M  V30 2732 C 258.287 3.19386 2.7963 0
M  V30 2733 C 256.194 5.47412 2.23818 0
M  V30 2734 H 255.124 0.6231 0.424573 0
M  V30 2735 H 257.775 1.79309 0.389924 0
M  V30 2736 H 256.157 2.77277 2.82725 0
M  V30 2737 H 257.331 4.56844 0.602495 0
M  V30 2738 H 255.646 4.10459 0.700885 0
M  V30 2739 H 258.243 4.05801 3.48181 0
M  V30 2740 H 258.586 2.34604 3.43899 0
M  V30 2741 H 259.119 3.38274 2.09322 0
M  V30 2742 H 255.858 6.34612 1.64157 0
M  V30 2743 H 255.378 5.22849 2.93921 0
M  V30 2744 H 257.057 5.81423 2.83824 0
M  V30 2745 N 257.189 -0.644168 1.43834 0
M  V30 2746 C 258.437 -1.40117 1.45642 0
M  V30 2747 C 258.758 -1.94814 0.0852413 0
M  V30 2748 O 258.028 -1.74988 -0.880688 0
M  V30 2749 H 256.608 -0.52005 0.536243 0
M  V30 2750 H 259.27 -0.7591 1.7951 0
M  V30 2751 H 258.366 -2.23902 2.17427 0
M  V30 2752 N 258.668 -1.30515 -0.883378 0
M  V30 2753 C 259.6 -1.12846 -1.99496 0
M  V30 2754 C 260.613 -0.0712571 -1.62644 0
M  V30 2755 O 261.802 -0.317432 -1.75655 0
M  V30 2756 C 258.902 -0.699123 -3.3161 0
M  V30 2757 C 258.075 -1.83842 -3.96889 0
M  V30 2758 C 257.134 -1.39737 -5.07307 0
M  V30 2759 O 256.16 -2.10485 -5.28852 0
M  V30 2760 N 257.362 -0.277279 -5.79837 0
M  V30 2761 H 260.127 -2.08585 -2.15203 0
M  V30 2762 H 257.688 -1.22672 -1.05656 0
M  V30 2763 H 259.68 -0.387044 -4.02845 0
M  V30 2764 H 258.25 0.166276 -3.12157 0
M  V30 2765 H 257.47 -2.31853 -3.18807 0
M  V30 2766 H 258.758 -2.60187 -4.37241 0
M  V30 2767 H 258.156 0.3122 -5.64838 0
M  V30 2768 H 256.713 -0.0246623 -6.51795 0
M  V30 2769 N 260.146 1.09593 -1.13257 0
M  V30 2770 C 261.562 1.33775 -0.870423 0
M  V30 2771 C 261.762 1.95327 0.494926 0
M  V30 2772 O 260.818 2.19853 1.2418 0
M  V30 2773 C 262.131 2.25106 -1.99369 0
M  V30 2774 C 263.679 2.3862 -2.02558 0
M  V30 2775 C 264.154 3.33285 -3.14142 0
M  V30 2776 N 265.645 3.40857 -3.13641 0
M  V30 2777 C 266.38 4.14101 -3.96621 0
M  V30 2778 N 265.876 4.90157 -4.8961 0
M  V30 2779 N 267.669 4.09808 -3.84726 0
M  V30 2780 H 259.82 0.680136 -2.01216 0
M  V30 2781 H 262.083 0.362133 -0.876107 0
M  V30 2782 H 261.789 1.87103 -2.97801 0
M  V30 2783 H 261.663 3.25481 -1.90635 0
M  V30 2784 H 264.05 2.75887 -1.0474 0
M  V30 2785 H 264.131 1.38028 -2.15364 0
M  V30 2786 H 263.775 2.96741 -4.12198 0
M  V30 2787 H 263.705 4.33776 -2.98574 0
M  V30 2788 H 266.196 2.86624 -2.46282 0
M  V30 2789 H 266.509 5.4347 -5.49418 0
M  V30 2790 H 264.854 4.89251 -4.93617 0
M  V30 2791 H 268.045 3.4949 -3.11408 0
M  V30 2792 H 268.218 4.66629 -4.49623 0
M  V30 2793 N 261.624 0.925811 1.2754 0
M  V30 2794 C 262.554 0.440748 2.29303 0
M  V30 2795 C 263.535 -0.497971 1.62648 0
M  V30 2796 O 264.72 -0.403126 1.8997 0
M  V30 2797 C 261.85 -0.309048 3.45922 0
M  V30 2798 C 260.804 0.54166 4.24559 0
M  V30 2799 C 260.13 -0.337191 5.33636 0
M  V30 2800 C 261.43 1.80516 4.90114 0
M  V30 2801 H 263.124 1.29121 2.70126 0
M  V30 2802 H 260.67 0.622323 1.29858 0
M  V30 2803 H 262.623 -0.659315 4.1621 0
M  V30 2804 H 261.347 -1.19352 3.04011 0
M  V30 2805 H 260.006 0.874609 3.56014 0
M  V30 2806 H 259.654 -1.22056 4.87966 0
M  V30 2807 H 259.354 0.228497 5.87156 0
M  V30 2808 H 260.878 -0.683072 6.06767 0
M  V30 2809 H 262.292 1.52307 5.52698 0
M  V30 2810 H 260.689 2.3142 5.53683 0
M  V30 2811 H 261.759 2.52581 4.13921 0
M  V30 2812 N 263.102 -1.41638 0.69111 0
M  V30 2813 C 264.35 -2.00902 0.219758 0
M  V30 2814 C 264.671 -1.54994 -1.18329 0
M  V30 2815 O 263.941 -0.778628 -1.79762 0
M  V30 2816 H 262.521 -0.74289 0.0782558 0
M  V30 2817 H 265.183 -1.73327 0.891271 0
M  V30 2818 H 264.279 -3.11224 0.233708 0
M  V30 2819 N 264.58 -0.43555 -1.51462 0
M  V30 2820 C 265.829 0.133007 -2.01261 0
M  V30 2821 C 266.142 1.43942 -1.32439 0
M  V30 2822 O 267.348 2.09081 -1.73198 0
M  V30 2823 C 265.804 0.287581 -3.58749 0
M  V30 2824 C 265.412 -1.00829 -4.36506 0
M  V30 2825 C 267.156 0.810004 -4.167 0
M  V30 2826 C 265.063 -0.819454 -5.85695 0
M  V30 2827 H 263.993 0.0534822 -0.752101 0
M  V30 2828 H 266.644 -0.565038 -1.74584 0
M  V30 2829 H 265.026 1.04859 -3.81865 0
M  V30 2830 H 266.2 -1.77749 -4.25138 0
M  V30 2831 H 264.515 -1.45911 -3.89999 0
M  V30 2832 H 267.112 0.967743 -5.2587 0
M  V30 2833 H 267.455 1.79196 -3.75758 0
M  V30 2834 H 267.988 0.107357 -3.97655 0
M  V30 2835 H 264.727 -1.77374 -6.31046 0
M  V30 2836 H 264.247 -0.0900208 -5.99732 0
M  V30 2837 H 265.926 -0.471949 -6.45276 0
M  V30 2838 N 266.058 1.56714 -0.166846 0
M  V30 2839 C 267.008 2.14338 0.777382 0
M  V30 2840 C 267.992 1.07642 1.19591 0
M  V30 2841 O 269.184 1.33775 1.15902 0
M  V30 2842 C 266.313 2.78417 2.00846 0
M  V30 2843 C 265.399 3.92264 1.61212 0
M  V30 2844 N 265.79 4.97268 0.925104 0
M  V30 2845 C 264.088 4.03342 1.90346 0
M  V30 2846 C 264.789 5.77093 0.730627 0
M  V30 2847 N 263.765 5.2854 1.27067 0
M  V30 2848 H 267.567 2.9289 0.243466 0
M  V30 2849 H 265.081 1.62364 0.0339954 0
M  V30 2850 H 267.078 3.18073 2.69509 0
M  V30 2851 H 265.738 2.01344 2.54736 0
M  V30 2852 H 266.749 5.14601 0.583646 0
M  V30 2853 H 263.426 3.37368 2.45946 0
M  V30 2854 H 264.816 6.71638 0.187668 0
M  V30 2855 N 267.536 -0.106894 1.57237 0
M  V30 2856 C 268.761 -0.830287 1.90055 0
M  V30 2857 C 269.186 -1.72064 0.75998 0
M  V30 2858 O 268.544 -1.78982 -0.288991 0
M  V30 2859 C 268.592 -1.6295 3.21683 0
M  V30 2860 O 267.696 -2.73748 3.08441 0
M  V30 2861 H 267.037 -0.228855 0.623315 0
M  V30 2862 H 269.567 -0.085658 2.04421 0
M  V30 2863 H 269.577 -2.01621 3.54701 0
M  V30 2864 H 268.252 -0.975989 4.04286 0
M  V30 2865 H 266.829 -2.38192 2.86913 0
M  V30 2866 N 269.014 -1.53014 -0.377408 0
M  V30 2867 C 269.924 -1.81557 -1.48574 0
M  V30 2868 C 270.94 -0.703102 -1.59162 0
M  V30 2869 O 272.116 -0.99192 -1.75279 0
M  V30 2870 C 269.181 -1.9889 -2.83978 0
M  V30 2871 C 268.242 -3.22801 -2.83016 0
M  V30 2872 C 267.475 -3.39298 -4.11962 0
M  V30 2873 O 267.698 -2.60345 -5.0752 0
M  V30 2874 O 266.632 -4.32604 -4.18494 0
M  V30 2875 H 270.458 -2.75695 -1.27382 0
M  V30 2876 H 268.043 -1.38248 -0.566373 0
M  V30 2877 H 269.925 -2.11931 -3.6423 0
M  V30 2878 H 268.6 -1.07942 -3.05172 0
M  V30 2879 H 267.507 -3.15193 -2.01505 0
M  V30 2880 H 268.84 -4.13632 -2.66775 0
M  V30 2881 N 270.492 0.636531 -1.44174 0
M  V30 2882 C 271.717 1.42847 -1.50364 0
M  V30 2883 C 272.142 1.87665 -0.127867 0
M  V30 2884 O 271.5 1.58408 0.88185 0
M  V30 2885 C 271.548 2.62854 -2.4686 0
M  V30 2886 O 270.652 3.62501 -1.9664 0
M  V30 2887 H 269.993 0.427642 -0.507955 0
M  V30 2888 H 272.523 0.777422 -1.89255 0
M  V30 2889 H 272.533 3.10465 -2.64718 0
M  V30 2890 H 271.208 2.29578 -3.46795 0
M  V30 2891 H 269.785 3.21735 -1.88523 0
M  V30 2892 N 271.97 1.30982 0.876444 0
M  V30 2893 C 273.21 1.21589 1.64303 0
M  V30 2894 C 273.574 -0.223962 1.90689 0
M  V30 2895 O 274.775 -0.44128 2.65153 0
M  V30 2896 C 273.046 2.03007 2.94148 0
M  V30 2897 S 274.605 2.10405 3.85065 0
M  V30 2898 H 271.423 0.433161 0.563819 0
M  V30 2899 H 274.025 1.65565 1.03964 0
M  V30 2900 H 272.729 3.06719 2.72675 0
M  V30 2901 H 272.26 1.59725 3.59515 0
M  V30 2902 H 274.275 1.23765 4.80517 0
M  V30 2903 N 273.449 -1.08991 1.13837 0
M  V30 2904 C 274.399 -2.1393 0.788535 0
M  V30 2905 C 275.383 -1.59396 -0.219516 0
M  V30 2906 O 276.575 -1.76985 -0.0227557 0
M  V30 2907 C 273.704 -3.42305 0.261147 0
M  V30 2908 C 272.79 -4.03736 1.29837 0
M  V30 2909 N 273.181 -4.39659 2.50067 0
M  V30 2910 C 271.479 -4.30993 1.1472 0
M  V30 2911 C 272.18 -4.88113 3.16419 0
M  V30 2912 N 271.156 -4.85846 2.43832 0
M  V30 2913 H 274.958 -2.39516 1.70322 0
M  V30 2914 H 272.472 -1.26263 1.02134 0
M  V30 2915 H 274.469 -4.16899 -0.0077405 0
M  V30 2916 H 273.129 -3.18172 -0.647805 0
M  V30 2917 H 274.14 -4.30878 2.8734 0
M  V30 2918 H 270.817 -4.16444 0.296773 0
M  V30 2919 H 272.207 -5.25336 4.18894 0
M  V30 2920 N 274.927 -0.932562 -1.27047 0
M  V30 2921 C 276.175 -0.574422 -1.93765 0
M  V30 2922 C 276.496 0.887993 -1.73608 0
M  V30 2923 O 275.766 1.62999 -1.08665 0
M  V30 2924 H 274.346 -0.209451 -0.717035 0
M  V30 2925 H 277.008 -1.18601 -1.5466 0
M  V30 2926 H 276.104 -0.784841 -3.02071 0
M  V30 2927 N 276.405 1.4127 -0.698611 0
M  V30 2928 C 277.335 2.33447 -0.049629 0
M  V30 2929 C 278.316 1.51982 0.763898 0
M  V30 2930 O 279.501 1.80509 0.716257 0
M  V30 2931 C 276.631 3.35828 0.885267 0
M  V30 2932 C 275.585 4.27627 0.178613 0
M  V30 2933 C 274.911 5.20406 1.22807 0
M  V30 2934 C 276.211 5.13459 -0.956933 0
M  V30 2935 H 277.905 2.87966 -0.81951 0
M  V30 2936 H 275.451 1.38461 -0.395538 0
M  V30 2937 H 277.404 3.9924 1.34854 0
M  V30 2938 H 276.128 2.79666 1.68685 0
M  V30 2939 H 274.787 3.65643 -0.26466 0
M  V30 2940 H 274.435 4.60558 2.02226 0
M  V30 2941 H 274.135 5.82661 0.760239 0
M  V30 2942 H 275.659 5.86695 1.69179 0
M  V30 2943 H 277.073 5.70421 -0.573805 0
M  V30 2944 H 275.47 5.8467 -1.35205 0
M  V30 2945 H 276.54 4.50443 -1.79524 0
M  V30 2946 N 277.883 0.443576 1.51229 0
M  V30 2947 C 279.132 -0.122332 2.01329 0
M  V30 2948 C 279.445 -1.43237 1.33201 0
M  V30 2949 O 280.651 -2.0816 1.74304 0
M  V30 2950 C 279.107 -0.268551 3.58897 0
M  V30 2951 C 278.715 1.03142 4.35965 0
M  V30 2952 C 280.459 -0.787894 4.17124 0
M  V30 2953 C 278.366 0.850504 5.85252 0
M  V30 2954 H 277.296 -0.0494929 0.752374 0
M  V30 2955 H 279.947 0.574289 1.74282 0
M  V30 2956 H 278.329 -1.02832 3.82415 0
M  V30 2957 H 279.503 1.80001 4.24189 0
M  V30 2958 H 277.818 1.47977 3.89219 0
M  V30 2959 H 280.415 -0.939841 5.26375 0
M  V30 2960 H 280.758 -1.77201 3.76703 0
M  V30 2961 H 281.291 -0.0862669 3.97706 0
M  V30 2962 H 278.03 1.80718 6.30096 0
M  V30 2963 H 277.55 0.121825 5.99676 0
M  V30 2964 H 279.229 0.506163 6.45017 0
M  V30 2965 N 279.361 -1.56624 0.175154 0
M  V30 2966 C 280.291 -2.21155 -0.749195 0
M  V30 2967 C 281.272 -1.16836 -1.23626 0
M  V30 2968 O 282.457 -1.45277 -1.28873 0
M  V30 2969 C 279.587 -2.8553 -1.97711 0
M  V30 2970 C 278.541 -3.95921 -1.62575 0
M  V30 2971 C 277.867 -4.47365 -2.92864 0
M  V30 2972 C 279.167 -5.15323 -0.850838 0
M  V30 2973 H 280.861 -2.98653 -0.211295 0
M  V30 2974 H 278.407 -1.43651 -0.100188 0
M  V30 2975 H 280.36 -3.2935 -2.62881 0
M  V30 2976 H 279.084 -2.05406 -2.53921 0
M  V30 2977 H 277.743 -3.52762 -0.997719 0
M  V30 2978 H 277.391 -3.64027 -3.47122 0
M  V30 2979 H 277.091 -5.21839 -2.70106 0
M  V30 2980 H 278.615 -4.93873 -3.59056 0
M  V30 2981 H 280.029 -5.55812 -1.40521 0
M  V30 2982 H 278.426 -5.95739 -0.722154 0
M  V30 2983 H 279.496 -4.84661 0.152082 0
M  V30 2984 N 280.839 0.0985539 -1.57292 0
M  V30 2985 C 282.087 0.801092 -1.85545 0
M  V30 2986 C 282.408 1.79438 -0.763353 0
M  V30 2987 O 281.678 1.94763 0.21073 0
M  V30 2988 H 280.258 0.29884 -0.684619 0
M  V30 2989 H 282.92 0.0810064 -1.94732 0
M  V30 2990 H 282.016 1.3338 -2.82163 0
M  V30 2991 N 282.317 1.53212 0.369288 0
M  V30 2992 C 283.227 1.82342 1.47609 0
M  V30 2993 C 284.243 0.711532 1.58787 0
M  V30 2994 O 285.419 1.0012 1.74751 0
M  V30 2995 C 282.484 2.00393 2.8292 0
M  V30 2996 C 281.545 3.24297 2.81301 0
M  V30 2997 C 280.778 3.41478 4.10157 0
M  V30 2998 O 281.001 2.63033 5.06132 0
M  V30 2999 O 279.935 4.34817 4.16194 0
M  V30 3000 H 283.761 2.76366 1.25918 0
M  V30 3001 H 281.346 1.38547 0.559034 0
M  V30 3002 H 283.228 2.13859 3.63101 0
M  V30 3003 H 281.903 1.09559 3.04596 0
M  V30 3004 H 280.81 3.16257 1.99831 0
M  V30 3005 H 282.143 4.15041 2.64578 0
M  V30 3006 N 283.795 -0.628877 1.44509 0
M  V30 3007 C 284.745 -1.7345 1.47983 0
M  V30 3008 C 285.729 -1.5715 0.345373 0
M  V30 3009 O 286.921 -1.66848 0.590829 0
M  V30 3010 C 284.05 -3.12143 1.42904 0
M  V30 3011 C 283.136 -3.33906 2.61472 0
M  V30 3012 N 283.527 -3.26024 3.86706 0
M  V30 3013 C 281.825 -3.64709 2.56716 0
M  V30 3014 C 282.526 -3.48536 4.65722 0
M  V30 3015 N 281.502 -3.71517 3.96832 0
M  V30 3016 H 285.304 -1.65818 2.42655 0
M  V30 3017 H 282.818 -0.831419 1.39503 0
M  V30 3018 H 284.815 -3.91433 1.43476 0
M  V30 3019 H 283.475 -3.2094 0.492717 0
M  V30 3020 H 284.486 -3.04893 4.18641 0
M  V30 3021 H 281.163 -3.80473 1.71891 0
M  V30 3022 H 282.553 -3.48016 5.74747 0
M  V30 3023 N 285.273 -1.31445 -0.869486 0
M  V30 3024 C 286.521 -1.20918 -1.61936 0
M  V30 3025 C 286.842 0.232683 -1.93607 0
M  V30 3026 O 286.112 1.15352 -1.58338 0
M  V30 3027 H 284.692 -0.44454 -0.600328 0
M  V30 3028 H 287.354 -1.64776 -1.0409 0
M  V30 3029 H 286.45 -1.78124 -2.56278 0
M  V30 3030 N 286.751 1.08385 -1.14413 0
M  V30 3031 C 288.028 1.77429 -0.823297 0
M  V30 3032 C 288.408 1.9974 0.683163 0
M  V30 3033 O 287.756 1.60739 1.62405 0
M  V30 3034 C 287.966 3.09004 -1.62227 0
M  V30 3035 C 289.314 3.83532 -1.82177 0
M  V30 3036 O 290.338 3.18786 -1.58915 0
M  V30 3037 O 289.197 4.99792 -2.21067 0
M  V30 3038 H 286.291 0.769999 -0.301712 0
M  V30 3039 H 288.837 1.14846 -1.24934 0
M  V30 3040 H 287.609 2.88316 -2.64555 0
M  V30 3041 H 287.232 3.79316 -1.19187 0
M  V30 3042 N 288.23 0.939286 1.26551 0
M  V30 3043 C 289.455 0.602008 1.98471 0
M  V30 3044 C 289.88 -0.815624 1.69497 0
M  V30 3045 O 289.238 -1.54912 0.941905 0
M  V30 3046 C 289.286 0.848407 3.50477 0
M  V30 3047 O 288.39 -0.0804009 4.12322 0
M  V30 3048 H 287.731 0.23049 0.622712 0
M  V30 3049 H 290.261 1.2617 1.61066 0
M  V30 3050 H 290.271 0.768553 4.00696 0
M  V30 3051 H 288.946 1.88171 3.70897 0
M  V30 3052 H 287.523 0.0503508 3.72866 0
M  V30 3053 N 289.708 -1.40897 0.706093 0
M  V30 3054 C 290.933 -2.05895 0.249435 0
M  V30 3055 C 291.358 -1.52823 -1.09666 0
M  V30 3056 O 290.716 -0.659589 -1.68876 0
M  V30 3057 C 290.764 -3.59872 0.22904 0
M  V30 3058 O 289.868 -4.04708 -0.792784 0
M  V30 3059 H 289.209 -0.653206 0.119241 0
M  V30 3060 H 291.739 -1.80471 0.96391 0
M  V30 3061 H 291.749 -4.07951 0.0634791 0
M  V30 3062 H 290.424 -3.97866 1.21141 0
M  V30 3063 H 289.001 -3.68111 -0.59572 0
M  V30 3064 N 291.186 -0.45159 -1.50991 0
M  V30 3065 C 292.432 0.110237 -2.025 0
M  V30 3066 C 292.765 1.41109 -1.33424 0
M  V30 3067 O 292.04 1.89135 -0.453659 0
M  V30 3068 C 292.323 0.314271 -3.58726 0
M  V30 3069 C 292.176 -1.00623 -4.38401 0
M  V30 3070 C 293.495 1.07767 -4.26702 0
M  V30 3071 H 290.614 0.0385897 -0.735989 0
M  V30 3072 H 293.256 -0.593374 -1.80497 0
M  V30 3073 H 291.406 0.913601 -3.77605 0
M  V30 3074 H 293.078 -1.64064 -4.31139 0
M  V30 3075 H 291.321 -1.6075 -4.02917 0
M  V30 3076 H 291.992 -0.817341 -5.45915 0
M  V30 3077 H 294.468 0.56986 -4.12179 0
M  V30 3078 H 293.344 1.18921 -5.35863 0
M  V30 3079 H 293.605 2.10939 -3.88532 0
M  V30 3080 N 292.664 1.56529 -0.183458 0
M  V30 3081 C 294.075 1.83739 0.331177 0
M  V30 3082 C 294.426 1.10373 1.62211 0
M  V30 3083 O 293.551 0.36071 2.13373 0
M  V30 3084 C 294.146 3.33306 0.607646 0
M  V30 3085 C 292.705 3.60969 1.06668 0
M  V30 3086 C 291.852 2.77086 0.109029 0
M  V30 3087 H 294.803 1.53379 -0.407484 0
M  V30 3088 H 294.824 3.51444 1.45832 0
M  V30 3089 H 294.336 3.86677 -0.332086 0
M  V30 3090 H 292.437 3.13021 2.0211 0
M  V30 3091 H 292.55 4.69231 0.967447 0
M  V30 3092 H 290.914 2.47319 0.608714 0
M  V30 3093 H 291.697 3.33241 -0.82494 0
M  V30 3094 N 294.142 -0.090211 1.57342 0
M  V30 3095 C 295.388 -0.793982 1.86611 0
M  V30 3096 C 295.721 -1.78142 0.773252 0
M  V30 3097 O 294.996 -1.93271 -0.218304 0
M  V30 3098 C 295.279 -1.51839 3.26523 0
M  V30 3099 C 295.132 -0.548609 4.46442 0
M  V30 3100 C 296.451 -2.46779 3.64401 0
M  V30 3101 H 293.57 -0.287186 0.678744 0
M  V30 3102 H 296.212 -0.0575076 1.89913 0
M  V30 3103 H 294.362 -2.14617 3.23839 0
M  V30 3104 H 296.034 0.0725513 4.61243 0
M  V30 3105 H 294.277 0.137614 4.33582 0
M  V30 3106 H 294.948 -1.09271 5.41076 0
M  V30 3107 H 297.424 -1.94089 3.68061 0
M  V30 3108 H 296.3 -2.94479 4.63221 0
M  V30 3109 H 296.561 -3.30758 2.93346 0
M  V30 3110 N 295.62 -1.53406 -0.361157 0
M  V30 3111 C 296.866 -1.70999 -1.1014 0
M  V30 3112 C 297.221 -0.458425 -1.86859 0
M  V30 3113 O 296.514 0.548654 -1.83577 0
M  V30 3114 C 296.708 -2.90211 -2.08596 0
M  V30 3115 C 296.537 -4.26841 -1.41553 0
M  V30 3116 C 295.307 -4.91621 -1.16778 0
M  V30 3117 C 297.505 -5.07212 -0.850915 0
M  V30 3118 N 295.487 -6.12164 -0.461312 0
M  V30 3119 C 296.858 -6.19394 -0.274046 0
M  V30 3120 C 298.913 -4.92218 -0.750036 0
M  V30 3121 C 297.616 -7.18221 0.393868 0
M  V30 3122 C 299.642 -5.91322 -0.095894 0
M  V30 3123 C 299.004 -7.0283 0.470081 0
M  V30 3124 H 295.103 -0.678939 -0.388028 0
M  V30 3125 H 297.687 -1.90811 -0.38722 0
M  V30 3126 H 295.858 -2.71931 -2.77323 0
M  V30 3127 H 297.59 -2.96606 -2.7533 0
M  V30 3128 H 294.345 -4.50849 -1.45024 0
M  V30 3129 H 294.769 -6.76888 -0.123312 0
M  V30 3130 H 299.411 -4.06192 -1.17337 0
M  V30 3131 H 297.129 -8.03835 0.82914 0
M  V30 3132 H 300.715 -5.81797 -0.0187075 0
M  V30 3133 H 299.595 -7.782 0.968241 0
M  V30 3134 N 297.098 0.621204 -1.44841 0
M  V30 3135 C 298.323 1.41244 -1.51871 0
M  V30 3136 C 298.748 1.87519 -0.147764 0
M  V30 3137 O 298.106 1.59334 0.865 0
M  V30 3138 C 298.154 2.60221 -2.49634 0
M  V30 3139 O 297.258 3.60395 -2.00473 0
M  V30 3140 H 296.599 0.42223 -0.512463 0
M  V30 3141 H 299.129 0.757305 -1.90069 0
M  V30 3142 H 299.139 3.0764 -2.67996 0
M  V30 3143 H 297.814 2.25887 -3.4921 0
M  V30 3144 H 296.391 3.19717 -1.91925 0
M  V30 3145 N 298.576 1.31904 0.862503 0
M  V30 3146 C 299.824 1.21776 1.61292 0
M  V30 3147 C 300.145 -0.222413 1.93727 0
M  V30 3148 O 299.415 -1.1451 1.58947 0
M  V30 3149 H 297.995 0.447717 0.597962 0
M  V30 3150 H 300.657 1.65326 1.03215 0
M  V30 3151 H 299.753 1.7948 2.5533 0
M  V30 3152 N 300.054 -1.07777 1.14986 0
M  V30 3153 C 301.3 -1.80557 0.923422 0
M  V30 3154 C 301.633 -1.86298 -0.548337 0
M  V30 3155 O 300.908 -1.34354 -1.40639 0
M  V30 3156 C 301.191 -3.25839 1.53299 0
M  V30 3157 C 301.044 -3.28269 3.07505 0
M  V30 3158 C 302.363 -4.22991 1.21518 0
M  V30 3159 H 299.482 -0.655493 0.336894 0
M  V30 3160 H 302.124 -1.26144 1.42083 0
M  V30 3161 H 300.274 -3.72306 1.10999 0
M  V30 3162 H 301.946 -2.90079 3.58681 0
M  V30 3163 H 300.189 -2.67355 3.4162 0
M  V30 3164 H 300.86 -4.30691 3.45266 0
M  V30 3165 H 303.336 -3.84894 1.581 0
M  V30 3166 H 302.212 -5.22945 1.66793 0
M  V30 3167 H 302.473 -4.41904 0.131505 0
M  V30 3168 N 301.532 -0.945985 -1.26051 0
M  V30 3169 C 302.48 -0.450259 -2.282 0
M  V30 3170 C 303.474 0.47497 -1.62605 0
M  V30 3171 O 304.68 0.352653 -1.76512 0
M  V30 3172 H 301.055 -0.127081 -0.741184 0
M  V30 3173 H 303.026 -1.32422 -2.67408 0
M  V30 3174 C 301.775 0.26467 -3.46691 0
M  V30 3175 H 301.098 -0.438123 -3.97392 0
M  V30 3176 H 302.538 0.575678 -4.20074 0
M  V30 3177 C 300.997 1.48416 -3.02447 0
M  V30 3178 O 301.527 2.58227 -3.07704 0
M  V30 3179 N 299.733 1.34243 -2.57735 0
M  V30 3180 H 299.28 0.448994 -2.53657 0
M  V30 3181 H 299.238 2.15957 -2.28495 0
M  V30 3182 N 303.011 1.40521 -0.713556 0
M  V30 3183 C 304.26 2.00155 -0.249192 0
M  V30 3184 C 304.573 1.57224 1.16362 0
M  V30 3185 O 305.779 2.09542 1.72639 0
M  V30 3186 C 304.235 3.5773 -0.3946 0
M  V30 3187 C 303.843 4.09635 -1.81392 0
M  V30 3188 C 305.587 4.24499 0.00907364 0
M  V30 3189 C 303.494 5.59707 -1.91003 0
M  V30 3190 H 302.424 0.74868 -0.0894114 0
M  V30 3191 H 305.075 1.60784 -0.884352 0
M  V30 3192 H 303.457 3.94792 0.30911 0
M  V30 3193 H 304.631 3.83955 -2.54785 0
M  V30 3194 H 302.946 3.55456 -2.16888 0
M  V30 3195 H 305.543 5.34683 -0.0420404 0
M  V30 3196 H 305.886 4.02824 1.05065 0
M  V30 3197 H 306.419 3.92536 -0.645007 0
M  V30 3198 H 303.158 5.86234 -2.93275 0
M  V30 3199 H 302.678 5.87258 -1.22019 0
M  V30 3200 H 304.357 6.24776 -1.6812 0
M  V30 3201 N 304.489 0.459591 1.5075 0
M  V30 3202 C 305.452 -0.329093 2.26825 0
M  V30 3203 C 306.452 -0.930481 1.31144 0
M  V30 3204 O 307.642 -0.801453 1.54669 0
M  V30 3205 C 304.774 -1.46768 3.07688 0
M  V30 3206 H 305.967 0.337924 2.9799 0
M  V30 3207 H 303.52 0.213336 1.54837 0
M  V30 3208 H 304.255 -2.17009 2.40993 0
M  V30 3209 H 304.04 -1.04238 3.77991 0
M  V30 3210 H 305.53 -2.02433 3.65254 0
M  V30 3211 N 305.967 -1.56429 0.191757 0
M  V30 3212 C 307.215 -1.97095 -0.447006 0
M  V30 3213 C 307.536 -1.07967 -1.62383 0
M  V30 3214 O 306.806 -0.150248 -1.95323 0
M  V30 3215 H 305.386 -0.727832 -0.168135 0
M  V30 3216 H 308.048 -1.92911 0.27771 0
M  V30 3217 H 307.144 -3.01848 -0.793371 0
M  V30 3218 N 307.445 0.0818655 -1.57387 0
M  V30 3219 C 308.691 0.784074 -1.8703 0
M  V30 3220 C 309.024 1.77729 -0.782689 0
M  V30 3221 O 308.299 1.93384 0.208051 0
M  V30 3222 C 308.582 1.50105 -3.27323 0
M  V30 3223 C 308.435 0.524925 -4.46727 0
M  V30 3224 C 309.754 2.44843 -3.65705 0
M  V30 3225 H 306.873 0.283582 -0.680257 0
M  V30 3226 H 309.515 0.0474352 -1.89941 0
M  V30 3227 H 307.665 2.12897 -3.24972 0
M  V30 3228 H 309.337 -0.0970111 -4.61198 0
M  V30 3229 H 307.58 -0.160606 -4.33503 0
M  V30 3230 H 308.251 1.064 -5.41648 0
M  V30 3231 H 310.727 1.92135 -3.69085 0
M  V30 3232 H 309.603 2.92018 -4.64776 0
M  V30 3233 H 309.864 3.29197 -2.95096 0
M  V30 3234 N 308.923 1.53595 0.353017 0
M  V30 3235 C 310.334 1.61937 0.929153 0
M  V30 3236 C 310.685 0.494686 1.89861 0
M  V30 3237 O 309.81 -0.377017 2.1309 0
M  V30 3238 C 310.405 2.93526 1.69199 0
M  V30 3239 C 308.964 3.04161 2.21727 0
M  V30 3240 C 308.111 2.57322 1.03348 0
M  V30 3241 H 311.062 1.58155 0.131431 0
M  V30 3242 H 311.083 2.82034 2.55416 0
M  V30 3243 H 310.595 3.75362 0.986144 0
M  V30 3244 H 308.696 2.26938 2.95516 0
M  V30 3245 H 308.809 4.09465 2.48748 0
M  V30 3246 H 307.173 2.12499 1.40414 0
M  V30 3247 H 307.956 3.41588 0.342428 0
M  V30 3248 N 310.401 -0.613514 1.45168 0
M  V30 3249 C 311.331 -1.7354 1.56225 0
M  V30 3250 C 312.312 -1.64981 0.41414 0
M  V30 3251 O 313.497 -1.83472 0.636526 0
M  V30 3252 C 310.627 -3.12128 1.52295 0
M  V30 3253 C 309.581 -3.35491 2.65762 0
M  V30 3254 C 308.907 -4.74291 2.46885 0
M  V30 3255 C 310.207 -3.26325 4.0781 0
M  V30 3256 H 311.901 -1.64543 2.50132 0
M  V30 3257 H 309.447 -0.790185 1.20383 0
M  V30 3258 H 311.4 -3.90404 1.58628 0
M  V30 3259 H 310.124 -3.2195 0.549139 0
M  V30 3260 H 308.783 -2.59603 2.58847 0
M  V30 3261 H 308.431 -4.80839 1.47657 0
M  V30 3262 H 308.131 -4.9088 3.22972 0
M  V30 3263 H 309.655 -5.54775 2.55063 0
M  V30 3264 H 311.069 -3.94483 4.16 0
M  V30 3265 H 309.466 -3.54445 4.8424 0
M  V30 3266 H 310.536 -2.23855 4.30136 0
M  V30 3267 N 311.879 -1.3236 -0.855495 0
M  V30 3268 C 312.826 -1.21225 -1.964 0
M  V30 3269 C 313.796 -0.0946204 -1.6583 0
M  V30 3270 O 314.981 -0.27002 -1.8888 0
M  V30 3271 C 312.121 -0.940419 -3.32039 0
M  V30 3272 C 311.234 -2.14276 -3.75113 0
M  V30 3273 C 310.369 -1.80648 -4.9954 0
M  V30 3274 C 309.408 -2.97208 -5.35102 0
M  V30 3275 N 308.545 -2.63678 -6.50706 0
M  V30 3276 H 313.385 -2.16042 -2.05255 0
M  V30 3277 H 310.922 -1.07451 -1.00463 0
M  V30 3278 H 312.88 -0.763311 -4.10158 0
M  V30 3279 H 311.51 -0.0290413 -3.22787 0
M  V30 3280 H 310.562 -2.43017 -2.92655 0
M  V30 3281 H 311.874 -3.01468 -3.97389 0
M  V30 3282 H 311.028 -1.59484 -5.85363 0
M  V30 3283 H 309.767 -0.906678 -4.79198 0
M  V30 3284 H 308.772 -3.19004 -4.47791 0
M  V30 3285 H 309.997 -3.87918 -5.57401 0
M  V30 3286 H 307.943 -1.76238 -6.31883 0
M  V30 3287 H 307.86 -3.444 -6.72997 0
M  V30 3288 H 309.128 -2.45942 -7.39684 0
M  V30 3289 N 313.357 1.07166 -1.15556 0
M  V30 3290 C 314.634 1.76546 -0.842069 0
M  V30 3291 C 315.014 2.00453 0.661939 0
M  V30 3292 O 314.362 1.62452 1.60691 0
M  V30 3293 C 314.572 3.07266 -1.65495 0
M  V30 3294 C 315.92 3.81578 -1.86234 0
M  V30 3295 O 316.944 3.17083 -1.62287 0
M  V30 3296 O 315.803 4.97419 -2.26355 0
M  V30 3297 H 312.897 0.766756 -0.309862 0
M  V30 3298 H 315.443 1.13514 -1.26145 0
M  V30 3299 H 314.215 2.85494 -2.67598 0
M  V30 3300 H 313.838 3.7803 -1.23203 0
M  V30 3301 N 314.835 0.952656 1.25548 0
M  V30 3302 C 315.765 0.489287 2.28316 0
M  V30 3303 C 316.746 -0.463359 1.63667 0
M  V30 3304 O 317.931 -0.36274 1.90782 0
M  V30 3305 C 315.061 -0.235603 3.465 0
M  V30 3306 C 314.015 0.631593 4.23314 0
M  V30 3307 C 313.341 -0.223923 5.34231 0
M  V30 3308 C 314.641 1.90871 4.86174 0
M  V30 3309 H 316.335 1.34822 2.67326 0
M  V30 3310 H 313.881 0.649728 1.28509 0
M  V30 3311 H 315.834 -0.570882 4.17515 0
M  V30 3312 H 314.558 -1.12877 3.06474 0
M  V30 3313 H 313.217 0.949929 3.54079 0
M  V30 3314 H 312.865 -1.11678 4.90446 0
M  V30 3315 H 312.565 0.35299 5.86539 0
M  V30 3316 H 314.089 -0.554214 6.0808 0
M  V30 3317 H 315.503 1.63997 5.49343 0
M  V30 3318 H 313.9 2.43112 5.4865 0
M  V30 3319 H 314.97 2.61304 4.08471 0
M  V30 3320 N 316.313 -1.40141 0.720998 0
M  V30 3321 C 317.261 -2.3252 0.0608547 0
M  V30 3322 C 318.255 -1.52326 -0.741152 0
M  V30 3323 O 319.461 -1.68089 -0.643911 0
M  V30 3324 H 315.836 -0.751999 0.000876664 0
M  V30 3325 H 317.807 -2.8584 0.856614 0
M  V30 3326 C 316.556 -3.37331 -0.842809 0
M  V30 3327 H 315.879 -3.99108 -0.235084 0
M  V30 3328 H 317.319 -4.04452 -1.27257 0
M  V30 3329 C 315.778 -2.73246 -1.97074 0
M  V30 3330 O 316.308 -2.59998 -3.06209 0
M  V30 3331 N 314.514 -2.31547 -1.75597 0
M  V30 3332 H 314.061 -2.42522 -0.868368 0
M  V30 3333 H 314.019 -1.89007 -2.51244 0
M  V30 3334 N 317.792 -0.46758 -1.50504 0
M  V30 3335 C 319.203 -0.0116166 -1.86696 0
M  V30 3336 C 319.554 1.39202 -1.38265 0
M  V30 3337 O 318.679 2.0313 -0.746132 0
M  V30 3338 C 319.274 -0.0143044 -3.38797 0
M  V30 3339 C 317.833 0.386175 -3.74414 0
M  V30 3340 C 316.98 -0.401287 -2.74381 0
M  V30 3341 H 319.931 -0.682022 -1.43297 0
M  V30 3342 H 319.952 0.788641 -3.72237 0
M  V30 3343 H 319.464 -1.03602 -3.74016 0
M  V30 3344 H 317.565 1.41237 -3.44794 0
M  V30 3345 H 317.678 0.0899596 -4.79016 0
M  V30 3346 H 316.042 0.144536 -2.5429 0
M  V30 3347 H 316.825 -1.42244 -3.12444 0
M  V30 3348 N 319.27 1.56325 -0.20005 0
M  V30 3349 C 320.547 1.89484 0.48529 0
M  V30 3350 C 320.927 1.1143 1.79294 0
M  V30 3351 O 320.275 0.216919 2.27468 0
M  V30 3352 C 320.485 3.41923 0.699243 0
M  V30 3353 C 321.833 4.12256 1.01638 0
M  V30 3354 O 322.857 3.47402 0.786792 0
M  V30 3355 O 321.716 5.26887 1.45095 0
M  V30 3356 H 318.81 0.787144 0.253639 0
M  V30 3357 H 321.356 1.67985 -0.240633 0
M  V30 3358 H 320.128 3.90658 -0.224008 0
M  V30 3359 H 319.751 3.69131 1.47744 0
M  V30 3360 N 320.748 -0.0735177 1.57428 0
M  V30 3361 C 321.997 -0.771809 1.86349 0
M  V30 3362 C 322.31 -1.78828 0.792452 0
M  V30 3363 O 323.516 -2.53602 0.96945 0
M  V30 3364 C 321.972 -1.42358 3.30548 0
M  V30 3365 C 321.58 -0.445761 4.45777 0
M  V30 3366 C 323.324 -2.10434 3.6867 0
M  V30 3367 C 321.231 -1.10335 5.81016 0
M  V30 3368 H 320.161 -0.291999 0.695164 0
M  V30 3369 H 322.812 -0.0250749 1.83483 0
M  V30 3370 H 321.194 -2.21852 3.28021 0
M  V30 3371 H 322.368 0.319239 4.59693 0
M  V30 3372 H 320.683 0.130457 4.16196 0
M  V30 3373 H 323.28 -2.60405 4.67004 0
M  V30 3374 H 323.623 -2.90298 2.98383 0
M  V30 3375 H 324.156 -1.37773 3.7318 0
M  V30 3376 H 320.895 -0.345061 6.54591 0
M  V30 3377 H 320.415 -1.83925 5.70904 0
M  V30 3378 H 322.094 -1.62367 6.26295 0
M  V30 3379 N 322.226 -1.5378 -0.344866 0
M  V30 3380 C 323.474 -1.70625 -1.08311 0
M  V30 3381 C 323.795 -0.471447 -1.89215 0
M  V30 3382 O 323.065 0.514616 -1.8902 0
M  V30 3383 H 321.645 -0.629058 -0.402859 0
M  V30 3384 H 324.307 -1.9103 -0.386459 0
M  V30 3385 H 323.403 -2.57656 -1.76124 0
M  V30 3386 N 323.704 0.605807 -1.45491 0
M  V30 3387 C 324.932 1.39136 -1.5313 0
M  V30 3388 C 325.347 1.88082 -0.164507 0
M  V30 3389 O 324.704 1.62316 0.834247 0
M  V30 3390 C 324.755 2.59463 -2.51716 0
M  V30 3391 O 324.476 2.12551 -3.83084 0
M  V30 3392 C 325.977 3.52301 -2.6907 0
M  V30 3393 H 323.197 0.425849 -0.51855 0
M  V30 3394 H 325.741 0.73865 -1.90694 0
M  V30 3395 H 323.896 3.20772 -2.17219 0
M  V30 3396 H 324.31 2.90744 -4.36541 0
M  V30 3397 H 325.784 4.33271 -3.42024 0
M  V30 3398 H 326.261 4.02757 -1.75167 0
M  V30 3399 H 326.867 2.96845 -3.04571 0
M  V30 3400 N 325.182 1.32811 0.848464 0
M  V30 3401 C 326.459 1.14334 1.58704 0
M  V30 3402 C 326.839 -0.293948 2.09043 0
M  V30 3403 O 326.187 -1.29153 1.88499 0
M  V30 3404 C 326.397 2.17626 2.72837 0
M  V30 3405 C 327.745 2.51282 3.42261 0
M  V30 3406 O 328.769 2.16219 2.83068 0
M  V30 3407 O 327.628 3.11413 4.49093 0
M  V30 3408 H 324.722 0.441601 0.699226 0
M  V30 3409 H 327.268 1.44362 0.892053 0
M  V30 3410 H 326.04 3.14211 2.3321 0
M  V30 3411 H 325.663 1.88628 3.50008 0
M  V30 3412 N 326.66 -1.06551 1.16123 0
M  V30 3413 C 327.607 -2.13961 0.865414 0
M  V30 3414 C 328.577 -1.65066 -0.185055 0
M  V30 3415 O 329.762 -1.90732 -0.05083 0
M  V30 3416 C 326.902 -3.43113 0.369776 0
M  V30 3417 C 326.015 -4.05756 1.48276 0
M  V30 3418 C 325.15 -5.22773 0.942414 0
M  V30 3419 C 324.189 -5.77395 2.03179 0
M  V30 3420 N 323.326 -6.85731 1.50721 0
M  V30 3421 H 328.166 -2.38605 1.78527 0
M  V30 3422 H 325.703 -1.17072 0.890646 0
M  V30 3423 H 327.661 -4.17151 0.0640643 0
M  V30 3424 H 326.291 -3.18695 -0.513143 0
M  V30 3425 H 325.343 -3.29292 1.9045 0
M  V30 3426 H 326.655 -4.42351 2.30493 0
M  V30 3427 H 325.809 -6.03827 0.589729 0
M  V30 3428 H 324.548 -4.87618 0.0895191 0
M  V30 3429 H 323.553 -4.94981 2.3932 0
M  V30 3430 H 324.778 -6.14603 2.8886 0
M  V30 3431 H 322.724 -6.52499 0.676811 0
M  V30 3432 H 322.641 -7.21254 2.26557 0
M  V30 3433 H 323.909 -7.7047 1.18303 0
M  V30 3434 N 328.138 -0.959301 -1.25041 0
M  V30 3435 C 329.415 -0.533805 -1.88175 0
M  V30 3436 C 329.795 0.988994 -1.865 0
M  V30 3437 O 329.143 1.85677 -1.33177 0
M  V30 3438 C 329.353 -1.11575 -3.30684 0
M  V30 3439 C 330.701 -1.19548 -4.07423 0
M  V30 3440 O 331.725 -1.06765 -3.39823 0
M  V30 3441 O 330.584 -1.39656 -5.28354 0
M  V30 3442 H 327.678 -0.176772 -0.807887 0
M  V30 3443 H 330.224 -1.05303 -1.33076 0
M  V30 3444 H 328.996 -2.15884 -3.26358 0
M  V30 3445 H 328.619 -0.580059 -3.93346 0
M  V30 3446 N 329.616 1.39756 -0.72842 0
M  V30 3447 C 331.027 1.83498 -0.344289 0
M  V30 3448 C 331.378 1.60868 1.12321 0
M  V30 3449 O 330.503 1.09634 1.86573 0
M  V30 3450 C 331.098 3.33114 -0.618112 0
M  V30 3451 C 329.657 3.753 -0.287549 0
M  V30 3452 C 328.804 2.62831 -0.884048 0
M  V30 3453 H 331.755 1.28842 -0.926578 0
M  V30 3454 H 331.776 3.80334 0.112349 0
M  V30 3455 H 331.288 3.49553 -1.68625 0
M  V30 3456 H 329.389 3.64451 0.775012 0
M  V30 3457 H 329.502 4.72945 -0.765512 0
M  V30 3458 H 327.866 2.52792 -0.311149 0
M  V30 3459 H 328.649 2.82078 -1.95671 0
M  V30 3460 N 331.094 0.475555 1.50254 0
M  V30 3461 C 332.004 -0.321501 2.32387 0
M  V30 3462 C 333.02 -0.991755 1.42969 0
M  V30 3463 O 334.196 -0.978747 1.76018 0
M  V30 3464 C 331.261 -1.38667 3.17762 0
M  V30 3465 C 330.322 -0.732538 4.23004 0
M  V30 3466 C 329.555 -1.74695 5.04299 0
M  V30 3467 O 329.778 -2.97399 4.86734 0
M  V30 3468 O 328.712 -1.31631 5.8733 0
M  V30 3469 H 332.538 0.350071 3.01676 0
M  V30 3470 H 330.123 0.237321 1.47503 0
M  V30 3471 H 332.005 -2.00354 3.70724 0
M  V30 3472 H 330.68 -2.04163 2.51196 0
M  V30 3473 H 329.587 -0.0765902 3.74022 0
M  V30 3474 H 330.92 -0.120452 4.92053 0
M  V30 3475 N 332.573 -1.56217 0.208337 0
M  V30 3476 C 333.505 -2.1695 -0.739276 0
M  V30 3477 C 334.518 -1.13492 -1.1672 0
M  V30 3478 O 335.707 -1.40529 -1.10063 0
M  V30 3479 C 332.807 -2.72755 -2.01142 0
M  V30 3480 C 331.98 -4.0125 -1.74118 0
M  V30 3481 C 331.039 -4.41749 -2.85909 0
M  V30 3482 O 330.065 -5.08912 -2.54946 0
M  V30 3483 N 331.267 -4.06342 -4.14568 0
M  V30 3484 H 334.032 -2.98893 -0.219837 0
M  V30 3485 H 331.593 -1.61878 0.0268445 0
M  V30 3486 H 333.585 -2.96826 -2.75094 0
M  V30 3487 H 332.155 -1.95191 -2.4417 0
M  V30 3488 H 331.375 -3.85173 -0.838775 0
M  V30 3489 H 332.663 -4.851 -1.53477 0
M  V30 3490 H 332.061 -3.52345 -4.42571 0
M  V30 3491 H 330.618 -4.35335 -4.85105 0
M  V30 3492 N 334.051 0.0651679 -1.57465 0
M  V30 3493 C 335.297 0.758912 -1.88712 0
M  V30 3494 C 335.652 1.7485 -0.802819 0
M  V30 3495 O 334.945 1.90632 0.192359 0
M  V30 3496 C 335.139 1.50081 -3.24362 0
M  V30 3497 C 334.968 0.584579 -4.45884 0
M  V30 3498 C 333.738 0.219039 -5.04825 0
M  V30 3499 C 335.936 -0.121559 -5.14156 0
M  V30 3500 N 333.918 -0.702222 -6.09871 0
M  V30 3501 C 335.289 -0.899767 -6.13436 0
M  V30 3502 C 337.344 -0.192331 -4.97528 0
M  V30 3503 C 336.047 -1.74218 -6.97883 0
M  V30 3504 C 338.073 -1.02174 -5.82507 0
M  V30 3505 C 337.435 -1.78798 -6.8133 0
M  V30 3506 H 333.534 0.25293 -0.739967 0
M  V30 3507 H 336.118 0.0201744 -1.9469 0
M  V30 3508 H 334.289 2.21023 -3.1938 0
M  V30 3509 H 336.021 2.14409 -3.43236 0
M  V30 3510 H 332.776 0.57336 -4.70117 0
M  V30 3511 H 333.2 -1.15629 -6.67052 0
M  V30 3512 H 337.842 0.385741 -4.21037 0
M  V30 3513 H 335.56 -2.3312 -7.73745 0
M  V30 3514 H 339.146 -1.07957 -5.71696 0
M  V30 3515 H 338.026 -2.41942 -7.45945 0
M  V30 3516 N 335.529 1.53961 0.336706 0
M  V30 3517 C 336.439 1.85432 1.43708 0
M  V30 3518 C 337.455 0.745053 1.57242 0
M  V30 3519 O 338.631 1.03804 1.72588 0
M  V30 3520 C 335.696 2.06349 2.78605 0
M  V30 3521 C 334.757 3.30191 2.74358 0
M  V30 3522 C 333.99 3.50101 4.02822 0
M  V30 3523 O 334.213 2.7371 5.00439 0
M  V30 3524 O 333.147 4.43547 4.06878 0
M  V30 3525 H 336.973 2.78975 1.20028 0
M  V30 3526 H 334.558 1.39701 0.52952 0
M  V30 3527 H 336.44 2.21513 3.58483 0
M  V30 3528 H 335.115 1.15995 3.02203 0
M  V30 3529 H 334.022 3.20425 1.93078 0
M  V30 3530 H 335.355 4.2056 2.55715 0
M  V30 3531 N 337.007 -0.598083 1.45811 0
M  V30 3532 C 337.955 -1.72932 1.55555 0
M  V30 3533 C 338.949 -1.63984 0.424921 0
M  V30 3534 O 340.155 -1.69663 0.601205 0
M  V30 3535 H 336.53 -0.571489 0.488779 0
M  V30 3536 H 338.501 -1.61842 2.50699 0
M  V30 3537 C 337.25 -3.11318 1.54843 0
M  V30 3538 H 336.573 -3.18867 2.41172 0
M  V30 3539 H 338.013 -3.90274 1.65717 0
M  V30 3540 C 336.472 -3.3578 0.274427 0
M  V30 3541 O 337.002 -3.9654 -0.641778 0
M  V30 3542 N 335.208 -2.90119 0.167139 0
M  V30 3543 H 334.755 -2.40855 0.913596 0
M  V30 3544 H 334.713 -3.0686 -0.684435 0
M  V30 3545 N 338.485 -1.33259 -0.841409 0
M  V30 3546 C 339.731 -1.24757 -1.59886 0
M  V30 3547 C 340.064 0.186913 -1.93298 0
M  V30 3548 O 339.339 1.12757 -1.5848 0
M  V30 3549 C 339.622 -2.12036 -2.91055 0
M  V30 3550 C 339.475 -3.63929 -2.6434 0
M  V30 3551 C 340.794 -1.9916 -3.92458 0
M  V30 3552 H 337.913 -0.454542 -0.580138 0
M  V30 3553 H 340.555 -1.63335 -0.970647 0
M  V30 3554 H 338.705 -1.79265 -3.44669 0
M  V30 3555 H 340.377 -4.06978 -2.17178 0
M  V30 3556 H 338.62 -3.85935 -1.98082 0
M  V30 3557 H 339.291 -4.20341 -3.57796 0
M  V30 3558 H 341.767 -2.27895 -3.48143 0
M  V30 3559 H 340.643 -2.62484 -4.82072 0
M  V30 3560 H 340.904 -0.963082 -4.31482 0
M  V30 3561 N 339.963 1.05934 -1.16686 0
M  V30 3562 C 340.913 2.11764 -0.844978 0
M  V30 3563 C 341.897 1.59922 0.177178 0
M  V30 3564 O 343.089 1.76983 -0.0241768 0
M  V30 3565 C 340.218 3.41493 -0.351812 0
M  V30 3566 C 339.304 4.00152 -1.40496 0
M  V30 3567 N 339.695 4.32874 -2.61636 0
M  V30 3568 C 337.993 4.278 -1.26106 0
M  V30 3569 C 338.694 4.79552 -3.29249 0
M  V30 3570 N 337.67 4.79211 -2.56628 0
M  V30 3571 H 341.472 2.34916 -1.76612 0
M  V30 3572 H 338.986 1.23511 -1.05446 0
M  V30 3573 H 340.983 4.16773 -0.102796 0
M  V30 3574 H 339.643 3.19778 0.56322 0
M  V30 3575 H 340.654 4.23109 -2.98663 0
M  V30 3576 H 337.331 4.15511 -0.407081 0
M  V30 3577 H 338.721 5.14045 -4.32675 0
M  V30 3578 N 341.441 0.965919 1.2453 0
M  V30 3579 C 342.388 0.49402 2.25451 0
M  V30 3580 C 343.358 -0.45948 1.59618 0
M  V30 3581 O 344.543 -0.370238 1.87173 0
M  V30 3582 C 341.683 -0.211359 3.44452 0
M  V30 3583 C 340.796 0.7807 4.24887 0
M  V30 3584 C 339.931 0.0516105 5.31175 0
M  V30 3585 C 338.97 1.03385 6.03306 0
M  V30 3586 N 338.107 0.334887 7.01301 0
M  V30 3587 H 342.947 1.35946 2.65184 0
M  V30 3588 H 340.484 0.681515 1.3036 0
M  V30 3589 H 342.442 -0.637 4.12308 0
M  V30 3590 H 341.072 -1.04077 3.05562 0
M  V30 3591 H 340.124 1.32479 3.56586 0
M  V30 3592 H 341.436 1.52978 4.74762 0
M  V30 3593 H 340.59 -0.432114 6.05159 0
M  V30 3594 H 339.329 -0.730179 4.82203 0
M  V30 3595 H 338.334 1.52847 5.28127 0
M  V30 3596 H 339.559 1.81606 6.54367 0
M  V30 3597 H 337.505 -0.427959 6.54603 0
M  V30 3598 H 337.422 1.02287 7.49048 0
M  V30 3599 H 338.69 -0.126928 7.79397 0
M  V30 3600 N 342.919 -1.39368 0.735821 0
M  V30 3601 C 343.866 -2.30599 0.0963825 0
M  V30 3602 C 344.836 -1.49257 -0.728794 0
M  V30 3603 O 346.021 -1.77941 -0.688588 0
M  V30 3604 C 343.161 -3.35596 -0.804305 0
M  V30 3605 C 342.274 -4.31987 0.0335761 0
M  V30 3606 C 341.409 -5.24053 -0.868461 0
M  V30 3607 C 340.448 -6.12095 -0.0258776 0
M  V30 3608 N 339.585 -6.96514 -0.883893 0
M  V30 3609 H 344.425 -2.8471 0.880002 0
M  V30 3610 H 341.962 -1.40188 0.445619 0
M  V30 3611 H 343.92 -3.95062 -1.34096 0
M  V30 3612 H 342.55 -2.82938 -1.55389 0
M  V30 3613 H 341.602 -3.74133 0.68766 0
M  V30 3614 H 342.914 -4.94074 0.685036 0
M  V30 3615 H 342.068 -5.88549 -1.47293 0
M  V30 3616 H 340.807 -4.62289 -1.5537 0
M  V30 3617 H 339.812 -5.4661 0.591386 0
M  V30 3618 H 341.037 -6.75923 0.656156 0
M  V30 3619 H 338.983 -6.37318 -1.55441 0
M  V30 3620 H 338.9 -7.55448 -0.288931 0
M  V30 3621 H 340.168 -7.65439 -1.4739 0
M  V30 3622 N 344.397 -0.483516 -1.5 0
M  V30 3623 C 345.643 0.0672592 -2.02688 0
M  V30 3624 C 345.976 1.38247 -1.36387 0
M  V30 3625 O 345.251 1.88131 -0.493675 0
M  V30 3626 C 345.534 0.238109 -3.59312 0
M  V30 3627 C 345.387 -1.099 -4.36168 0
M  V30 3628 C 346.706 0.986916 -4.28892 0
M  V30 3629 H 343.825 0.0229696 -0.736642 0
M  V30 3630 H 346.467 -0.631527 -1.79197 0
M  V30 3631 H 344.617 0.8333 -3.79458 0
M  V30 3632 H 346.289 -1.73172 -4.27562 0
M  V30 3633 H 344.532 -1.69261 -3.99416 0
M  V30 3634 H 345.203 -0.932954 -5.44059 0
M  V30 3635 H 347.679 0.482302 -4.13295 0
M  V30 3636 H 346.555 1.07527 -5.38265 0
M  V30 3637 H 346.816 2.0265 -3.92919 0
M  V30 3638 N 345.875 1.56104 -0.216619 0
M  V30 3639 C 347.124 1.97348 0.416744 0
M  V30 3640 C 347.437 1.10715 1.6125 0
M  V30 3641 O 348.643 1.41836 2.31506 0
M  V30 3642 C 347.099 3.51059 0.792835 0
M  V30 3643 C 346.707 4.46387 -0.379828 0
M  V30 3644 C 348.451 4.01026 1.39208 0
M  V30 3645 C 346.358 5.91397 0.0184223 0
M  V30 3646 H 345.288 0.736942 0.159475 0
M  V30 3647 H 347.939 1.80827 -0.31205 0
M  V30 3648 H 346.321 3.63162 1.57891 0
M  V30 3649 H 347.495 4.46029 -1.15737 0
M  V30 3650 H 345.81 4.06734 -0.891979 0
M  V30 3651 H 348.407 5.0686 1.70286 0
M  V30 3652 H 348.75 3.46587 2.30614 0
M  V30 3653 H 349.283 3.92125 0.669537 0
M  V30 3654 H 346.022 6.49807 -0.862002 0
M  V30 3655 H 345.542 5.94961 0.760384 0
M  V30 3656 H 347.221 6.45455 0.446818 0
M  V30 3657 N 347.353 -0.0568162 1.57498 0
M  V30 3658 C 348.578 -0.769402 1.92601 0
M  V30 3659 C 349.003 -1.69559 0.814336 0
M  V30 3660 O 348.361 -1.79811 -0.231903 0
M  V30 3661 C 348.409 -1.52634 3.26704 0
M  V30 3662 O 347.513 -2.63797 3.16994 0
M  V30 3663 H 346.854 -0.208909 0.63028 0
M  V30 3664 H 349.384 -0.0205798 2.0459 0
M  V30 3665 H 349.394 -1.90234 3.60936 0
M  V30 3666 H 348.069 -0.846875 4.07186 0
M  V30 3667 H 346.646 -2.28943 2.94346 0
M  V30 3668 N 348.832 -1.54138 -0.328536 0
M  V30 3669 C 350.057 -1.76378 -1.09112 0
M  V30 3670 C 350.482 -0.508596 -1.81094 0
M  V30 3671 O 349.84 0.539598 -1.73084 0
M  V30 3672 C 349.888 -2.95358 -2.06872 0
M  V30 3673 O 348.992 -2.66556 -3.14677 0
M  V30 3674 H 348.333 -0.584614 -0.314838 0
M  V30 3675 H 350.863 -2.01146 -0.374348 0
M  V30 3676 H 350.873 -3.22566 -2.4983 0
M  V30 3677 H 349.548 -3.86385 -1.5388 0
M  V30 3678 H 348.125 -2.50282 -2.7643 0
M  V30 3679 N 350.31 0.590341 -1.46126 0
M  V30 3680 C 351.558 1.34616 -1.50742 0
M  V30 3681 C 351.879 1.94363 -0.157486 0
M  V30 3682 O 351.149 1.78136 0.815136 0
M  V30 3683 H 349.729 0.499789 -0.555175 0
M  V30 3684 H 352.391 0.691953 -1.82203 0
M  V30 3685 H 351.487 2.15678 -2.25587 0
M  V30 3686 N 351.788 1.33704 0.83433 0
M  V30 3687 C 353.018 1.28281 1.6195 0
M  V30 3688 C 353.426 -0.147603 1.88623 0
M  V30 3689 O 352.769 -1.1016 1.47005 0
M  V30 3690 C 352.831 1.99386 2.99141 0
M  V30 3691 C 352.495 3.48681 2.95416 0
M  V30 3692 C 353.492 4.438 2.70809 0
M  V30 3693 C 351.177 3.90925 3.15409 0
M  V30 3694 C 353.171 5.79138 2.66229 0
M  V30 3695 C 350.858 5.26366 3.10454 0
M  V30 3696 C 351.856 6.20284 2.85895 0
M  V30 3697 O 351.544 7.53245 2.80852 0
M  V30 3698 H 351.276 0.44315 0.510484 0
M  V30 3699 H 353.83 1.76711 1.04702 0
M  V30 3700 H 352.06 1.45554 3.58261 0
M  V30 3701 H 353.749 1.87403 3.60049 0
M  V30 3702 H 354.515 4.12485 2.5511 0
M  V30 3703 H 350.394 3.18229 3.33543 0
M  V30 3704 H 353.938 6.52416 2.4698 0
M  V30 3705 H 349.835 5.57304 3.25703 0
M  V30 3706 H 350.603 7.62846 2.96661 0
M  V30 3707 N 353.266 -1.05314 1.17247 0
M  V30 3708 C 354.176 -2.16538 0.90268 0
M  V30 3709 C 355.192 -1.73523 -0.128707 0
M  V30 3710 O 356.368 -2.01337 0.0502701 0
M  V30 3711 C 353.433 -3.44167 0.418356 0
M  V30 3712 C 352.494 -4.01635 1.51618 0
M  V30 3713 C 351.727 -5.23171 1.05487 0
M  V30 3714 O 351.95 -5.70327 -0.0914715 0
M  V30 3715 O 350.884 -5.72848 1.8474 0
M  V30 3716 H 354.71 -2.42145 1.83302 0
M  V30 3717 H 352.295 -1.15037 0.953246 0
M  V30 3718 H 354.177 -4.21112 0.155726 0
M  V30 3719 H 352.852 -3.20063 -0.48385 0
M  V30 3720 H 351.759 -3.26135 1.83268 0
M  V30 3721 H 353.092 -4.30053 2.39405 0
M  V30 3722 N 354.744 -0.972509 -1.24016 0
M  V30 3723 C 355.677 -0.45117 -2.23696 0
M  V30 3724 C 356.655 0.477378 -1.55434 0
M  V30 3725 O 357.839 0.407647 -1.84039 0
M  V30 3726 C 354.966 0.34818 -3.36906 0
M  V30 3727 C 354.012 -0.523355 -4.23277 0
M  V30 3728 S 354.845 -1.96647 -4.98087 0
M  V30 3729 C 356.001 -1.17604 -6.14752 0
M  V30 3730 H 356.234 -1.29588 -2.67571 0
M  V30 3731 H 353.767 -0.777903 -1.33372 0
M  V30 3732 H 355.725 0.803387 -4.02562 0
M  V30 3733 H 354.386 1.16792 -2.91579 0
M  V30 3734 H 353.579 0.0906181 -5.03919 0
M  V30 3735 H 353.181 -0.914485 -3.62647 0
M  V30 3736 H 355.473 -0.433434 -6.76112 0
M  V30 3737 H 356.416 -1.95701 -6.8052 0
M  V30 3738 H 356.824 -0.698295 -5.60164 0
M  V30 3739 N 356.222 1.38976 -0.743202 0
M  V30 3740 C 357.468 2.0064 -0.295189 0
M  V30 3741 C 357.801 1.5885 1.11716 0
M  V30 3742 O 357.076 0.821181 1.76315 0
M  V30 3743 C 357.359 3.578 -0.406318 0
M  V30 3744 C 357.212 4.09586 -1.85903 0
M  V30 3745 C 358.531 4.39616 0.206439 0
M  V30 3746 H 355.65 0.728935 -0.108733 0
M  V30 3747 H 358.292 1.65067 -0.940897 0
M  V30 3748 H 356.442 3.88235 0.143419 0
M  V30 3749 H 358.114 3.89837 -2.46627 0
M  V30 3750 H 356.357 3.6284 -2.3776 0
M  V30 3751 H 357.028 5.18708 -1.888 0
M  V30 3752 H 359.504 4.15273 -0.262283 0
M  V30 3753 H 358.38 5.48812 0.0983819 0
M  V30 3754 H 358.641 4.22754 1.2935 0
M  V30 3755 N 357.7 0.491464 1.49741 0
M  V30 3756 C 358.647 -0.292027 2.28945 0
M  V30 3757 C 359.617 -0.968973 1.34908 0
M  V30 3758 O 360.802 -0.97748 1.6386 0
M  V30 3759 C 357.942 -1.35617 3.17336 0
M  V30 3760 C 357.055 -0.691957 4.26422 0
M  V30 3761 C 356.19 -1.73572 5.02042 0
M  V30 3762 C 355.229 -1.05286 6.02977 0
M  V30 3763 N 354.366 -2.0404 6.71798 0
M  V30 3764 H 359.206 0.389654 2.95442 0
M  V30 3765 H 356.743 0.204003 1.45679 0
M  V30 3766 H 358.701 -1.98502 3.66951 0
M  V30 3767 H 357.331 -2.00674 2.52844 0
M  V30 3768 H 356.383 0.0499523 3.80367 0
M  V30 3769 H 357.695 -0.153946 4.98562 0
M  V30 3770 H 356.849 -2.43987 5.55478 0
M  V30 3771 H 355.588 -2.30757 4.29654 0
M  V30 3772 H 354.593 -0.334446 5.48782 0
M  V30 3773 H 355.818 -0.487636 6.77347 0
M  V30 3774 H 353.764 -2.60205 6.02187 0
M  V30 3775 H 353.681 -1.55279 7.39881 0
M  V30 3776 H 354.949 -2.73772 7.29842 0
M  V30 3777 N 359.178 -1.55987 0.224894 0
M  V30 3778 C 360.111 -2.16413 -0.723929 0
M  V30 3779 C 361.089 -1.10952 -1.18863 0
M  V30 3780 O 362.273 -1.39225 -1.27077 0
M  V30 3781 C 359.4 -2.74711 -1.98121 0
M  V30 3782 C 358.446 -3.9303 -1.6562 0
M  V30 3783 S 359.279 -5.29817 -0.778058 0
M  V30 3784 C 360.435 -5.91555 -2.04483 0
M  V30 3785 H 360.668 -2.96555 -0.210347 0
M  V30 3786 H 358.201 -1.54397 0.00955457 0
M  V30 3787 H 360.159 -3.08938 -2.70311 0
M  V30 3788 H 358.82 -1.94555 -2.46591 0
M  V30 3789 H 358.013 -4.32334 -2.59043 0
M  V30 3790 H 357.615 -3.59966 -1.01491 0
M  V30 3791 H 359.907 -6.07732 -2.99446 0
M  V30 3792 H 360.85 -6.87498 -1.69563 0
M  V30 3793 H 361.258 -5.20419 -2.18688 0
M  V30 3794 N 360.656 0.0484629 -1.57525 0
M  V30 3795 C 361.603 1.05504 -2.05275 0
M  V30 3796 C 362.573 1.37084 -0.937927 0
M  V30 3797 O 363.758 1.47754 -1.2072 0
M  V30 3798 C 360.898 2.35676 -2.52093 0
M  V30 3799 C 360.011 2.10423 -3.77288 0
M  V30 3800 C 359.146 3.34327 -4.12794 0
M  V30 3801 C 358.185 3.04542 -5.30962 0
M  V30 3802 N 357.322 4.20841 -5.61994 0
M  V30 3803 H 362.162 0.640885 -2.91027 0
M  V30 3804 H 359.699 0.304854 -1.43906 0
M  V30 3805 H 361.657 3.11709 -2.77297 0
M  V30 3806 H 360.287 2.7485 -1.69285 0
M  V30 3807 H 359.339 1.24976 -3.59284 0
M  V30 3808 H 360.651 1.84438 -4.63448 0
M  V30 3809 H 359.805 4.1874 -4.39024 0
M  V30 3810 H 358.544 3.63408 -3.25247 0
M  V30 3811 H 357.549 2.18528 -5.04505 0
M  V30 3812 H 358.774 2.76758 -6.20146 0
M  V30 3813 H 356.72 4.4991 -4.77406 0
M  V30 3814 H 356.637 3.98212 -6.42622 0
M  V30 3815 H 357.905 5.06184 -5.92789 0
M  V30 3816 N 362.134 1.5431 0.320358 0
M  V30 3817 C 363.382 1.72327 1.05583 0
M  V30 3818 C 363.703 0.50149 1.88441 0
M  V30 3819 O 362.973 -0.48448 1.89815 0
M  V30 3820 H 361.553 0.635387 0.3928 0
M  V30 3821 H 364.215 1.91621 0.356019 0
M  V30 3822 H 363.311 2.60426 1.72003 0
M  V30 3823 N 363.613 -0.582584 1.46437 0
M  V30 3824 C 364.843 -1.36484 1.55099 0
M  V30 3825 C 365.251 -1.88233 0.191056 0
M  V30 3826 O 364.594 -1.6429 -0.821858 0
M  V30 3827 C 364.656 -2.588 2.49525 0
M  V30 3828 C 364.32 -2.28517 3.95764 0
M  V30 3829 C 365.317 -1.87346 4.84972 0
M  V30 3830 C 363.002 -2.40658 4.40896 0
M  V30 3831 C 364.996 -1.5871 6.17325 0
M  V30 3832 C 362.683 -2.11635 5.73284 0
M  V30 3833 C 363.681 -1.70725 6.61318 0
M  V30 3834 O 363.369 -1.42057 7.91249 0
M  V30 3835 H 363.101 -0.423297 0.527063 0
M  V30 3836 H 365.655 -0.715188 1.92547 0
M  V30 3837 H 363.885 -3.26571 2.07095 0
M  V30 3838 H 365.574 -3.20868 2.48593 0
M  V30 3839 H 366.34 -1.77481 4.5136 0
M  V30 3840 H 362.219 -2.71463 3.72598 0
M  V30 3841 H 365.763 -1.26704 6.85997 0
M  V30 3842 H 361.66 -2.21124 6.06444 0
M  V30 3843 H 362.428 -1.55901 8.03515 0
M  V30 3844 N 365.091 -1.34144 -0.827227 0
M  V30 3845 C 366.319 -1.29325 -1.61501 0
M  V30 3846 C 366.734 0.13354 -1.88327 0
M  V30 3847 O 366.091 1.0793 -1.47164 0
M  V30 3848 C 366.142 -2.07746 -2.95844 0
M  V30 3849 O 365.863 -3.4486 -2.70191 0
M  V30 3850 C 367.364 -2.10273 -3.90256 0
M  V30 3851 H 364.584 -0.445069 -0.50215 0
M  V30 3852 H 367.128 -1.76693 -1.02955 0
M  V30 3853 H 365.283 -1.6403 -3.5096 0
M  V30 3854 H 365.697 -3.85345 -3.55822 0
M  V30 3855 H 367.171 -2.69575 -4.81698 0
M  V30 3856 H 367.648 -1.096 -4.25305 0
M  V30 3857 H 368.254 -2.54059 -3.41078 0
M  V30 3858 N 366.569 1.04691 -1.17803 0
M  V30 3859 C 367.794 1.81984 -0.994813 0
M  V30 3860 C 368.219 1.82586 0.452112 0
M  V30 3861 O 367.577 1.23854 1.324 0
M  V30 3862 C 367.625 3.2575 -1.54659 0
M  V30 3863 O 366.729 4.05267 -0.763728 0
M  V30 3864 H 366.07 0.562483 -0.352857 0
M  V30 3865 H 368.6 1.3189 -1.56417 0
M  V30 3866 H 368.61 3.76541 -1.57102 0
M  V30 3867 H 367.285 3.24627 -2.59981 0
M  V30 3868 H 365.862 3.63972 -0.811108 0
M  V30 3869 N 368.047 0.979072 1.23499 0
M  V30 3870 C 369.293 0.6578 1.9247 0
M  V30 3871 C 369.648 -0.799746 1.74991 0
M  V30 3872 O 368.941 -1.56922 1.09937 0
M  V30 3873 C 369.135 0.981932 3.43646 0
M  V30 3874 C 368.964 2.46944 3.75831 0
M  V30 3875 C 367.734 3.13119 3.96591 0
M  V30 3876 C 369.932 3.45006 3.81412 0
M  V30 3877 N 367.914 4.51489 4.15969 0
M  V30 3878 C 369.285 4.68778 4.05768 0
M  V30 3879 C 371.34 3.39505 3.64198 0
M  V30 3880 C 370.043 5.87723 4.14697 0
M  V30 3881 C 372.069 4.57814 3.7438 0
M  V30 3882 C 371.431 5.80381 3.99171 0
M  V30 3883 H 367.53 0.291746 0.72554 0
M  V30 3884 H 370.114 1.25626 1.48749 0
M  V30 3885 H 368.285 0.412179 3.86207 0
M  V30 3886 H 370.017 0.618068 3.99953 0
M  V30 3887 H 366.772 2.63619 3.93449 0
M  V30 3888 H 367.196 5.23221 4.29615 0
M  V30 3889 H 371.838 2.45773 3.44029 0
M  V30 3890 H 369.556 6.81874 4.33675 0
M  V30 3891 H 373.142 4.55132 3.62417 0
M  V30 3892 H 372.022 6.70398 4.06861 0
M  V30 3893 N 369.525 -1.3858 0.750561 0
M  V30 3894 C 370.773 -1.99789 0.30477 0
M  V30 3895 C 371.094 -1.59874 -1.11649 0
M  V30 3896 O 370.364 -0.85417 -1.76297 0
M  V30 3897 H 368.944 -0.738902 0.109694 0
M  V30 3898 H 371.606 -1.69391 0.963983 0
M  V30 3899 H 370.702 -3.09952 0.365499 0
M  V30 3900 N 371.003 -0.499398 -1.49478 0
M  V30 3901 C 372.252 0.0475259 -2.01644 0
M  V30 3902 C 372.565 1.38195 -1.38425 0
M  V30 3903 O 373.771 2.01547 -1.8191 0
M  V30 3904 C 372.227 0.135164 -3.59646 0
M  V30 3905 C 371.835 -1.19252 -4.31837 0
M  V30 3906 C 373.579 0.632538 -4.19761 0
M  V30 3907 C 371.486 -1.06713 -5.81693 0
M  V30 3908 H 370.416 0.0215349 -0.753692 0
M  V30 3909 H 373.067 -0.638577 -1.7203 0
M  V30 3910 H 371.449 0.885681 -3.85969 0
M  V30 3911 H 372.623 -1.9562 -4.17216 0
M  V30 3912 H 370.938 -1.62321 -3.83459 0
M  V30 3913 H 373.535 0.743833 -5.29501 0
M  V30 3914 H 373.878 1.63098 -3.83021 0
M  V30 3915 H 374.411 -0.0613987 -3.97753 0
M  V30 3916 H 371.15 -2.03979 -6.22955 0
M  V30 3917 H 370.67 -0.344307 -5.98811 0
M  V30 3918 H 372.349 -0.745208 -6.42694 0
M  V30 3919 N 372.481 1.55866 -0.233164 0
M  V30 3920 C 373.706 2.03449 0.402906 0
M  V30 3921 C 374.131 1.11166 1.51736 0
M  V30 3922 O 373.489 0.101996 1.81013 0
M  V30 3923 C 373.537 3.49165 0.9009 0
M  V30 3924 O 372.641 3.60019 2.01147 0
M  V30 3925 H 371.982 0.657913 0.0897025 0
M  V30 3926 H 374.512 2.01493 -0.355201 0
M  V30 3927 H 374.522 3.89716 1.2077 0
M  V30 3928 H 373.197 4.15813 0.0852889 0
M  V30 3929 H 371.774 3.3136 1.71042 0
M  V30 3930 N 373.959 -0.0401083 1.57549 0
M  V30 3931 C 374.889 -1.04384 2.08869 0
M  V30 3932 C 375.87 -1.38407 0.988817 0
M  V30 3933 O 377.055 -1.47483 1.26342 0
M  V30 3934 C 374.185 -2.34808 2.55895 0
M  V30 3935 C 373.139 -2.15057 3.70047 0
M  V30 3936 C 372.465 -3.51145 4.03239 0
M  V30 3937 C 373.765 -1.54576 4.98902 0
M  V30 3938 H 375.459 -0.616666 2.92981 0
M  V30 3939 H 373.005 -0.295184 1.40942 0
M  V30 3940 H 374.958 -3.05346 2.90417 0
M  V30 3941 H 373.682 -2.79565 1.68853 0
M  V30 3942 H 372.341 -1.46954 3.35857 0
M  V30 3943 H 371.989 -3.93529 3.13279 0
M  V30 3944 H 371.689 -3.38758 4.80122 0
M  V30 3945 H 373.213 -4.23062 4.40285 0
M  V30 3946 H 374.627 -2.15017 5.31451 0
M  V30 3947 H 373.024 -1.52796 5.80322 0
M  V30 3948 H 374.094 -0.51039 4.82206 0
M  V30 3949 N 375.437 -1.54477 -0.31217 0
M  V30 3950 C 376.662 -1.77526 -1.07235 0
M  V30 3951 C 377.087 -0.527775 -1.80544 0
M  V30 3952 O 376.445 0.52121 -1.73646 0
M  V30 3953 C 376.493 -2.97535 -2.03728 0
M  V30 3954 O 375.597 -2.69878 -3.11833 0
M  V30 3955 H 374.938 -0.58792 -0.30862 0
M  V30 3956 H 377.468 -2.01532 -0.352993 0
M  V30 3957 H 377.478 -3.25198 -2.46395 0
M  V30 3958 H 376.153 -3.87996 -1.49774 0
M  V30 3959 H 374.73 -2.53199 -2.7376 0
M  V30 3960 N 376.915 0.57481 -1.46744 0
M  V30 3961 C 378.161 1.3347 -1.52688 0
M  V30 3962 C 378.494 1.93353 -0.181229 0
M  V30 3963 O 377.769 1.76912 0.808237 0
M  V30 3964 C 378.052 2.45811 -2.63152 0
M  V30 3965 C 377.905 1.90912 -4.07275 0
M  V30 3966 C 379.224 3.47822 -2.69644 0
M  V30 3967 H 376.343 0.483935 -0.555856 0
M  V30 3968 H 378.985 0.644968 -1.78718 0
M  V30 3969 H 377.135 3.04646 -2.41088 0
M  V30 3970 H 378.807 1.36473 -4.4065 0
M  V30 3971 H 377.05 1.21691 -4.16382 0
M  V30 3972 H 377.721 2.72042 -4.80309 0
M  V30 3973 H 380.197 2.9888 -2.895 0
M  V30 3974 H 379.073 4.23876 -3.48742 0
M  V30 3975 H 379.334 4.05555 -1.76005 0
M  V30 3976 N 378.394 1.34581 0.820102 0
M  V30 3977 C 379.357 1.2628 1.91275 0
M  V30 3978 C 380.357 0.177344 1.59819 0
M  V30 3979 O 381.547 0.430156 1.68806 0
M  V30 3980 C 378.679 0.950327 3.27386 0
M  V30 3981 H 379.872 2.23421 2.00057 0
M  V30 3982 H 377.425 1.1891 1.0144 0
M  V30 3983 H 378.16 -0.0177938 3.24295 0
M  V30 3984 H 377.945 1.73549 3.51601 0
M  V30 3985 H 379.435 0.917492 4.07396 0
M  V30 3986 N 379.872 -1.04064 1.18357 0
M  V30 3987 C 381.149 -1.74252 0.888581 0
M  V30 3988 C 381.529 -2.02138 -0.60856 0
M  V30 3989 O 380.877 -1.66656 -1.56327 0
M  V30 3990 C 381.087 -3.0277 1.73584 0
M  V30 3991 C 382.435 -3.76506 1.96286 0
M  V30 3992 O 383.459 -3.12668 1.70637 0
M  V30 3993 O 382.318 -4.91243 2.39464 0
M  V30 3994 H 379.412 -0.758271 0.330082 0
M  V30 3995 H 381.958 -1.1013 1.2911 0
M  V30 3996 H 380.73 -2.78299 2.75073 0
M  V30 3997 H 380.353 -3.74631 1.33183 0
M  V30 3998 N 381.35 -0.985608 -1.22978 0
M  V30 3999 C 382.28 -0.549649 -2.26939 0
M  V30 4000 C 383.261 0.419803 -1.64838 0
M  V30 4001 O 384.446 0.31203 -1.91677 0
M  V30 4002 C 381.576 0.143652 -3.47003 0
M  V30 4003 C 380.53 -0.743606 -4.21491 0
M  V30 4004 C 379.856 0.0822027 -5.34637 0
M  V30 4005 C 381.156 -2.03694 -4.80943 0
M  V30 4006 H 382.85 -1.41862 -2.63658 0
M  V30 4007 H 380.396 -0.683571 -1.26741 0
M  V30 4008 H 382.349 0.459985 -4.18882 0
M  V30 4009 H 381.073 1.04711 -3.09359 0
M  V30 4010 H 379.732 -1.04347 -3.51436 0
M  V30 4011 H 379.38 0.986359 -4.93234 0
M  V30 4012 H 379.08 -0.508377 -5.85397 0
M  V30 4013 H 380.604 0.392797 -6.09335 0
M  V30 4014 H 382.018 -1.78504 -5.44802 0
M  V30 4015 H 380.415 -2.57573 -5.42011 0
M  V30 4016 H 381.485 -2.72042 -4.01399 0
M  V30 4017 N 382.828 1.3818 -0.7579 0
M  V30 4018 C 384.056 2.04301 -0.326937 0
M  V30 4019 C 384.471 1.57163 1.0462 0
M  V30 4020 O 383.828 0.746626 1.66529 0
M  V30 4021 C 383.879 3.59846 -0.345363 0
M  V30 4022 O 383.6 4.05256 -1.66432 0
M  V30 4023 C 385.101 4.4319 0.098927 0
M  V30 4024 H 382.321 0.656443 -0.139012 0
M  V30 4025 H 384.865 1.76786 -1.02796 0
M  V30 4026 H 383.02 3.86182 0.306955 0
M  V30 4027 H 383.434 4.99709 -1.59345 0
M  V30 4028 H 384.908 5.51989 0.0348745 0
M  V30 4029 H 385.385 4.23947 1.14741 0
M  V30 4030 H 385.991 4.22051 -0.52468 0
M  V30 4031 N 384.306 0.507319 1.49211 0
M  V30 4032 C 385.216 -0.272136 2.33016 0
M  V30 4033 C 386.232 -0.961206 1.45041 0
M  V30 4034 O 387.408 -0.941191 1.78055 0
M  V30 4035 C 384.473 -1.31895 3.20631 0
M  V30 4036 C 383.534 -0.642648 4.24463 0
M  V30 4037 C 382.767 -1.63959 5.07891 0
M  V30 4038 O 382.99 -2.87007 4.92933 0
M  V30 4039 O 381.924 -1.19143 5.8999 0
M  V30 4040 H 385.75 0.413982 3.00865 0
M  V30 4041 H 383.335 0.268556 1.46966 0
M  V30 4042 H 385.217 -1.92446 3.7489 0
M  V30 4043 H 383.892 -1.98788 2.5547 0
M  V30 4044 H 382.799 0.00276252 3.741 0
M  V30 4045 H 384.132 -0.0160534 4.92197 0
M  V30 4046 N 385.784 -1.5574 0.241426 0
M  V30 4047 C 387.009 -2.0366 -0.392111 0
M  V30 4048 C 387.434 -1.11969 -1.51144 0
M  V30 4049 O 386.792 -0.111594 -1.80956 0
M  V30 4050 C 386.84 -3.49638 -0.882371 0
M  V30 4051 O 385.944 -3.6108 -1.99235 0
M  V30 4052 H 385.285 -0.658379 -0.0862122 0
M  V30 4053 H 387.815 -2.01302 0.365881 0
M  V30 4054 H 387.825 -3.90351 -1.18702 0
M  V30 4055 H 386.5 -4.15852 -0.0632361 0
M  V30 4056 H 385.077 -3.32262 -1.69282 0
M  V30 4057 N 387.262 0.0317525 -1.57568 0
M  V30 4058 C 388.511 0.722131 -1.8833 0
M  V30 4059 C 388.824 1.76664 -0.839587 0
M  V30 4060 O 390.03 2.50942 -1.03635 0
M  V30 4061 C 388.486 1.33544 -3.34207 0
M  V30 4062 C 388.094 0.327415 -4.46802 0
M  V30 4063 C 389.838 2.00585 -3.7412 0
M  V30 4064 C 387.745 0.948915 -5.83738 0
M  V30 4065 H 386.675 0.273466 -0.702661 0
M  V30 4066 H 389.326 -0.0235811 -1.83485 0
M  V30 4067 H 387.708 2.13077 -3.33788 0
M  V30 4068 H 388.882 -0.441006 -4.58685 0
M  V30 4069 H 387.197 -0.240758 -4.15703 0
M  V30 4070 H 389.794 2.47932 -4.73744 0
M  V30 4071 H 390.137 2.82285 -3.05975 0
M  V30 4072 H 390.67 1.27831 -3.76702 0
M  V30 4073 H 387.409 0.171387 -6.55276 0
M  V30 4074 H 386.929 1.68724 -5.7558 0
M  V30 4075 H 388.608 1.45705 -6.3038 0
M  V30 4076 N 388.74 1.54641 0.303973 0
M  V30 4077 C 389.67 1.88386 1.3796 0
M  V30 4078 C 390.651 0.742485 1.5304 0
M  V30 4079 O 391.836 0.997959 1.66597 0
M  V30 4080 C 388.966 2.12854 2.74427 0
M  V30 4081 C 387.92 3.28702 2.74115 0
M  V30 4082 C 387.246 3.38582 4.13844 0
M  V30 4083 C 388.546 4.65881 2.3612 0
M  V30 4084 H 390.24 2.78474 1.09966 0
M  V30 4085 H 387.786 1.33988 0.527556 0
M  V30 4086 H 389.739 2.35047 3.49758 0
M  V30 4087 H 388.463 1.19535 3.03939 0
M  V30 4088 H 387.122 3.06428 2.0124 0
M  V30 4089 H 386.77 2.42784 4.40528 0
M  V30 4090 H 386.47 4.16453 4.14537 0
M  V30 4091 H 387.994 3.63031 4.90959 0
M  V30 4092 H 389.408 4.87823 3.01167 0
M  V30 4093 H 387.805 5.46444 2.48031 0
M  V30 4094 H 388.875 4.66799 1.3125 0
M  V30 4095 N 390.218 -0.567019 1.47046 0
M  V30 4096 C 391.165 -1.67489 1.58796 0
M  V30 4097 C 392.135 -1.60399 0.43144 0
M  V30 4098 O 393.32 -1.79378 0.650233 0
M  V30 4099 C 390.46 -3.05821 1.59899 0
M  V30 4100 C 389.573 -3.2342 2.86397 0
M  V30 4101 C 388.708 -4.52093 2.789 0
M  V30 4102 C 387.747 -4.6309 4.00267 0
M  V30 4103 N 386.884 -5.83106 3.91064 0
M  V30 4104 H 391.724 -1.56785 2.53422 0
M  V30 4105 H 389.261 -0.763896 1.2571 0
M  V30 4106 H 391.219 -3.8591 1.58522 0
M  V30 4107 H 389.849 -3.15384 0.687929 0
M  V30 4108 H 388.901 -2.3683 2.97684 0
M  V30 4109 H 390.213 -3.27412 3.76301 0
M  V30 4110 H 389.367 -5.4043 2.75718 0
M  V30 4111 H 388.106 -4.50565 1.86662 0
M  V30 4112 H 387.111 -3.73168 4.03765 0
M  V30 4113 H 388.336 -4.66386 4.93621 0
M  V30 4114 H 386.282 -5.82546 3.01623 0
M  V30 4115 H 386.199 -5.88434 4.74638 0
M  V30 4116 H 387.467 -6.73831 3.91882 0
M  V30 4117 N 391.696 -1.35014 -0.812953 0
M  V30 4118 C 392.644 -1.27435 -1.94585 0
M  V30 4119 C 393.638 -0.170494 -1.6854 0
M  V30 4120 O 394.844 -0.336085 -1.76835 0
M  V30 4121 H 391.219 -0.396144 -0.639198 0
M  V30 4122 H 393.19 -2.23158 -1.98098 0
M  V30 4123 C 391.939 -1.05677 -3.31252 0
M  V30 4124 H 391.262 -1.89853 -3.51846 0
M  V30 4125 H 392.702 -1.04413 -4.10943 0
M  V30 4126 C 391.161 0.239615 -3.36047 0
M  V30 4127 O 391.691 1.23759 -3.8216 0
M  V30 4128 N 389.897 0.276186 -2.89285 0
M  V30 4129 H 389.444 -0.53653 -2.51951 0
M  V30 4130 H 389.402 1.14332 -2.92875 0
M  V30 4131 N 393.175 1.03435 -1.18907 0
M  V30 4132 C 394.105 2.13503 -0.945448 0
M  V30 4133 C 395.086 1.69682 0.119189 0
M  V30 4134 O 396.271 1.94169 -0.034707 0
M  V30 4135 C 393.401 3.44004 -0.477316 0
M  V30 4136 C 392.355 4.0148 -1.48316 0
M  V30 4137 C 391.681 5.27537 -0.872311 0
M  V30 4138 C 392.981 4.36921 -2.86177 0
M  V30 4139 H 394.675 2.34141 -1.86597 0
M  V30 4140 H 392.221 1.12523 -0.898584 0
M  V30 4141 H 394.174 4.20372 -0.294204 0
M  V30 4142 H 392.898 3.23072 0.478786 0
M  V30 4143 H 391.557 3.27201 -1.65332 0
M  V30 4144 H 391.205 5.02917 0.0911752 0
M  V30 4145 H 390.905 5.66954 -1.54393 0
M  V30 4146 H 392.429 6.06576 -0.699871 0
M  V30 4147 H 393.843 5.04248 -2.72776 0
M  V30 4148 H 392.24 4.87405 -3.50081 0
M  V30 4149 H 393.31 3.46466 -3.39248 0
M  V30 4150 N 394.653 0.992116 1.22453 0
M  V30 4151 C 396.069 0.702713 1.43297 0
M  V30 4152 C 396.269 -0.726909 1.87932 0
M  V30 4153 O 395.325 -1.49792 2.0327 0
M  V30 4154 C 396.638 1.70762 2.47509 0
M  V30 4155 C 398.186 1.72298 2.61309 0
M  V30 4156 C 398.661 2.71649 3.68742 0
M  V30 4157 N 400.152 2.70239 3.76199 0
M  V30 4158 C 400.887 3.43778 4.58917 0
M  V30 4159 N 400.383 4.26914 5.45633 0
M  V30 4160 N 402.176 3.32487 4.5322 0
M  V30 4161 H 394.327 1.91543 0.917871 0
M  V30 4162 H 396.59 0.826031 0.465162 0
M  V30 4163 H 396.296 2.73059 2.21657 0
M  V30 4164 H 396.17 1.49985 3.46099 0
M  V30 4165 H 398.557 0.706989 2.86506 0
M  V30 4166 H 398.638 1.97143 1.62997 0
M  V30 4167 H 398.282 3.73397 3.44292 0
M  V30 4168 H 398.212 2.44074 4.66622 0
M  V30 4169 H 400.703 2.09912 3.14237 0
M  V30 4170 H 401.016 4.79855 6.05771 0
M  V30 4171 H 399.361 4.31002 5.45218 0
M  V30 4172 H 402.552 2.6698 3.84499 0
M  V30 4173 H 402.725 3.90058 5.17454 0
M  V30 4174 N 396.131 -1.37776 0.765217 0
M  V30 4175 C 397.547 -1.53297 0.444108 0
M  V30 4176 C 397.747 -1.72515 -1.04119 0
M  V30 4177 O 396.803 -1.74278 -1.82711 0
M  V30 4178 C 398.116 -2.73328 1.25349 0
M  V30 4179 C 399.664 -2.87185 1.24473 0
M  V30 4180 C 400.139 -4.10191 2.03733 0
M  V30 4181 N 401.63 -4.17291 2.01053 0
M  V30 4182 C 402.365 -5.11488 2.59166 0
M  V30 4183 N 401.861 -6.11285 3.26041 0
M  V30 4184 N 403.654 -5.03924 2.49032 0
M  V30 4185 H 395.805 -1.23552 1.72768 0
M  V30 4186 H 398.068 -0.601103 0.733062 0
M  V30 4187 H 397.774 -2.6557 2.30577 0
M  V30 4188 H 397.648 -3.66834 0.87823 0
M  V30 4189 H 400.035 -2.94418 0.20047 0
M  V30 4190 H 400.116 -1.94657 1.65959 0
M  V30 4191 H 399.76 -4.0372 3.08176 0
M  V30 4192 H 399.69 -5.01821 1.59633 0
M  V30 4193 H 402.181 -3.45825 1.5236 0
M  V30 4194 H 402.494 -6.79678 3.67774 0
M  V30 4195 H 400.839 -6.11583 3.30138 0
M  V30 4196 H 404.03 -4.24902 1.96407 0
M  V30 4197 H 404.203 -5.77152 2.94617 0
M  V30 4198 N 397.609 -0.515225 -1.4894 0
M  V30 4199 C 398.855 0.0242508 -2.02785 0
M  V30 4200 C 399.188 1.35323 -1.39289 0
M  V30 4201 O 398.463 1.87041 -0.533469 0
M  V30 4202 C 398.746 0.16184 -3.59736 0
M  V30 4203 C 398.599 -1.19127 -4.33738 0
M  V30 4204 C 399.918 0.895719 -4.30888 0
M  V30 4205 H 397.037 0.00733914 -0.736963 0
M  V30 4206 H 399.679 -0.669395 -1.77818 0
M  V30 4207 H 397.829 0.752624 -3.8114 0
M  V30 4208 H 399.501 -1.82202 -4.23792 0
M  V30 4209 H 397.744 -1.77695 -3.95736 0
M  V30 4210 H 398.415 -1.04815 -5.41957 0
M  V30 4211 H 400.891 0.394528 -4.14225 0
M  V30 4212 H 399.767 0.960859 -5.40425 0
M  V30 4213 H 400.028 1.9427 -3.97129 0
M  V30 4214 N 399.087 1.5561 -0.249682 0
M  V30 4215 C 400.037 2.18157 0.662673 0
M  V30 4216 C 401.021 1.1383 1.13717 0
M  V30 4217 O 402.213 1.39731 1.08648 0
M  V30 4218 C 399.342 2.88672 1.85805 0
M  V30 4219 C 398.428 4.00258 1.40193 0
M  V30 4220 N 398.819 5.01473 0.660213 0
M  V30 4221 C 397.117 4.12864 1.68698 0
M  V30 4222 C 397.818 5.80155 0.423695 0
M  V30 4223 N 396.794 5.34533 0.988721 0
M  V30 4224 H 400.596 2.93769 0.0878688 0
M  V30 4225 H 398.11 1.62316 -0.0521183 0
M  V30 4226 H 400.107 3.31912 2.5227 0
M  V30 4227 H 398.767 2.14564 2.43705 0
M  V30 4228 H 399.778 5.16971 0.310047 0
M  V30 4229 H 396.455 3.4993 2.27717 0
M  V30 4230 H 397.845 6.71688 -0.168616 0
M  V30 4231 N 400.565 -0.0233959 1.57583 0
M  V30 4232 C 401.976 -0.56927 1.77809 0
M  V30 4233 C 402.327 -1.75284 0.881472 0
M  V30 4234 O 401.452 -2.1626 0.0777805 0
M  V30 4235 C 402.047 -1.03949 3.22459 0
M  V30 4236 C 400.606 -1.53084 3.43864 0
M  V30 4237 C 399.753 -0.471454 2.73263 0
M  V30 4238 H 402.704 0.202825 1.57399 0
M  V30 4239 H 402.725 -1.90661 3.29285 0
M  V30 4240 H 402.237 -0.177865 3.87692 0
M  V30 4241 H 400.338 -2.41414 2.83814 0
M  V30 4242 H 400.451 -1.57443 4.52491 0
M  V30 4243 H 398.815 -0.927788 2.37201 0
M  V30 4244 H 399.598 0.380808 3.41181 0
M  V30 4245 N 402.043 -1.548 -0.295768 0
M  V30 4246 C 403.289 -1.74588 -1.03184 0
M  V30 4247 C 403.622 -0.532962 -1.86744 0
M  V30 4248 O 402.897 0.469872 -1.88739 0
M  V30 4249 C 403.18 -3.03791 -1.93347 0
M  V30 4250 C 403.033 -4.35392 -1.12933 0
M  V30 4251 C 404.352 -3.28892 -2.92435 0
M  V30 4252 H 401.471 -0.635221 -0.373715 0
M  V30 4253 H 404.113 -1.87519 -0.30606 0
M  V30 4254 H 402.263 -2.92898 -2.55232 0
M  V30 4255 H 403.935 -4.58211 -0.532943 0
M  V30 4256 H 402.178 -4.31642 -0.432168 0
M  V30 4257 H 402.849 -5.22074 -1.79284 0
M  V30 4258 H 405.325 -3.39429 -2.4068 0
M  V30 4259 H 404.201 -4.20603 -3.52682 0
M  V30 4260 H 404.462 -2.47437 -3.6637 0
M  V30 4261 N 403.521 0.559213 -1.47345 0
M  V30 4262 C 404.746 1.34676 -1.57725 0
M  V30 4263 C 405.171 1.86723 -0.227164 0
M  V30 4264 O 404.529 1.6286 0.796642 0
M  V30 4265 C 404.577 2.49399 -2.60447 0
M  V30 4266 O 403.681 3.51567 -2.15578 0
M  V30 4267 H 403.022 0.400115 -0.52991 0
M  V30 4268 H 405.552 0.676009 -1.93109 0
M  V30 4269 H 405.562 2.95996 -2.80803 0
M  V30 4270 H 404.237 2.10873 -3.58477 0
M  V30 4271 H 402.814 3.11289 -2.05313 0
M  V30 4272 N 404.999 1.35443 0.805782 0
M  V30 4273 C 406.227 1.31878 1.59423 0
M  V30 4274 C 406.642 -0.103562 1.88516 0
M  V30 4275 O 405.999 -1.05575 1.48863 0
M  V30 4276 C 406.05 2.12426 2.92502 0
M  V30 4277 O 405.771 3.49115 2.6467 0
M  V30 4278 C 407.272 2.16455 3.86862 0
M  V30 4279 H 404.492 0.453002 0.495005 0
M  V30 4280 H 407.036 1.78309 1.00131 0
M  V30 4281 H 405.191 1.69593 3.48306 0
M  V30 4282 H 405.605 3.90957 3.49647 0
M  V30 4283 H 407.079 2.77204 4.77349 0
M  V30 4284 H 407.556 1.16352 4.23508 0
M  V30 4285 H 408.162 2.59453 3.36993 0
M  V30 4286 N 406.477 -1.02803 1.19454 0
M  V30 4287 C 407.407 -2.12999 0.956758 0
M  V30 4288 C 408.388 -1.69743 -0.110188 0
M  V30 4289 O 409.573 -1.94148 0.0450038 0
M  V30 4290 C 406.703 -3.43746 0.495553 0
M  V30 4291 C 405.657 -4.00688 1.50443 0
M  V30 4292 C 404.983 -5.27067 0.900275 0
M  V30 4293 C 406.283 -4.35397 2.8849 0
M  V30 4294 H 407.977 -2.33148 1.87836 0
M  V30 4295 H 405.523 -1.12045 0.904539 0
M  V30 4296 H 407.476 -4.2021 0.316493 0
M  V30 4297 H 406.2 -3.23321 -0.461646 0
M  V30 4298 H 404.859 -3.2632 1.67065 0
M  V30 4299 H 404.507 -5.02959 -0.064503 0
M  V30 4300 H 404.207 -5.66127 1.57397 0
M  V30 4301 H 405.731 -6.06196 0.73203 0
M  V30 4302 H 407.145 -5.02795 2.75446 0
M  V30 4303 H 405.542 -4.85541 3.52661 0
M  V30 4304 H 406.612 -3.44662 3.41081 0
M  V30 4305 N 407.956 -0.998596 -1.21925 0
M  V30 4306 C 409.181 -0.696015 -1.95372 0
M  V30 4307 C 409.606 0.733826 -1.73195 0
M  V30 4308 O 408.964 1.50242 -1.01474 0
M  V30 4309 C 409.012 -1.01466 -3.4603 0
M  V30 4310 O 408.116 -0.116415 -4.12236 0
M  V30 4311 H 407.457 -0.259938 -0.611006 0
M  V30 4312 H 409.987 -1.33711 -1.54863 0
M  V30 4313 H 409.997 -0.958855 -3.96573 0
M  V30 4314 H 408.672 -2.05653 -3.61497 0
M  V30 4315 H 407.249 -0.228193 -3.72201 0
M  V30 4316 N 409.434 1.37368 -0.772513 0
M  V30 4317 C 410.381 2.30262 -0.157488 0
M  V30 4318 C 411.351 1.51137 0.688965 0
M  V30 4319 O 412.536 1.79704 0.641168 0
M  V30 4320 C 409.676 3.37611 0.715045 0
M  V30 4321 C 408.789 4.31746 -0.148098 0
M  V30 4322 C 407.924 5.26171 0.729213 0
M  V30 4323 C 406.963 6.11948 -0.136418 0
M  V30 4324 N 406.1 6.98613 0.698914 0
M  V30 4325 H 410.94 2.82277 -0.955179 0
M  V30 4326 H 408.477 1.38957 -0.482631 0
M  V30 4327 H 410.435 3.98479 1.23575 0
M  V30 4328 H 409.065 2.86959 1.47833 0
M  V30 4329 H 408.117 3.72178 -0.786613 0
M  V30 4330 H 409.429 4.92084 -0.81579 0
M  V30 4331 H 408.583 5.92247 1.31637 0
M  V30 4332 H 407.322 4.66246 1.43059 0
M  V30 4333 H 406.327 5.4485 -0.736102 0
M  V30 4334 H 407.552 6.73945 -0.835134 0
M  V30 4335 H 405.498 6.41215 1.38489 0
M  V30 4336 H 405.415 7.55948 0.0885358 0
M  V30 4337 H 406.683 7.69077 1.27044 0
M  V30 4338 N 410.912 0.523116 1.48665 0
M  V30 4339 C 412.16 -0.0134497 2.02096 0
M  V30 4340 C 412.481 -1.35418 1.40311 0
M  V30 4341 O 411.751 -1.87543 0.566074 0
M  V30 4342 H 410.331 -0.00795915 0.746958 0
M  V30 4343 H 412.993 0.685388 1.82451 0
M  V30 4344 H 412.089 -0.126849 3.11842 0
M  V30 4345 N 412.39 -1.55475 0.257931 0
M  V30 4346 C 413.32 -2.24815 -0.630912 0
M  V30 4347 C 414.301 -1.23224 -1.17259 0
M  V30 4348 O 415.486 -1.51904 -1.20991 0
M  V30 4349 C 412.616 -2.95609 -1.82298 0
M  V30 4350 C 411.57 -4.03982 -1.41359 0
M  V30 4351 C 410.896 -4.6226 -2.68738 0
M  V30 4352 C 412.196 -5.19109 -0.57648 0
M  V30 4353 H 413.89 -2.99354 -0.0526878 0
M  V30 4354 H 411.436 -1.4398 -0.023901 0
M  V30 4355 H 413.389 -3.42822 -2.45054 0
M  V30 4356 H 412.113 -2.18577 -2.42676 0
M  V30 4357 H 410.772 -3.57555 -0.809324 0
M  V30 4358 H 410.42 -3.81915 -3.27338 0
M  V30 4359 H 410.12 -5.35424 -2.42065 0
M  V30 4360 H 411.644 -5.12212 -3.32372 0
M  V30 4361 H 413.058 -5.62479 -1.10861 0
M  V30 4362 H 411.455 -5.98729 -0.405351 0
M  V30 4363 H 412.525 -4.83174 0.408776 0
M  V30 4364 N 413.868 0.0150385 -1.57593 0
M  V30 4365 C 415.098 0.713359 -1.93894 0
M  V30 4366 C 415.506 1.68663 -0.857289 0
M  V30 4367 O 414.849 1.82876 0.173788 0
M  V30 4368 C 414.911 1.51348 -3.26089 0
M  V30 4369 C 414.575 0.703451 -4.51554 0
M  V30 4370 C 415.572 -0.00237924 -5.199 0
M  V30 4371 C 413.257 0.653854 -4.98026 0
M  V30 4372 C 415.251 -0.746955 -6.33008 0
M  V30 4373 C 412.938 -0.0944578 -6.11027 0
M  V30 4374 C 413.936 -0.793609 -6.78374 0
M  V30 4375 O 413.624 -1.52974 -7.89211 0
M  V30 4376 H 413.356 0.204637 -0.644282 0
M  V30 4377 H 415.91 -0.0276411 -2.05381 0
M  V30 4378 H 414.14 2.29862 -3.10967 0
M  V30 4379 H 415.829 2.09572 -3.47612 0
M  V30 4380 H 416.595 0.0268803 -4.84993 0
M  V30 4381 H 412.474 1.18756 -4.45441 0
M  V30 4382 H 416.018 -1.2932 -6.85509 0
M  V30 4383 H 411.915 -0.125591 -6.45378 0
M  V30 4384 H 412.683 -1.44488 -8.05646 0
M  V30 4385 N 415.346 1.54954 0.287554 0
M  V30 4386 C 416.594 1.74528 1.01904 0
M  V30 4387 C 416.915 0.541349 1.87335 0
M  V30 4388 O 416.185 -0.444108 1.908 0
M  V30 4389 H 414.765 0.643576 0.379235 0
M  V30 4390 H 417.427 1.92333 0.315294 0
M  V30 4391 H 416.523 2.64015 1.6644 0
M  V30 4392 N 416.824 -0.551391 1.4764 0
M  V30 4393 C 418.073 -1.30467 1.53822 0
M  V30 4394 C 418.386 -1.94495 0.207661 0
M  V30 4395 O 419.592 -2.71099 0.147533 0
M  V30 4396 C 418.048 -2.36616 2.71184 0
M  V30 4397 C 417.656 -1.78754 4.10793 0
M  V30 4398 C 419.4 -3.13088 2.86663 0
M  V30 4399 C 417.307 -2.82717 5.19447 0
M  V30 4400 H 416.237 -0.490584 0.572576 0
M  V30 4401 H 418.888 -0.58494 1.73927 0
M  V30 4402 H 417.27 -3.11529 2.4447 0
M  V30 4403 H 418.444 -1.10173 4.47435 0
M  V30 4404 H 416.759 -1.14846 4.00249 0
M  V30 4405 H 419.356 -3.90736 3.65007 0
M  V30 4406 H 419.699 -3.67635 1.95321 0
M  V30 4407 H 420.232 -2.45288 3.13175 0
M  V30 4408 H 416.971 -2.33018 6.12685 0
M  V30 4409 H 416.491 -3.4969 4.87316 0
M  V30 4410 H 418.17 -3.46102 5.46646 0
M  V30 4411 N 418.302 -1.35869 -0.798587 0
M  V30 4412 C 419.25 -1.29491 -1.93222 0
M  V30 4413 C 420.244 -0.18836 -1.6835 0
M  V30 4414 O 421.45 -0.354822 -1.76468 0
M  V30 4415 H 417.825 -0.402901 -0.63496 0
M  V30 4416 H 419.796 -2.25247 -1.9572 0
M  V30 4417 C 418.545 -1.09184 -3.30112 0
M  V30 4418 H 417.868 -1.93574 -3.49813 0
M  V30 4419 H 419.308 -1.08766 -4.09812 0
M  V30 4420 C 417.767 0.203959 -3.36282 0
M  V30 4421 O 418.297 1.19699 -3.83451 0
M  V30 4422 N 416.503 0.245488 -2.89561 0
M  V30 4423 H 416.05 -0.563223 -2.51367 0
M  V30 4424 H 416.008 1.11219 -2.94071 0
M  V30 4425 N 419.78 1.02168 -1.19998 0
M  V30 4426 C 420.69 2.14069 -0.959774 0
M  V30 4427 C 421.706 1.73804 0.082655 0
M  V30 4428 O 422.882 2.01133 -0.103633 0
M  V30 4429 C 419.947 3.42936 -0.509459 0
M  V30 4430 C 419.008 3.97474 -1.62213 0
M  V30 4431 C 418.241 5.2019 -1.19321 0
M  V30 4432 O 418.464 5.70369 -0.0597726 0
M  V30 4433 O 417.398 5.67749 -1.99863 0
M  V30 4434 H 421.224 2.37199 -1.89658 0
M  V30 4435 H 418.809 1.12469 -0.983411 0
M  V30 4436 H 420.691 4.20551 -0.267322 0
M  V30 4437 H 419.366 3.21234 0.398821 0
M  V30 4438 H 418.273 3.21161 -1.9185 0
M  V30 4439 H 419.606 4.23555 -2.50723 0
M  V30 4440 N 421.258 1.00505 1.21394 0
M  V30 4441 C 422.535 0.603277 1.86064 0
M  V30 4442 C 422.915 -0.919095 1.90042 0
M  V30 4443 O 422.263 -1.80607 1.39977 0
M  V30 4444 C 422.473 1.23772 3.26315 0
M  V30 4445 C 423.821 1.34586 4.02705 0
M  V30 4446 O 424.845 1.19304 3.35626 0
M  V30 4447 O 423.704 1.59169 5.22807 0
M  V30 4448 H 420.798 0.206634 0.800769 0
M  V30 4449 H 423.344 1.1017 1.29076 0
M  V30 4450 H 422.116 2.27848 3.18121 0
M  V30 4451 H 421.739 0.725648 3.90922 0
M  V30 4452 N 422.737 -1.36956 0.779787 0
M  V30 4453 C 423.986 -1.98738 0.344405 0
M  V30 4454 C 424.299 -1.62596 -1.08728 0
M  V30 4455 O 425.505 -2.1754 -1.62445 0
M  V30 4456 C 423.961 -3.5544 0.564829 0
M  V30 4457 C 423.569 -4.00514 2.0073 0
M  V30 4458 C 425.313 -4.24059 0.193471 0
M  V30 4459 C 423.22 -5.49957 2.17489 0
M  V30 4460 H 422.15 -0.743561 0.12503 0
M  V30 4461 H 424.801 -1.56381 0.960057 0
M  V30 4462 H 423.183 -3.95817 -0.120397 0
M  V30 4463 H 424.357 -3.71362 2.72814 0
M  V30 4464 H 422.672 -3.44703 2.336 0
M  V30 4465 H 425.269 -5.33874 0.297097 0
M  V30 4466 H 425.612 -4.07378 -0.857263 0
M  V30 4467 H 426.145 -3.89012 0.831556 0
M  V30 4468 H 422.884 -5.71574 3.2091 0
M  V30 4469 H 422.404 -5.80767 1.49899 0
M  V30 4470 H 424.083 -6.16043 1.97738 0
M  V30 4471 N 424.215 -0.530993 -1.48385 0
M  V30 4472 C 425.462 0.0027373 -2.025 0
M  V30 4473 C 425.79 1.34186 -1.40799 0
M  V30 4474 O 425.045 1.88 -0.543544 0
M  V30 4475 C 425.344 0.172742 -3.56982 0
M  V30 4476 C 425.01 -1.09215 -4.37473 0
M  V30 4477 C 423.672 -1.43881 -4.59186 0
M  V30 4478 C 426.024 -1.93153 -4.84088 0
M  V30 4479 C 423.352 -2.62381 -5.2476 0
M  V30 4480 C 425.704 -3.10833 -5.50968 0
M  V30 4481 C 424.368 -3.45843 -5.70919 0
M  V30 4482 H 423.638 0.00100165 -0.740999 0
M  V30 4483 H 426.285 -0.697219 -1.78357 0
M  V30 4484 H 424.59 0.955473 -3.79971 0
M  V30 4485 H 426.287 0.600642 -3.96476 0
M  V30 4486 H 422.877 -0.812177 -4.20834 0
M  V30 4487 H 427.061 -1.67683 -4.67115 0
M  V30 4488 H 422.317 -2.89707 -5.38405 0
M  V30 4489 H 426.491 -3.7618 -5.86056 0
M  V30 4490 H 424.118 -4.37764 -6.21503 0
M  V30 4491 N 425.693 1.55336 -0.266172 0
M  V30 4492 C 426.623 2.25146 0.618981 0
M  V30 4493 C 427.604 1.23845 1.16604 0
M  V30 4494 O 428.789 1.52544 1.20183 0
M  V30 4495 C 425.919 2.96572 1.80728 0
M  V30 4496 C 424.873 4.04726 1.39215 0
M  V30 4497 C 424.199 4.63678 2.66283 0
M  V30 4498 C 425.499 5.19407 0.548942 0
M  V30 4499 H 427.193 2.99377 0.0368116 0
M  V30 4500 H 424.739 1.43991 0.0162651 0
M  V30 4501 H 426.692 3.44116 2.43232 0
M  V30 4502 H 425.416 2.19861 2.41514 0
M  V30 4503 H 424.075 3.57979 0.790351 0
M  V30 4504 H 423.723 3.83646 3.25308 0
M  V30 4505 H 423.423 5.367 2.39222 0
M  V30 4506 H 424.947 5.13967 3.29651 0
M  V30 4507 H 426.361 5.63059 1.07876 0
M  V30 4508 H 424.758 5.98936 0.373593 0
M  V30 4509 H 425.828 4.8295 -0.434394 0
M  V30 4510 N 427.171 -0.0066808 1.57599 0
M  V30 4511 C 428.396 -0.707738 1.94951 0
M  V30 4512 C 428.821 -1.66882 0.867868 0
M  V30 4513 O 428.179 -1.80457 -0.17458 0
M  V30 4514 C 428.227 -1.42162 3.31394 0
M  V30 4515 O 427.331 -2.53578 3.25226 0
M  V30 4516 H 426.672 -0.188752 0.636607 0
M  V30 4517 H 429.202 0.0445193 2.04552 0
M  V30 4518 H 429.212 -1.78655 3.66806 0
M  V30 4519 H 427.887 -0.716903 4.09675 0
M  V30 4520 H 426.464 -2.19463 3.01481 0
M  V30 4521 N 428.649 -1.55105 -0.279332 0
M  V30 4522 C 429.895 -1.75672 -1.01327 0
M  V30 4523 C 430.228 -0.552739 -1.86168 0
M  V30 4524 O 429.503 0.449827 -1.89227 0
M  V30 4525 C 429.786 -3.05825 -1.90114 0
M  V30 4526 C 429.639 -4.36565 -1.08309 0
M  V30 4527 C 430.958 -3.31975 -2.8893 0
M  V30 4528 H 428.077 -0.639149 -0.366957 0
M  V30 4529 H 430.719 -1.87833 -0.286154 0
M  V30 4530 H 428.869 -2.95588 -2.52111 0
M  V30 4531 H 430.541 -4.58751 -0.484314 0
M  V30 4532 H 428.784 -4.32076 -0.386362 0
M  V30 4533 H 429.455 -5.23946 -1.73737 0
M  V30 4534 H 431.931 -3.41963 -2.37067 0
M  V30 4535 H 430.807 -4.2432 -3.48201 0
M  V30 4536 H 431.068 -2.51309 -3.63725 0
M  V30 4537 N 430.127 0.543554 -1.4793 0
M  V30 4538 C 431.538 1.12561 -1.48953 0
M  V30 4539 C 431.889 1.94578 -0.251754 0
M  V30 4540 O 431.014 2.0665 0.642255 0
M  V30 4541 C 431.609 2.04801 -2.69892 0
M  V30 4542 C 430.168 2.58251 -2.73831 0
M  V30 4543 C 429.315 1.34918 -2.42265 0
M  V30 4544 H 432.266 0.32947 -1.55242 0
M  V30 4545 H 432.287 2.88886 -2.47639 0
M  V30 4546 H 431.799 1.4508 -3.59963 0
M  V30 4547 H 429.9 3.21732 -1.87934 0
M  V30 4548 H 430.013 2.98312 -3.74895 0
M  V30 4549 H 428.377 1.66046 -1.93134 0
M  V30 4550 H 429.16 0.769693 -3.3456 0
M  V30 4551 N 431.605 1.3629 0.791371 0
M  V30 4552 C 432.845 1.31792 1.56238 0
M  V30 4553 C 433.209 -0.102237 1.91728 0
M  V30 4554 O 434.41 -0.271759 2.67423 0
M  V30 4555 C 432.681 2.21303 2.80642 0
M  V30 4556 S 434.24 2.34468 3.70904 0
M  V30 4557 H 431.058 0.468141 0.535131 0
M  V30 4558 H 433.66 1.71841 0.932246 0
M  V30 4559 H 432.364 3.23439 2.52617 0
M  V30 4560 H 431.895 1.82266 3.4863 0
M  V30 4561 H 433.91 1.54074 4.71673 0
M  V30 4562 N 433.083 -1.0153 1.20538 0
M  V30 4563 C 434.332 -1.74558 1.01057 0
M  V30 4564 C 434.645 -1.90168 -0.457756 0
M  V30 4565 O 435.851 -2.60301 -0.771722 0
M  V30 4566 C 434.307 -3.13963 1.75941 0
M  V30 4567 C 433.915 -3.06361 3.26875 0
M  V30 4568 C 435.659 -3.91191 1.64832 0
M  V30 4569 C 433.566 -4.40782 3.94291 0
M  V30 4570 H 432.496 -0.654417 0.374505 0
M  V30 4571 H 435.147 -1.13521 1.44171 0
M  V30 4572 H 433.529 -3.75549 1.25614 0
M  V30 4573 H 434.703 -2.54074 3.84425 0
M  V30 4574 H 433.018 -2.42625 3.38411 0
M  V30 4575 H 435.615 -4.90644 2.12539 0
M  V30 4576 H 435.958 -4.11884 0.604745 0
M  V30 4577 H 436.491 -3.36236 2.12579 0
M  V30 4578 H 433.23 -4.25292 4.98805 0
M  V30 4579 H 432.75 -4.9307 3.41529 0
M  V30 4580 H 434.429 -5.09621 3.98617 0
M  V30 4581 N 434.561 -1.01147 -1.20859 0
M  V30 4582 C 435.491 -0.597663 -2.25722 0
M  V30 4583 C 436.472 0.384744 -1.65692 0
M  V30 4584 O 437.657 0.271303 -1.92296 0
M  V30 4585 C 434.787 0.0700149 -3.47229 0
M  V30 4586 C 433.741 -0.832843 -4.19819 0
M  V30 4587 C 433.067 -0.0312202 -5.34691 0
M  V30 4588 C 434.367 -2.1385 -4.76514 0
M  V30 4589 H 436.061 -1.47423 -2.60589 0
M  V30 4590 H 433.607 -0.710301 -1.25263 0
M  V30 4591 H 435.56 0.37103 -4.19763 0
M  V30 4592 H 434.284 0.981259 -3.11511 0
M  V30 4593 H 432.943 -1.11778 -3.49144 0
M  V30 4594 H 432.591 0.881515 -4.95215 0
M  V30 4595 H 432.291 -0.632434 -5.84187 0
M  V30 4596 H 433.815 0.26346 -6.10031 0
M  V30 4597 H 435.229 -1.9002 -5.40893 0
M  V30 4598 H 433.626 -2.69012 -5.36426 0
M  V30 4599 H 434.696 -2.80495 -3.95538 0
M  V30 4600 N 436.039 1.36541 -0.78704 0
M  V30 4601 C 437.287 1.98911 -0.357633 0
M  V30 4602 C 437.608 1.62778 1.07371 0
M  V30 4603 O 436.878 0.900612 1.73971 0
M  V30 4604 H 435.458 0.735734 -0.129246 0
M  V30 4605 H 438.12 1.66776 -1.00855 0
M  V30 4606 H 437.216 3.08874 -0.447549 0
M  V30 4607 N 437.518 0.538854 1.48102 0
M  V30 4608 C 438.428 -0.222648 2.33541 0
M  V30 4609 C 439.444 -0.930225 1.47047 0
M  V30 4610 O 440.62 -0.903211 1.80011 0
M  V30 4611 C 437.685 -1.25064 3.23357 0
M  V30 4612 C 436.746 -0.552469 4.2573 0
M  V30 4613 C 435.979 -1.53149 5.11254 0
M  V30 4614 O 436.202 -2.76487 4.9891 0
M  V30 4615 O 435.136 -1.06602 5.92385 0
M  V30 4616 H 438.962 0.477707 2.99919 0
M  V30 4617 H 436.547 0.299669 1.46364 0
M  V30 4618 H 438.429 -1.8445 3.78888 0
M  V30 4619 H 437.104 -1.93325 2.59629 0
M  V30 4620 H 436.011 0.082114 3.7401 0
M  V30 4621 H 437.344 0.0883526 4.92121 0
M  V30 4622 N 438.996 -1.55193 0.274407 0
M  V30 4623 C 439.944 -2.23924 -0.629362 0
M  V30 4624 C 440.938 -1.23602 -1.1584 0
M  V30 4625 O 442.144 -1.41535 -1.11211 0
M  V30 4626 H 438.519 -0.718637 -0.221507 0
M  V30 4627 H 440.49 -2.98388 -0.0268322 0
M  V30 4628 C 439.239 -2.97329 -1.80252 0
M  V30 4629 H 438.562 -3.74313 -1.40462 0
M  V30 4630 H 440.002 -3.48743 -2.41152 0
M  V30 4631 C 438.461 -2.0276 -2.69054 0
M  V30 4632 O 438.991 -1.57836 -3.69392 0
M  V30 4633 N 437.197 -1.69275 -2.36208 0
M  V30 4634 H 436.744 -2.06004 -1.54661 0
M  V30 4635 H 436.702 -1.06271 -2.95895 0
M  V30 4636 N 440.474 -0.00167713 -1.576 0
M  V30 4637 C 441.722 0.681471 -1.90264 0
M  V30 4638 C 442.043 1.7422 -0.875924 0
M  V30 4639 O 441.313 1.95709 0.0864412 0
M  V30 4640 H 439.893 0.254696 -0.702239 0
M  V30 4641 H 442.555 -0.0429996 -1.94853 0
M  V30 4642 H 441.651 1.15166 -2.90075 0
M  V30 4643 N 441.952 1.55251 0.271103 0
M  V30 4644 C 443.201 1.75151 1.00025 0
M  V30 4645 C 443.514 0.561041 1.87381 0
M  V30 4646 O 444.72 0.642506 2.63788 0
M  V30 4647 C 443.176 3.09999 1.82835 0
M  V30 4648 C 442.784 4.3662 1.00336 0
M  V30 4649 C 444.528 3.39249 2.55168 0
M  V30 4650 C 442.435 5.62506 1.82595 0
M  V30 4651 H 441.365 0.652877 0.377183 0
M  V30 4652 H 444.016 1.81708 0.255843 0
M  V30 4653 H 442.398 2.97485 2.61378 0
M  V30 4654 H 443.572 4.60055 0.261959 0
M  V30 4655 H 441.887 4.14527 0.394486 0
M  V30 4656 H 444.484 4.3051 3.1712 0
M  V30 4657 H 444.827 2.59467 3.2555 0
M  V30 4658 H 445.36 3.52869 1.83653 0
M  V30 4659 H 442.099 6.45041 1.16631 0
M  V30 4660 H 441.619 5.43211 2.54327 0
M  V30 4661 H 443.298 6.00875 2.39913 0
M  V30 4662 N 443.43 -0.535701 1.48216 0
M  V30 4663 C 444.658 -1.31671 1.59594 0
M  V30 4664 C 445.073 -1.87083 0.254056 0
M  V30 4665 O 444.43 -1.66112 -0.755854 0
M  V30 4666 C 444.481 -2.47158 2.63809 0
M  V30 4667 O 444.202 -1.94032 3.92789 0
M  V30 4668 C 445.703 -3.39062 2.85573 0
M  V30 4669 H 442.923 -0.400623 0.538277 0
M  V30 4670 H 445.467 -0.646827 1.94001 0
M  V30 4671 H 443.622 -3.10043 2.32276 0
M  V30 4672 H 444.036 -2.69585 4.49916 0
M  V30 4673 H 445.51 -4.16459 3.62306 0
M  V30 4674 H 445.987 -3.93941 1.94184 0
M  V30 4675 H 446.593 -2.81975 3.18387 0
M  V30 4676 N 444.908 -1.36708 -0.784132 0
M  V30 4677 C 446.185 -1.21776 -1.53069 0
M  V30 4678 C 446.565 0.193876 -2.10208 0
M  V30 4679 O 445.913 1.20012 -1.94446 0
M  V30 4680 C 446.123 -2.30395 -2.62143 0
M  V30 4681 C 447.471 -2.67325 -3.29882 0
M  V30 4682 O 448.495 -2.29478 -2.7243 0
M  V30 4683 O 447.354 -3.32485 -4.33724 0
M  V30 4684 H 444.448 -0.474459 -0.677361 0
M  V30 4685 H 446.994 -1.48454 -0.82216 0
M  V30 4686 H 445.766 -3.2498 -2.17953 0
M  V30 4687 H 445.389 -2.05112 -3.40609 0
M  V30 4688 N 446.386 1.0089 -1.21074 0
M  V30 4689 C 447.316 2.1145 -0.990523 0
M  V30 4690 C 448.297 1.69897 0.0831699 0
M  V30 4691 O 449.482 1.94052 -0.0758853 0
M  V30 4692 C 446.612 3.42914 -0.550177 0
M  V30 4693 C 445.566 3.98244 -1.56799 0
M  V30 4694 C 444.892 5.25568 -0.984013 0
M  V30 4695 C 446.192 4.30752 -2.95381 0
M  V30 4696 H 447.886 2.3013 -1.91521 0
M  V30 4697 H 445.432 1.10592 -0.92225 0
M  V30 4698 H 447.385 4.19653 -0.383305 0
M  V30 4699 H 446.109 3.24014 0.41015 0
M  V30 4700 H 444.768 3.23621 -1.72236 0
M  V30 4701 H 444.416 5.02998 -0.0155216 0
M  V30 4702 H 444.116 5.63551 -1.66384 0
M  V30 4703 H 445.64 6.04955 -0.828378 0
M  V30 4704 H 447.054 4.98349 -2.8341 0
M  V30 4705 H 445.451 4.79869 -3.60341 0
M  V30 4706 H 446.521 3.39192 -3.46521 0
M  V30 4707 N 447.864 1.01787 1.20321 0
M  V30 4708 C 449.113 0.703249 1.89043 0
M  V30 4709 C 449.426 -0.770445 1.79787 0
M  V30 4710 O 450.632 -1.19767 2.43656 0
M  V30 4711 C 449.088 1.20749 3.3904 0
M  V30 4712 C 448.696 2.70817 3.56878 0
M  V30 4713 C 450.44 0.968352 4.13308 0
M  V30 4714 C 448.347 3.14716 5.00708 0
M  V30 4715 H 447.277 0.259354 0.707991 0
M  V30 4716 H 449.928 1.23072 1.36108 0
M  V30 4717 H 448.31 0.607989 3.91305 0
M  V30 4718 H 449.484 3.36327 3.14993 0
M  V30 4719 H 447.799 2.92888 2.95983 0
M  V30 4720 H 450.396 1.27173 5.19356 0
M  V30 4721 H 450.739 -0.095149 4.16191 0
M  V30 4722 H 451.272 1.53129 3.67146 0
M  V30 4723 H 448.011 4.20347 5.02979 0
M  V30 4724 H 447.531 2.53927 5.43398 0
M  V30 4725 H 449.21 3.07426 5.69296 0
M  V30 4726 N 449.342 -1.36122 0.79427 0
M  V30 4727 C 450.289 -2.29982 0.194101 0
M  V30 4728 C 451.259 -1.52214 -0.664833 0
M  V30 4729 O 452.444 -1.80702 -0.612498 0
M  V30 4730 C 449.584 -3.38706 -0.661244 0
M  V30 4731 C 448.697 -4.31456 0.216766 0
M  V30 4732 C 447.832 -5.27265 -0.645411 0
M  V30 4733 C 446.871 -6.11653 0.233756 0
M  V30 4734 N 446.008 -6.99636 -0.587682 0
M  V30 4735 H 450.848 -2.80722 0.999965 0
M  V30 4736 H 448.385 -1.38172 0.504677 0
M  V30 4737 H 450.343 -4.00394 -1.17219 0
M  V30 4738 H 448.973 -2.89274 -1.43249 0
M  V30 4739 H 448.025 -3.7088 0.845724 0
M  V30 4740 H 449.337 -4.90724 0.893973 0
M  V30 4741 H 448.491 -5.94266 -1.22198 0
M  V30 4742 H 447.23 -4.68463 -1.35623 0
M  V30 4743 H 446.235 -5.4361 0.82269 0
M  V30 4744 H 447.46 -6.72531 0.942247 0
M  V30 4745 H 445.406 -6.43337 -1.2827 0
M  V30 4746 H 445.323 -7.55993 0.0317402 0
M  V30 4747 H 446.591 -7.71001 -1.14792 0
M  V30 4748 N 450.82 -0.546701 -1.47814 0
M  V30 4749 C 452.066 -0.0187684 -2.02791 0
M  V30 4750 C 452.399 1.32338 -1.42128 0
M  V30 4751 O 451.674 1.85867 -0.573023 0
M  V30 4752 C 451.957 0.0854985 -3.59998 0
M  V30 4753 C 451.81 -1.283 -4.31114 0
M  V30 4754 C 453.129 0.80412 -4.32691 0
M  V30 4755 H 450.248 -0.0082946 -0.736953 0
M  V30 4756 H 452.89 -0.706962 -1.76358 0
M  V30 4757 H 451.04 0.671609 -3.82651 0
M  V30 4758 H 452.712 -1.91151 -4.19832 0
M  V30 4759 H 450.955 -1.86049 -3.91878 0
M  V30 4760 H 451.626 -1.16287 -5.39612 0
M  V30 4761 H 454.102 0.306576 -4.14969 0
M  V30 4762 H 452.978 0.846011 -5.42341 0
M  V30 4763 H 453.239 1.85802 -4.01161 0
M  V30 4764 N 452.299 1.55045 -0.282633 0
M  V30 4765 C 453.246 2.22822 0.601566 0
M  V30 4766 C 454.216 1.20431 1.14392 0
M  V30 4767 O 455.401 1.48996 1.19184 0
M  V30 4768 C 452.541 2.95873 1.77632 0
M  V30 4769 C 451.654 4.12999 1.26711 0
M  V30 4770 C 450.789 4.73676 2.40426 0
M  V30 4771 C 449.828 5.82981 1.86545 0
M  V30 4772 N 448.965 6.3769 2.93762 0
M  V30 4773 H 453.805 2.97995 0.0169528 0
M  V30 4774 H 451.342 1.471 -0.00339964 0
M  V30 4775 H 453.3 3.36447 2.46697 0
M  V30 4776 H 451.93 2.2311 2.33285 0
M  V30 4777 H 450.982 3.77494 0.469314 0
M  V30 4778 H 452.294 4.91803 0.832518 0
M  V30 4779 H 451.448 5.17008 3.17471 0
M  V30 4780 H 450.187 3.94164 2.87203 0
M  V30 4781 H 449.192 5.39092 1.07983 0
M  V30 4782 H 450.417 6.64366 1.40694 0
M  V30 4783 H 448.363 5.61069 3.39908 0
M  V30 4784 H 448.28 7.11788 2.54744 0
M  V30 4785 H 449.548 6.8568 3.7076 0
M  V30 4786 N 453.777 0.010035 1.57597 0
M  V30 4787 C 454.707 -0.976857 2.12084 0
M  V30 4788 C 455.688 -1.35191 1.03235 0
M  V30 4789 O 456.873 -1.43389 1.3097 0
M  V30 4790 C 454.003 -2.26548 2.63236 0
M  V30 4791 C 452.957 -2.03175 3.76701 0
M  V30 4792 C 452.283 -3.38138 4.14206 0
M  V30 4793 C 453.583 -1.38625 5.03568 0
M  V30 4794 H 455.277 -0.523145 2.94794 0
M  V30 4795 H 452.823 -0.250195 1.4181 0
M  V30 4796 H 454.776 -2.95952 2.99984 0
M  V30 4797 H 453.5 -2.74051 1.77661 0
M  V30 4798 H 452.159 -1.36195 3.40362 0
M  V30 4799 H 451.807 -3.83363 3.25641 0
M  V30 4800 H 451.507 -3.23312 4.90656 0
M  V30 4801 H 453.031 -4.08841 4.53521 0
M  V30 4802 H 454.445 -1.98 5.38023 0
M  V30 4803 H 452.842 -1.34256 5.84889 0
M  V30 4804 H 453.912 -0.356722 4.83586 0
M  V30 4805 N 455.255 -1.55392 -0.262866 0
M  V30 4806 C 456.483 -1.80513 -1.01108 0
M  V30 4807 C 456.898 -0.583533 -1.79556 0
M  V30 4808 O 456.255 0.447585 -1.76926 0
M  V30 4809 C 456.306 -3.03648 -1.96164 0
M  V30 4810 O 456.027 -4.2109 -1.20893 0
M  V30 4811 C 457.528 -3.41448 -2.82715 0
M  V30 4812 H 454.748 -0.601079 -0.298236 0
M  V30 4813 H 457.292 -2.02425 -0.290582 0
M  V30 4814 H 455.447 -2.83832 -2.63663 0
M  V30 4815 H 455.861 -4.90771 -1.85051 0
M  V30 4816 H 457.335 -4.30751 -3.45192 0
M  V30 4817 H 457.812 -2.61308 -3.53008 0
M  V30 4818 H 458.418 -3.63559 -2.20693 0
M  V30 4819 N 456.733 0.527833 -1.48498 0
M  V30 4820 C 457.663 1.64136 -1.66077 0
M  V30 4821 C 458.644 1.62286 -0.509625 0
M  V30 4822 O 459.829 1.79449 -0.742413 0
M  V30 4823 C 456.959 3.02717 -1.70234 0
M  V30 4824 C 455.913 3.19426 -2.8487 0
M  V30 4825 C 455.239 4.5909 -2.74118 0
M  V30 4826 C 456.539 3.01993 -4.26142 0
M  V30 4827 H 458.233 1.4968 -2.593 0
M  V30 4828 H 455.779 0.718654 -1.24785 0
M  V30 4829 H 457.732 3.80491 -1.8112 0
M  V30 4830 H 456.456 3.18201 -0.735911 0
M  V30 4831 H 455.115 2.4407 -2.73542 0
M  V30 4832 H 454.763 4.71413 -1.7544 0
M  V30 4833 H 454.463 4.71214 -3.51042 0
M  V30 4834 H 455.987 5.3896 -2.86974 0
M  V30 4835 H 457.401 3.69558 -4.38292 0
M  V30 4836 H 455.798 3.2561 -5.04082 0
M  V30 4837 H 456.868 1.98396 -4.42456 0
M  V30 4838 N 458.211 1.37122 0.776871 0
M  V30 4839 C 459.121 1.34651 1.9211 0
M  V30 4840 C 460.137 0.246824 1.7224 0
M  V30 4841 O 461.313 0.48134 1.95563 0
M  V30 4842 C 458.378 1.14748 3.2716 0
M  V30 4843 C 457.439 2.34308 3.5972 0
M  V30 4844 C 456.672 2.15345 4.88326 0
M  V30 4845 O 456.895 1.13507 5.58992 0
M  V30 4846 O 455.829 3.03414 5.1983 0
M  V30 4847 H 459.655 2.31013 1.97146 0
M  V30 4848 H 457.24 1.17799 0.918901 0
M  V30 4849 H 459.122 1.05616 4.0795 0
M  V30 4850 H 457.797 0.214562 3.22988 0
M  V30 4851 H 456.704 2.49011 2.79185 0
M  V30 4852 H 458.037 3.26149 3.68629 0
M  V30 4853 N 459.689 -1.00246 1.21608 0
M  V30 4854 C 460.599 -2.12515 0.993709 0
M  V30 4855 C 461.615 -1.73913 -0.0549939 0
M  V30 4856 O 462.791 -2.00943 0.135619 0
M  V30 4857 C 459.856 -3.42083 0.563953 0
M  V30 4858 C 458.917 -3.94843 1.68516 0
M  V30 4859 C 458.15 -5.18226 1.27582 0
M  V30 4860 O 458.373 -5.70201 0.150506 0
M  V30 4861 O 457.307 -5.64497 2.0887 0
M  V30 4862 H 461.133 -2.34152 1.93407 0
M  V30 4863 H 458.718 -1.10891 1.00118 0
M  V30 4864 H 460.6 -4.20073 0.334194 0
M  V30 4865 H 459.275 -3.21828 -0.347665 0
M  V30 4866 H 458.182 -3.18068 1.96935 0
M  V30 4867 H 459.515 -4.19512 2.5743 0
M  V30 4868 N 461.167 -1.02423 -1.1978 0
M  V30 4869 C 462.077 -0.610919 -2.26506 0
M  V30 4870 C 463.093 0.355152 -1.70337 0
M  V30 4871 O 464.269 0.214195 -2.00258 0
M  V30 4872 C 461.334 0.0365921 -3.46681 0
M  V30 4873 C 460.395 -0.976389 -4.18049 0
M  V30 4874 C 459.628 -0.359683 -5.32487 0
M  V30 4875 O 459.851 0.838601 -5.64202 0
M  V30 4876 O 458.785 -1.08022 -5.92127 0
M  V30 4877 H 462.611 -1.49965 -2.64091 0
M  V30 4878 H 460.196 -0.794156 -1.26545 0
M  V30 4879 H 462.078 0.39786 -4.19518 0
M  V30 4880 H 460.753 0.899398 -3.10954 0
M  V30 4881 H 459.66 -1.38916 -3.47352 0
M  V30 4882 H 460.993 -1.80941 -4.57735 0
M  V30 4883 N 462.645 1.35699 -0.801477 0
M  V30 4884 C 463.608 2.28199 -0.213994 0
M  V30 4885 C 464.608 1.49359 0.595691 0
M  V30 4886 O 465.798 1.69186 0.414921 0
M  V30 4887 C 462.93 3.33587 0.702297 0
M  V30 4888 H 464.123 2.81666 -1.02976 0
M  V30 4889 H 461.676 1.45467 -0.571759 0
M  V30 4890 H 462.411 2.85297 1.54195 0
M  V30 4891 H 462.196 3.91906 0.123484 0
M  V30 4892 H 463.686 4.02638 1.10783 0
M  V30 4893 N 464.123 0.554532 1.47522 0
M  V30 4894 C 465.363 0.0317994 2.04375 0
M  V30 4895 C 465.727 -1.29242 1.41988 0
M  V30 4896 O 466.928 -1.90269 1.89872 0
M  V30 4897 C 465.199 -0.0623344 3.57346 0
M  V30 4898 S 466.758 -0.531578 4.35568 0
M  V30 4899 H 463.576 0.0238553 0.7106 0
M  V30 4900 H 466.178 0.74066 1.80927 0
M  V30 4901 H 464.882 0.905857 4.00278 0
M  V30 4902 H 464.413 -0.794831 3.85287 0
M  V30 4903 H 466.428 -1.79175 4.62721 0
M  V30 4904 N 465.601 -1.54893 0.290851 0
M  V30 4905 C 466.531 -2.26103 -0.583084 0
M  V30 4906 C 467.512 -1.25684 -1.14619 0
M  V30 4907 O 468.697 -1.54436 -1.17741 0
M  V30 4908 C 465.827 -2.99409 -1.75987 0
M  V30 4909 C 464.781 -4.0689 -1.32758 0
M  V30 4910 C 464.107 -4.67856 -2.58872 0
M  V30 4911 C 465.407 -5.20215 -0.46624 0
M  V30 4912 H 467.101 -2.99398 0.0108214 0
M  V30 4913 H 464.647 -1.43998 0.00664468 0
M  V30 4914 H 466.6 -3.47943 -2.37727 0
M  V30 4915 H 465.324 -2.23675 -2.37985 0
M  V30 4916 H 463.983 -3.59191 -0.733299 0
M  V30 4917 H 463.631 -3.88772 -3.19163 0
M  V30 4918 H 463.331 -5.40438 -2.30653 0
M  V30 4919 H 464.855 -5.19147 -3.21433 0
M  V30 4920 H 466.269 -5.64704 -0.989047 0
M  V30 4921 H 464.666 -5.99455 -0.27826 0
M  V30 4922 H 465.736 -4.82198 0.511173 0
M  V30 4923 N 467.08 -0.0183926 -1.57589 0
M  V30 4924 C 468.012 0.995557 -2.06449 0
M  V30 4925 C 469.025 1.29556 -0.985849 0
M  V30 4926 O 470.214 1.2621 -1.26227 0
M  V30 4927 C 467.314 2.32572 -2.46502 0
M  V30 4928 C 466.487 2.21245 -3.77319 0
M  V30 4929 C 465.546 3.37104 -4.04039 0
M  V30 4930 O 464.572 3.14468 -4.74445 0
M  V30 4931 N 465.774 4.60553 -3.53372 0
M  V30 4932 H 468.539 0.578746 -2.94059 0
M  V30 4933 H 466.1 0.168603 -1.6102 0
M  V30 4934 H 468.092 3.08887 -2.61478 0
M  V30 4935 H 466.662 2.65931 -1.64315 0
M  V30 4936 H 465.882 1.29723 -3.72244 0
M  V30 4937 H 467.17 2.10868 -4.63047 0
M  V30 4938 H 466.568 4.81839 -2.96391 0
M  V30 4939 H 465.125 5.34072 -3.73644 0
M  V30 4940 N 468.558 1.5553 0.254621 0
M  V30 4941 C 469.505 1.89666 1.31512 0
M  V30 4942 C 470.475 0.750057 1.482 0
M  V30 4943 O 471.66 1.00301 1.62309 0
M  V30 4944 C 468.8 2.19009 2.667 0
M  V30 4945 C 467.913 3.46435 2.58083 0
M  V30 4946 C 467.048 3.65386 3.85573 0
M  V30 4947 C 466.087 4.8644 3.71541 0
M  V30 4948 N 465.224 5.01952 4.90906 0
M  V30 4949 H 470.064 2.80109 1.017 0
M  V30 4950 H 467.601 1.38666 0.490938 0
M  V30 4951 H 469.559 2.34025 3.45381 0
M  V30 4952 H 468.189 1.31779 2.94676 0
M  V30 4953 H 467.241 3.39792 1.71013 0
M  V30 4954 H 468.553 4.35258 2.43622 0
M  V30 4955 H 467.707 3.80319 4.72697 0
M  V30 4956 H 466.446 2.74781 4.02922 0
M  V30 4957 H 465.451 4.71491 2.82801 0
M  V30 4958 H 466.676 5.78497 3.55694 0
M  V30 4959 H 464.622 4.14283 5.08631 0
M  V30 4960 H 464.539 5.84851 4.79046 0
M  V30 4961 H 465.807 5.21289 5.7955 0
M  V30 4962 N 470.036 -0.519951 1.48776 0
M  V30 4963 C 471.261 -1.30447 1.6124 0
M  V30 4964 C 471.686 -1.86055 0.276591 0
M  V30 4965 O 471.044 -1.64915 -0.753183 0
M  V30 4966 C 471.092 -2.42406 2.66967 0
M  V30 4967 O 470.196 -3.45728 2.24824 0
M  V30 4968 H 469.537 -0.385924 0.540332 0
M  V30 4969 H 472.067 -0.624572 1.94834 0
M  V30 4970 H 472.077 -2.88447 2.88552 0
M  V30 4971 H 470.752 -2.01294 3.63941 0
M  V30 4972 H 469.329 -3.05737 2.13494 0
M  V30 4973 N 471.514 -1.37532 -0.769588 0
M  V30 4974 C 472.477 -1.33292 -1.86456 0
M  V30 4975 C 473.477 -0.236537 -1.59051 0
M  V30 4976 O 474.667 -0.492511 -1.67093 0
M  V30 4977 C 471.799 -1.07118 -3.23633 0
M  V30 4978 H 472.992 -2.30692 -1.91628 0
M  V30 4979 H 470.545 -1.22593 -0.969572 0
M  V30 4980 H 471.28 -0.102578 -3.24138 0
M  V30 4981 H 471.065 -1.86479 -3.44917 0
M  V30 4982 H 472.555 -1.06806 -4.03711 0
M  V30 4983 N 472.992 0.995999 -1.22138 0
M  V30 4984 C 473.902 2.11985 -1.00496 0
M  V30 4985 C 474.918 1.7394 0.0457701 0
M  V30 4986 O 476.094 2.00868 -0.146273 0
M  V30 4987 C 473.159 3.41779 -0.582086 0
M  V30 4988 C 472.22 3.93943 -1.70608 0
M  V30 4989 C 471.453 5.17542 -1.30328 0
M  V30 4990 O 471.676 5.70114 -0.180743 0
M  V30 4991 O 470.61 5.63382 -2.11861 0
M  V30 4992 H 474.436 2.33123 -1.94647 0
M  V30 4993 H 472.021 1.10358 -1.00705 0
M  V30 4994 H 473.903 4.1989 -0.356467 0
M  V30 4995 H 472.578 3.22007 0.330592 0
M  V30 4996 H 471.485 3.17019 -1.98619 0
M  V30 4997 H 472.818 4.18141 -2.59651 0
M  V30 4998 N 474.47 1.03057 1.19235 0
M  V30 4999 C 475.698 0.747697 1.92917 0
M  V30 5000 C 476.113 -0.69372 1.75593 0
M  V30 5001 O 475.47 -1.47191 1.07894 0
M  V30 5002 C 475.521 1.09159 3.44625 0
M  V30 5003 O 475.242 2.47641 3.61394 0
M  V30 5004 C 476.743 0.831763 4.35427 0
M  V30 5005 H 473.963 0.273453 0.612751 0
M  V30 5006 H 476.507 1.37552 1.51327 0
M  V30 5007 H 474.662 0.508919 3.84043 0
M  V30 5008 H 475.076 2.60499 4.55237 0
M  V30 5009 H 476.55 1.12233 5.4047 0
M  V30 5010 H 477.027 -0.233769 4.38577 0
M  V30 5011 H 477.633 1.39725 4.01693 0
M  V30 5012 N 475.948 -1.35272 0.808662 0
M  V30 5013 C 476.878 -2.32315 0.234981 0
M  V30 5014 C 477.859 -1.57572 -0.64071 0
M  V30 5015 O 479.044 -1.8563 -0.570551 0
M  V30 5016 C 476.174 -3.41801 -0.615601 0
M  V30 5017 C 475.128 -4.27694 0.161767 0
M  V30 5018 C 474.454 -5.28519 -0.810649 0
M  V30 5019 C 475.754 -5.04231 1.36193 0
M  V30 5020 H 477.448 -2.80543 1.04575 0
M  V30 5021 H 474.994 -1.3488 0.504315 0
M  V30 5022 H 476.947 -4.08693 -1.02702 0
M  V30 5023 H 475.671 -2.92186 -1.45928 0
M  V30 5024 H 474.33 -3.62384 0.554382 0
M  V30 5025 H 473.978 -4.75171 -1.64988 0
M  V30 5026 H 473.678 -5.8686 -0.294822 0
M  V30 5027 H 475.202 -5.98283 -1.22023 0
M  V30 5028 H 476.616 -5.64058 1.02528 0
M  V30 5029 H 475.013 -5.72077 1.81239 0
M  V30 5030 H 476.083 -4.34753 2.14751 0
M  V30 5031 N 477.426 -0.562348 -1.47226 0
M  V30 5032 C 478.672 -0.0485293 -2.03342 0
M  V30 5033 C 479.027 1.28898 -1.42839 0
M  V30 5034 O 478.32 1.82719 -0.576563 0
M  V30 5035 C 478.514 0.0969817 -3.57268 0
M  V30 5036 C 478.343 -1.22487 -4.32697 0
M  V30 5037 C 477.113 -1.79357 -4.72397 0
M  V30 5038 C 479.311 -2.14332 -4.67511 0
M  V30 5039 N 477.293 -3.05493 -5.32491 0
M  V30 5040 C 478.664 -3.25049 -5.27961 0
M  V30 5041 C 480.719 -2.14263 -4.4944 0
M  V30 5042 C 479.422 -4.35804 -5.72248 0
M  V30 5043 C 481.448 -3.24033 -4.94729 0
M  V30 5044 C 480.81 -4.3347 -5.55233 0
M  V30 5045 H 476.909 -0.0600464 -0.779691 0
M  V30 5046 H 479.493 -0.750769 -1.79643 0
M  V30 5047 H 477.664 0.768353 -3.80724 0
M  V30 5048 H 479.396 0.613333 -4.00025 0
M  V30 5049 H 476.151 -1.33093 -4.54514 0
M  V30 5050 H 476.575 -3.698 -5.67077 0
M  V30 5051 H 481.217 -1.30935 -4.02015 0
M  V30 5052 H 478.935 -5.19888 -6.18661 0
M  V30 5053 H 482.521 -3.25073 -4.82513 0
M  V30 5054 H 481.401 -5.17008 -5.89638 0
M  V30 5055 N 478.904 1.54736 -0.299062 0
M  V30 5056 C 479.814 2.27127 0.587413 0
M  V30 5057 C 480.83 1.30575 1.15005 0
M  V30 5058 O 482.006 1.63554 1.17525 0
M  V30 5059 C 479.071 2.99645 1.74395 0
M  V30 5060 C 478.132 4.11731 1.21559 0
M  V30 5061 C 477.365 4.80781 2.317 0
M  V30 5062 O 477.588 4.4918 3.51558 0
M  V30 5063 O 476.522 5.68226 1.98501 0
M  V30 5064 H 480.348 3.037 0.000250109 0
M  V30 5065 H 477.933 1.49256 -0.0655919 0
M  V30 5066 H 479.815 3.45138 2.4178 0
M  V30 5067 H 478.49 2.25969 2.31775 0
M  V30 5068 H 477.397 3.70641 0.507514 0
M  V30 5069 H 478.73 4.87379 0.687233 0
M  V30 5070 N 480.382 0.0267497 1.57577 0
M  V30 5071 C 481.631 -0.651736 1.9088 0
M  V30 5072 C 481.944 -1.73427 0.904576 0
M  V30 5073 O 483.15 -2.46923 1.12877 0
M  V30 5074 C 481.606 -1.21048 3.38933 0
M  V30 5075 C 481.214 -0.161362 4.47709 0
M  V30 5076 C 482.958 -1.86562 3.81307 0
M  V30 5077 C 480.865 -0.731611 5.86857 0
M  V30 5078 H 479.795 -0.247198 0.712326 0
M  V30 5079 H 482.446 0.0916641 1.83271 0
M  V30 5080 H 480.828 -2.00542 3.41466 0
M  V30 5081 H 482.002 0.61094 4.56732 0
M  V30 5082 H 480.317 0.394877 4.14523 0
M  V30 5083 H 482.914 -2.30178 4.8262 0
M  V30 5084 H 483.257 -2.70735 3.16241 0
M  V30 5085 H 483.79 -1.13762 3.81186 0
M  V30 5086 H 480.529 0.0719329 6.55461 0
M  V30 5087 H 480.049 -1.47245 5.81445 0
M  V30 5088 H 481.728 -1.22208 6.35354 0
M  V30 5089 N 481.861 -1.55662 -0.24637 0
M  V30 5090 C 482.793 -1.86811 -1.32794 0
M  V30 5091 C 483.806 -0.754413 -1.44265 0
M  V30 5092 O 484.995 -1.03253 -1.45606 0
M  V30 5093 C 482.095 -2.0397 -2.70646 0
M  V30 5094 C 481.268 -3.34832 -2.81436 0
M  V30 5095 C 480.327 -3.41727 -4.00136 0
M  V30 5096 O 479.353 -4.14934 -3.89639 0
M  V30 5097 N 480.555 -2.71058 -5.1333 0
M  V30 5098 H 483.32 -2.80174 -1.06409 0
M  V30 5099 H 480.881 -1.55906 -0.43647 0
M  V30 5100 H 482.873 -2.05924 -3.48393 0
M  V30 5101 H 481.443 -1.1735 -2.89738 0
M  V30 5102 H 480.663 -3.4519 -1.90361 0
M  V30 5103 H 481.951 -4.21085 -2.85595 0
M  V30 5104 H 481.349 -2.11314 -5.2475 0
M  V30 5105 H 479.906 -2.78704 -5.89209 0
M  V30 5106 N 483.339 0.512053 -1.4905 0
M  V30 5107 C 484.286 1.6148 -1.64902 0
M  V30 5108 C 485.256 1.58687 -0.490673 0
M  V30 5109 O 486.441 1.76842 -0.71636 0
M  V30 5110 C 483.581 2.99676 -1.71139 0
M  V30 5111 C 482.694 3.12568 -2.98203 0
M  V30 5112 C 481.829 4.4143 -2.95487 0
M  V30 5113 C 480.868 4.47916 -4.17179 0
M  V30 5114 N 480.005 5.68191 -4.12437 0
M  V30 5115 H 484.845 1.47271 -2.59066 0
M  V30 5116 H 482.382 0.716713 -1.28459 0
M  V30 5117 H 484.34 3.79761 -1.72736 0
M  V30 5118 H 482.97 3.12614 -0.804508 0
M  V30 5119 H 482.022 2.25618 -3.06269 0
M  V30 5120 H 483.334 3.1322 -3.88194 0
M  V30 5121 H 482.488 5.29825 -2.95585 0
M  V30 5122 H 481.227 4.43326 -2.03256 0
M  V30 5123 H 480.232 3.57925 -4.17337 0
M  V30 5124 H 481.457 4.47744 -5.1059 0
M  V30 5125 H 479.403 5.7095 -3.23036 0
M  V30 5126 H 479.32 5.70413 -4.96151 0
M  V30 5127 H 480.588 6.58823 -4.16621 0
M  V30 5128 N 484.817 1.37938 0.762283 0
M  V30 5129 C 485.727 1.36681 1.90671 0
M  V30 5130 C 486.743 0.265078 1.71969 0
M  V30 5131 O 487.919 0.502055 1.95042 0
M  V30 5132 C 484.984 1.18211 3.25925 0
M  V30 5133 C 484.045 2.3811 3.57214 0
M  V30 5134 C 483.278 2.20512 4.86014 0
M  V30 5135 O 483.501 1.19429 5.57757 0
M  V30 5136 O 482.435 3.08911 5.16583 0
M  V30 5137 H 486.261 2.33091 1.94685 0
M  V30 5138 H 483.846 1.18767 0.906356 0
M  V30 5139 H 485.728 1.09937 4.06807 0
M  V30 5140 H 484.403 0.248807 3.22742 0
M  V30 5141 H 483.31 2.51958 2.76529 0
M  V30 5142 H 484.643 3.30041 3.65149 0
M  V30 5143 N 486.295 -0.989507 1.22664 0
M  V30 5144 C 487.225 -2.09847 1.02404 0
M  V30 5145 C 488.206 -1.70007 -0.0561303 0
M  V30 5146 O 489.391 -1.93906 0.106748 0
M  V30 5147 C 486.521 -3.41996 0.604663 0
M  V30 5148 C 485.475 -3.95699 1.63115 0
M  V30 5149 C 484.801 -5.23936 1.0675 0
M  V30 5150 C 486.101 -4.25999 3.02196 0
M  V30 5151 H 487.795 -2.27054 1.95158 0
M  V30 5152 H 485.341 -1.09111 0.939727 0
M  V30 5153 H 487.294 -4.1899 0.45002 0
M  V30 5154 H 486.018 -3.24626 -0.35855 0
M  V30 5155 H 484.677 -3.2084 1.77362 0
M  V30 5156 H 484.325 -5.02909 0.0955422 0
M  V30 5157 H 484.025 -5.60833 1.75328 0
M  V30 5158 H 485.549 -6.0356 0.924516 0
M  V30 5159 H 486.963 -4.93777 2.91303 0
M  V30 5160 H 485.36 -4.74076 3.67929 0
M  V30 5161 H 486.43 -3.33636 3.51873 0
M  V30 5162 N 487.773 -1.03688 -1.18687 0
M  V30 5163 C 488.72 -0.624624 -2.22187 0
M  V30 5164 C 489.69 0.365636 -1.62026 0
M  V30 5165 O 490.875 0.260481 -1.89014 0
M  V30 5166 C 488.015 0.0101738 -3.45099 0
M  V30 5167 C 487.128 -1.02709 -4.19613 0
M  V30 5168 C 486.263 -0.361213 -5.2997 0
M  V30 5169 C 485.302 -1.38384 -5.96252 0
M  V30 5170 N 484.439 -0.743196 -6.98155 0
M  V30 5171 H 489.279 -1.51176 -2.56807 0
M  V30 5172 H 486.816 -0.75636 -1.26165 0
M  V30 5173 H 488.774 0.395528 -4.15321 0
M  V30 5174 H 487.404 0.860848 -3.1111 0
M  V30 5175 H 486.456 -1.53043 -3.48256 0
M  V30 5176 H 487.768 -1.80398 -4.65036 0
M  V30 5177 H 486.922 0.0785537 -6.06649 0
M  V30 5178 H 485.661 0.447799 -4.8564 0
M  V30 5179 H 484.666 -1.83378 -5.18317 0
M  V30 5180 H 485.891 -2.19448 -6.42666 0
M  V30 5181 H 483.837 0.0455789 -6.55984 0
M  V30 5182 H 483.754 -1.45784 -7.41811 0
M  V30 5183 H 485.022 -0.327698 -7.78811 0
M  V30 5184 N 489.251 1.34841 -0.815825 0
M  V30 5185 C 490.181 2.32187 -0.247298 0
M  V30 5186 C 491.162 1.5791 0.632344 0
M  V30 5187 O 492.347 1.8593 0.560698 0
M  V30 5188 C 489.477 3.42122 0.597466 0
M  V30 5189 C 488.431 4.27602 -0.184446 0
M  V30 5190 C 487.757 5.28942 0.782609 0
M  V30 5191 C 489.057 5.03502 -1.38865 0
M  V30 5192 H 490.751 2.79985 -1.06061 0
M  V30 5193 H 488.297 1.34611 -0.511461 0
M  V30 5194 H 490.25 4.09232 1.00533 0
M  V30 5195 H 488.974 2.92956 1.44376 0
M  V30 5196 H 487.633 3.62085 -0.573592 0
M  V30 5197 H 487.281 4.7604 1.62466 0
M  V30 5198 H 486.981 5.87008 0.263695 0
M  V30 5199 H 488.505 5.98922 1.18848 0
M  V30 5200 H 489.919 5.63506 -1.05518 0
M  V30 5201 H 488.316 5.71108 -1.8427 0
M  V30 5202 H 489.386 4.33608 -2.17054 0
M  V30 5203 O 490.768 0.711044 1.45005 0
M  V30 5204 H 491.459 0.254759 1.92017 0
M  V30 END ATOM
M  V30 BEGIN BOND
M  V30 END BOND
M  V30 END CTAB
M  END
$$$$
