drugbank_target|Q6ZZJ1 Putative uncharacterized protein tcp14 (DB03600)
 OpenBabel12092120453D

  0  0  0     0  0            999 V3000
M  V30 BEGIN CTAB
M  V30 COUNTS 4155 4209 0 0 0
M  V30 BEGIN ATOM
M  V30 1 H -0.908 1.98254 -0.117106 0
M  V30 2 N 0 1.576 0 0
M  V30 3 C 0.933 2.03868 1.02534 0
M  V30 4 C 1.911 0.928543 1.3348 0
M  V30 5 O 3.095 1.19667 1.45644 0
M  V30 6 C 0.222 2.43627 2.35294 0
M  V30 7 C -0.732 3.65373 2.2001 0
M  V30 8 S 0.101 5.13292 1.52614 0
M  V30 9 C 1.257 5.56322 2.86805 0
M  V30 10 H 1.49 2.90518 0.631377 0
M  V30 11 H -0.977 1.52953 0.210867 0
M  V30 12 H 0.981 2.67203 3.11629 0
M  V30 13 H -0.358 1.57376 2.7183 0
M  V30 14 H -1.165 3.90944 3.18086 0
M  V30 15 H -1.563 3.418 1.51819 0
M  V30 16 H 0.729 5.58782 3.83104 0
M  V30 17 H 1.672 6.56266 2.65933 0
M  V30 18 H 2.08 4.83886 2.90714 0
M  V30 19 N 1.4781 -0.272755 1.55222 0
M  V30 20 C 2.8891 -0.84378 1.66545 0
M  V30 21 C 3.2401 -1.87035 0.592641 0
M  V30 22 O 2.3651 -2.14761 -0.265818 0
M  V30 23 C 2.9601 -1.53723 3.01918 0
M  V30 24 C 1.5191 -2.05628 3.15268 0
M  V30 25 C 0.6661 -0.898424 2.62343 0
M  V30 26 H 3.6171 -0.0490998 1.58624 0
M  V30 27 H 3.6381 -2.40421 2.94921 0
M  V30 28 H 3.1501 -0.78983 3.79978 0
M  V30 29 H 1.2511 -2.83329 2.41983 0
M  V30 30 H 1.3641 -2.27142 4.21833 0
M  V30 31 H -0.2719 -1.29186 2.19506 0
M  V30 32 H 0.5111 -0.164528 3.42906 0
M  V30 33 N 2.9562 -1.48159 -0.537278 0
M  V30 34 C 3.9062 -1.5854 -1.63857 0
M  V30 35 C 4.8902 -0.442969 -1.54682 0
M  V30 36 O 6.0822 -0.69401 -1.62827 0
M  V30 37 C 3.2112 -1.62144 -3.02596 0
M  V30 38 C 2.2972 -2.81841 -3.16901 0
M  V30 39 N 2.6882 -4.06337 -3.01204 0
M  V30 40 C 0.9862 -2.79021 -3.47942 0
M  V30 41 C 1.6872 -4.86606 -3.18731 0
M  V30 42 N 0.6632 -4.19288 -3.45974 0
M  V30 43 H 4.4652 -2.5255 -1.50319 0
M  V30 44 H 1.9792 -1.4443 -0.742555 0
M  V30 45 H 3.9762 -1.67674 -3.81695 0
M  V30 46 H 2.6362 -0.69245 -3.17231 0
M  V30 47 H 3.6472 -4.36888 -2.78117 0
M  V30 48 H 0.3242 -1.95347 -3.6898 0
M  V30 49 H 1.7142 -5.95385 -3.11394 0
M  V30 50 N 4.4343 0.785586 -1.36625 0
M  V30 51 C 5.7113 1.53198 -1.21613 0
M  V30 52 C 6.0913 2.10187 0.196113 0
M  V30 53 O 5.4393 1.94318 1.20219 0
M  V30 54 C 5.6493 2.62388 -2.30116 0
M  V30 55 C 6.9973 3.30167 -2.66974 0
M  V30 56 O 8.0213 2.72674 -2.29188 0
M  V30 57 O 6.8803 4.34077 -3.32023 0
M  V30 58 H 3.9743 0.677865 -0.473738 0
M  V30 59 H 6.5203 0.823739 -1.48367 0
M  V30 60 H 5.2923 2.18299 -3.24748 0
M  V30 61 H 4.9153 3.40827 -2.0475 0
M  V30 62 N 5.9124 1.20967 1.01018 0
M  V30 63 C 7.3234 1.02319 1.56165 0
M  V30 64 C 7.6744 -0.418546 1.91684 0
M  V30 65 O 6.7994 -1.30096 1.72928 0
M  V30 66 C 7.3944 1.85109 2.8376 0
M  V30 67 C 5.9534 1.70809 3.35412 0
M  V30 68 C 5.1004 1.82643 2.08655 0
M  V30 69 H 8.0514 1.35065 0.833255 0
M  V30 70 H 8.0724 1.35827 3.55431 0
M  V30 71 H 7.5844 2.90035 2.57878 0
M  V30 72 H 5.6854 0.685464 3.66241 0
M  V30 73 H 5.7984 2.52467 4.07182 0
M  V30 74 H 4.1624 1.25896 2.21409 0
M  V30 75 H 4.9454 2.89066 1.85191 0
M  V30 76 N 7.3905 -1.2043 1.01659 0
M  V30 77 C 8.6385 -1.89423 0.704522 0
M  V30 78 C 8.9595 -1.79231 -0.768197 0
M  V30 79 O 8.2295 -1.1947 -1.55254 0
M  V30 80 H 6.8095 -0.701178 0.257602 0
M  V30 81 H 9.4715 -1.4626 1.28818 0
M  V30 82 H 8.5675 -2.96052 0.987916 0
M  V30 83 N 8.8686 -0.792821 -1.36206 0
M  V30 84 C 9.8316 -0.199459 -2.2833 0
M  V30 85 C 10.8316 0.605189 -1.48977 0
M  V30 86 O 12.0216 0.425685 -1.68919 0
M  V30 87 C 9.1536 0.723523 -3.33134 0
M  V30 88 H 10.3466 -1.01181 -2.82316 0
M  V30 89 H 7.8996 -0.562485 -1.45828 0
M  V30 90 H 8.6346 1.56008 -2.84309 0
M  V30 91 H 8.4196 0.148436 -3.91819 0
M  V30 92 H 9.9096 1.13344 -4.01924 0
M  V30 93 N 10.3467 1.47872 -0.545128 0
M  V30 94 C 11.5747 2.06889 -0.021084 0
M  V30 95 C 11.9897 1.39955 1.2672 0
M  V30 96 O 11.3467 0.492036 1.75742 0
M  V30 97 C 11.3977 3.60996 0.190817 0
M  V30 98 O 11.1187 4.25419 -1.04644 0
M  V30 99 C 12.6197 4.36849 0.753521 0
M  V30 100 H 9.8397 0.669785 -0.0403635 0
M  V30 101 H 12.3837 1.90049 -0.755095 0
M  V30 102 H 10.5387 3.77391 0.87492 0
M  V30 103 H 10.9527 5.17785 -0.836611 0
M  V30 104 H 12.4267 5.45399 0.851139 0
M  V30 105 H 12.9037 4.02306 1.762 0
M  V30 106 H 13.5097 4.25169 0.105503 0
M  V30 107 N 11.8248 0.280983 1.55075 0
M  V30 108 C 13.2408 -0.0729964 1.59433 0
M  V30 109 C 13.4408 -1.5411 1.29817 0
M  V30 110 O 12.4968 -2.29086 1.06187 0
M  V30 111 C 13.8098 0.306921 2.9913 0
M  V30 112 C 15.3578 0.254023 3.11968 0
M  V30 113 C 15.8328 0.608467 4.5394 0
M  V30 114 N 17.3238 0.560241 4.59799 0
M  V30 115 C 18.0588 0.80722 5.6769 0
M  V30 116 N 17.5548 1.11912 6.83701 0
M  V30 117 N 19.3478 0.735623 5.57266 0
M  V30 118 H 11.4988 1.238 1.7259 0
M  V30 119 H 13.7618 0.500547 0.805082 0
M  V30 120 H 13.4678 1.32816 3.25657 0
M  V30 121 H 13.3418 -0.349363 3.75579 0
M  V30 122 H 15.7288 -0.75794 2.852 0
M  V30 123 H 15.8098 0.944649 2.37718 0
M  V30 124 H 15.4538 1.61814 4.81434 0
M  V30 125 H 15.3838 -0.104013 5.26497 0
M  V30 126 H 17.8748 0.329288 3.76463 0
M  V30 127 H 18.1878 1.29409 7.61888 0
M  V30 128 H 16.5328 1.15695 6.85303 0
M  V30 129 H 19.7238 0.491752 4.6551 0
M  V30 130 H 19.8968 0.931482 6.4127 0
M  V30 131 N 13.3029 -1.57598 0.00835791 0
M  V30 132 C 14.2329 -2.1198 -0.979113 0
M  V30 133 C 15.2139 -1.03091 -1.35301 0
M  V30 134 O 16.3989 -1.30818 -1.43528 0
M  V30 135 C 13.5289 -2.62995 -2.26828 0
M  V30 136 C 12.4829 -3.76485 -2.03576 0
M  V30 137 C 11.8089 -4.13846 -3.38579 0
M  V30 138 C 13.1089 -5.0342 -1.39161 0
M  V30 139 H 14.8029 -2.94738 -0.526281 0
M  V30 140 H 12.3489 -1.41783 -0.251704 0
M  V30 141 H 14.3019 -2.99669 -2.96271 0
M  V30 142 H 13.0259 -1.7737 -2.7424 0
M  V30 143 H 11.6849 -3.40217 -1.36557 0
M  V30 144 H 11.3329 -3.25232 -3.83709 0
M  V30 145 H 11.0329 -4.90312 -3.23834 0
M  V30 146 H 12.5569 -4.53086 -4.09323 0
M  V30 147 H 13.9709 -5.37812 -1.98573 0
M  V30 148 H 12.3679 -5.84746 -1.34878 0
M  V30 149 H 13.4379 -4.83548 -0.361868 0
M  V30 150 N 14.781 0.264519 -1.55364 0
M  V30 151 C 15.711 1.33121 -1.91836 0
M  V30 152 C 16.692 1.51101 -0.781192 0
M  V30 153 O 17.877 1.64003 -1.04003 0
M  V30 154 C 15.007 2.68921 -2.19769 0
M  V30 155 C 13.961 2.65661 -3.35571 0
M  V30 156 C 13.287 4.05093 -3.49004 0
M  V30 157 C 14.587 2.24187 -4.71739 0
M  V30 158 H 16.281 1.02844 -2.81182 0
M  V30 159 H 13.827 0.493286 -1.35287 0
M  V30 160 H 15.78 3.43663 -2.43872 0
M  V30 161 H 14.504 3.00799 -1.27231 0
M  V30 162 H 13.163 1.93377 -3.1145 0
M  V30 163 H 12.811 4.34206 -2.53917 0
M  V30 164 H 12.511 4.03804 -4.26868 0
M  V30 165 H 14.035 4.81561 -3.75408 0
M  V30 166 H 15.449 2.88654 -4.9533 0
M  V30 167 H 13.846 2.34044 -5.52579 0
M  V30 168 H 14.916 1.19327 -4.69988 0
M  V30 169 N 16.2591 1.48442 0.529413 0
M  V30 170 C 17.2221 1.62524 1.61612 0
M  V30 171 C 18.2221 0.498509 1.52877 0
M  V30 172 O 19.4121 0.76431 1.56537 0
M  V30 173 C 16.5441 1.59597 3.01233 0
M  V30 174 H 17.7371 2.59423 1.50465 0
M  V30 175 H 15.2901 1.37047 0.751514 0
M  V30 176 H 16.0251 0.641781 3.17886 0
M  V30 177 H 15.8101 2.41397 3.08982 0
M  V30 178 H 17.3001 1.72646 3.80241 0
M  V30 179 N 17.7372 -0.778329 1.37039 0
M  V30 180 C 18.9862 -1.53189 1.3121 0
M  V30 181 C 19.2992 -1.95328 -0.103095 0
M  V30 182 O 20.5052 -2.70012 -0.283826 0
M  V30 183 C 18.9612 -2.76591 2.30272 0
M  V30 184 C 18.5692 -2.41577 3.77286 0
M  V30 185 C 20.3132 -3.5455 2.33441 0
M  V30 186 C 18.2202 -3.61441 4.68096 0
M  V30 187 H 17.1502 -0.5751 0.487622 0
M  V30 188 H 19.8012 -0.853101 1.62464 0
M  V30 189 H 18.1832 -3.46326 1.92027 0
M  V30 190 H 19.3572 -1.79668 4.2433 0
M  V30 191 H 17.6722 -1.76806 3.76999 0
M  V30 192 H 20.2692 -4.43628 2.98493 0
M  V30 193 H 20.6122 -3.93936 1.34611 0
M  V30 194 H 21.1452 -2.91805 2.7036 0
M  V30 195 H 17.8842 -3.27142 5.6803 0
M  V30 196 H 17.4042 -4.22478 4.25761 0
M  V30 197 H 19.0832 -4.28335 4.8491 0
M  V30 198 N 19.2153 -1.21501 -1.00376 0
M  V30 199 C 20.4403 -1.05977 -1.78279 0
M  V30 200 C 20.8653 0.385994 -1.84097 0
M  V30 201 O 20.2233 1.27849 -1.28547 0
M  V30 202 C 20.2713 -1.66302 -3.19963 0
M  V30 203 O 19.3753 -0.909333 -4.0225 0
M  V30 204 H 18.7163 -0.372906 -0.549397 0
M  V30 205 H 21.2463 -1.6107 -1.26165 0
M  V30 206 H 21.2563 -1.70574 -3.70632 0
M  V30 207 H 19.9313 -2.71515 -3.15043 0
M  V30 208 H 18.5083 -0.941795 -3.60811 0
M  V30 209 N 20.6934 1.19889 -1.02296 0
M  V30 210 C 22.1044 1.71124 -0.746568 0
M  V30 211 C 22.4554 1.81939 0.734335 0
M  V30 212 O 21.5804 1.48639 1.57275 0
M  V30 213 C 22.1754 3.10804 -1.34857 0
M  V30 214 C 20.7344 3.59323 -1.1209 0
M  V30 215 C 19.8814 2.3635 -1.45031 0
M  V30 216 H 22.8324 1.04813 -1.19163 0
M  V30 217 H 22.8534 3.73186 -0.742437 0
M  V30 218 H 22.3654 3.029 -2.42638 0
M  V30 219 H 20.4664 3.7255 -0.0610337 0
M  V30 220 H 20.5794 4.4378 -1.80544 0
M  V30 221 H 18.9434 2.39399 -0.869487 0
M  V30 222 H 19.7264 2.31081 -2.53883 0
M  V30 223 N 22.1715 0.800033 1.35784 0
M  V30 224 C 23.1215 0.178654 2.27299 0
M  V30 225 C 24.1055 -0.643667 1.47464 0
M  V30 226 O 25.2975 -0.502 1.69732 0
M  V30 227 C 22.4265 -0.677194 3.36555 0
M  V30 228 C 21.5125 0.154497 4.23818 0
M  V30 229 N 21.9035 1.21427 4.91008 0
M  V30 230 C 20.2015 -0.0649462 4.45953 0
M  V30 231 C 20.9025 1.72147 5.55644 0
M  V30 232 N 19.8785 1.02897 5.33773 0
M  V30 233 H 23.6805 0.989637 2.76737 0
M  V30 234 H 21.1945 0.64054 1.49234 0
M  V30 235 H 23.1915 -1.13835 4.01058 0
M  V30 236 H 21.8515 -1.4866 2.8867 0
M  V30 237 H 22.8625 1.59684 4.92668 0
M  V30 238 H 19.5395 -0.844016 4.0888 0
M  V30 239 H 20.9295 2.60683 6.19269 0
M  V30 240 N 23.6496 -1.47581 0.552962 0
M  V30 241 C 24.5796 -2.32762 -0.185451 0
M  V30 242 C 25.5606 -1.43527 -0.912905 0
M  V30 243 O 26.7456 -1.72388 -0.894201 0
M  V30 244 C 23.8756 -3.25219 -1.21859 0
M  V30 245 C 22.8296 -4.23661 -0.607864 0
M  V30 246 C 22.1556 -5.05413 -1.74533 0
M  V30 247 C 23.4556 -5.20481 0.435582 0
M  V30 248 H 25.1496 -2.94749 0.525684 0
M  V30 249 H 22.6956 -1.41738 0.254251 0
M  V30 250 H 24.6486 -3.8365 -1.7433 0
M  V30 251 H 23.3726 -2.61279 -1.95961 0
M  V30 252 H 22.0316 -3.66451 -0.104489 0
M  V30 253 H 21.6796 -4.3788 -2.47529 0
M  V30 254 H 21.3796 -5.72059 -1.34249 0
M  V30 255 H 22.9036 -5.66701 -2.27338 0
M  V30 256 H 24.3176 -5.733 -0.00290157 0
M  V30 257 H 22.7146 -5.95305 0.757067 0
M  V30 258 H 23.7846 -4.66217 1.33303 0
M  V30 259 N 25.1277 -0.289203 -1.54924 0
M  V30 260 C 26.4047 0.376032 -1.91951 0
M  V30 261 C 26.7847 1.72622 -1.21511 0
M  V30 262 O 26.1327 2.25853 -0.346767 0
M  V30 263 C 26.3427 0.502378 -3.45365 0
M  V30 264 C 27.6907 0.778741 -4.17398 0
M  V30 265 O 28.7147 0.586647 -3.51336 0
M  V30 266 O 27.5737 1.14698 -5.34328 0
M  V30 267 H 24.6677 0.208167 -0.800372 0
M  V30 268 H 27.2137 -0.336394 -1.66332 0
M  V30 269 H 25.9857 -0.447255 -3.88736 0
M  V30 270 H 25.6087 1.26373 -3.76982 0
M  V30 271 N 26.6058 1.57591 -0.0167156 0
M  V30 272 C 27.8828 1.82547 0.702564 0
M  V30 273 C 28.2628 0.898018 1.91047 0
M  V30 274 O 27.6108 -0.0493456 2.28447 0
M  V30 275 C 27.8208 3.31459 1.09251 0
M  V30 276 C 29.1688 3.97622 1.48937 0
M  V30 277 O 30.1928 3.35881 1.18584 0
M  V30 278 O 29.0518 5.06415 2.05442 0
M  V30 279 H 26.1458 0.752268 0.343544 0
M  V30 280 H 28.6918 1.69644 -0.0434495 0
M  V30 281 H 27.4638 3.9061 0.23227 0
M  V30 282 H 27.0868 3.49422 1.89709 0
M  V30 283 N 28.0839 -0.256276 1.55502 0
M  V30 284 C 29.0469 -1.30047 1.88734 0
M  V30 285 C 30.0469 -1.4154 0.763086 0
M  V30 286 O 31.2369 -1.40403 1.03115 0
M  V30 287 C 28.3689 -2.67953 2.10747 0
M  V30 288 H 29.5619 -1.01802 2.82093 0
M  V30 289 H 27.1149 -0.495134 1.4825 0
M  V30 290 H 27.8499 -3.01351 1.19825 0
M  V30 291 H 27.6349 -2.60993 2.92617 0
M  V30 292 H 29.1249 -3.43368 2.37673 0
M  V30 293 N 29.562 -1.4872 -0.521534 0
M  V30 294 C 30.808 -1.574 -1.27879 0
M  V30 295 C 31.141 -0.250817 -1.92573 0
M  V30 296 O 30.416 0.743934 -1.79711 0
M  V30 297 C 30.699 -2.71843 -2.36164 0
M  V30 298 C 30.552 -4.13893 -1.76105 0
M  V30 299 C 31.871 -2.82008 -3.37875 0
M  V30 300 H 28.99 -0.572941 -0.463581 0
M  V30 301 H 31.632 -1.80927 -0.580119 0
M  V30 302 H 29.782 -2.51914 -2.95756 0
M  V30 303 H 31.454 -4.45284 -1.20499 0
M  V30 304 H 29.697 -4.20498 -1.06601 0
M  V30 305 H 30.368 -4.89804 -2.5455 0
M  V30 306 H 32.844 -3.00086 -2.88249 0
M  V30 307 H 31.72 -3.63796 -4.11028 0
M  V30 308 H 31.981 -1.90511 -3.98946 0
M  V30 309 N 31.0401 0.771051 -1.3745 0
M  V30 310 C 31.9701 1.89827 -1.3597 0
M  V30 311 C 32.9511 1.68562 -0.228216 0
M  V30 312 O 34.1361 1.8941 -0.428675 0
M  V30 313 C 31.2661 3.2712 -1.16662 0
M  V30 314 C 30.2201 3.6295 -2.2683 0
M  V30 315 C 29.5461 4.98791 -1.92644 0
M  V30 316 C 30.8461 3.69627 -3.69017 0
M  V30 317 H 32.5401 1.91323 -2.30295 0
M  V30 318 H 30.0861 0.919082 -1.10855 0
M  V30 319 H 32.0391 4.05615 -1.14256 0
M  V30 320 H 30.7631 3.26059 -0.187926 0
M  V30 321 H 29.4221 2.86763 -2.28392 0
M  V30 322 H 29.0701 4.94271 -0.933021 0
M  V30 323 H 28.7701 5.23733 -2.66416 0
M  V30 324 H 30.2941 5.79685 -1.91826 0
M  V30 325 H 31.7081 4.38273 -3.69581 0
M  V30 326 H 30.1051 4.06067 -4.41848 0
M  V30 327 H 31.1751 2.70273 -4.02592 0
M  V30 328 N 32.5182 1.22032 0.997298 0
M  V30 329 C 33.7432 1.06921 1.77715 0
M  V30 330 C 34.1682 -0.376226 1.84299 0
M  V30 331 O 33.5262 -1.27165 1.29223 0
M  V30 332 C 33.5742 1.67996 3.19076 0
M  V30 333 O 32.6782 0.930653 4.01762 0
M  V30 334 H 32.0192 0.375814 0.547412 0
M  V30 335 H 34.5492 1.61737 1.25309 0
M  V30 336 H 34.5592 1.72538 3.69723 0
M  V30 337 H 33.2342 2.73182 3.13599 0
M  V30 338 H 31.8112 0.960917 3.60307 0
M  V30 339 N 33.9963 -1.19345 1.0293 0
M  V30 340 C 35.2433 -1.89038 0.726008 0
M  V30 341 C 35.5713 -1.79649 -0.745427 0
M  V30 342 O 34.8263 -1.18354 -1.55855 0
M  V30 343 C 35.1253 -3.39292 1.12319 0
M  V30 344 C 34.7913 -3.68885 2.59297 0
M  V30 345 C 33.4533 -3.76671 2.99453 0
M  V30 346 C 35.8053 -3.82178 3.54386 0
M  V30 347 C 33.1333 -3.9522 4.33611 0
M  V30 348 C 35.4853 -4.0224 4.88248 0
M  V30 349 C 34.1493 -4.08259 5.28092 0
M  V30 350 H 33.4193 -0.691739 0.265665 0
M  V30 351 H 36.0663 -1.41328 1.29223 0
M  V30 352 H 34.3713 -3.88903 0.475584 0
M  V30 353 H 36.0683 -3.91536 0.866037 0
M  V30 354 H 32.6583 -3.63433 2.27189 0
M  V30 355 H 36.8423 -3.75505 3.24514 0
M  V30 356 H 32.0983 -3.98119 4.64016 0
M  V30 357 H 36.2723 -4.11468 5.61843 0
M  V30 358 H 33.8993 -4.22384 6.32057 0
M  V30 359 N 35.4744 -0.807222 -1.35358 0
M  V30 360 C 36.7224 -0.387122 -1.98358 0
M  V30 361 C 37.0434 1.04942 -1.64354 0
M  V30 362 O 36.3134 1.72615 -0.926339 0
M  V30 363 H 34.8934 -0.140154 -0.733734 0
M  V30 364 H 37.5554 -1.0332 -1.6526 0
M  V30 365 H 36.6514 -0.493352 -3.08176 0
M  V30 366 N 36.9525 1.47285 -0.560781 0
M  V30 367 C 37.9155 2.28535 0.174488 0
M  V30 368 C 38.9155 1.37153 0.839388 0
M  V30 369 O 40.1055 1.59748 0.694702 0
M  V30 370 C 37.2375 3.16934 1.25561 0
M  V30 371 H 38.4305 2.95012 -0.539262 0
M  V30 372 H 35.9835 1.53034 -0.317865 0
M  V30 373 H 36.7185 2.55157 2.00164 0
M  V30 374 H 36.5035 3.8419 0.783604 0
M  V30 375 H 37.9935 3.78143 1.77193 0
M  V30 376 N 38.4306 0.297415 1.54768 0
M  V30 377 C 39.6786 -0.312295 1.99673 0
M  V30 378 C 39.9996 -1.54686 1.18732 0
M  V30 379 O 39.2696 -1.93854 0.282382 0
M  V30 380 H 37.8496 -0.118381 0.73756 0
M  V30 381 H 40.5116 0.407915 1.90583 0
M  V30 382 H 39.6076 -0.586813 3.06534 0
M  V30 383 N 39.9087 -1.5758 0.0250728 0
M  V30 384 C 40.8387 -2.13007 -0.956575 0
M  V30 385 C 41.8197 -1.0452 -1.342 0
M  V30 386 O 43.0047 -1.32332 -1.42133 0
M  V30 387 C 40.1347 -2.65386 -2.24026 0
M  V30 388 C 39.0887 -3.78623 -1.99571 0
M  V30 389 C 38.4147 -4.17414 -3.3417 0
M  V30 390 C 39.7147 -5.04867 -1.33814 0
M  V30 391 H 41.4087 -2.9528 -0.494991 0
M  V30 392 H 38.9547 -1.42042 -0.236651 0
M  V30 393 H 40.9077 -3.02794 -2.93076 0
M  V30 394 H 39.6317 -1.80268 -2.72343 0
M  V30 395 H 38.2907 -3.41646 -1.32941 0
M  V30 396 H 37.9387 -3.29284 -3.80238 0
M  V30 397 H 37.6387 -4.93719 -3.18615 0
M  V30 398 H 39.1627 -4.57402 -4.04495 0
M  V30 399 H 40.5767 -5.39888 -1.92857 0
M  V30 400 H 38.9737 -5.86144 -1.28669 0
M  V30 401 H 40.0437 -4.83904 -0.310561 0
M  V30 402 N 41.3868 0.248026 -1.55636 0
M  V30 403 C 42.3498 1.29044 -1.89421 0
M  V30 404 C 43.3498 1.41134 -0.770581 0
M  V30 405 O 44.5398 1.39854 -1.03858 0
M  V30 406 C 41.6718 2.66831 -2.12165 0
M  V30 407 H 42.8648 1.00305 -2.82629 0
M  V30 408 H 40.4178 0.487265 -1.48511 0
M  V30 409 H 41.1528 3.00711 -1.21422 0
M  V30 410 H 40.9378 2.59438 -2.93997 0
M  V30 411 H 42.4278 3.42103 -2.3949 0
M  V30 412 N 42.8649 1.48995 0.513639 0
M  V30 413 C 43.7969 1.60836 1.63293 0
M  V30 414 C 44.8099 0.491701 1.55197 0
M  V30 415 O 45.9989 0.763238 1.6136 0
M  V30 416 C 43.0989 1.53731 3.02027 0
M  V30 417 C 42.2719 2.80715 3.35437 0
M  V30 418 C 41.3309 2.66837 4.53525 0
M  V30 419 O 40.3569 3.40753 4.55934 0
M  V30 420 N 41.5589 1.77539 5.52684 0
M  V30 421 H 44.3239 2.57366 1.53566 0
M  V30 422 H 41.8849 1.45925 0.701259 0
M  V30 423 H 43.8769 1.42118 3.78926 0
M  V30 424 H 42.4469 0.651092 3.05744 0
M  V30 425 H 41.6669 3.06772 2.47557 0
M  V30 426 H 42.9549 3.64927 3.54551 0
M  V30 427 H 42.3529 1.16719 5.53528 0
M  V30 428 H 40.9099 1.71856 6.28736 0
M  V30 429 N 44.343 -0.763751 1.37857 0
M  V30 430 C 45.306 -1.85889 1.34081 0
M  V30 431 C 46.306 -1.58949 0.243277 0
M  V30 432 O 47.496 -1.66882 0.499589 0
M  V30 433 C 44.628 -3.23176 1.08489 0
M  V30 434 H 45.821 -1.90648 2.31502 0
M  V30 435 H 43.374 -0.964367 1.23003 0
M  V30 436 H 44.109 -3.24091 0.116318 0
M  V30 437 H 43.894 -3.44124 1.8794 0
M  V30 438 H 45.384 -4.03254 1.08517 0
M  V30 439 N 45.8211 -1.22559 -0.990812 0
M  V30 440 C 46.7841 -0.998863 -2.0629 0
M  V30 441 C 47.7841 0.0354834 -1.60761 0
M  V30 442 O 48.9741 -0.203231 -1.7301 0
M  V30 443 C 46.1061 -0.509203 -3.37076 0
M  V30 444 H 47.2991 -1.95014 -2.27837 0
M  V30 445 H 44.8521 -1.04456 -1.16269 0
M  V30 446 H 45.5871 0.446335 -3.21214 0
M  V30 447 H 45.3721 -1.25547 -3.71457 0
M  V30 448 H 46.8621 -0.370888 -4.1595 0
M  V30 449 N 47.2992 1.18797 -1.03562 0
M  V30 450 C 48.2312 2.21731 -0.580337 0
M  V30 451 C 49.2442 1.59051 0.347349 0
M  V30 452 O 50.4332 1.77929 0.142669 0
M  V30 453 C 47.5332 3.38459 0.172805 0
M  V30 454 C 46.7062 4.3072 -0.761496 0
M  V30 455 C 45.7652 5.26174 -0.0525547 0
M  V30 456 O 44.7912 5.65108 -0.681333 0
M  V30 457 N 45.9932 5.67624 1.21586 0
M  V30 458 H 48.7582 2.61417 -1.46565 0
M  V30 459 H 46.3192 1.33531 -0.915476 0
M  V30 460 H 48.3112 3.99335 0.656793 0
M  V30 461 H 46.8812 2.97507 0.959602 0
M  V30 462 H 46.1012 3.67525 -1.42544 0
M  V30 463 H 47.3892 4.89267 -1.39626 0
M  V30 464 H 46.7872 5.38038 1.74732 0
M  V30 465 H 45.3442 6.30721 1.64421 0
M  V30 466 N 48.7773 0.814389 1.34928 0
M  V30 467 C 50.0543 0.321363 1.92942 0
M  V30 468 C 50.4343 -1.19014 1.74353 0
M  V30 469 O 49.7823 -1.99328 1.11716 0
M  V30 470 C 49.9923 0.741323 3.41036 0
M  V30 471 C 51.3403 0.735266 4.18185 0
M  V30 472 O 52.3643 0.68336 3.49584 0
M  V30 473 O 51.2233 0.800703 5.40602 0
M  V30 474 H 48.3173 0.0858893 0.822528 0
M  V30 475 H 50.8633 0.898609 1.43955 0
M  V30 476 H 49.6353 1.78276 3.4833 0
M  V30 477 H 49.2583 0.139307 3.97356 0
M  V30 478 N 50.2554 -1.46986 0.568584 0
M  V30 479 C 51.5034 -2.02041 0.0487022 0
M  V30 480 C 51.8244 -1.44408 -1.31039 0
M  V30 481 O 51.0944 -0.623477 -1.85714 0
M  V30 482 H 49.6744 -0.746849 0.015014 0
M  V30 483 H 52.3364 -1.80257 0.741168 0
M  V30 484 H 51.4324 -3.12085 -0.0308961 0
M  V30 485 N 51.7335 -0.305618 -1.54608 0
M  V30 486 C 52.6965 0.555591 -2.22364 0
M  V30 487 C 53.6965 1.05768 -1.21119 0
M  V30 488 O 54.8865 0.952972 -1.45822 0
M  V30 489 C 52.0185 1.76974 -2.91364 0
M  V30 490 H 53.2115 -0.0364572 -2.99878 0
M  V30 491 H 50.7645 -0.0565007 -1.56198 0
M  V30 492 H 51.4995 2.40151 -2.17941 0
M  V30 493 H 51.2845 1.41732 -3.65588 0
M  V30 494 H 52.7745 2.38148 -3.43038 0
M  V30 495 N 53.2116 1.57565 -0.0334293 0
M  V30 496 C 54.1596 2.1164 0.96496 0
M  V30 497 C 55.1536 1.04398 1.33407 0
M  V30 498 O 56.3596 1.22828 1.3158 0
M  V30 499 H 52.7346 0.676222 0.32898 0
M  V30 500 H 54.7056 2.94455 0.483614 0
M  V30 501 C 53.4546 2.66207 2.23672 0
M  V30 502 H 52.7776 3.48378 1.96145 0
M  V30 503 H 54.2176 3.07685 2.9173 0
M  V30 504 C 52.6766 1.59151 2.96939 0
M  V30 505 O 53.2066 0.993858 3.89211 0
M  V30 506 N 51.4126 1.31093 2.59351 0
M  V30 507 H 50.9596 1.7988 1.84393 0
M  V30 508 H 50.9176 0.596889 3.08682 0
M  V30 509 N 54.6897 -0.239769 1.55765 0
M  V30 510 C 55.9357 -0.968234 1.78194 0
M  V30 511 C 56.2687 -1.84701 0.599938 0
M  V30 512 O 55.5437 -1.9031 -0.401524 0
M  V30 513 C 55.8267 -1.8227 3.10564 0
M  V30 514 C 55.6797 -0.971633 4.3918 0
M  V30 515 C 56.9987 -2.80388 3.39221 0
M  V30 516 H 54.1177 -0.350572 0.648281 0
M  V30 517 H 56.7597 -0.238259 1.885 0
M  V30 518 H 54.9097 -2.44507 3.01908 0
M  V30 519 H 56.5817 -0.367408 4.59835 0
M  V30 520 H 54.8247 -0.276276 4.32919 0
M  V30 521 H 55.4957 -1.60346 5.28198 0
M  V30 522 H 57.9717 -2.28287 3.47885 0
M  V30 523 H 56.8477 -3.3729 4.33044 0
M  V30 524 H 57.1087 -3.57212 2.60484 0
M  V30 525 N 56.1678 -1.49265 -0.50573 0
M  V30 526 C 57.0978 -1.68495 -1.61653 0
M  V30 527 C 58.0788 -0.53366 -1.61512 0
M  V30 528 O 59.2638 -0.76897 -1.78327 0
M  V30 529 C 56.3938 -1.74709 -3.00157 0
M  V30 530 C 55.3478 -2.89581 -3.15162 0
M  V30 531 C 54.6738 -2.80903 -4.5497 0
M  V30 532 C 55.9738 -4.30578 -2.95634 0
M  V30 533 H 57.6678 -2.61493 -1.45814 0
M  V30 534 H 55.2138 -1.25838 -0.70005 0
M  V30 535 H 57.1668 -1.86748 -3.77761 0
M  V30 536 H 55.8908 -0.783067 -3.17074 0
M  V30 537 H 54.5498 -2.77136 -2.39982 0
M  V30 538 H 54.1978 -1.82419 -4.68756 0
M  V30 539 H 53.8978 -3.57999 -4.65951 0
M  V30 540 H 55.4218 -2.94944 -5.34641 0
M  V30 541 H 56.8358 -4.4373 -3.63011 0
M  V30 542 H 55.2328 -5.0886 -3.18091 0
M  V30 543 H 56.3028 -4.45352 -1.91806 0
M  V30 544 N 57.6459 0.756429 -1.3826 0
M  V30 545 C 58.8919 1.51772 -1.34511 0
M  V30 546 C 59.2249 1.94089 0.0656691 0
M  V30 547 O 58.4999 1.65221 1.02626 0
M  V30 548 C 58.7829 2.77226 -2.29821 0
M  V30 549 C 58.6359 2.41065 -3.79747 0
M  V30 550 C 59.9549 3.79236 -2.23312 0
M  V30 551 H 57.0739 0.550578 -0.489931 0
M  V30 552 H 59.7159 0.866607 -1.69086 0
M  V30 553 H 57.8659 3.32784 -2.00467 0
M  V30 554 H 59.5379 1.91303 -4.19763 0
M  V30 555 H 57.7809 1.7356 -3.97567 0
M  V30 556 H 58.4519 3.3081 -4.41892 0
M  V30 557 H 60.9279 3.3321 -2.49219 0
M  V30 558 H 59.8039 4.64714 -2.92116 0
M  V30 559 H 60.0649 4.24615 -1.23102 0
M  V30 560 N 59.124 1.23083 0.984299 0
M  V30 561 C 60.354 1.08556 1.75781 0
M  V30 562 C 60.762 -0.366171 1.85623 0
M  V30 563 O 60.105 -1.26524 1.33182 0
M  V30 564 C 60.167 1.63208 3.20318 0
M  V30 565 C 59.831 3.11922 3.33997 0
M  V30 566 C 60.828 4.09259 3.2063 0
M  V30 567 C 58.513 3.51552 3.58771 0
M  V30 568 C 60.507 5.4421 3.31835 0
M  V30 569 C 58.194 4.86649 3.69616 0
M  V30 570 C 59.192 5.82787 3.56157 0
M  V30 571 O 58.88 7.15431 3.66626 0
M  V30 572 H 58.612 0.380713 0.5586 0
M  V30 573 H 61.166 1.63321 1.2456 0
M  V30 574 H 59.396 1.0286 3.72769 0
M  V30 575 H 61.085 1.44216 3.79416 0
M  V30 576 H 61.851 3.79984 3.01392 0
M  V30 577 H 57.73 2.77239 3.6832 0
M  V30 578 H 61.274 6.1923 3.21247 0
M  V30 579 H 57.171 5.15601 3.88363 0
M  V30 580 H 57.939 7.23127 3.83445 0
M  V30 581 N 60.6021 -1.18246 1.0419 0
M  V30 582 C 61.8301 -1.92195 0.766072 0
M  V30 583 C 62.2451 -1.76247 -0.676933 0
M  V30 584 O 61.6021 -1.09293 -1.46155 0
M  V30 585 C 61.6531 -3.43568 1.12442 0
M  V30 586 O 61.3741 -3.59015 2.51078 0
M  V30 587 C 62.8751 -4.34613 0.873275 0
M  V30 588 H 60.0951 -0.610114 0.279288 0
M  V30 589 H 62.6391 -1.50007 1.38989 0
M  V30 590 H 60.7941 -3.8354 0.545542 0
M  V30 591 H 61.2081 -4.5273 2.64831 0
M  V30 592 H 62.6821 -5.39374 1.17385 0
M  V30 593 H 63.1591 -4.38781 -0.191909 0
M  V30 594 H 63.7651 -4.00341 1.43551 0
M  V30 595 N 62.0802 -0.821533 -1.34494 0
M  V30 596 C 63.3262 -0.409552 -1.98622 0
M  V30 597 C 63.6592 1.0244 -1.64984 0
M  V30 598 O 62.9342 1.71325 -0.920758 0
M  V30 599 C 63.2172 -0.610458 -3.54888 0
M  V30 600 C 63.0702 -2.09043 -3.98273 0
M  V30 601 C 64.3892 -0.0455379 -4.40076 0
M  V30 602 H 61.5082 -0.15028 -0.721516 0
M  V30 603 H 64.1502 -1.03384 -1.59411 0
M  V30 604 H 62.3002 -0.079044 -3.8842 0
M  V30 605 H 63.9722 -2.68537 -3.75081 0
M  V30 606 H 62.2152 -2.58139 -3.48635 0
M  V30 607 H 62.8862 -2.18182 -5.07051 0
M  V30 608 H 65.3622 -0.499557 -4.1309 0
M  V30 609 H 64.2382 -0.215922 -5.48475 0
M  V30 610 H 64.4992 1.04939 -4.29465 0
M  V30 611 N 63.5583 1.46682 -0.576371 0
M  V30 612 C 64.8053 2.02412 -0.0595339 0
M  V30 613 C 65.1333 1.44859 1.29793 0
M  V30 614 O 64.3883 0.601099 1.8624 0
M  V30 615 C 64.6873 3.57345 0.062886 0
M  V30 616 C 64.3533 4.33908 -1.22616 0
M  V30 617 C 63.0153 4.54544 -1.57933 0
M  V30 618 C 65.3673 4.77919 -2.07948 0
M  V30 619 C 62.6953 5.16444 -2.78393 0
M  V30 620 C 65.0473 5.41149 -3.27629 0
M  V30 621 C 63.7113 5.60014 -3.63236 0
M  V30 622 H 62.9813 0.74068 -0.021785 0
M  V30 623 H 65.6283 1.76128 -0.751735 0
M  V30 624 H 63.9333 3.82729 0.838178 0
M  V30 625 H 65.6303 3.98136 0.478439 0
M  V30 626 H 62.2203 4.18138 -0.941202 0
M  V30 627 H 66.4043 4.61738 -1.81967 0
M  V30 628 H 61.6603 5.29242 -3.06126 0
M  V30 629 H 65.8343 5.74211 -3.94023 0
M  V30 630 H 63.4613 6.07748 -4.56669 0
M  V30 631 N 65.0364 0.313813 1.54444 0
M  V30 632 C 65.9994 -0.54379 2.22656 0
M  V30 633 C 66.9994 -1.05124 1.21678 0
M  V30 634 O 68.1894 -0.945225 1.46325 0
M  V30 635 C 65.3214 -1.75427 2.92298 0
M  V30 636 H 66.5144 0.0523599 2.99854 0
M  V30 637 H 64.0674 0.0647834 1.56166 0
M  V30 638 H 64.8024 -2.38991 2.19211 0
M  V30 639 H 64.5874 -1.39791 3.66334 0
M  V30 640 H 66.0774 -2.36325 3.44297 0
M  V30 641 N 66.5145 -1.57545 0.0417849 0
M  V30 642 C 67.7625 -1.91937 -0.632829 0
M  V30 643 C 68.0835 -0.919978 -1.71934 0
M  V30 644 O 67.3535 0.0366064 -1.95866 0
M  V30 645 H 65.9335 -0.708493 -0.236742 0
M  V30 646 H 68.5955 -1.9468 0.0925745 0
M  V30 647 H 67.6915 -2.92912 -1.07746 0
M  V30 648 N 67.9926 0.231505 -1.5589 0
M  V30 649 C 68.9556 1.27028 -1.90779 0
M  V30 650 C 69.9556 1.40308 -0.785507 0
M  V30 651 O 71.1456 1.38744 -1.05336 0
M  V30 652 C 68.2776 2.64566 -2.14983 0
M  V30 653 H 69.4706 0.973017 -2.83677 0
M  V30 654 H 67.0236 0.471486 -1.49019 0
M  V30 655 H 67.7586 2.99406 -1.24604 0
M  V30 656 H 67.5436 2.56305 -2.96732 0
M  V30 657 H 69.0336 3.39543 -2.43105 0
M  V30 658 N 69.4707 1.49531 0.497807 0
M  V30 659 C 70.4337 1.65916 1.58128 0
M  V30 660 C 71.4337 0.530825 1.51786 0
M  V30 661 O 72.6237 0.797342 1.54881 0
M  V30 662 C 69.7557 1.65951 2.9778 0
M  V30 663 H 70.9487 2.62556 1.44929 0
M  V30 664 H 68.5017 1.38611 0.722275 0
M  V30 665 H 69.2367 0.709065 3.16453 0
M  V30 666 H 69.0217 2.47897 3.03792 0
M  V30 667 H 70.5117 1.80673 3.76493 0
M  V30 668 N 70.9488 -0.749086 1.3866 0
M  V30 669 C 71.8808 -1.87273 1.32142 0
M  V30 670 C 72.8938 -1.61127 0.232787 0
M  V30 671 O 74.0828 -1.71623 0.49069 0
M  V30 672 C 71.1828 -3.23005 1.02571 0
M  V30 673 C 70.3558 -3.7662 2.22433 0
M  V30 674 C 69.4148 -4.90879 1.89537 0
M  V30 675 O 68.4408 -5.05276 2.62078 0
M  V30 676 N 69.6428 -5.74198 0.853031 0
M  V30 677 H 72.4078 -1.93373 2.28969 0
M  V30 678 H 69.9688 -0.929216 1.32579 0
M  V30 679 H 71.9608 -3.96992 0.786085 0
M  V30 680 H 70.5308 -3.12262 0.145249 0
M  V30 681 H 69.7508 -2.94147 2.62434 0
M  V30 682 H 71.0388 -4.09173 3.02415 0
M  V30 683 H 70.4368 -5.6514 0.25155 0
M  V30 684 H 68.9938 -6.48313 0.67329 0
M  V30 685 N 72.4269 -1.23603 -0.977757 0
M  V30 686 C 73.8379 -1.06424 -1.53398 0
M  V30 687 C 74.1889 0.367578 -1.92726 0
M  V30 688 O 73.3139 1.25465 -1.76316 0
M  V30 689 C 73.9089 -1.92568 -2.78753 0
M  V30 690 C 72.4679 -1.79642 -3.30765 0
M  V30 691 C 71.6149 -1.88111 -2.03739 0
M  V30 692 H 74.5659 -1.37227 -0.797152 0
M  V30 693 H 74.5869 -1.45203 -3.51705 0
M  V30 694 H 74.0989 -2.96771 -2.50098 0
M  V30 695 H 72.1999 -0.782325 -3.64294 0
M  V30 696 H 72.3129 -2.63174 -4.00345 0
M  V30 697 H 70.6769 -1.31723 -2.17994 0
M  V30 698 H 71.4599 -2.93875 -1.77461 0
M  V30 699 N 73.905 1.17692 -1.04816 0
M  V30 700 C 75.316 1.69501 -0.782698 0
M  V30 701 C 75.667 1.83456 0.695577 0
M  V30 702 O 74.792 1.51942 1.54086 0
M  V30 703 C 75.387 3.07874 -1.41419 0
M  V30 704 C 73.946 3.56864 -1.19686 0
M  V30 705 C 73.093 2.3322 -1.50012 0
M  V30 706 H 76.044 1.02262 -1.2136 0
M  V30 707 H 76.065 3.71528 -0.821428 0
M  V30 708 H 75.577 2.97685 -2.49009 0
M  V30 709 H 73.678 3.72337 -0.140043 0
M  V30 710 H 73.791 4.39851 -1.89916 0
M  V30 711 H 72.155 2.37501 -0.920071 0
M  V30 712 H 72.938 2.25644 -2.58727 0
M  V30 713 N 75.3831 0.828654 1.34056 0
M  V30 714 C 76.6131 0.431993 2.02033 0
M  V30 715 C 77.0211 -0.96844 1.62536 0
M  V30 716 O 76.3641 -1.6391 0.829408 0
M  V30 717 C 76.4261 0.461224 3.56529 0
M  V30 718 C 76.0901 1.81599 4.1937 0
M  V30 719 C 77.0871 2.7777 4.39477 0
M  V30 720 C 74.7721 2.10604 4.56017 0
M  V30 721 C 76.7661 4.01115 4.95364 0
M  V30 722 C 74.4531 3.34207 5.11614 0
M  V30 723 C 75.4511 4.2928 5.31232 0
M  V30 724 O 75.1391 5.50699 5.8565 0
M  V30 725 H 74.8711 0.170943 0.654029 0
M  V30 726 H 77.4251 1.11988 1.72185 0
M  V30 727 H 75.6551 -0.283388 3.8566 0
M  V30 728 H 77.3441 0.0838149 4.05813 0
M  V30 729 H 78.1101 2.56659 4.11523 0
M  V30 730 H 73.9891 1.37402 4.40047 0
M  V30 731 H 77.5331 4.75333 5.10592 0
M  V30 732 H 73.4301 3.55179 5.38997 0
M  V30 733 H 74.1981 5.52298 6.04077 0
M  V30 734 N 76.8612 -1.46375 0.584142 0
M  V30 735 C 78.0862 -2.07268 0.0740405 0
M  V30 736 C 78.5112 -1.42979 -1.22223 0
M  V30 737 O 77.8692 -0.514092 -1.73859 0
M  V30 738 C 77.9172 -3.60518 -0.0767769 0
M  V30 739 O 77.0212 -3.96533 -1.13292 0
M  V30 740 H 76.3622 -0.660961 0.0634524 0
M  V30 741 H 78.8922 -1.87991 0.807492 0
M  V30 742 H 78.9022 -4.07021 -0.282489 0
M  V30 743 H 77.5772 -4.06702 0.86986 0
M  V30 744 H 76.1542 -3.61738 -0.905553 0
M  V30 745 N 78.3393 -0.321999 -1.54275 0
M  V30 746 C 79.7503 0.166384 -1.85957 0
M  V30 747 C 80.1013 1.51747 -1.24367 0
M  V30 748 O 79.2263 2.09317 -0.549124 0
M  V30 749 C 79.8213 0.308681 -3.37391 0
M  V30 750 C 78.3803 0.741286 -3.69028 0
M  V30 751 C 77.5273 -0.137937 -2.76957 0
M  V30 752 H 80.4783 -0.542335 -1.49146 0
M  V30 753 H 80.4993 1.13984 -3.63026 0
M  V30 754 H 80.0113 -0.674809 -3.82188 0
M  V30 755 H 78.1123 1.73458 -3.29762 0
M  V30 756 H 78.2253 0.546118 -4.75977 0
M  V30 757 H 76.5893 0.386251 -2.51754 0
M  V30 758 H 77.3723 -1.11816 -3.2458 0
M  V30 759 N 79.8174 1.5752 -0.0501392 0
M  V30 760 C 80.7804 2.1037 0.909786 0
M  V30 761 C 81.7804 1.02308 1.24056 0
M  V30 762 O 82.9704 1.28385 1.17741 0
M  V30 763 C 80.1024 2.58708 2.21998 0
M  V30 764 H 81.2954 2.96479 0.451665 0
M  V30 765 H 78.8484 1.55038 0.198248 0
M  V30 766 H 79.5834 1.75989 2.72394 0
M  V30 767 H 79.3684 3.37675 1.99295 0
M  V30 768 H 80.8584 2.99747 2.9076 0
M  V30 769 N 81.2955 -0.223234 1.56011 0
M  V30 770 C 82.2585 -1.26014 1.9145 0
M  V30 771 C 83.2585 -1.3989 0.792937 0
M  V30 772 O 84.4485 -1.38184 1.0607 0
M  V30 773 C 81.5805 -2.63422 2.16383 0
M  V30 774 H 82.7735 -0.95796 2.84189 0
M  V30 775 H 80.3265 -0.463576 1.49267 0
M  V30 776 H 81.0615 -2.98741 1.2619 0
M  V30 777 H 80.8465 -2.54728 2.98088 0
M  V30 778 H 82.3365 -3.38249 2.44903 0
M  V30 779 N 82.7736 -1.49793 -0.48987 0
M  V30 780 C 83.7056 -1.63413 -1.60713 0
M  V30 781 C 84.7186 -0.516329 -1.54395 0
M  V30 782 O 85.9076 -0.788812 -1.60125 0
M  V30 783 C 83.0076 -1.58516 -2.99543 0
M  V30 784 C 82.1806 -2.86016 -3.30928 0
M  V30 785 C 81.2396 -2.74018 -4.49222 0
M  V30 786 O 80.2656 -3.47964 -4.50455 0
M  V30 787 N 81.4676 -1.86309 -5.4979 0
M  V30 788 H 84.2326 -2.59777 -1.49452 0
M  V30 789 H 81.7936 -1.47022 -0.677955 0
M  V30 790 H 83.7856 -1.48128 -3.76617 0
M  V30 791 H 82.3556 -0.69965 -3.0467 0
M  V30 792 H 81.5756 -3.10672 -2.42645 0
M  V30 793 H 82.8636 -3.70521 -3.487 0
M  V30 794 H 82.2616 -1.2551 -5.51601 0
M  V30 795 H 80.8186 -1.81837 -6.25922 0
M  V30 796 N 84.2517 0.741722 -1.39055 0
M  V30 797 C 85.6677 1.04638 -1.20512 0
M  V30 798 C 85.8677 2.01405 -0.0620218 0
M  V30 799 O 84.9237 2.45547 0.588457 0
M  V30 800 C 86.2367 1.6151 -2.53643 0
M  V30 801 C 87.7847 1.73623 -2.6043 0
M  V30 802 C 88.2597 2.33906 -3.93767 0
M  V30 803 N 89.7507 2.41323 -3.9537 0
M  V30 804 C 90.4857 2.88888 -4.95309 0
M  V30 805 N 89.9817 3.36401 -6.05645 0
M  V30 806 N 91.7747 2.88037 -4.82692 0
M  V30 807 H 83.9257 0.0998155 -2.12165 0
M  V30 808 H 86.1887 0.106907 -0.941953 0
M  V30 809 H 85.8947 0.978739 -3.37807 0
M  V30 810 H 85.7687 2.60411 -2.72885 0
M  V30 811 H 88.1557 2.36384 -1.76655 0
M  V30 812 H 88.2367 0.733945 -2.45045 0
M  V30 813 H 87.8807 1.71776 -4.7797 0
M  V30 814 H 87.8107 3.34799 -4.06469 0
M  V30 815 H 90.3017 2.07734 -3.15682 0
M  V30 816 H 90.6147 3.71186 -6.77821 0
M  V30 817 H 88.9597 3.34427 -6.09248 0
M  V30 818 H 92.1507 2.50237 -3.95599 0
M  V30 819 H 92.3237 3.24792 -5.60726 0
M  V30 820 N 85.7298 1.2412 0.971189 0
M  V30 821 C 86.6628 0.97373 2.06382 0
M  V30 822 C 87.6408 -0.0912662 1.62344 0
M  V30 823 O 88.8248 0.0449365 1.88446 0
M  V30 824 C 85.9518 0.468746 3.35441 0
M  V30 825 C 84.9978 1.52176 3.98428 0
M  V30 826 S 85.8308 3.10203 4.36503 0
M  V30 827 C 86.9868 2.61398 5.68702 0
M  V30 828 H 87.2198 1.89893 2.28753 0
M  V30 829 H 84.7528 1.07466 1.10862 0
M  V30 830 H 86.7108 0.184012 4.10087 0
M  V30 831 H 85.3718 -0.435688 3.11064 0
M  V30 832 H 84.5648 1.11876 4.91426 0
M  V30 833 H 84.1668 1.75632 3.30196 0
M  V30 834 H 86.4588 2.03992 6.4606 0
M  V30 835 H 87.4018 3.52972 6.13854 0
M  V30 836 H 87.8098 2.01941 5.27143 0
M  V30 837 N 87.2079 -1.17134 1.05439 0
M  V30 838 C 88.1579 -2.1919 0.627675 0
M  V30 839 C 89.1419 -1.57328 -0.337147 0
M  V30 840 O 90.3339 -1.76329 -0.153976 0
M  V30 841 C 87.4629 -3.43299 0.00651435 0
M  V30 842 C 86.5489 -4.12255 0.995312 0
M  V30 843 N 86.9399 -4.56997 2.16765 0
M  V30 844 C 85.2379 -4.38316 0.824336 0
M  V30 845 C 85.9389 -5.10239 2.7934 0
M  V30 846 N 84.9149 -5.02595 2.07122 0
M  V30 847 H 88.7169 -2.5149 1.52086 0
M  V30 848 H 86.2309 -1.33491 0.924868 0
M  V30 849 H 88.2279 -4.15693 -0.316965 0
M  V30 850 H 86.8879 -3.1249 -0.882033 0
M  V30 851 H 87.8989 -4.51006 2.54587 0
M  V30 852 H 84.5759 -4.17498 -0.0129526 0
M  V30 853 H 85.9659 -5.54961 3.78772 0
M  V30 854 N 88.686 -0.835752 -1.33615 0
M  V30 855 C 89.914 -0.443344 -2.02094 0
M  V30 856 C 90.329 0.954522 -1.62894 0
M  V30 857 O 89.686 1.61982 -0.840723 0
M  V30 858 C 89.737 -0.550775 -3.5728 0
M  V30 859 O 89.458 -1.89356 -3.95065 0
M  V30 860 C 90.959 -0.154919 -4.43029 0
M  V30 861 H 88.179 -0.176359 -0.647409 0
M  V30 862 H 90.723 -1.12746 -1.70612 0
M  V30 863 H 88.878 0.0853997 -3.87306 0
M  V30 864 H 89.292 -1.87687 -4.89769 0
M  V30 865 H 90.766 -0.281144 -5.51284 0
M  V30 866 H 91.243 0.902863 -4.2982 0
M  V30 867 H 91.849 -0.765404 -4.18356 0
M  V30 868 N 90.1641 1.46063 -0.591896 0
M  V30 869 C 91.4131 2.01547 -0.0786637 0
M  V30 870 C 91.7261 1.46796 1.29268 0
M  V30 871 O 92.9321 1.94157 1.89777 0
M  V30 872 C 91.3881 3.59787 -0.0900024 0
M  V30 873 C 90.9961 4.23534 -1.46023 0
M  V30 874 C 92.7401 4.22895 0.368806 0
M  V30 875 C 90.6471 5.73881 -1.4288 0
M  V30 876 H 89.5771 0.753564 -0.0256388 0
M  V30 877 H 92.2281 1.677 -0.744905 0
M  V30 878 H 90.6101 3.90752 0.642586 0
M  V30 879 H 91.7841 4.04167 -2.21328 0
M  V30 880 H 90.0991 3.72558 -1.85982 0
M  V30 881 H 92.6961 5.33116 0.411258 0
M  V30 882 H 93.0391 3.9247 1.38827 0
M  V30 883 H 93.5721 3.9659 -0.31001 0
M  V30 884 H 90.3111 6.0898 -2.42536 0
M  V30 885 H 89.8311 5.95486 -0.718095 0
M  V30 886 H 91.5101 6.36776 -1.14565 0
M  V30 887 N 91.6422 0.330177 1.54103 0
M  V30 888 C 92.8882 -0.263542 2.01685 0
M  V30 889 C 93.2432 -1.49258 1.21408 0
M  V30 890 O 92.5362 -1.89395 0.289852 0
M  V30 891 C 92.7302 -0.643134 3.51566 0
M  V30 892 C 92.5592 0.547571 4.46354 0
M  V30 893 C 91.3292 1.04873 4.94297 0
M  V30 894 C 93.5272 1.40184 4.94826 0
M  V30 895 N 91.5092 2.20316 5.73005 0
M  V30 896 C 92.8802 2.40335 5.71524 0
M  V30 897 C 94.9352 1.42884 4.76958 0
M  V30 898 C 93.6382 3.42998 6.32254 0
M  V30 899 C 95.6642 2.44421 5.38528 0
M  V30 900 C 95.0262 3.43298 6.15082 0
M  V30 901 H 91.1252 -0.0601026 0.779687 0
M  V30 902 H 93.7092 0.466714 1.89023 0
M  V30 903 H 91.8802 -1.34251 3.6446 0
M  V30 904 H 93.6122 -1.21889 3.85908 0
M  V30 905 H 90.3672 0.618956 4.69538 0
M  V30 906 H 90.7912 2.78565 6.17034 0
M  V30 907 H 95.4332 0.678049 4.17328 0
M  V30 908 H 93.1512 4.1898 6.91 0
M  V30 909 H 96.7372 2.4732 5.26616 0
M  V30 910 H 95.6172 4.20579 6.61878 0
M  V30 911 N 93.1203 -1.57491 0.0584922 0
M  V30 912 C 94.3683 -1.92597 -0.612436 0
M  V30 913 C 94.6893 -0.938162 -1.70949 0
M  V30 914 O 93.9593 0.0158301 -1.95894 0
M  V30 915 H 92.5393 -0.710964 -0.229214 0
M  V30 916 H 95.2013 -1.94571 0.113218 0
M  V30 917 H 94.2973 -2.94038 -1.04633 0
M  V30 918 N 94.5984 0.214957 -1.56127 0
M  V30 919 C 95.5284 1.2695 -1.95974 0
M  V30 920 C 96.5094 1.48539 -0.828868 0
M  V30 921 O 97.6944 1.60611 -1.09168 0
M  V30 922 C 94.8244 2.61794 -2.28214 0
M  V30 923 C 93.7784 2.54851 -3.43853 0
M  V30 924 C 93.1044 3.93785 -3.61715 0
M  V30 925 C 94.4044 2.09065 -4.78632 0
M  V30 926 H 96.0984 0.93846 -2.84312 0
M  V30 927 H 93.6444 0.449996 -1.36788 0
M  V30 928 H 95.5974 3.35731 -2.54682 0
M  V30 929 H 94.3214 2.96599 -1.36736 0
M  V30 930 H 92.9804 1.8337 -3.17444 0
M  V30 931 H 92.6284 4.25908 -2.67602 0
M  V30 932 H 92.3284 3.90019 -4.39498 0
M  V30 933 H 93.8524 4.69374 -3.90539 0
M  V30 934 H 95.2664 2.7275 -5.04262 0
M  V30 935 H 93.6634 2.16346 -5.59745 0
M  V30 936 H 94.7334 1.04315 -4.73547 0
M  V30 937 N 96.0765 1.50051 0.48192 0
M  V30 938 C 97.0395 1.67584 1.5636 0
M  V30 939 C 98.0395 0.546894 1.51214 0
M  V30 940 O 99.2295 0.813725 1.54026 0
M  V30 941 C 96.3615 1.691 2.96003 0
M  V30 942 H 97.5545 2.64078 1.42136 0
M  V30 943 H 95.1075 1.39369 0.707533 0
M  V30 944 H 95.8425 0.742589 3.15684 0
M  V30 945 H 95.6275 2.51105 3.01146 0
M  V30 946 H 97.1175 1.84656 3.74556 0
M  V30 947 N 97.5546 -0.734337 1.39446 0
M  V30 948 C 98.9656 -1.31264 1.32766 0
M  V30 949 C 99.3166 -1.96198 -0.00767497 0
M  V30 950 O 98.4416 -1.96346 -0.909796 0
M  V30 951 C 99.0366 -2.38682 2.4045 0
M  V30 952 C 97.5956 -2.92184 2.37288 0
M  V30 953 C 96.7426 -1.6576 2.22304 0
M  V30 954 H 99.6936 -0.531799 1.49525 0
M  V30 955 H 99.7146 -3.19087 2.07276 0
M  V30 956 H 99.2266 -1.91392 3.37625 0
M  V30 957 H 97.3276 -3.43752 1.43754 0
M  V30 958 H 97.4406 -3.45253 3.3217 0
M  V30 959 H 95.8046 -1.9012 1.69489 0
M  V30 960 H 96.5876 -1.20521 3.21449 0
M  V30 961 N 99.0327 -1.24633 -0.964593 0
M  V30 962 C 100.31 -0.995809 -1.68354 0
M  V30 963 C 100.69 0.480964 -2.05548 0
M  V30 964 O 100.038 1.45599 -1.76105 0
M  V30 965 C 100.248 -1.92177 -2.91323 0
M  V30 966 C 101.596 -2.19446 -3.63495 0
M  V30 967 O 102.62 -1.89855 -3.01386 0
M  V30 968 O 101.479 -2.69714 -4.75307 0
M  V30 969 H 98.5727 -0.376854 -0.736146 0
M  V30 970 H 101.119 -1.35745 -1.0184 0
M  V30 971 H 99.8907 -2.91938 -2.60553 0
M  V30 972 H 99.5137 -1.56349 -3.65569 0
M  V30 973 N 100.511 1.16574 -1.06058 0
M  V30 974 C 101.788 1.83048 -0.689416 0
M  V30 975 C 102.168 1.94122 0.829443 0
M  V30 976 O 101.516 1.48249 1.7388 0
M  V30 977 C 101.726 3.20186 -1.38859 0
M  V30 978 C 103.074 3.95989 -1.53226 0
M  V30 979 O 104.098 3.29696 -1.3483 0
M  V30 980 O 102.957 5.14813 -1.83384 0
M  V30 981 H 100.051 0.790258 -0.243764 0
M  V30 982 H 102.597 1.23797 -1.16071 0
M  V30 983 H 101.369 3.07146 -2.4244 0
M  V30 984 H 100.992 3.87112 -0.907216 0
M  V30 985 N 101.989 0.842826 1.3317 0
M  V30 986 C 103.266 0.362216 1.92217 0
M  V30 987 C 103.646 -1.15289 1.76838 0
M  V30 988 O 102.994 -1.96914 1.15919 0
M  V30 989 C 103.204 0.813495 3.39387 0
M  V30 990 C 104.552 0.823804 4.16532 0
M  V30 991 O 105.576 0.757358 3.48055 0
M  V30 992 O 104.435 0.915193 5.38782 0
M  V30 993 H 101.529 0.103317 0.820521 0
M  V30 994 H 104.075 0.928942 1.42017 0
M  V30 995 H 102.847 1.85624 3.4447 0
M  V30 996 H 102.47 0.223561 3.96971 0
M  V30 997 N 103.467 -1.45747 0.599634 0
M  V30 998 C 104.43 -2.28917 -0.113835 0
M  V30 999 C 105.43 -1.3933 -0.802729 0
M  V30 1000 O 106.62 -1.61534 -0.652103 0
M  V30 1001 C 103.752 -3.20152 -1.17114 0
M  V30 1002 H 104.945 -2.93478 0.617289 0
M  V30 1003 H 102.498 -1.52137 0.358327 0
M  V30 1004 H 103.233 -2.60374 -1.93329 0
M  V30 1005 H 103.018 -3.86133 -0.681468 0
M  V30 1006 H 104.508 -3.82708 -1.67105 0
M  V30 1007 N 104.945 -0.338344 -1.53925 0
M  V30 1008 C 106.191 0.260143 -2.01125 0
M  V30 1009 C 106.524 1.50617 -1.22589 0
M  V30 1010 O 105.799 1.91979 -0.312113 0
M  V30 1011 C 106.082 0.579499 -3.55407 0
M  V30 1012 C 105.935 -0.678264 -4.44657 0
M  V30 1013 C 107.254 1.39122 -4.17532 0
M  V30 1014 H 104.373 0.0930772 -0.731099 0
M  V30 1015 H 107.015 -0.457852 -1.84401 0
M  V30 1016 H 105.165 1.19118 -3.69788 0
M  V30 1017 H 106.837 -1.31631 -4.42121 0
M  V30 1018 H 105.08 -1.3042 -4.13731 0
M  V30 1019 H 105.751 -0.410143 -5.50474 0
M  V30 1020 H 108.227 0.874035 -4.06817 0
M  V30 1021 H 107.103 1.58342 -5.25565 0
M  V30 1022 H 107.364 2.39178 -3.71815 0
M  V30 1023 N 106.423 1.57458 -0.0668435 0
M  V30 1024 C 107.353 2.15468 0.899764 0
M  V30 1025 C 108.334 1.08042 1.31381 0
M  V30 1026 O 109.519 1.36054 1.38574 0
M  V30 1027 C 106.649 2.71232 2.16911 0
M  V30 1028 C 105.603 3.83781 1.89463 0
M  V30 1029 C 104.929 4.26127 3.22986 0
M  V30 1030 C 106.229 5.08238 1.20381 0
M  V30 1031 H 107.923 2.96488 0.416529 0
M  V30 1032 H 105.469 1.4262 0.198908 0
M  V30 1033 H 107.422 3.10458 2.84945 0
M  V30 1034 H 106.146 1.87426 2.67468 0
M  V30 1035 H 104.805 3.45051 1.23836 0
M  V30 1036 H 104.453 3.39249 3.71374 0
M  V30 1037 H 104.153 5.01993 3.05413 0
M  V30 1038 H 105.677 4.67966 3.92225 0
M  V30 1039 H 107.091 5.44811 1.78475 0
M  V30 1040 H 105.488 5.89349 1.13083 0
M  V30 1041 H 106.558 4.84558 0.182153 0
M  V30 1042 N 107.901 -0.206675 1.56239 0
M  V30 1043 C 109.131 -0.943975 1.83773 0
M  V30 1044 C 109.539 -1.77841 0.645703 0
M  V30 1045 O 108.882 -1.79403 -0.395008 0
M  V30 1046 C 108.944 -1.899 3.05251 0
M  V30 1047 C 108.608 -1.24764 4.39639 0
M  V30 1048 C 109.605 -0.630216 5.16066 0
M  V30 1049 C 107.29 -1.25496 4.8637 0
M  V30 1050 C 109.284 -0.0287946 6.37393 0
M  V30 1051 C 106.971 -0.649698 6.07637 0
M  V30 1052 C 107.969 -0.0376845 6.8299 0
M  V30 1053 O 107.657 0.55812 8.0196 0
M  V30 1054 H 107.389 -0.281508 0.614597 0
M  V30 1055 H 109.943 -0.222458 2.04192 0
M  V30 1056 H 108.173 -2.6599 2.80689 0
M  V30 1057 H 109.862 -2.5031 3.1953 0
M  V30 1058 H 110.628 -0.616785 4.81062 0
M  V30 1059 H 106.507 -1.72072 4.27683 0
M  V30 1060 H 110.051 0.449518 6.9615 0
M  V30 1061 H 105.948 -0.660592 6.42111 0
M  V30 1062 H 106.716 0.453891 8.17241 0
M  V30 1063 N 109.379 -1.50304 -0.473955 0
M  V30 1064 C 110.795 -1.37667 -0.807466 0
M  V30 1065 C 110.995 -0.430555 -1.96846 0
M  V30 1066 O 110.051 0.127874 -2.52176 0
M  V30 1067 C 111.364 -2.78974 -1.12223 0
M  V30 1068 C 112.912 -2.87868 -1.22885 0
M  V30 1069 C 113.387 -4.30003 -1.57676 0
M  V30 1070 N 114.878 -4.3294 -1.64673 0
M  V30 1071 C 115.613 -5.3991 -1.93091 0
M  V30 1072 N 115.109 -6.57092 -2.1955 0
M  V30 1073 N 116.902 -5.27351 -1.94569 0
M  V30 1074 H 109.053 -2.10394 0.291212 0
M  V30 1075 H 111.316 -0.945575 0.0677609 0
M  V30 1076 H 111.022 -3.50031 -0.342229 0
M  V30 1077 H 110.896 -3.16038 -2.05913 0
M  V30 1078 H 113.283 -2.17032 -1.99953 0
M  V30 1079 H 113.364 -2.54352 -0.271814 0
M  V30 1080 H 113.008 -5.01375 -0.81149 0
M  V30 1081 H 112.938 -4.61004 -2.54525 0
M  V30 1082 H 115.429 -3.48441 -1.46277 0
M  V30 1083 H 115.742 -7.34425 -2.405 0
M  V30 1084 H 114.087 -6.60272 -2.16948 0
M  V30 1085 H 117.278 -4.34801 -1.73394 0
M  V30 1086 H 117.451 -6.10805 -2.16381 0
M  V30 1087 N 110.857 0.726932 -1.39834 0
M  V30 1088 C 112.273 1.03354 -1.21615 0
M  V30 1089 C 112.473 2.01327 -0.08338 0
M  V30 1090 O 111.529 2.46158 0.56238 0
M  V30 1091 C 112.842 1.58811 -2.55342 0
M  V30 1092 C 114.39 1.70851 -2.62257 0
M  V30 1093 C 114.865 2.29716 -3.96225 0
M  V30 1094 N 116.356 2.37116 -3.97907 0
M  V30 1095 C 117.091 2.83619 -4.98345 0
M  V30 1096 N 116.587 3.29958 -6.09179 0
M  V30 1097 N 118.38 2.82901 -4.8572 0
M  V30 1098 H 110.531 0.0773069 -2.12259 0
M  V30 1099 H 112.794 0.0969102 -0.943034 0
M  V30 1100 H 112.5 0.942855 -3.38826 0
M  V30 1101 H 112.374 2.57502 -2.75632 0
M  V30 1102 H 114.761 2.34497 -1.79152 0
M  V30 1103 H 114.842 0.707913 -2.45809 0
M  V30 1104 H 114.486 1.66696 -4.79765 0
M  V30 1105 H 114.416 3.30469 -4.09997 0
M  V30 1106 H 116.907 2.04374 -3.17868 0
M  V30 1107 H 117.22 3.63976 -6.8172 0
M  V30 1108 H 115.565 3.27946 -6.12761 0
M  V30 1109 H 118.756 2.46027 -3.98231 0
M  V30 1110 H 118.929 3.18827 -5.6414 0
M  V30 1111 N 112.336 1.25143 0.95797 0
M  V30 1112 C 113.283 1.05235 2.05412 0
M  V30 1113 C 114.253 -0.0374561 1.66058 0
M  V30 1114 O 115.438 0.119073 1.90428 0
M  V30 1115 C 112.578 0.673589 3.38462 0
M  V30 1116 C 111.691 1.8379 3.90954 0
M  V30 1117 C 110.826 1.40381 5.12315 0
M  V30 1118 C 109.865 2.53746 5.57027 0
M  V30 1119 N 109.002 2.11136 6.69601 0
M  V30 1120 H 113.842 1.99048 2.21774 0
M  V30 1121 H 111.379 0.991277 1.08683 0
M  V30 1122 H 113.337 0.434964 4.14926 0
M  V30 1123 H 111.967 -0.227554 3.21997 0
M  V30 1124 H 111.019 2.18992 3.11041 0
M  V30 1125 H 112.331 2.68937 4.20089 0
M  V30 1126 H 111.485 1.12464 5.96185 0
M  V30 1127 H 110.224 0.523015 4.84887 0
M  V30 1128 H 109.229 2.82412 4.71724 0
M  V30 1129 H 110.454 3.42398 5.86464 0
M  V30 1130 H 108.4 1.25468 6.4389 0
M  V30 1131 H 108.317 2.89832 6.98236 0
M  V30 1132 H 109.585 1.86385 7.56889 0
M  V30 1133 N 113.814 -1.1601 1.06675 0
M  V30 1134 C 114.724 -2.24156 0.692179 0
M  V30 1135 C 115.74 -1.71507 -0.293513 0
M  V30 1136 O 116.916 -2.009 -0.141861 0
M  V30 1137 C 113.981 -3.46587 0.0884131 0
M  V30 1138 C 113.042 -4.14257 1.12646 0
M  V30 1139 C 112.275 -5.30844 0.551416 0
M  V30 1140 O 112.498 -5.66858 -0.634656 0
M  V30 1141 O 111.432 -5.87848 1.29298 0
M  V30 1142 H 115.258 -2.58513 1.59388 0
M  V30 1143 H 112.843 -1.23599 0.83926 0
M  V30 1144 H 114.725 -4.20679 -0.246361 0
M  V30 1145 H 113.4 -3.13994 -0.786712 0
M  V30 1146 H 112.307 -3.42118 1.51348 0
M  V30 1147 H 113.64 -4.50914 1.97325 0
M  V30 1148 N 115.292 -0.849877 -1.32721 0
M  V30 1149 C 116.569 -0.372405 -1.92022 0
M  V30 1150 C 116.949 1.1435 -1.77447 0
M  V30 1151 O 116.297 1.96296 -1.16962 0
M  V30 1152 C 116.507 -0.831482 -3.3895 0
M  V30 1153 C 117.855 -0.845882 -4.16089 0
M  V30 1154 O 118.879 -0.775806 -3.47649 0
M  V30 1155 O 117.738 -0.943753 -5.38289 0
M  V30 1156 H 114.832 -0.107667 -0.819961 0
M  V30 1157 H 117.378 -0.93646 -1.41522 0
M  V30 1158 H 116.15 -1.87448 -3.4348 0
M  V30 1159 H 115.773 -0.24461 -3.96847 0
M  V30 1160 N 116.77 1.45427 -0.607355 0
M  V30 1161 C 118.019 2.01452 -0.100036 0
M  V30 1162 C 118.332 1.48159 1.27704 0
M  V30 1163 O 119.538 1.96159 1.87707 0
M  V30 1164 C 117.994 3.59672 -0.128158 0
M  V30 1165 C 117.602 4.21962 -1.50507 0
M  V30 1166 C 119.346 4.23262 0.323932 0
M  V30 1167 C 117.253 5.72333 -1.48959 0
M  V30 1168 H 116.183 0.75325 -0.0336299 0
M  V30 1169 H 118.834 1.66901 -0.76265 0
M  V30 1170 H 117.216 3.91411 0.601105 0
M  V30 1171 H 118.39 4.01796 -2.25602 0
M  V30 1172 H 116.705 3.70565 -1.89923 0
M  V30 1173 H 119.302 5.33522 0.354691 0
M  V30 1174 H 119.645 3.93921 1.34656 0
M  V30 1175 H 120.178 3.96239 -0.352056 0
M  V30 1176 H 116.917 6.06373 -2.48981 0
M  V30 1177 H 116.437 5.94691 -0.781214 0
M  V30 1178 H 118.116 6.35525 -1.21313 0
M  V30 1179 N 118.248 0.346503 1.53744 0
M  V30 1180 C 119.211 -0.496439 2.23759 0
M  V30 1181 C 120.211 -1.0252 1.2388 0
M  V30 1182 O 121.401 -0.913974 1.48297 0
M  V30 1183 C 118.533 -1.69187 2.95954 0
M  V30 1184 H 119.726 0.115952 2.99676 0
M  V30 1185 H 117.279 0.0978939 1.55993 0
M  V30 1186 H 118.014 -2.34288 2.24231 0
M  V30 1187 H 117.799 -1.31989 3.69217 0
M  V30 1188 H 119.289 -2.28969 3.49232 0
M  V30 1189 N 119.726 -1.57421 0.075193 0
M  V30 1190 C 120.689 -2.11791 -0.876203 0
M  V30 1191 C 121.689 -1.04268 -1.22412 0
M  V30 1192 O 122.879 -1.30242 -1.15684 0
M  V30 1193 C 120.011 -2.62207 -2.17854 0
M  V30 1194 H 121.204 -2.9716 -0.40444 0
M  V30 1195 H 118.757 -1.55333 -0.173557 0
M  V30 1196 H 119.492 -1.803 -2.6956 0
M  V30 1197 H 119.277 -3.40802 -1.93897 0
M  V30 1198 H 120.767 -3.04335 -2.85955 0
M  V30 1199 N 121.204 0.198386 -1.56346 0
M  V30 1200 C 122.134 1.24865 -1.9731 0
M  V30 1201 C 123.115 1.47651 -0.844576 0
M  V30 1202 O 124.3 1.59444 -1.10866 0
M  V30 1203 C 121.43 2.59358 -2.30977 0
M  V30 1204 C 120.384 2.5119 -3.46537 0
M  V30 1205 C 119.71 3.89926 -3.65871 0
M  V30 1206 C 121.01 2.03977 -4.80823 0
M  V30 1207 H 122.704 0.908252 -2.85291 0
M  V30 1208 H 120.25 0.435462 -1.37258 0
M  V30 1209 H 122.203 3.33011 -2.58228 0
M  V30 1210 H 120.927 2.95132 -1.39874 0
M  V30 1211 H 119.586 1.79993 -3.19371 0
M  V30 1212 H 119.234 4.23046 -2.72105 0
M  V30 1213 H 118.934 3.85336 -4.4361 0
M  V30 1214 H 120.458 4.65205 -3.95495 0
M  V30 1215 H 121.872 2.67386 -5.07127 0
M  V30 1216 H 120.269 2.10397 -5.62008 0
M  V30 1217 H 121.339 0.992861 -4.74626 0
M  V30 1218 N 122.682 1.50554 0.465978 0
M  V30 1219 C 123.959 1.5232 1.22712 0
M  V30 1220 C 124.339 0.270807 2.09356 0
M  V30 1221 O 123.687 -0.745541 2.15995 0
M  V30 1222 C 123.897 2.82175 2.05374 0
M  V30 1223 C 125.245 3.33033 2.6339 0
M  V30 1224 O 126.269 2.83531 2.15612 0
M  V30 1225 O 125.128 4.19336 3.50456 0
M  V30 1226 H 122.222 0.611183 0.557122 0
M  V30 1227 H 124.768 1.62847 0.477381 0
M  V30 1228 H 123.54 3.64797 1.41558 0
M  V30 1229 H 123.163 2.74675 2.87471 0
M  V30 1230 N 124.16 -0.719506 1.40217 0
M  V30 1231 C 125.11 -1.8251 1.36653 0
M  V30 1232 C 126.094 -1.59028 0.244732 0
M  V30 1233 O 127.286 -1.70268 0.483524 0
M  V30 1234 C 124.415 -3.20599 1.22763 0
M  V30 1235 C 123.501 -3.49858 2.39708 0
M  V30 1236 N 123.892 -3.49957 3.6519 0
M  V30 1237 C 122.19 -3.80297 2.33002 0
M  V30 1238 C 122.891 -3.77449 4.42614 0
M  V30 1239 N 121.867 -3.96002 3.72402 0
M  V30 1240 H 125.669 -1.80914 2.31619 0
M  V30 1241 H 123.183 -0.918455 1.33933 0
M  V30 1242 H 125.18 -3.99766 1.18292 0
M  V30 1243 H 123.84 -3.23424 0.287614 0
M  V30 1244 H 124.851 -3.309 3.98404 0
M  V30 1245 H 121.528 -3.90635 1.47346 0
M  V30 1246 H 122.918 -3.83863 5.51451 0
M  V30 1247 N 125.638 -1.25649 -0.95132 0
M  V30 1248 C 126.568 -1.08808 -2.06599 0
M  V30 1249 C 127.549 0.00382547 -1.701 0
M  V30 1250 O 128.734 -0.166325 -1.93486 0
M  V30 1251 C 125.864 -0.709542 -3.39975 0
M  V30 1252 C 124.818 -1.75206 -3.90496 0
M  V30 1253 C 124.144 -1.22811 -5.20405 0
M  V30 1254 C 125.444 -3.15153 -4.16504 0
M  V30 1255 H 127.138 -2.02048 -2.20946 0
M  V30 1256 H 124.684 -0.972835 -1.06169 0
M  V30 1257 H 126.637 -0.578649 -4.17408 0
M  V30 1258 H 125.361 0.258556 -3.25575 0
M  V30 1259 H 124.02 -1.87145 -3.15234 0
M  V30 1260 H 123.668 -0.250145 -5.02378 0
M  V30 1261 H 123.368 -1.92492 -5.55176 0
M  V30 1262 H 124.892 -1.10968 -6.00432 0
M  V30 1263 H 126.306 -3.06349 -4.84586 0
M  V30 1264 H 124.703 -3.82333 -4.62538 0
M  V30 1265 H 125.773 -3.61966 -3.22658 0
M  V30 1266 N 127.117 1.15442 -1.07289 0
M  V30 1267 C 128.533 1.38201 -0.798288 0
M  V30 1268 C 128.733 1.92429 0.597769 0
M  V30 1269 O 127.789 2.12962 1.3566 0
M  V30 1270 C 129.102 2.35357 -1.87156 0
M  V30 1271 C 130.65 2.49021 -1.89624 0
M  V30 1272 C 131.125 3.49468 -2.96034 0
M  V30 1273 N 132.616 3.57003 -2.95132 0
M  V30 1274 C 133.351 4.34543 -3.74112 0
M  V30 1275 N 132.847 5.15421 -4.6294 0
M  V30 1276 N 134.64 4.29625 -3.62462 0
M  V30 1277 H 126.791 0.78584 -1.97328 0
M  V30 1278 H 129.054 0.408065 -0.855679 0
M  V30 1279 H 128.76 2.02626 -2.87464 0
M  V30 1280 H 128.634 3.35129 -1.73114 0
M  V30 1281 H 131.021 2.81051 -0.899687 0
M  V30 1282 H 131.102 1.4925 -2.07745 0
M  V30 1283 H 130.746 3.18173 -3.95889 0
M  V30 1284 H 130.676 4.48992 -2.75161 0
M  V30 1285 H 133.167 2.99276 -2.30743 0
M  V30 1286 H 133.48 5.7183 -5.19837 0
M  V30 1287 H 131.825 5.14729 -4.66989 0
M  V30 1288 H 135.016 3.65505 -2.92444 0
M  V30 1289 H 135.189 4.89807 -4.24256 0
M  V30 1290 N 128.595 0.856903 1.32268 0
M  V30 1291 C 129.841 0.462069 1.97466 0
M  V30 1292 C 130.174 -0.980298 1.67642 0
M  V30 1293 O 129.449 -1.68824 0.965858 0
M  V30 1294 C 129.732 0.704336 3.53145 0
M  V30 1295 C 129.585 2.19529 3.9259 0
M  V30 1296 C 130.904 0.1622 4.39801 0
M  V30 1297 H 128.023 0.169357 0.717278 0
M  V30 1298 H 130.665 1.07574 1.56614 0
M  V30 1299 H 128.815 0.181999 3.88073 0
M  V30 1300 H 130.487 2.78387 3.67829 0
M  V30 1301 H 128.73 2.67292 3.41668 0
M  V30 1302 H 129.401 2.31549 5.01088 0
M  V30 1303 H 131.877 0.608905 4.11621 0
M  V30 1304 H 130.753 0.361265 5.4771 0
M  V30 1305 H 131.014 -0.935158 4.32096 0
M  V30 1306 N 130.073 -1.45103 0.615059 0
M  V30 1307 C 131.036 -2.29025 -0.0895485 0
M  V30 1308 C 132.036 -1.40174 -0.787906 0
M  V30 1309 O 133.226 -1.62217 -0.634933 0
M  V30 1310 C 130.358 -3.21376 -1.13711 0
M  V30 1311 H 131.551 -2.92807 0.648382 0
M  V30 1312 H 129.104 -1.51749 0.374444 0
M  V30 1313 H 129.839 -2.6241 -1.90556 0
M  V30 1314 H 129.624 -3.86834 -0.640475 0
M  V30 1315 H 131.114 -3.84459 -1.63036 0
M  V30 1316 N 131.551 -0.354651 -1.53558 0
M  V30 1317 C 132.501 0.513179 -2.2215 0
M  V30 1318 C 133.485 1.05734 -1.21281 0
M  V30 1319 O 134.677 0.989202 -1.46778 0
M  V30 1320 C 131.806 1.65798 -3.00609 0
M  V30 1321 C 130.892 1.12722 -4.08845 0
M  V30 1322 N 131.283 0.318563 -5.04796 0
M  V30 1323 C 129.581 1.40307 -4.23356 0
M  V30 1324 C 130.282 0.0292224 -5.81693 0
M  V30 1325 N 129.258 0.623891 -5.40008 0
M  V30 1326 H 133.06 -0.111586 -2.93688 0
M  V30 1327 H 130.574 -0.162091 -1.61589 0
M  V30 1328 H 132.571 2.29176 -3.48258 0
M  V30 1329 H 131.231 2.28591 -2.306 0
M  V30 1330 H 132.242 -0.0413091 -5.17884 0
M  V30 1331 H 128.919 2.03458 -3.6457 0
M  V30 1332 H 130.309 -0.623808 -6.68998 0
M  V30 1333 N 133.029 1.57378 -0.0835403 0
M  V30 1334 C 134.445 1.57246 0.273109 0
M  V30 1335 C 134.645 1.09385 1.69225 0
M  V30 1336 O 133.701 0.765051 2.40631 0
M  V30 1337 C 135.014 3.00614 0.0720628 0
M  V30 1338 C 136.562 3.12684 0.1407 0
M  V30 1339 C 137.037 4.57989 -0.0322094 0
M  V30 1340 N 138.528 4.63194 0.0230085 0
M  V30 1341 C 139.263 5.73335 -0.0861941 0
M  V30 1342 N 138.759 6.9235 -0.24958 0
M  V30 1343 N 140.552 5.62093 -0.0282886 0
M  V30 1344 H 132.703 1.86801 -1.0109 0
M  V30 1345 H 134.966 0.861687 -0.395222 0
M  V30 1346 H 134.672 3.39786 -0.907662 0
M  V30 1347 H 134.546 3.68193 0.81936 0
M  V30 1348 H 136.933 2.73391 1.11092 0
M  V30 1349 H 137.014 2.47719 -0.637896 0
M  V30 1350 H 136.658 4.97973 -0.999247 0
M  V30 1351 H 136.588 5.21 0.765937 0
M  V30 1352 H 139.079 3.77613 0.14722 0
M  V30 1353 H 139.392 7.72117 -0.324733 0
M  V30 1354 H 137.737 6.94415 -0.285097 0
M  V30 1355 H 140.928 4.67997 0.0981408 0
M  V30 1356 H 141.101 6.47895 -0.116845 0
M  V30 1357 N 134.507 -0.190092 1.56449 0
M  V30 1358 C 135.457 -1.23977 1.91347 0
M  V30 1359 C 136.441 -1.40747 0.779693 0
M  V30 1360 O 137.633 -1.43033 1.04262 0
M  V30 1361 C 134.762 -2.58347 2.26079 0
M  V30 1362 C 133.848 -2.4535 3.45925 0
M  V30 1363 N 134.239 -2.02039 4.63696 0
M  V30 1364 C 132.537 -2.76229 3.50162 0
M  V30 1365 C 133.238 -2.01053 5.4585 0
M  V30 1366 N 132.214 -2.42747 4.8639 0
M  V30 1367 H 136.016 -0.896318 2.79899 0
M  V30 1368 H 133.53 -0.398496 1.57435 0
M  V30 1369 H 135.527 -3.34173 2.49267 0
M  V30 1370 H 134.187 -2.93512 1.38856 0
M  V30 1371 H 135.198 -1.7267 4.88268 0
M  V30 1372 H 131.875 -3.15556 2.73369 0
M  V30 1373 H 133.265 -1.69426 6.50188 0
M  V30 1374 N 135.985 -1.50799 -0.457987 0
M  V30 1375 C 137.233 -1.62121 -1.2067 0
M  V30 1376 C 137.554 -0.329793 -1.92191 0
M  V30 1377 O 136.824 0.653409 -1.84682 0
M  V30 1378 H 135.404 -0.597441 -0.448411 0
M  V30 1379 H 138.066 -1.87637 -0.527096 0
M  V30 1380 H 137.162 -2.43882 -1.94751 0
M  V30 1381 N 137.463 0.71206 -1.40597 0
M  V30 1382 C 138.879 1.02058 -1.22704 0
M  V30 1383 C 139.079 2.01228 -0.104729 0
M  V30 1384 O 138.135 2.4674 0.53624 0
M  V30 1385 C 139.448 1.56094 -2.57012 0
M  V30 1386 C 140.996 1.6806 -2.64054 0
M  V30 1387 C 141.471 2.25501 -3.9864 0
M  V30 1388 N 142.962 2.32882 -4.004 0
M  V30 1389 C 143.697 2.78317 -5.01325 0
M  V30 1390 N 143.193 3.23478 -6.12645 0
M  V30 1391 N 144.986 2.77733 -4.88693 0
M  V30 1392 H 137.137 0.0547896 -2.12329 0
M  V30 1393 H 139.4 0.0869027 -0.944008 0
M  V30 1394 H 139.106 0.906865 -3.39807 0
M  V30 1395 H 138.98 2.54564 -2.78347 0
M  V30 1396 H 141.367 2.32583 -1.81629 0
M  V30 1397 H 141.448 0.681802 -2.46546 0
M  V30 1398 H 141.092 1.61598 -4.81506 0
M  V30 1399 H 141.022 3.26102 -4.13479 0
M  V30 1400 H 143.513 2.00991 -3.20017 0
M  V30 1401 H 143.826 3.56725 -6.85542 0
M  V30 1402 H 142.171 3.21429 -6.16205 0
M  V30 1403 H 145.362 2.4179 -4.00818 0
M  V30 1404 H 145.535 3.12826 -5.67489 0
M  V30 1405 N 138.941 1.26152 0.944643 0
M  V30 1406 C 140.188 1.11492 1.69044 0
M  V30 1407 C 140.516 -0.342366 1.91463 0
M  V30 1408 O 139.771 -1.26812 1.49054 0
M  V30 1409 C 140.07 1.82541 3.07268 0
M  V30 1410 C 139.736 3.32445 3.04616 0
M  V30 1411 C 138.398 3.73337 3.036 0
M  V30 1412 C 140.75 4.28171 2.97185 0
M  V30 1413 C 138.078 5.08348 2.92915 0
M  V30 1414 C 140.43 5.63218 2.88041 0
M  V30 1415 C 139.094 6.03426 2.85366 0
M  V30 1416 H 138.364 0.407977 0.618576 0
M  V30 1417 H 141.011 1.56551 1.10291 0
M  V30 1418 H 139.316 1.29941 3.69625 0
M  V30 1419 H 141.013 1.68642 3.63815 0
M  V30 1420 H 137.603 2.99915 3.06185 0
M  V30 1421 H 141.787 3.97563 2.97081 0
M  V30 1422 H 137.043 5.38667 2.89219 0
M  V30 1423 H 141.217 6.37078 2.81254 0
M  V30 1424 H 138.844 7.07999 2.76842 0
M  V30 1425 N 140.419 -1.14872 1.07899 0
M  V30 1426 C 141.349 -2.2193 0.725887 0
M  V30 1427 C 142.33 -1.67622 -0.28927 0
M  V30 1428 O 143.515 -1.93533 -0.160787 0
M  V30 1429 C 140.645 -3.47061 0.128856 0
M  V30 1430 C 139.599 -4.14363 1.07178 0
M  V30 1431 C 138.925 -5.33636 0.337229 0
M  V30 1432 C 140.225 -4.63492 2.40775 0
M  V30 1433 H 141.919 -2.51724 1.62097 0
M  V30 1434 H 139.465 -1.20991 0.780838 0
M  V30 1435 H 141.418 -4.21199 -0.130147 0
M  V30 1436 H 140.142 -3.16617 -0.80134 0
M  V30 1437 H 138.801 -3.42173 1.3158 0
M  V30 1438 H 138.449 -4.99449 -0.596606 0
M  V30 1439 H 138.149 -5.79609 0.965788 0
M  V30 1440 H 139.673 -6.10539 0.0861567 0
M  V30 1441 H 141.087 -5.2913 2.20669 0
M  V30 1442 H 139.484 -5.20148 2.99276 0
M  V30 1443 H 140.554 -3.78834 3.02676 0
M  V30 1444 N 141.898 -0.863906 -1.31812 0
M  V30 1445 C 143.175 -0.39275 -1.91616 0
M  V30 1446 C 143.555 1.12461 -1.7865 0
M  V30 1447 O 142.903 1.95045 -1.19037 0
M  V30 1448 C 143.113 -0.867385 -3.38049 0
M  V30 1449 C 144.461 -0.889966 -4.15168 0
M  V30 1450 O 145.485 -0.812635 -3.46806 0
M  V30 1451 O 144.344 -1.00079 -5.37258 0
M  V30 1452 H 141.438 -0.116358 -0.818773 0
M  V30 1453 H 143.984 -0.951418 -1.40521 0
M  V30 1454 H 142.756 -1.91081 -3.41473 0
M  V30 1455 H 142.379 -0.286687 -3.96565 0
M  V30 1456 N 143.376 1.44774 -0.622745 0
M  V30 1457 C 144.601 2.06999 -0.128968 0
M  V30 1458 C 145.026 1.4617 1.1839 0
M  V30 1459 O 144.384 0.560007 1.72434 0
M  V30 1460 C 144.432 3.60595 -0.0188351 0
M  V30 1461 O 143.536 3.99398 1.02739 0
M  V30 1462 H 142.877 0.659047 -0.0809544 0
M  V30 1463 H 145.407 1.85784 -0.85705 0
M  V30 1464 H 145.417 4.07627 0.174476 0
M  V30 1465 H 144.092 4.04252 -0.977384 0
M  V30 1466 H 142.669 3.64011 0.809326 0
M  V30 1467 N 144.854 0.36279 1.53368 0
M  V30 1468 C 146.103 -0.22888 2.00397 0
M  V30 1469 C 146.416 -1.50096 1.25421 0
M  V30 1470 O 147.622 -2.17106 1.63025 0
M  V30 1471 C 146.078 -0.458417 3.56969 0
M  V30 1472 C 145.686 0.798877 4.4082 0
M  V30 1473 C 147.43 -1.00789 4.12361 0
M  V30 1474 C 145.337 0.539078 5.88938 0
M  V30 1475 H 144.267 -0.089305 0.748693 0
M  V30 1476 H 146.918 0.481099 1.77081 0
M  V30 1477 H 145.3 -1.22959 3.76427 0
M  V30 1478 H 146.474 1.57262 4.33134 0
M  V30 1479 H 144.789 1.27137 3.96516 0
M  V30 1480 H 147.386 -1.21754 5.20653 0
M  V30 1481 H 147.729 -1.9692 3.66781 0
M  V30 1482 H 148.262 -0.296961 3.9669 0
M  V30 1483 H 145.001 1.47064 6.3879 0
M  V30 1484 H 144.521 -0.196222 5.99479 0
M  V30 1485 H 146.2 0.163542 6.46793 0
M  V30 1486 N 146.332 -1.57332 0.0918853 0
M  V30 1487 C 147.562 -1.98286 -0.580205 0
M  V30 1488 C 147.97 -0.969713 -1.6246 0
M  V30 1489 O 147.313 0.0493501 -1.83634 0
M  V30 1490 C 147.375 -3.35603 -1.28882 0
M  V30 1491 C 147.039 -4.55285 -0.395559 0
M  V30 1492 C 148.036 -5.18687 0.355002 0
M  V30 1493 C 145.721 -5.01314 -0.314556 0
M  V30 1494 C 147.715 -6.26484 1.17458 0
M  V30 1495 C 145.402 -6.08979 0.508677 0
M  V30 1496 C 146.4 -6.71429 1.2519 0
M  V30 1497 O 146.088 -7.77018 2.06151 0
M  V30 1498 H 145.82 -0.656678 -0.160466 0
M  V30 1499 H 148.374 -2.04721 0.16688 0
M  V30 1500 H 146.604 -3.25842 -2.08241 0
M  V30 1501 H 148.293 -3.61026 -1.85512 0
M  V30 1502 H 149.059 -4.84058 0.302134 0
M  V30 1503 H 144.938 -4.5247 -0.882697 0
M  V30 1504 H 148.482 -6.75159 1.75518 0
M  V30 1505 H 144.379 -6.4304 0.563037 0
M  V30 1506 H 145.147 -7.93991 1.98799 0
M  V30 1507 N 147.81 0.181792 -1.56548 0
M  V30 1508 C 149.226 0.53316 -1.50431 0
M  V30 1509 C 149.426 1.85184 -0.794297 0
M  V30 1510 O 148.482 2.50058 -0.350318 0
M  V30 1511 C 149.795 0.575597 -2.9514 0
M  V30 1512 C 151.343 0.663519 -3.05886 0
M  V30 1513 C 151.818 0.736946 -4.52032 0
M  V30 1514 N 153.309 0.800118 -4.56237 0
M  V30 1515 C 154.044 0.877327 -5.66649 0
M  V30 1516 N 153.54 0.916016 -6.86718 0
M  V30 1517 N 155.333 0.915542 -5.54594 0
M  V30 1518 H 147.484 -0.683025 -2.01118 0
M  V30 1519 H 149.747 -0.244988 -0.915797 0
M  V30 1520 H 149.453 -0.324482 -3.502 0
M  V30 1521 H 149.327 1.42572 -3.49218 0
M  V30 1522 H 151.714 1.55403 -2.50867 0
M  V30 1523 H 151.795 -0.21307 -2.54911 0
M  V30 1524 H 151.439 -0.149262 -5.07681 0
M  V30 1525 H 151.369 1.62953 -5.00753 0
M  V30 1526 H 153.86 0.778926 -3.69785 0
M  V30 1527 H 154.173 0.975813 -7.66614 0
M  V30 1528 H 152.518 0.884469 -6.89349 0
M  V30 1529 H 155.709 0.882245 -4.59711 0
M  V30 1530 H 155.882 0.972253 -6.40665 0
M  V30 1531 N 149.288 1.51039 0.449983 0
M  V30 1532 C 150.235 1.71439 1.54523 0
M  V30 1533 C 151.205 0.555871 1.56522 0
M  V30 1534 O 152.39 0.788871 1.73728 0
M  V30 1535 C 149.53 1.83384 2.92343 0
M  V30 1536 C 148.643 3.10873 2.9997 0
M  V30 1537 C 147.778 3.13488 4.28834 0
M  V30 1538 C 146.817 4.35343 4.30282 0
M  V30 1539 N 145.954 4.35579 5.5065 0
M  V30 1540 H 150.794 2.64934 1.36433 0
M  V30 1541 H 148.331 1.31312 0.662982 0
M  V30 1542 H 150.289 1.88291 3.72293 0
M  V30 1543 H 148.919 0.933086 3.0902 0
M  V30 1544 H 147.971 3.15336 2.12761 0
M  V30 1545 H 149.283 4.00814 2.96901 0
M  V30 1546 H 148.437 3.17241 5.17149 0
M  V30 1547 H 147.176 2.21414 4.34543 0
M  V30 1548 H 146.181 4.3178 3.40362 0
M  V30 1549 H 147.406 5.28668 4.26248 0
M  V30 1550 H 145.352 3.46369 5.57104 0
M  V30 1551 H 145.269 5.19313 5.49409 0
M  V30 1552 H 146.537 4.43507 6.41032 0
M  V30 1553 N 150.766 -0.704594 1.40972 0
M  V30 1554 C 151.696 -1.83124 1.44872 0
M  V30 1555 C 152.677 -1.67281 0.30838 0
M  V30 1556 O 153.862 -1.87149 0.518556 0
M  V30 1557 C 150.992 -3.21181 1.32136 0
M  V30 1558 C 149.946 -3.51714 2.43888 0
M  V30 1559 C 149.272 -4.89032 2.16222 0
M  V30 1560 C 150.572 -3.516 3.86232 0
M  V30 1561 H 152.266 -1.80117 2.39161 0
M  V30 1562 H 149.812 -0.865145 1.15114 0
M  V30 1563 H 151.765 -3.99702 1.33479 0
M  V30 1564 H 150.489 -3.24791 0.343279 0
M  V30 1565 H 149.148 -2.75539 2.41813 0
M  V30 1566 H 148.796 -4.89256 1.16778 0
M  V30 1567 H 148.496 -5.10426 2.911 0
M  V30 1568 H 150.02 -5.69873 2.19265 0
M  V30 1569 H 151.434 -4.2014 3.9007 0
M  V30 1570 H 149.831 -3.84523 4.60719 0
M  V30 1571 H 150.901 -2.50757 4.15029 0
M  V30 1572 N 152.244 -1.26651 -0.937939 0
M  V30 1573 C 153.655 -1.1125 -1.49934 0
M  V30 1574 C 154.006 0.306077 -1.93798 0
M  V30 1575 O 153.131 1.19792 -1.80219 0
M  V30 1576 C 153.726 -2.01339 -2.72485 0
M  V30 1577 C 152.285 -1.90074 -3.24883 0
M  V30 1578 C 151.432 -1.94498 -1.97651 0
M  V30 1579 H 154.383 -1.39693 -0.753091 0
M  V30 1580 H 154.404 -1.56319 -3.46907 0
M  V30 1581 H 153.916 -3.04577 -2.40529 0
M  V30 1582 H 152.017 -0.897827 -3.61621 0
M  V30 1583 H 152.13 -2.75778 -3.9177 0
M  V30 1584 H 150.494 -1.38591 -2.13693 0
M  V30 1585 H 151.277 -2.99372 -1.68022 0
M  V30 1586 N 153.722 1.14298 -1.08507 0
M  V30 1587 C 154.999 1.81544 -0.728088 0
M  V30 1588 C 155.379 1.95838 0.78808 0
M  V30 1589 O 154.727 1.51904 1.70697 0
M  V30 1590 C 154.937 3.17169 -1.45619 0
M  V30 1591 C 156.285 3.9265 -1.61591 0
M  V30 1592 O 157.309 3.26762 -1.41793 0
M  V30 1593 O 156.168 5.10807 -1.94263 0
M  V30 1594 H 153.262 0.78491 -0.260471 0
M  V30 1595 H 155.808 1.21307 -1.18671 0
M  V30 1596 H 154.58 3.01934 -2.489 0
M  V30 1597 H 154.203 3.851 -0.989124 0
M  V30 1598 N 155.201 0.870884 1.31352 0
M  V30 1599 C 156.449 0.48132 1.96285 0
M  V30 1600 C 156.77 -0.969813 1.69173 0
M  V30 1601 O 156.04 -1.67998 1.00764 0
M  V30 1602 H 154.62 0.175002 0.726212 0
M  V30 1603 H 157.282 1.11087 1.60143 0
M  V30 1604 H 156.378 0.639825 3.05471 0
M  V30 1605 N 156.679 -1.44442 0.630414 0
M  V30 1606 C 158.095 -1.56832 0.295973 0
M  V30 1607 C 158.295 -1.61806 -1.20088 0
M  V30 1608 O 157.351 -1.5607 -1.9849 0
M  V30 1609 C 158.664 -2.84031 0.987264 0
M  V30 1610 C 160.212 -2.97742 0.96534 0
M  V30 1611 C 160.687 -4.27743 1.63708 0
M  V30 1612 N 162.178 -4.34555 1.60364 0
M  V30 1613 C 162.913 -5.33862 2.09234 0
M  V30 1614 N 162.409 -6.39578 2.66292 0
M  V30 1615 N 164.202 -5.25366 1.99867 0
M  V30 1616 H 156.353 -1.39457 1.60205 0
M  V30 1617 H 158.616 -0.668237 0.672431 0
M  V30 1618 H 158.322 -2.86338 2.04215 0
M  V30 1619 H 158.196 -3.73534 0.524588 0
M  V30 1620 H 160.583 -2.94989 -0.0810639 0
M  V30 1621 H 160.664 -2.09589 1.4665 0
M  V30 1622 H 160.308 -4.31255 2.68293 0
M  V30 1623 H 160.238 -5.14752 1.11076 0
M  V30 1624 H 162.729 -3.58772 1.18705 0
M  V30 1625 H 163.042 -7.11637 3.01317 0
M  V30 1626 H 161.387 -6.40265 2.70343 0
M  V30 1627 H 164.578 -4.41688 1.55013 0
M  V30 1628 H 164.751 -6.02606 2.38265 0
M  V30 1629 N 158.157 -0.370918 -1.53173 0
M  V30 1630 C 159.403 0.209976 -2.02313 0
M  V30 1631 C 159.758 1.45987 -1.25322 0
M  V30 1632 O 159.051 1.8856 -0.339965 0
M  V30 1633 C 159.245 0.549696 -3.53147 0
M  V30 1634 C 159.074 -0.665721 -4.44745 0
M  V30 1635 C 157.844 -1.17942 -4.91343 0
M  V30 1636 C 160.042 -1.53255 -4.90935 0
M  V30 1637 N 158.024 -2.35431 -5.66962 0
M  V30 1638 C 159.395 -2.55403 -5.64951 0
M  V30 1639 C 161.45 -1.5548 -4.73002 0
M  V30 1640 C 160.153 -3.5964 -6.22938 0
M  V30 1641 C 162.179 -2.58613 -5.31858 0
M  V30 1642 C 161.541 -3.59485 -6.05764 0
M  V30 1643 H 157.64 0.0394095 -0.781006 0
M  V30 1644 H 160.224 -0.516666 -1.8772 0
M  V30 1645 H 158.395 1.24541 -3.67891 0
M  V30 1646 H 160.127 1.11614 -3.89004 0
M  V30 1647 H 156.882 -0.743228 -4.67732 0
M  V30 1648 H 157.306 -2.94827 -6.09431 0
M  V30 1649 H 161.948 -0.788457 -4.15383 0
M  V30 1650 H 159.666 -4.37153 -6.79649 0
M  V30 1651 H 163.252 -2.61195 -5.19873 0
M  V30 1652 H 162.132 -4.3798 -6.50495 0
M  V30 1653 N 159.635 1.57281 -0.100228 0
M  V30 1654 C 160.565 2.17328 0.853857 0
M  V30 1655 C 161.546 1.10804 1.2906 0
M  V30 1656 O 162.731 1.38963 1.35657 0
M  V30 1657 C 159.861 2.75772 2.11109 0
M  V30 1658 C 158.815 3.87713 1.81279 0
M  V30 1659 C 158.141 4.32882 3.13874 0
M  V30 1660 C 159.441 5.10677 1.09574 0
M  V30 1661 H 161.135 2.97305 0.353545 0
M  V30 1662 H 158.681 1.43009 0.168612 0
M  V30 1663 H 160.634 3.16433 2.78296 0
M  V30 1664 H 159.358 1.93057 2.63432 0
M  V30 1665 H 158.017 3.476 1.16489 0
M  V30 1666 H 157.665 3.47051 3.64095 0
M  V30 1667 H 157.365 5.08358 2.94696 0
M  V30 1668 H 158.889 4.7618 3.82211 0
M  V30 1669 H 160.303 5.48474 1.66879 0
M  V30 1670 H 158.7 5.91615 1.00557 0
M  V30 1671 H 159.77 4.84835 0.0793299 0
M  V30 1672 N 161.113 -0.173488 1.56642 0
M  V30 1673 C 162.341 -0.906095 1.86004 0
M  V30 1674 C 162.756 -1.75921 0.685355 0
M  V30 1675 O 162.113 -1.79198 -0.345578 0
M  V30 1676 C 162.164 -1.78462 3.14378 0
M  V30 1677 O 161.885 -0.965914 4.27319 0
M  V30 1678 C 163.386 -2.62707 3.57071 0
M  V30 1679 H 160.606 -0.263341 0.617165 0
M  V30 1680 H 163.15 -0.174236 2.03756 0
M  V30 1681 H 161.305 -2.46984 2.98459 0
M  V30 1682 H 161.719 -1.56655 5.00559 0
M  V30 1683 H 163.193 -3.19969 4.49804 0
M  V30 1684 H 163.67 -3.37472 2.81086 0
M  V30 1685 H 164.276 -1.99521 3.75595 0
M  V30 1686 N 162.591 -1.51276 -0.441967 0
M  V30 1687 C 163.554 -1.7167 -1.51862 0
M  V30 1688 C 164.554 -0.586793 -1.49711 0
M  V30 1689 O 165.744 -0.854276 -1.51815 0
M  V30 1690 C 162.876 -1.76889 -2.91416 0
M  V30 1691 H 164.069 -2.67754 -1.35084 0
M  V30 1692 H 161.622 -1.41196 -0.670333 0
M  V30 1693 H 162.357 -0.826026 -3.13604 0
M  V30 1694 H 162.142 -2.59001 -2.94382 0
M  V30 1695 H 163.632 -1.94522 -3.69528 0
M  V30 1696 N 164.069 0.697108 -1.41344 0
M  V30 1697 C 165.019 1.80313 -1.39539 0
M  V30 1698 C 166.003 1.58618 -0.270001 0
M  V30 1699 O 167.195 1.69477 -0.510551 0
M  V30 1700 C 164.324 3.18606 -1.27848 0
M  V30 1701 C 163.41 3.46001 -2.45244 0
M  V30 1702 N 163.801 3.44103 -3.70711 0
M  V30 1703 C 162.099 3.76542 -2.39023 0
M  V30 1704 C 162.8 3.7036 -4.48563 0
M  V30 1705 N 161.776 3.90027 -3.78655 0
M  V30 1706 H 165.578 1.77207 -2.34468 0
M  V30 1707 H 163.092 0.897031 -1.35378 0
M  V30 1708 H 165.089 3.97833 -1.24637 0
M  V30 1709 H 163.749 3.22925 -0.339032 0
M  V30 1710 H 164.76 3.2452 -4.03618 0
M  V30 1711 H 161.437 3.88241 -1.53542 0
M  V30 1712 H 162.827 3.75042 -5.57488 0
M  V30 1713 N 165.547 1.27147 0.931209 0
M  V30 1714 C 166.793 1.13446 1.68101 0
M  V30 1715 C 167.126 -0.319628 1.91552 0
M  V30 1716 O 166.401 -1.23407 1.50336 0
M  V30 1717 C 166.684 1.91482 3.0497 0
M  V30 1718 C 166.537 3.44855 2.88782 0
M  V30 1719 C 167.856 1.71651 4.05246 0
M  V30 1720 H 164.975 0.413498 0.610072 0
M  V30 1721 H 167.617 1.56261 1.08086 0
M  V30 1722 H 165.767 1.55095 3.56199 0
M  V30 1723 H 167.439 3.9105 2.44698 0
M  V30 1724 H 165.682 3.71373 2.24198 0
M  V30 1725 H 166.353 3.94694 3.85902 0
M  V30 1726 H 168.829 2.0337 3.63015 0
M  V30 1727 H 167.705 2.28651 4.99009 0
M  V30 1728 H 167.966 0.663555 4.37092 0
M  V30 1729 N 167.025 -1.13721 1.09112 0
M  V30 1730 C 167.935 -2.22638 0.73957 0
M  V30 1731 C 168.951 -1.72091 -0.257068 0
M  V30 1732 O 170.127 -2.01155 -0.0992154 0
M  V30 1733 C 167.192 -3.46322 0.16191 0
M  V30 1734 C 166.253 -4.11775 1.21408 0
M  V30 1735 C 165.486 -5.29555 0.663891 0
M  V30 1736 O 165.709 -5.68077 -0.514274 0
M  V30 1737 O 164.643 -5.84973 1.41738 0
M  V30 1738 H 168.469 -2.55074 1.64836 0
M  V30 1739 H 166.054 -1.21791 0.865289 0
M  V30 1740 H 167.936 -4.21107 -0.157073 0
M  V30 1741 H 166.611 -3.15593 -0.719932 0
M  V30 1742 H 165.518 -3.3883 1.58571 0
M  V30 1743 H 166.851 -4.46627 2.06845 0
M  V30 1744 N 168.503 -0.877838 -1.30888 0
M  V30 1745 C 169.751 -0.491723 -1.96027 0
M  V30 1746 C 170.072 0.960827 -1.69685 0
M  V30 1747 O 169.342 1.67462 -1.01654 0
M  V30 1748 H 167.922 -0.17885 -0.725273 0
M  V30 1749 H 170.584 -1.11935 -1.59551 0
M  V30 1750 H 169.68 -0.656016 -3.05128 0
M  V30 1751 N 169.982 1.44106 -0.638065 0
M  V30 1752 C 171.398 1.56672 -0.304286 0
M  V30 1753 C 171.598 1.6244 1.19228 0
M  V30 1754 O 170.654 1.57121 1.9766 0
M  V30 1755 C 171.967 2.83503 -1.00231 0
M  V30 1756 C 173.515 2.97226 -0.981116 0
M  V30 1757 C 173.99 4.26868 -1.65974 0
M  V30 1758 N 175.481 4.33698 -1.62666 0
M  V30 1759 C 176.216 5.32745 -2.12063 0
M  V30 1760 N 175.712 6.38157 -2.6968 0
M  V30 1761 N 177.505 5.24299 -2.02651 0
M  V30 1762 H 169.656 1.38605 -1.60942 0
M  V30 1763 H 171.919 0.664661 -0.675965 0
M  V30 1764 H 171.625 2.85251 -2.0573 0
M  V30 1765 H 171.499 3.73251 -0.54439 0
M  V30 1766 H 173.886 2.95027 0.0654188 0
M  V30 1767 H 173.967 2.08808 -1.47759 0
M  V30 1768 H 173.611 4.29826 -2.70576 0
M  V30 1769 H 173.541 5.14156 -1.13804 0
M  V30 1770 H 176.032 3.58138 -1.20606 0
M  V30 1771 H 176.345 7.10029 -3.05087 0
M  V30 1772 H 174.69 6.38823 -2.73734 0
M  V30 1773 H 177.881 4.4086 -1.57353 0
M  V30 1774 H 178.054 6.01334 -2.41457 0
M  V30 1775 N 171.46 0.379036 1.52974 0
M  V30 1776 C 172.392 -0.495963 2.2377 0
M  V30 1777 C 173.405 -1.03517 1.25651 0
M  V30 1778 O 174.594 -0.939249 1.51791 0
M  V30 1779 C 171.694 -1.69894 2.93239 0
M  V30 1780 C 170.867 -1.2889 4.17979 0
M  V30 1781 C 169.926 -2.35543 4.70538 0
M  V30 1782 O 168.952 -1.97375 5.33883 0
M  V30 1783 N 170.154 -3.67318 4.49508 0
M  V30 1784 H 172.919 0.110523 2.99496 0
M  V30 1785 H 170.48 0.204878 1.60598 0
M  V30 1786 H 172.472 -2.40747 3.25304 0
M  V30 1787 H 171.042 -2.212 2.20883 0
M  V30 1788 H 170.262 -0.409676 3.92065 0
M  V30 1789 H 171.55 -0.991443 4.99047 0
M  V30 1790 H 170.948 -4.01095 3.98923 0
M  V30 1791 H 169.505 -4.34235 4.8609 0
M  V30 1792 N 172.938 -1.57226 0.108567 0
M  V30 1793 C 173.885 -2.14756 -0.845481 0
M  V30 1794 C 174.855 -1.06971 -1.27068 0
M  V30 1795 O 176.04 -1.34827 -1.35005 0
M  V30 1796 C 173.18 -2.74298 -2.09415 0
M  V30 1797 C 172.293 -3.96358 -1.71826 0
M  V30 1798 C 171.428 -4.44021 -2.9158 0
M  V30 1799 C 170.467 -5.58637 -2.50181 0
M  V30 1800 N 169.604 -6.01091 -3.62814 0
M  V30 1801 H 174.444 -2.95961 -0.348035 0
M  V30 1802 H 171.981 -1.46226 -0.160106 0
M  V30 1803 H 173.939 -3.06945 -2.82561 0
M  V30 1804 H 172.569 -1.95801 -2.56636 0
M  V30 1805 H 171.621 -3.69939 -0.885947 0
M  V30 1806 H 172.933 -4.79504 -1.37394 0
M  V30 1807 H 172.087 -4.78522 -3.72963 0
M  V30 1808 H 170.826 -3.59803 -3.29231 0
M  V30 1809 H 169.831 -5.23751 -1.67228 0
M  V30 1810 H 171.056 -6.44613 -2.13659 0
M  V30 1811 H 169.002 -5.19817 -4.00158 0
M  V30 1812 H 168.919 -6.79066 -3.32273 0
M  V30 1813 H 170.187 -6.40227 -4.44668 0
M  V30 1814 N 174.416 0.165178 -1.56732 0
M  V30 1815 C 175.346 1.20651 -1.99914 0
M  V30 1816 C 176.327 1.45827 -0.875705 0
M  V30 1817 O 177.512 1.57057 -1.14223 0
M  V30 1818 C 174.642 2.54401 -2.36427 0
M  V30 1819 C 173.596 2.43782 -3.51787 0
M  V30 1820 C 172.922 3.82078 -3.7406 0
M  V30 1821 C 174.222 1.93732 -4.85041 0
M  V30 1822 H 175.916 0.847534 -2.87154 0
M  V30 1823 H 173.462 0.40625 -1.38151 0
M  V30 1824 H 175.415 3.27458 -2.65234 0
M  V30 1825 H 174.139 2.92098 -1.46103 0
M  V30 1826 H 172.798 1.73178 -3.23117 0
M  V30 1827 H 172.446 4.17179 -2.81017 0
M  V30 1828 H 172.146 3.7584 -4.51684 0
M  V30 1829 H 173.67 4.56712 -4.05274 0
M  V30 1830 H 175.084 2.56569 -5.12684 0
M  V30 1831 H 173.481 1.98428 -5.66345 0
M  V30 1832 H 174.551 0.891962 -4.76626 0
M  V30 1833 N 175.894 1.51508 0.433938 0
M  V30 1834 C 176.857 1.72473 1.50949 0
M  V30 1835 C 177.857 0.594725 1.49398 0
M  V30 1836 O 179.047 0.862315 1.5136 0
M  V30 1837 C 176.179 1.78431 2.90474 0
M  V30 1838 H 177.372 2.68467 1.33662 0
M  V30 1839 H 174.925 1.41549 0.662836 0
M  V30 1840 H 175.66 0.842645 3.13161 0
M  V30 1841 H 175.445 2.60558 2.93005 0
M  V30 1842 H 176.935 1.96479 3.68491 0
M  V30 1843 N 177.372 -0.689602 1.41712 0
M  V30 1844 C 178.618 -1.45181 1.41599 0
M  V30 1845 C 178.951 -1.94181 0.0270081 0
M  V30 1846 O 178.226 -1.6993 -0.946265 0
M  V30 1847 C 178.509 -2.65945 2.42787 0
M  V30 1848 C 178.362 -2.22672 3.90816 0
M  V30 1849 C 179.681 -3.68149 2.41151 0
M  V30 1850 H 176.8 -0.526576 0.515642 0
M  V30 1851 H 179.442 -0.784947 1.73028 0
M  V30 1852 H 177.592 -3.2284 2.16116 0
M  V30 1853 H 179.264 -1.71058 4.28412 0
M  V30 1854 H 177.507 -1.54394 4.05395 0
M  V30 1855 H 178.178 -3.0935 4.57172 0
M  V30 1856 H 180.654 -3.2094 2.64834 0
M  V30 1857 H 179.53 -4.50248 3.13955 0
M  V30 1858 H 179.791 -4.18259 1.43221 0
M  V30 1859 N 178.85 -1.27639 -0.924453 0
M  V30 1860 C 179.798 -1.10485 -2.04685 0
M  V30 1861 C 180.792 -0.0270421 -1.69378 0
M  V30 1862 O 181.998 -0.185008 -1.79047 0
M  V30 1863 H 178.373 -0.340546 -0.670472 0
M  V30 1864 H 180.344 -2.05566 -2.16298 0
M  V30 1865 C 179.093 -0.772229 -3.39016 0
M  V30 1866 H 178.416 -1.59351 -3.66671 0
M  V30 1867 H 179.856 -0.692097 -4.18313 0
M  V30 1868 C 178.315 0.523554 -3.32807 0
M  V30 1869 O 178.845 1.55702 -3.70297 0
M  V30 1870 N 177.051 0.520363 -2.85903 0
M  V30 1871 H 176.598 -0.32107 -2.55591 0
M  V30 1872 H 176.556 1.38742 -2.82131 0
M  V30 1873 N 180.328 1.1314 -1.09713 0
M  V30 1874 C 181.605 1.80762 -0.747302 0
M  V30 1875 C 181.985 1.96663 0.767265 0
M  V30 1876 O 181.333 1.53706 1.69076 0
M  V30 1877 C 181.543 3.15606 -1.48975 0
M  V30 1878 C 182.891 3.90914 -1.65746 0
M  V30 1879 O 183.915 3.25239 -1.45251 0
M  V30 1880 O 182.774 5.08718 -1.9967 0
M  V30 1881 H 179.868 0.782103 -0.268782 0
M  V30 1882 H 182.414 1.20041 -1.19951 0
M  V30 1883 H 181.186 2.99278 -2.52088 0
M  V30 1884 H 180.809 3.84029 -1.02991 0
M  V30 1885 N 181.806 0.884767 1.30421 0
M  V30 1886 C 182.756 0.322846 2.25703 0
M  V30 1887 C 183.74 -0.548582 1.51259 0
M  V30 1888 O 184.932 -0.39304 1.72581 0
M  V30 1889 C 182.061 -0.461787 3.4018 0
M  V30 1890 C 181.147 0.423717 4.21978 0
M  V30 1891 N 181.538 1.52408 4.82292 0
M  V30 1892 C 179.836 0.218795 4.45463 0
M  V30 1893 C 180.537 2.07136 5.43571 0
M  V30 1894 N 179.513 1.36635 5.26148 0
M  V30 1895 H 183.315 1.16363 2.69883 0
M  V30 1896 H 180.829 0.73415 1.44859 0
M  V30 1897 H 182.826 -0.880985 4.07485 0
M  V30 1898 H 181.486 -1.30001 2.9754 0
M  V30 1899 H 182.497 1.90693 4.81515 0
M  V30 1900 H 179.174 -0.582275 4.1342 0
M  V30 1901 H 180.564 2.99538 6.01437 0
M  V30 1902 N 183.284 -1.43765 0.645699 0
M  V30 1903 C 184.509 -2.06767 0.161883 0
M  V30 1904 C 184.934 -1.48034 -1.16049 0
M  V30 1905 O 184.292 -0.587369 -1.71522 0
M  V30 1906 C 184.34 -3.60519 0.0762003 0
M  V30 1907 O 183.444 -4.00982 -0.963721 0
M  V30 1908 H 182.785 -0.657675 0.091429 0
M  V30 1909 H 185.315 -1.84397 0.886499 0
M  V30 1910 H 185.325 -4.07853 -0.109604 0
M  V30 1911 H 184 -4.02646 1.04157 0
M  V30 1912 H 182.577 -3.65253 -0.751312 0
M  V30 1913 N 184.763 -0.387143 -1.52771 0
M  V30 1914 C 186.174 0.0873634 -1.86495 0
M  V30 1915 C 186.525 1.46336 -1.30691 0
M  V30 1916 O 185.65 2.068 -0.637409 0
M  V30 1917 C 186.245 0.165305 -3.38396 0
M  V30 1918 C 184.804 0.584101 -3.7184 0
M  V30 1919 C 183.951 -0.255279 -2.76122 0
M  V30 1920 H 186.902 -0.605104 -1.46711 0
M  V30 1921 H 186.923 0.984848 -3.67534 0
M  V30 1922 H 186.435 -0.836301 -3.78982 0
M  V30 1923 H 184.536 1.59315 -3.36823 0
M  V30 1924 H 184.649 0.343749 -4.77865 0
M  V30 1925 H 183.013 0.279126 -2.53166 0
M  V30 1926 H 183.796 -1.25482 -3.19545 0
M  V30 1927 N 186.241 1.57166 -0.116904 0
M  V30 1928 C 187.518 1.86645 0.585049 0
M  V30 1929 C 187.898 1.0177 1.84949 0
M  V30 1930 O 187.246 0.0960379 2.28298 0
M  V30 1931 C 187.456 3.37736 0.879507 0
M  V30 1932 C 188.804 4.06289 1.23348 0
M  V30 1933 O 189.828 3.42743 0.969836 0
M  V30 1934 O 188.687 5.18455 1.7282 0
M  V30 1935 H 185.781 0.772593 0.295007 0
M  V30 1936 H 188.327 1.69025 -0.151249 0
M  V30 1937 H 187.099 3.91296 -0.0166136 0
M  V30 1938 H 186.722 3.6078 1.67103 0
M  V30 1939 N 187.719 -0.156864 1.56817 0
M  V30 1940 C 188.944 -0.890331 1.87318 0
M  V30 1941 C 189.369 -1.74394 0.704855 0
M  V30 1942 O 188.727 -1.77972 -0.345786 0
M  V30 1943 C 188.775 -1.73102 3.16336 0
M  V30 1944 O 187.879 -2.83422 2.99576 0
M  V30 1945 H 187.22 -0.24857 0.615718 0
M  V30 1946 H 189.75 -0.150649 2.04045 0
M  V30 1947 H 189.76 -2.12803 3.48107 0
M  V30 1948 H 188.435 -1.10412 4.00976 0
M  V30 1949 H 187.012 -2.47199 2.7919 0
M  V30 1950 N 189.197 -1.51736 -0.425897 0
M  V30 1951 C 190.474 -1.55519 -1.1863 0
M  V30 1952 C 190.854 -0.326219 -2.08564 0
M  V30 1953 O 190.202 0.688012 -2.17896 0
M  V30 1954 C 190.412 -2.87521 -1.9782 0
M  V30 1955 C 191.76 -3.39899 -2.54468 0
M  V30 1956 O 192.784 -2.89148 -2.08019 0
M  V30 1957 O 191.643 -4.2848 -3.39215 0
M  V30 1958 H 188.737 -0.625739 -0.540721 0
M  V30 1959 H 191.283 -1.64055 -0.434038 0
M  V30 1960 H 190.055 -3.68422 -1.31836 0
M  V30 1961 H 189.678 -2.822 -2.80088 0
M  V30 1962 N 190.675 0.682077 -1.42076 0
M  V30 1963 C 191.625 1.78823 -1.41444 0
M  V30 1964 C 192.609 1.58323 -0.28681 0
M  V30 1965 O 193.801 1.68926 -0.528498 0
M  V30 1966 C 190.93 3.17232 -1.3122 0
M  V30 1967 C 190.016 3.4338 -2.489 0
M  V30 1968 N 190.407 3.40152 -3.7434 0
M  V30 1969 C 188.705 3.73986 -2.43003 0
M  V30 1970 C 189.406 3.65581 -4.52466 0
M  V30 1971 N 188.382 3.85989 -3.8277 0
M  V30 1972 H 192.184 1.7471 -2.36334 0
M  V30 1973 H 189.698 0.882622 -1.36321 0
M  V30 1974 H 191.695 3.96489 -1.2885 0
M  V30 1975 H 190.355 3.22547 -0.373263 0
M  V30 1976 H 191.366 3.20221 -4.07037 0
M  V30 1977 H 188.043 3.86591 -1.57651 0
M  V30 1978 H 189.433 3.69108 -5.61435 0
M  V30 1979 N 192.153 1.28127 0.917671 0
M  V30 1980 C 193.43 1.05761 1.64542 0
M  V30 1981 C 193.81 -0.404344 2.07191 0
M  V30 1982 O 193.158 -1.38963 1.81388 0
M  V30 1983 C 193.368 2.02857 2.83989 0
M  V30 1984 C 194.716 2.32786 3.551 0
M  V30 1985 O 195.74 2.0091 2.94132 0
M  V30 1986 O 194.599 2.87169 4.64969 0
M  V30 1987 H 191.693 0.403916 0.721652 0
M  V30 1988 H 194.239 1.39431 0.967322 0
M  V30 1989 H 193.011 3.01407 2.49538 0
M  V30 1990 H 192.634 1.69809 3.59514 0
M  V30 1991 N 193.631 -1.12557 1.10312 0
M  V30 1992 C 194.561 -2.20341 0.772798 0
M  V30 1993 C 195.542 -1.68198 -0.25365 0
M  V30 1994 O 196.727 -1.93831 -0.119699 0
M  V30 1995 C 193.857 -3.46709 0.202443 0
M  V30 1996 C 192.811 -4.11996 1.15943 0
M  V30 1997 C 192.137 -5.328 0.450345 0
M  V30 1998 C 193.437 -4.5828 2.50552 0
M  V30 1999 H 195.131 -2.48229 1.674 0
M  V30 2000 H 192.677 -1.19308 0.806326 0
M  V30 2001 H 194.63 -4.2138 -0.0407752 0
M  V30 2002 H 193.354 -3.18245 -0.734001 0
M  V30 2003 H 192.013 -3.39305 1.38808 0
M  V30 2004 H 191.661 -5.00602 -0.490531 0
M  V30 2005 H 191.361 -5.7743 1.08851 0
M  V30 2006 H 192.885 -6.10219 0.215642 0
M  V30 2007 H 194.299 -5.2433 2.31843 0
M  V30 2008 H 192.696 -5.13683 3.10242 0
M  V30 2009 H 193.766 -3.72329 3.10643 0
M  V30 2010 N 195.109 -0.891671 -1.2995 0
M  V30 2011 C 196.355 -0.514261 -1.96171 0
M  V30 2012 C 196.688 0.935506 -1.70182 0
M  V30 2013 O 195.963 1.66204 -1.01028 0
M  V30 2014 C 196.246 -0.797719 -3.51153 0
M  V30 2015 C 196.099 -2.2986 -3.86632 0
M  V30 2016 C 197.418 -0.278749 -4.39216 0
M  V30 2017 H 194.537 -0.188314 -0.712535 0
M  V30 2018 H 197.179 -1.11689 -1.53706 0
M  V30 2019 H 195.329 -0.284826 -3.87455 0
M  V30 2020 H 197.001 -2.88042 -3.60319 0
M  V30 2021 H 195.244 -2.76257 -3.34462 0
M  V30 2022 H 195.915 -2.44753 -4.94773 0
M  V30 2023 H 198.391 -0.717825 -4.09862 0
M  V30 2024 H 197.267 -0.506353 -5.46559 0
M  V30 2025 H 197.528 0.820266 -4.34424 0
M  V30 2026 N 196.587 1.43421 -0.653314 0
M  V30 2027 C 197.835 2.01414 -0.166415 0
M  V30 2028 C 198.156 1.51803 1.22397 0
M  V30 2029 O 197.426 0.730693 1.81763 0
M  V30 2030 H 196.006 0.744703 -0.0585319 0
M  V30 2031 H 198.668 1.75629 -0.845003 0
M  V30 2032 H 197.764 3.11734 -0.151111 0
M  V30 2033 N 198.065 0.39524 1.52563 0
M  V30 2034 C 198.975 -0.444232 2.30356 0
M  V30 2035 C 199.991 -1.06615 1.37511 0
M  V30 2036 O 201.167 -1.07067 1.70583 0
M  V30 2037 C 198.232 -1.55315 3.09964 0
M  V30 2038 C 197.293 -0.955734 4.18526 0
M  V30 2039 C 196.526 -2.01181 4.9433 0
M  V30 2040 O 196.749 -3.22781 4.70285 0
M  V30 2041 O 195.683 -1.62579 5.79527 0
M  V30 2042 H 199.509 0.189667 3.03107 0
M  V30 2043 H 197.094 0.1588 1.48554 0
M  V30 2044 H 198.976 -2.19724 3.59582 0
M  V30 2045 H 197.651 -2.17191 2.4002 0
M  V30 2046 H 196.558 -0.274743 3.7309 0
M  V30 2047 H 197.891 -0.381109 4.90722 0
M  V30 2048 N 199.544 -1.57102 0.125237 0
M  V30 2049 C 200.79 -1.95697 -0.532035 0
M  V30 2050 C 201.123 -1.009 -1.6593 0
M  V30 2051 O 200.398 -0.047347 -1.94442 0
M  V30 2052 C 200.681 -3.44181 -1.05884 0
M  V30 2053 C 200.534 -4.49752 0.0654392 0
M  V30 2054 C 201.853 -3.94655 -1.9477 0
M  V30 2055 H 198.972 -0.711571 -0.191925 0
M  V30 2056 H 201.614 -1.88923 0.20206 0
M  V30 2057 H 199.764 -3.50085 -1.68442 0
M  V30 2058 H 201.436 -4.55943 0.700982 0
M  V30 2059 H 199.679 -4.27653 0.727709 0
M  V30 2060 H 200.35 -5.50924 -0.344505 0
M  V30 2061 H 202.826 -3.91094 -1.42074 0
M  V30 2062 H 201.702 -4.99057 -2.28546 0
M  V30 2063 H 201.963 -3.35718 -2.87656 0
M  V30 2064 N 201.022 0.148545 -1.56898 0
M  V30 2065 C 201.985 1.16736 -1.97244 0
M  V30 2066 C 202.985 1.35947 -0.858777 0
M  V30 2067 O 204.175 1.32966 -1.12542 0
M  V30 2068 C 201.307 2.52798 -2.28705 0
M  V30 2069 H 202.5 0.821279 -2.88435 0
M  V30 2070 H 200.053 0.391831 -1.51309 0
M  V30 2071 H 200.788 2.92381 -1.403 0
M  V30 2072 H 200.573 2.40216 -3.09901 0
M  V30 2073 H 202.063 3.26179 -2.60762 0
M  V30 2074 N 202.5 1.5196 0.417844 0
M  V30 2075 C 203.777 1.56146 1.17803 0
M  V30 2076 C 204.157 0.337275 2.08388 0
M  V30 2077 O 203.505 -0.676447 2.18258 0
M  V30 2078 C 203.715 2.88566 1.96293 0
M  V30 2079 C 205.063 3.41244 2.52662 0
M  V30 2080 O 206.087 2.90247 2.06483 0
M  V30 2081 O 204.946 4.30273 3.36938 0
M  V30 2082 H 202.04 0.628598 0.537395 0
M  V30 2083 H 204.586 1.64283 0.425331 0
M  V30 2084 H 203.358 3.69116 1.2988 0
M  V30 2085 H 202.981 2.83681 2.78587 0
M  V30 2086 N 203.978 -0.674533 1.42435 0
M  V30 2087 C 205.255 -1.4305 1.33402 0
M  V30 2088 C 205.635 -2.11081 -0.0284674 0
M  V30 2089 O 204.983 -2.03257 -1.04397 0
M  V30 2090 C 205.193 -2.43272 2.50239 0
M  V30 2091 C 206.541 -3.07907 2.92367 0
M  V30 2092 O 207.565 -2.53599 2.50132 0
M  V30 2093 O 206.424 -4.0632 3.65467 0
M  V30 2094 H 203.518 -0.638076 0.526106 0
M  V30 2095 H 206.064 -0.703235 1.54443 0
M  V30 2096 H 204.836 -1.91803 3.41068 0
M  V30 2097 H 204.459 -3.23479 2.31186 0
M  V30 2098 N 205.456 -1.28612 -0.910864 0
M  V30 2099 C 206.705 -1.15311 -1.65488 0
M  V30 2100 C 207.018 0.296999 -1.93332 0
M  V30 2101 O 208.224 0.551168 -2.65847 0
M  V30 2102 C 206.68 -2.01599 -2.98137 0
M  V30 2103 C 206.288 -3.51367 -2.7793 0
M  V30 2104 C 208.032 -1.96993 -3.76024 0
M  V30 2105 C 205.939 -4.29797 -4.06237 0
M  V30 2106 H 204.869 -0.42796 -0.620779 0
M  V30 2107 H 207.52 -1.53166 -1.01057 0
M  V30 2108 H 205.902 -1.56603 -3.63719 0
M  V30 2109 H 207.076 -4.0434 -2.21011 0
M  V30 2110 H 205.391 -3.57529 -2.13452 0
M  V30 2111 H 207.988 -2.52856 -4.71135 0
M  V30 2112 H 208.331 -0.94733 -4.05378 0
M  V30 2113 H 208.864 -2.39973 -3.17266 0
M  V30 2114 H 205.603 -5.32648 -3.82055 0
M  V30 2115 H 205.123 -3.81596 -4.62757 0
M  V30 2116 H 206.802 -4.39869 -4.74473 0
M  V30 2117 N 206.934 1.1197 -1.10907 0
M  V30 2118 C 208.35 1.35591 -0.841852 0
M  V30 2119 C 208.55 1.94233 0.536246 0
M  V30 2120 O 207.606 2.1717 1.28816 0
M  V30 2121 C 208.919 2.29284 -1.94549 0
M  V30 2122 C 210.467 2.42862 -1.97451 0
M  V30 2123 C 210.942 3.39873 -3.07002 0
M  V30 2124 N 212.433 3.47433 -3.06341 0
M  V30 2125 C 213.168 4.22421 -3.87748 0
M  V30 2126 N 212.664 5.00432 -4.79103 0
M  V30 2127 N 214.457 4.17876 -3.75946 0
M  V30 2128 H 206.608 0.722664 -1.99728 0
M  V30 2129 H 208.871 0.380635 -0.868229 0
M  V30 2130 H 208.577 1.93378 -2.93765 0
M  V30 2131 H 208.451 3.29452 -1.83688 0
M  V30 2132 H 210.838 2.78046 -0.988645 0
M  V30 2133 H 210.919 1.42566 -2.12388 0
M  V30 2134 H 210.563 3.05417 -4.05811 0
M  V30 2135 H 210.493 4.40011 -2.89306 0
M  V30 2136 H 212.984 2.91784 -2.40147 0
M  V30 2137 H 213.297 5.55002 -5.37766 0
M  V30 2138 H 211.642 4.99612 -4.83128 0
M  V30 2139 H 214.833 3.56016 -3.03924 0
M  V30 2140 H 215.006 4.76061 -4.39624 0
M  V30 2141 N 208.412 0.89855 1.29475 0
M  V30 2142 C 209.637 0.538561 2.00285 0
M  V30 2143 C 210.062 -0.869135 1.66816 0
M  V30 2144 O 209.42 -1.57831 0.892145 0
M  V30 2145 C 209.468 0.736475 3.52999 0
M  V30 2146 O 208.572 -0.211537 4.11857 0
M  V30 2147 H 207.913 0.210563 0.62973 0
M  V30 2148 H 210.443 1.20982 1.64998 0
M  V30 2149 H 210.453 0.640685 4.02938 0
M  V30 2150 H 209.128 1.76276 3.76696 0
M  V30 2151 H 207.705 -0.0682991 3.72837 0
M  V30 2152 N 209.89 -1.43072 0.660911 0
M  V30 2153 C 211.139 -2.00942 0.174735 0
M  V30 2154 C 211.452 -1.52797 -1.22117 0
M  V30 2155 O 212.658 -2.02991 -1.80297 0
M  V30 2156 C 211.114 -3.58948 0.261559 0
M  V30 2157 C 210.722 -4.16085 1.66064 0
M  V30 2158 C 212.466 -4.24173 -0.166617 0
M  V30 2159 C 210.373 -5.6641 1.70098 0
M  V30 2160 H 209.303 -0.751483 0.0615631 0
M  V30 2161 H 211.954 -1.63955 0.824069 0
M  V30 2162 H 210.336 -3.93372 -0.455421 0
M  V30 2163 H 211.51 -3.93147 2.40359 0
M  V30 2164 H 209.825 -3.6326 2.03546 0
M  V30 2165 H 212.422 -5.34471 -0.156433 0
M  V30 2166 H 212.765 -3.98647 -1.19943 0
M  V30 2167 H 213.298 -3.94659 0.498875 0
M  V30 2168 H 210.037 -5.96715 2.71315 0
M  V30 2169 H 209.557 -5.91382 1.00139 0
M  V30 2170 H 211.236 -6.30585 1.44816 0
M  V30 2171 N 211.368 -0.403325 -1.52352 0
M  V30 2172 C 212.617 0.175668 -2.00934 0
M  V30 2173 C 212.93 1.46718 -1.29356 0
M  V30 2174 O 214.136 2.12708 -1.68724 0
M  V30 2175 C 212.592 0.363612 -3.58058 0
M  V30 2176 C 212.2 -0.915472 -4.38547 0
M  V30 2177 C 213.944 0.89821 -4.14888 0
M  V30 2178 C 211.851 -0.695035 -5.87302 0
M  V30 2179 H 210.781 0.0694234 -0.750797 0
M  V30 2180 H 213.432 -0.527879 -1.75743 0
M  V30 2181 H 211.814 1.12935 -3.79555 0
M  V30 2182 H 212.988 -1.68691 -4.28812 0
M  V30 2183 H 211.303 -1.37606 -3.93006 0
M  V30 2184 H 213.9 1.07907 -5.23699 0
M  V30 2185 H 214.243 1.87126 -3.71873 0
M  V30 2186 H 214.776 0.191681 -3.97338 0
M  V30 2187 H 211.515 -1.63948 -6.34666 0
M  V30 2188 H 211.035 0.0372116 -5.99788 0
M  V30 2189 H 212.714 -0.33497 -6.46132 0
M  V30 2190 N 212.846 1.57033 -0.133567 0
M  V30 2191 C 214.123 1.87256 0.56522 0
M  V30 2192 C 214.503 1.03726 1.83859 0
M  V30 2193 O 213.851 0.120247 2.28183 0
M  V30 2194 C 214.061 3.3865 0.843636 0
M  V30 2195 C 215.409 4.07574 1.19032 0
M  V30 2196 O 216.433 3.43752 0.933429 0
M  V30 2197 O 215.292 5.20259 1.67312 0
M  V30 2198 H 212.386 0.775678 0.286796 0
M  V30 2199 H 214.932 1.68855 -0.169168 0
M  V30 2200 H 213.704 3.91257 -0.0581149 0
M  V30 2201 H 213.327 3.62532 1.63268 0
M  V30 2202 N 214.325 -0.140222 1.56975 0
M  V30 2203 C 215.235 -1.19223 2.02047 0
M  V30 2204 C 216.251 -1.46612 0.937062 0
M  V30 2205 O 217.427 -1.58148 1.24704 0
M  V30 2206 C 214.492 -2.50414 2.39778 0
M  V30 2207 C 213.553 -2.30612 3.621 0
M  V30 2208 C 212.786 -3.55547 3.98023 0
M  V30 2209 O 213.009 -4.62004 3.34528 0
M  V30 2210 O 211.943 -3.47808 4.91237 0
M  V30 2211 H 215.769 -0.839559 2.91865 0
M  V30 2212 H 213.354 -0.349453 1.45256 0
M  V30 2213 H 215.236 -3.27747 2.64877 0
M  V30 2214 H 213.911 -2.85198 1.53114 0
M  V30 2215 H 212.818 -1.51207 3.4218 0
M  V30 2216 H 214.151 -2.00741 4.49404 0
M  V30 2217 N 215.803 -1.52179 -0.40978 0
M  V30 2218 C 217.05 -1.66206 -1.15679 0
M  V30 2219 C 217.378 -0.391674 -1.90516 0
M  V30 2220 O 216.633 0.62533 -1.8544 0
M  V30 2221 C 216.932 -2.83428 -2.17723 0
M  V30 2222 C 216.598 -4.21672 -1.59699 0
M  V30 2223 C 215.26 -4.59274 -1.43599 0
M  V30 2224 C 217.612 -5.07825 -1.17317 0
M  V30 2225 C 214.94 -5.80709 -0.836328 0
M  V30 2226 C 217.292 -6.29864 -0.587691 0
M  V30 2227 C 215.956 -6.66216 -0.413818 0
M  V30 2228 H 215.226 -0.608192 -0.423301 0
M  V30 2229 H 217.873 -1.86279 -0.444097 0
M  V30 2230 H 216.178 -2.57687 -2.95135 0
M  V30 2231 H 217.875 -2.91477 -2.75394 0
M  V30 2232 H 214.465 -3.9204 -1.73213 0
M  V30 2233 H 218.649 -4.79359 -1.28565 0
M  V30 2234 H 213.905 -6.07498 -0.689626 0
M  V30 2235 H 218.079 -6.95948 -0.250894 0
M  V30 2236 H 215.706 -7.60182 0.0529471 0
M  V30 2237 N 217.281 0.66697 -1.42791 0
M  V30 2238 C 218.558 1.4234 -1.34159 0
M  V30 2239 C 218.938 2.11093 0.0172729 0
M  V30 2240 O 218.286 2.03808 1.03318 0
M  V30 2241 C 218.496 2.41942 -2.51526 0
M  V30 2242 C 219.844 3.06353 -2.93995 0
M  V30 2243 O 220.868 2.52269 -2.51473 0
M  V30 2244 O 219.727 4.04376 -3.67617 0
M  V30 2245 H 216.821 0.635277 -0.529483 0
M  V30 2246 H 219.367 0.695034 -1.54814 0
M  V30 2247 H 218.139 1.89991 -3.42081 0
M  V30 2248 H 217.762 3.22249 -2.32898 0
M  V30 2249 N 218.759 1.29093 0.90403 0
M  V30 2250 C 220.17 1.15186 1.46932 0
M  V30 2251 C 220.521 -0.254587 1.94541 0
M  V30 2252 O 219.646 -1.14972 1.83332 0
M  V30 2253 C 220.241 2.08492 2.67051 0
M  V30 2254 C 218.8 1.98621 3.19729 0
M  V30 2255 C 217.947 1.9967 1.92425 0
M  V30 2256 H 220.898 1.41641 0.715789 0
M  V30 2257 H 220.919 1.65461 3.42641 0
M  V30 2258 H 220.431 3.10847 2.3237 0
M  V30 2259 H 218.532 0.993389 3.59114 0
M  V30 2260 H 218.645 2.86068 3.8432 0
M  V30 2261 H 217.009 1.44208 2.09943 0
M  V30 2262 H 217.792 3.03721 1.60026 0
M  V30 2263 N 220.237 -1.11381 1.11499 0
M  V30 2264 C 221.465 -1.86934 0.88675 0
M  V30 2265 C 221.88 -1.80195 -0.563476 0
M  V30 2266 O 221.237 -1.18367 -1.38908 0
M  V30 2267 C 221.288 -3.35722 1.34064 0
M  V30 2268 O 221.009 -3.4232 2.73401 0
M  V30 2269 C 222.51 -4.2818 1.14791 0
M  V30 2270 H 219.73 -0.591117 0.317523 0
M  V30 2271 H 222.274 -1.40865 1.48248 0
M  V30 2272 H 220.429 -3.79294 0.788355 0
M  V30 2273 H 220.843 -4.34971 2.93087 0
M  V30 2274 H 222.317 -5.30817 1.5145 0
M  V30 2275 H 222.794 -4.39113 0.0875279 0
M  V30 2276 H 223.4 -3.90402 1.68721 0
M  V30 2277 N 221.715 -0.905404 -1.28997 0
M  V30 2278 C 222.645 -0.404212 -2.29975 0
M  V30 2279 C 223.626 0.523784 -1.61835 0
M  V30 2280 O 224.811 0.433298 -1.89304 0
M  V30 2281 C 221.941 0.364042 -3.45387 0
M  V30 2282 C 220.895 -0.474048 -4.25367 0
M  V30 2283 C 220.221 0.422045 -5.33032 0
M  V30 2284 C 221.521 -1.72696 -4.92923 0
M  V30 2285 H 223.215 -1.24807 -2.72146 0
M  V30 2286 H 220.761 -0.601585 -1.30832 0
M  V30 2287 H 222.714 0.725447 -4.15109 0
M  V30 2288 H 221.438 1.24174 -3.02074 0
M  V30 2289 H 220.097 -0.81786 -3.57361 0
M  V30 2290 H 219.745 1.29804 -4.85963 0
M  V30 2291 H 219.445 -0.135057 -5.87445 0
M  V30 2292 H 220.969 0.779517 -6.05604 0
M  V30 2293 H 222.383 -1.43495 -5.55051 0
M  V30 2294 H 220.78 -2.22582 -5.57295 0
M  V30 2295 H 221.85 -2.45964 -4.17887 0
M  V30 2296 N 223.193 1.4272 -0.668489 0
M  V30 2297 C 224.439 2.01923 -0.188419 0
M  V30 2298 C 224.772 1.52704 1.19979 0
M  V30 2299 O 224.047 0.726566 1.8042 0
M  V30 2300 C 224.33 3.59451 -0.216085 0
M  V30 2301 C 224.183 4.18864 -1.6393 0
M  V30 2302 C 225.502 4.37903 0.439179 0
M  V30 2303 H 222.621 0.733674 -0.0699412 0
M  V30 2304 H 225.263 1.69822 -0.852076 0
M  V30 2305 H 223.413 3.86929 0.349012 0
M  V30 2306 H 225.085 4.02362 -2.25616 0
M  V30 2307 H 223.328 3.74933 -2.18193 0
M  V30 2308 H 223.999 5.27987 -1.61039 0
M  V30 2309 H 226.475 4.16079 -0.0417878 0
M  V30 2310 H 225.351 5.47519 0.389157 0
M  V30 2311 H 225.612 4.15303 1.51577 0
M  V30 2312 N 224.671 0.411399 1.52136 0
M  V30 2313 C 225.917 -0.163888 2.02137 0
M  V30 2314 C 226.25 -1.44597 1.29636 0
M  V30 2315 O 225.525 -1.90272 0.403353 0
M  V30 2316 C 225.808 -0.40927 3.57767 0
M  V30 2317 C 225.661 0.889643 4.40914 0
M  V30 2318 C 226.98 -1.19042 4.23694 0
M  V30 2319 H 224.099 -0.0580896 0.734707 0
M  V30 2320 H 226.741 0.54531 1.82007 0
M  V30 2321 H 224.891 -1.0134 3.7505 0
M  V30 2322 H 226.563 1.52575 4.35337 0
M  V30 2323 H 224.806 1.50011 4.07037 0
M  V30 2324 H 225.477 0.672314 5.4789 0
M  V30 2325 H 227.953 -0.678942 4.10524 0
M  V30 2326 H 226.829 -1.33086 5.32522 0
M  V30 2327 H 227.09 -2.21166 3.82803 0
M  V30 2328 N 226.149 -1.5696 0.141893 0
M  V30 2329 C 227.377 -2.00322 -0.517579 0
M  V30 2330 C 227.792 -1.02193 -1.58752 0
M  V30 2331 O 227.149 -0.0181619 -1.82491 0
M  V30 2332 C 227.2 -3.43618 -1.12289 0
M  V30 2333 O 226.921 -4.37995 -0.0956929 0
M  V30 2334 C 228.422 -4.02231 -1.86347 0
M  V30 2335 H 225.642 -0.657243 -0.135177 0
M  V30 2336 H 228.186 -2.03146 0.234973 0
M  V30 2337 H 226.341 -3.41662 -1.82609 0
M  V30 2338 H 226.755 -5.21729 -0.538469 0
M  V30 2339 H 228.229 -5.04509 -2.23997 0
M  V30 2340 H 228.706 -3.42655 -2.74744 0
M  V30 2341 H 229.312 -4.07802 -1.20737 0
M  V30 2342 N 227.627 0.131896 -1.57047 0
M  V30 2343 C 228.867 0.847972 -1.85981 0
M  V30 2344 C 229.231 1.77655 -0.7282 0
M  V30 2345 O 230.432 2.53322 -0.898968 0
M  V30 2346 C 228.703 1.58919 -3.20124 0
M  V30 2347 S 230.262 2.34862 -3.70655 0
M  V30 2348 H 227.08 0.283273 -0.652133 0
M  V30 2349 H 229.682 0.107057 -1.95207 0
M  V30 2350 H 228.386 0.898771 -4.00438 0
M  V30 2351 H 227.917 2.37073 -3.13942 0
M  V30 2352 H 229.932 3.60344 -3.41126 0
M  V30 2353 N 229.106 1.52395 0.401703 0
M  V30 2354 C 230.069 1.75636 1.47257 0
M  V30 2355 C 231.069 0.62628 1.48103 0
M  V30 2356 O 232.259 0.894227 1.49497 0
M  V30 2357 C 229.391 1.84553 2.86624 0
M  V30 2358 H 230.584 2.71241 1.27938 0
M  V30 2359 H 228.137 1.42923 0.632662 0
M  V30 2360 H 228.872 0.908882 3.11303 0
M  V30 2361 H 228.657 2.66715 2.87412 0
M  V30 2362 H 230.147 2.04251 3.64241 0
M  V30 2363 N 230.584 -0.659388 1.43143 0
M  V30 2364 C 231.547 -1.75432 1.47501 0
M  V30 2365 C 232.547 -1.56707 0.360512 0
M  V30 2366 O 233.737 -1.62717 0.622002 0
M  V30 2367 C 230.869 -3.14239 1.32162 0
M  V30 2368 H 232.062 -1.7295 2.45006 0
M  V30 2369 H 229.615 -0.870469 1.29817 0
M  V30 2370 H 230.35 -3.22336 0.356401 0
M  V30 2371 H 230.135 -3.29235 2.12948 0
M  V30 2372 H 231.625 -3.94094 1.3813 0
M  V30 2373 N 232.062 -1.29571 -0.897171 0
M  V30 2374 C 233.311 -1.1706 -1.64256 0
M  V30 2375 C 233.624 0.276476 -1.93636 0
M  V30 2376 O 234.83 0.52294 -2.66416 0
M  V30 2377 C 233.286 -2.0475 -2.95982 0
M  V30 2378 C 232.894 -3.54295 -2.74187 0
M  V30 2379 C 234.638 -2.0097 -3.73914 0
M  V30 2380 C 232.545 -4.34081 -4.01656 0
M  V30 2381 H 231.475 -0.43452 -0.616205 0
M  V30 2382 H 234.126 -1.54229 -0.994268 0
M  V30 2383 H 232.508 -1.60452 -3.62038 0
M  V30 2384 H 233.682 -4.06662 -2.1671 0
M  V30 2385 H 231.997 -3.59773 -2.09648 0
M  V30 2386 H 234.594 -2.57838 -4.68427 0
M  V30 2387 H 234.937 -0.990273 -4.0435 0
M  V30 2388 H 235.47 -2.43325 -3.14703 0
M  V30 2389 H 232.209 -5.36671 -3.76384 0
M  V30 2390 H 231.729 -3.86483 -4.58684 0
M  V30 2391 H 233.408 -4.44877 -4.69781 0
M  V30 2392 N 233.54 1.10788 -1.12088 0
M  V30 2393 C 234.788 1.8231 -0.872205 0
M  V30 2394 C 235.109 1.85419 0.603709 0
M  V30 2395 O 234.379 1.32963 1.43867 0
M  V30 2396 H 232.959 0.675137 -0.319686 0
M  V30 2397 H 235.621 1.34068 -1.41463 0
M  V30 2398 H 234.717 2.85955 -1.25045 0
M  V30 2399 N 235.018 0.912232 1.28515 0
M  V30 2400 C 235.928 0.404506 2.31086 0
M  V30 2401 C 236.944 -0.50707 1.66448 0
M  V30 2402 O 238.12 -0.393624 1.97516 0
M  V30 2403 C 235.185 -0.348572 3.44943 0
M  V30 2404 C 234.246 0.59604 4.25142 0
M  V30 2405 C 233.479 -0.121194 5.33562 0
M  V30 2406 O 233.702 -1.34317 5.5436 0
M  V30 2407 O 232.636 0.542716 5.99448 0
M  V30 2408 H 236.462 1.25579 2.76521 0
M  V30 2409 H 234.047 0.676998 1.33181 0
M  V30 2410 H 235.929 -0.77395 4.14232 0
M  V30 2411 H 234.604 -1.17571 3.01594 0
M  V30 2412 H 233.511 1.07079 3.58448 0
M  V30 2413 H 234.844 1.38995 4.72167 0
M  V30 2414 N 236.496 -1.42363 0.676048 0
M  V30 2415 C 237.446 -2.27987 -0.0242903 0
M  V30 2416 C 238.43 -1.41153 -0.772319 0
M  V30 2417 O 239.622 -1.64592 -0.651025 0
M  V30 2418 C 236.751 -3.29195 -0.973953 0
M  V30 2419 C 235.837 -4.23512 -0.223202 0
M  V30 2420 N 236.228 -4.99865 0.772589 0
M  V30 2421 C 234.526 -4.43606 -0.461469 0
M  V30 2422 C 235.227 -5.68757 1.22027 0
M  V30 2423 N 234.203 -5.40811 0.549975 0
M  V30 2424 H 238.005 -2.84445 0.73949 0
M  V30 2425 H 235.519 -1.54341 0.50522 0
M  V30 2426 H 237.516 -3.89339 -1.49067 0
M  V30 2427 H 236.176 -2.74298 -1.73755 0
M  V30 2428 H 237.187 -5.04921 1.15217 0
M  V30 2429 H 233.864 -3.99749 -1.20446 0
M  V30 2430 H 235.254 -6.40007 2.0455 0
M  V30 2431 N 237.974 -0.419461 -1.51915 0
M  V30 2432 C 239.385 0.0477853 -1.86639 0
M  V30 2433 C 239.736 1.43531 -1.33766 0
M  V30 2434 O 238.861 2.05401 -0.68113 0
M  V30 2435 C 239.456 0.0934885 -3.38671 0
M  V30 2436 C 238.015 0.505097 -3.72996 0
M  V30 2437 C 237.162 -0.313792 -2.75519 0
M  V30 2438 H 240.113 -0.636088 -1.45395 0
M  V30 2439 H 240.134 0.906667 -3.6954 0
M  V30 2440 H 239.646 -0.916501 -3.77123 0
M  V30 2441 H 237.747 1.52135 -3.40126 0
M  V30 2442 H 237.86 0.242309 -4.78487 0
M  V30 2443 H 236.224 0.225363 -2.53701 0
M  V30 2444 H 237.007 -1.32232 -3.16812 0
M  V30 2445 N 239.452 1.56882 -0.150215 0
M  V30 2446 C 240.729 1.87844 0.545327 0
M  V30 2447 C 241.109 1.0567 1.82749 0
M  V30 2448 O 240.457 0.144442 2.28043 0
M  V30 2449 C 240.667 3.39526 0.80767 0
M  V30 2450 C 242.015 4.08814 1.14703 0
M  V30 2451 O 243.039 3.44723 0.896917 0
M  V30 2452 O 241.898 5.22004 1.61784 0
M  V30 2453 H 238.992 0.778677 0.278553 0
M  V30 2454 H 241.538 1.68666 -0.187068 0
M  V30 2455 H 240.31 3.91173 -0.0996096 0
M  V30 2456 H 239.933 3.64243 1.59413 0
M  V30 2457 N 240.93 -0.123565 1.57115 0
M  V30 2458 C 241.88 -1.1575 1.96433 0
M  V30 2459 C 242.864 -1.37313 0.838686 0
M  V30 2460 O 244.056 -1.38482 1.10235 0
M  V30 2461 C 241.185 -2.48526 2.36833 0
M  V30 2462 C 240.271 -2.30457 3.5602 0
M  V30 2463 N 240.662 -1.8219 4.71848 0
M  V30 2464 C 238.96 -2.61129 3.61563 0
M  V30 2465 C 239.661 -1.77721 5.53886 0
M  V30 2466 N 238.637 -2.21899 4.96248 0
M  V30 2467 H 242.439 -0.776797 2.83449 0
M  V30 2468 H 239.953 -0.331364 1.58983 0
M  V30 2469 H 241.95 -3.233 2.63216 0
M  V30 2470 H 240.61 -2.87358 1.5118 0
M  V30 2471 H 241.621 -1.51805 4.95152 0
M  V30 2472 H 238.298 -3.03678 2.86507 0
M  V30 2473 H 239.688 -1.41697 6.56789 0
M  V30 2474 N 242.408 -1.52605 -0.393616 0
M  V30 2475 C 243.318 -1.79971 -1.50492 0
M  V30 2476 C 244.334 -0.686181 -1.59899 0
M  V30 2477 O 245.51 -0.973274 -1.76322 0
M  V30 2478 C 242.575 -1.95867 -2.86072 0
M  V30 2479 C 241.636 -3.19781 -2.86424 0
M  V30 2480 C 240.869 -3.34909 -4.15538 0
M  V30 2481 O 241.092 -2.54948 -5.10253 0
M  V30 2482 O 240.026 -4.28141 -4.23059 0
M  V30 2483 H 243.852 -2.74328 -1.30299 0
M  V30 2484 H 241.437 -1.3764 -0.581005 0
M  V30 2485 H 243.319 -2.08056 -3.66457 0
M  V30 2486 H 241.994 -1.04699 -3.063 0
M  V30 2487 H 240.901 -3.13038 -2.04837 0
M  V30 2488 H 242.234 -4.1078 -2.71147 0
M  V30 2489 N 243.887 0.651787 -1.4349 0
M  V30 2490 C 244.85 1.74647 -1.48429 0
M  V30 2491 C 245.85 1.56513 -0.368817 0
M  V30 2492 O 247.04 1.62385 -0.630623 0
M  V30 2493 C 244.172 3.13533 -1.33827 0
M  V30 2494 H 245.365 1.71649 -2.4592 0
M  V30 2495 H 242.918 0.863573 -1.30277 0
M  V30 2496 H 243.653 3.22142 -0.37349 0
M  V30 2497 H 243.438 3.28101 -2.14691 0
M  V30 2498 H 244.928 3.93356 -1.40218 0
M  V30 2499 N 245.365 1.30045 0.890287 0
M  V30 2500 C 246.593 1.21472 1.67487 0
M  V30 2501 C 247.008 -0.223241 1.87476 0
M  V30 2502 O 246.365 -1.14828 1.41847 0
M  V30 2503 C 246.416 1.93394 3.05419 0
M  V30 2504 O 246.137 3.31576 2.86337 0
M  V30 2505 C 247.638 1.91414 3.99844 0
M  V30 2506 H 244.858 0.420604 0.522813 0
M  V30 2507 H 247.402 1.7158 1.11268 0
M  V30 2508 H 245.557 1.47099 3.58386 0
M  V30 2509 H 245.971 3.67929 3.73802 0
M  V30 2510 H 247.445 2.46285 4.94012 0
M  V30 2511 H 247.922 0.891833 4.3005 0
M  V30 2512 H 248.528 2.37496 3.52811 0
M  V30 2513 N 246.843 -1.10192 1.12674 0
M  V30 2514 C 248.259 -1.34235 0.863317 0
M  V30 2515 C 248.459 -1.95062 -0.505277 0
M  V30 2516 O 247.515 -2.19192 -1.25345 0
M  V30 2517 C 248.828 -2.2616 1.98172 0
M  V30 2518 C 250.376 -2.3969 2.0129 0
M  V30 2519 C 250.851 -3.34946 3.1237 0
M  V30 2520 N 252.342 -3.42515 3.11829 0
M  V30 2521 C 253.077 -4.16199 3.94419 0
M  V30 2522 N 252.573 -4.92747 4.87004 0
M  V30 2523 N 254.366 -4.11843 3.82547 0
M  V30 2524 H 246.517 -0.690798 2.00853 0
M  V30 2525 H 248.78 -0.366774 0.874174 0
M  V30 2526 H 248.486 -1.8868 2.96804 0
M  V30 2527 H 248.36 -3.26488 1.88906 0
M  V30 2528 H 250.747 -2.76438 1.03276 0
M  V30 2529 H 250.828 -1.39169 2.14629 0
M  V30 2530 H 250.472 -2.98923 4.10619 0
M  V30 2531 H 250.402 -4.35353 2.96269 0
M  V30 2532 H 252.893 -2.87926 2.44759 0
M  V30 2533 H 253.206 -5.46376 5.46528 0
M  V30 2534 H 251.551 -4.91862 4.91016 0
M  V30 2535 H 254.742 -3.51136 3.0955 0
M  V30 2536 H 254.915 -4.69007 4.47142 0
M  V30 2537 N 248.321 -0.919034 -1.28029 0
M  V30 2538 C 249.598 -0.473668 -1.89778 0
M  V30 2539 C 249.978 1.04783 -1.83259 0
M  V30 2540 O 249.326 1.8982 -1.27202 0
M  V30 2541 C 249.536 -1.00998 -3.34066 0
M  V30 2542 C 250.884 -1.06525 -4.1102 0
M  V30 2543 O 251.908 -0.958996 -3.43048 0
M  V30 2544 O 250.767 -1.22776 -5.3253 0
M  V30 2545 H 247.861 -0.15098 -0.813101 0
M  V30 2546 H 250.407 -1.01016 -1.36359 0
M  V30 2547 H 249.179 -2.05392 -3.33061 0
M  V30 2548 H 248.802 -0.454626 -3.94992 0
M  V30 2549 N 249.799 1.42003 -0.683588 0
M  V30 2550 C 250.762 2.29191 -0.0198243 0
M  V30 2551 C 251.762 1.43773 0.72013 0
M  V30 2552 O 252.952 1.65061 0.556815 0
M  V30 2553 C 250.084 3.26435 0.982487 0
M  V30 2554 H 251.277 2.8938 -0.787345 0
M  V30 2555 H 248.83 1.49789 -0.446418 0
M  V30 2556 H 249.565 2.71203 1.77819 0
M  V30 2557 H 249.35 3.89449 0.455182 0
M  V30 2558 H 250.84 3.918 1.44508 0
M  V30 2559 N 251.277 0.427512 1.51691 0
M  V30 2560 C 252.24 -0.377132 2.26076 0
M  V30 2561 C 253.24 -0.958089 1.29141 0
M  V30 2562 O 254.43 -0.83408 1.52934 0
M  V30 2563 C 251.562 -1.53262 3.04506 0
M  V30 2564 H 252.755 0.27464 2.9864 0
M  V30 2565 H 250.308 0.180445 1.55255 0
M  V30 2566 H 251.043 -2.22072 2.36335 0
M  V30 2567 H 250.828 -1.12232 3.75694 0
M  V30 2568 H 252.318 -2.10135 3.60878 0
M  V30 2569 N 252.755 -1.56801 0.158532 0
M  V30 2570 C 253.685 -2.20347 -0.772609 0
M  V30 2571 C 254.666 -1.15518 -1.24859 0
M  V30 2572 O 255.851 -1.43902 -1.30406 0
M  V30 2573 C 252.981 -2.83417 -2.00729 0
M  V30 2574 C 251.935 -3.94174 -1.66765 0
M  V30 2575 C 251.261 -4.44233 -2.97592 0
M  V30 2576 C 252.561 -5.14392 -0.905447 0
M  V30 2577 H 254.255 -2.98413 -0.242959 0
M  V30 2578 H 251.801 -1.43537 -0.115419 0
M  V30 2579 H 253.754 -3.26543 -2.6636 0
M  V30 2580 H 252.478 -2.02701 -2.56086 0
M  V30 2581 H 251.137 -3.51684 -1.03508 0
M  V30 2582 H 250.785 -3.60325 -3.50963 0
M  V30 2583 H 250.485 -5.18945 -2.75626 0
M  V30 2584 H 252.009 -4.90037 -3.64274 0
M  V30 2585 H 253.423 -5.5429 -1.46408 0
M  V30 2586 H 251.82 -5.9494 -0.7853 0
M  V30 2587 H 252.89 -4.84795 0.100668 0
M  V30 2588 N 254.233 0.115231 -1.57178 0
M  V30 2589 C 255.48 0.822351 -1.8505 0
M  V30 2590 C 255.808 1.79701 -0.744168 0
M  V30 2591 O 255.063 1.93909 0.26414 0
M  V30 2592 C 255.362 1.60324 -3.19423 0
M  V30 2593 C 255.028 0.772536 -4.44233 0
M  V30 2594 C 253.69 0.543468 -4.78121 0
M  V30 2595 C 256.042 0.193746 -5.2084 0
M  V30 2596 C 253.37 -0.274583 -5.86057 0
M  V30 2597 C 255.722 -0.611517 -6.29637 0
M  V30 2598 C 254.386 -0.850867 -6.62055 0
M  V30 2599 H 253.656 0.30092 -0.677147 0
M  V30 2600 H 256.303 0.0845802 -1.91313 0
M  V30 2601 H 254.608 2.41203 -3.08753 0
M  V30 2602 H 256.305 2.1544 -3.38211 0
M  V30 2603 H 252.895 0.96117 -4.17683 0
M  V30 2604 H 257.079 0.357926 -4.95008 0
M  V30 2605 H 252.335 -0.469206 -6.09597 0
M  V30 2606 H 256.509 -1.06697 -6.88178 0
M  V30 2607 H 254.136 -1.48657 -7.45523 0
M  V30 2608 N 255.711 1.52812 0.385517 0
M  V30 2609 C 256.674 1.77188 1.45386 0
M  V30 2610 C 257.674 0.641953 1.4743 0
M  V30 2611 O 258.864 0.910033 1.4854 0
M  V30 2612 C 255.996 1.87582 2.8465 0
M  V30 2613 H 257.189 2.72583 1.25054 0
M  V30 2614 H 254.742 1.43586 0.617467 0
M  V30 2615 H 255.477 0.941849 3.10322 0
M  V30 2616 H 255.262 2.69748 2.84567 0
M  V30 2617 H 256.752 2.08102 3.62054 0
M  V30 2618 N 257.189 -0.644168 1.43834 0
M  V30 2619 C 258.417 -1.43147 1.49387 0
M  V30 2620 C 258.832 -1.88452 0.114583 0
M  V30 2621 O 258.189 -1.60047 -0.876989 0
M  V30 2622 C 258.24 -2.66046 2.44748 0
M  V30 2623 O 257.961 -2.22633 3.77314 0
M  V30 2624 C 259.462 -3.59311 2.59635 0
M  V30 2625 H 256.682 -0.439447 0.507077 0
M  V30 2626 H 259.226 -0.78895 1.88669 0
M  V30 2627 H 257.381 -3.26418 2.08638 0
M  V30 2628 H 257.795 -3.02216 4.28679 0
M  V30 2629 H 259.269 -4.42187 3.30416 0
M  V30 2630 H 259.746 -4.07259 1.64427 0
M  V30 2631 H 260.352 -3.04816 2.96593 0
M  V30 2632 N 258.668 -1.30515 -0.883378 0
M  V30 2633 C 259.618 -1.13641 -1.9766 0
M  V30 2634 C 260.602 -0.0511314 -1.60819 0
M  V30 2635 O 261.794 -0.274623 -1.74857 0
M  V30 2636 C 258.923 -0.831976 -3.33066 0
M  V30 2637 C 258.009 -1.95759 -3.76217 0
M  V30 2638 N 258.4 -3.20313 -3.9145 0
M  V30 2639 C 256.698 -1.85431 -4.05625 0
M  V30 2640 C 257.399 -3.93856 -4.2808 0
M  V30 2641 N 256.375 -3.21919 -4.38029 0
M  V30 2642 H 260.177 -2.08106 -2.07531 0
M  V30 2643 H 257.691 -1.21877 -1.0733 0
M  V30 2644 H 259.688 -0.692102 -4.11115 0
M  V30 2645 H 258.348 0.104588 -3.24532 0
M  V30 2646 H 259.359 -3.55583 -3.76538 0
M  V30 2647 H 256.036 -0.991531 -4.05555 0
M  V30 2648 H 257.426 -5.01125 -4.47575 0
M  V30 2649 N 260.146 1.09593 -1.13257 0
M  V30 2650 C 261.056 2.19739 -0.821691 0
M  V30 2651 C 262.072 1.72926 0.19302 0
M  V30 2652 O 263.248 2.01385 0.0244895 0
M  V30 2653 C 260.313 3.45482 -0.290333 0
M  V30 2654 C 259.374 4.06985 -1.36607 0
M  V30 2655 C 258.607 5.26726 -0.859975 0
M  V30 2656 O 258.83 5.69594 0.303082 0
M  V30 2657 O 257.764 5.7931 -1.63351 0
M  V30 2658 H 261.59 2.48781 -1.74189 0
M  V30 2659 H 259.175 1.18496 -0.909894 0
M  V30 2660 H 261.057 4.214 0.000674022 0
M  V30 2661 H 259.732 3.18047 0.602306 0
M  V30 2662 H 258.639 3.32712 -1.71037 0
M  V30 2663 H 259.972 4.38643 -2.23279 0
M  V30 2664 N 261.624 0.925811 1.2754 0
M  V30 2665 C 262.571 0.422045 2.26908 0
M  V30 2666 C 263.541 -0.510029 1.58076 0
M  V30 2667 O 264.726 -0.429599 1.85901 0
M  V30 2668 C 261.866 -0.320837 3.43605 0
M  V30 2669 C 260.979 0.64513 4.27156 0
M  V30 2670 C 260.114 -0.117405 5.3107 0
M  V30 2671 C 259.153 0.841391 6.0629 0
M  V30 2672 N 258.29 0.111604 7.02011 0
M  V30 2673 H 263.13 1.27441 2.69375 0
M  V30 2674 H 260.667 0.639697 1.32462 0
M  V30 2675 H 262.625 -0.76785 4.10073 0
M  V30 2676 H 261.255 -1.13745 3.02096 0
M  V30 2677 H 260.307 1.21067 3.6062 0
M  V30 2678 H 261.619 1.37797 4.79389 0
M  V30 2679 H 260.773 -0.624422 6.03478 0
M  V30 2680 H 259.512 -0.883219 4.79636 0
M  V30 2681 H 258.517 1.35967 5.32722 0
M  V30 2682 H 259.742 1.60696 6.59813 0
M  V30 2683 H 257.688 -0.635999 6.5291 0
M  V30 2684 H 257.605 0.784044 7.51923 0
M  V30 2685 H 258.873 -0.374823 7.78598 0
M  V30 2686 N 263.102 -1.41638 0.69111 0
M  V30 2687 C 264.05 -2.32597 0.0115199 0
M  V30 2688 C 265.044 -1.5072 -0.773296 0
M  V30 2689 O 266.25 -1.66685 -0.67942 0
M  V30 2690 H 262.625 -0.751849 -0.0150746 0
M  V30 2691 H 264.596 -2.87593 0.795791 0
M  V30 2692 C 263.345 -3.35467 -0.914172 0
M  V30 2693 H 262.668 -3.9852 -0.319687 0
M  V30 2694 H 264.108 -4.01662 -1.35808 0
M  V30 2695 C 262.567 -2.69004 -2.02826 0
M  V30 2696 O 263.097 -2.53444 -3.11655 0
M  V30 2697 N 261.303 -2.2777 -1.80469 0
M  V30 2698 H 260.85 -2.40626 -0.919615 0
M  V30 2699 H 260.808 -1.83635 -2.55197 0
M  V30 2700 N 264.58 -0.43555 -1.51462 0
M  V30 2701 C 265.826 0.131709 -2.02372 0
M  V30 2702 C 266.159 1.42516 -1.3192 0
M  V30 2703 O 265.434 1.89606 -0.433573 0
M  V30 2704 C 265.717 0.352301 -3.58373 0
M  V30 2705 C 265.57 -0.959676 -4.39443 0
M  V30 2706 C 266.889 1.12286 -4.25535 0
M  V30 2707 H 264.008 0.0463936 -0.735538 0
M  V30 2708 H 266.65 -0.574197 -1.81116 0
M  V30 2709 H 264.8 0.9536 -3.76615 0
M  V30 2710 H 266.472 -1.59482 -4.32855 0
M  V30 2711 H 264.715 -1.56468 -4.04599 0
M  V30 2712 H 265.386 -0.759394 -5.46752 0
M  V30 2713 H 267.862 0.613545 -4.11552 0
M  V30 2714 H 266.738 1.24598 -5.34571 0
M  V30 2715 H 266.999 2.15048 -3.86273 0
M  V30 2716 N 266.058 1.56714 -0.166846 0
M  V30 2717 C 267.469 1.83378 0.350646 0
M  V30 2718 C 267.82 1.08646 1.63372 0
M  V30 2719 O 266.945 0.338058 2.13743 0
M  V30 2720 C 267.54 3.32643 0.642963 0
M  V30 2721 C 266.099 3.59818 1.10491 0
M  V30 2722 C 265.246 2.76954 0.138411 0
M  V30 2723 H 268.197 1.53803 -0.391193 0
M  V30 2724 H 268.218 3.49878 1.49551 0
M  V30 2725 H 267.73 3.87007 -0.291055 0
M  V30 2726 H 265.831 3.1086 2.05418 0
M  V30 2727 H 265.944 4.68178 1.01716 0
M  V30 2728 H 264.308 2.4666 0.634911 0
M  V30 2729 H 265.091 3.34097 -0.789549 0
M  V30 2730 N 267.536 -0.106894 1.57237 0
M  V30 2731 C 268.782 -0.81373 1.85759 0
M  V30 2732 C 269.115 -1.78952 0.754315 0
M  V30 2733 O 268.39 -1.93029 -0.23879 0
M  V30 2734 C 268.673 -1.55293 3.24894 0
M  V30 2735 C 268.526 -0.595929 4.45835 0
M  V30 2736 C 269.845 -2.5063 3.61763 0
M  V30 2737 H 266.964 -0.294369 0.67566 0
M  V30 2738 H 269.606 -0.0776472 1.89841 0
M  V30 2739 H 267.756 -2.1804 3.21544 0
M  V30 2740 H 269.428 0.0236262 4.61294 0
M  V30 2741 H 267.671 0.0916191 4.33703 0
M  V30 2742 H 268.342 -1.15004 5.39887 0
M  V30 2743 H 270.818 -1.97982 3.65981 0
M  V30 2744 H 269.694 -2.99376 4.60071 0
M  V30 2745 H 269.955 -3.3385 2.89821 0
M  V30 2746 N 269.014 -1.53014 -0.377408 0
M  V30 2747 C 270.43 -1.42523 -0.718281 0
M  V30 2748 C 270.63 -0.55487 -1.9371 0
M  V30 2749 O 269.686 -0.0327593 -2.52479 0
M  V30 2750 C 270.999 -2.85546 -0.942539 0
M  V30 2751 C 272.547 -2.95101 -1.04329 0
M  V30 2752 C 273.022 -4.3916 -1.3001 0
M  V30 2753 N 274.513 -4.42536 -1.36806 0
M  V30 2754 C 275.248 -5.51097 -1.58364 0
M  V30 2755 N 274.744 -6.69724 -1.77317 0
M  V30 2756 N 276.537 -5.38657 -1.60638 0
M  V30 2757 H 268.688 -2.08116 0.424426 0
M  V30 2758 H 270.951 -0.939352 0.127759 0
M  V30 2759 H 270.657 -3.51499 -0.118929 0
M  V30 2760 H 270.531 -3.28493 -1.85397 0
M  V30 2761 H 272.918 -2.29309 -1.85745 0
M  V30 2762 H 272.999 -2.55566 -0.109505 0
M  V30 2763 H 272.643 -5.05521 -0.490991 0
M  V30 2764 H 272.573 -4.76258 -2.24691 0
M  V30 2765 H 275.064 -3.57039 -1.23821 0
M  V30 2766 H 275.377 -7.48233 -1.93306 0
M  V30 2767 H 273.722 -6.72732 -1.74518 0
M  V30 2768 H 276.913 -4.44948 -1.45391 0
M  V30 2769 H 277.086 -6.2333 -1.77098 0
M  V30 2770 N 270.492 0.636531 -1.44174 0
M  V30 2771 C 271.422 1.76003 -1.53444 0
M  V30 2772 C 272.403 1.65619 -0.387841 0
M  V30 2773 O 273.588 1.84461 -0.607257 0
M  V30 2774 C 270.718 3.14511 -1.4731 0
M  V30 2775 C 269.672 3.39677 -2.60391 0
M  V30 2776 C 268.998 4.78159 -2.39308 0
M  V30 2777 C 270.298 3.32772 -4.02567 0
M  V30 2778 H 271.992 1.68501 -2.47483 0
M  V30 2779 H 269.538 0.809237 -1.19111 0
M  V30 2780 H 271.491 3.92878 -1.52397 0
M  V30 2781 H 270.215 3.22783 -0.49785 0
M  V30 2782 H 268.874 2.63688 -2.54684 0
M  V30 2783 H 268.522 4.83128 -1.39988 0
M  V30 2784 H 268.222 4.95956 -3.15122 0
M  V30 2785 H 269.746 5.58762 -2.46205 0
M  V30 2786 H 271.16 4.01051 -4.09672 0
M  V30 2787 H 269.557 3.62104 -4.7854 0
M  V30 2788 H 270.627 2.30669 -4.2652 0
M  V30 2789 N 271.97 1.30982 0.876444 0
M  V30 2790 C 273.216 1.21484 1.63136 0
M  V30 2791 C 273.571 -0.226339 1.91064 0
M  V30 2792 O 272.864 -1.15788 1.52656 0
M  V30 2793 C 273.058 1.98572 2.9716 0
M  V30 2794 C 272.887 3.50039 2.82317 0
M  V30 2795 C 271.657 4.19393 2.81847 0
M  V30 2796 C 273.855 4.45111 2.57644 0
M  V30 2797 N 271.837 5.57061 2.57985 0
M  V30 2798 C 273.208 5.70402 2.42986 0
M  V30 2799 C 275.263 4.3461 2.42937 0
M  V30 2800 C 273.966 6.8638 2.15115 0
M  V30 2801 C 275.992 5.50365 2.16454 0
M  V30 2802 C 275.354 6.74642 2.02578 0
M  V30 2803 H 271.453 0.499632 0.601575 0
M  V30 2804 H 274.037 1.65094 1.03209 0
M  V30 2805 H 272.208 1.5734 3.55104 0
M  V30 2806 H 273.94 1.81146 3.61895 0
M  V30 2807 H 270.695 3.71303 2.93991 0
M  V30 2808 H 271.119 6.29529 2.49043 0
M  V30 2809 H 275.761 3.39199 2.52396 0
M  V30 2810 H 273.479 7.81824 2.04394 0
M  V30 2811 H 277.065 5.44154 2.05884 0
M  V30 2812 H 275.945 7.62699 1.82374 0
M  V30 2813 N 273.449 -1.08991 1.13837 0
M  V30 2814 C 274.359 -2.19301 0.833333 0
M  V30 2815 C 275.375 -1.73026 -0.183847 0
M  V30 2816 O 276.551 -2.01395 -0.0138092 0
M  V30 2817 C 273.616 -3.45323 0.308651 0
M  V30 2818 C 272.677 -4.06255 1.38764 0
M  V30 2819 C 271.91 -5.26262 0.887896 0
M  V30 2820 O 272.133 -5.69747 -0.27287 0
M  V30 2821 O 271.067 -5.78435 1.66421 0
M  V30 2822 H 274.893 -2.47854 1.75506 0
M  V30 2823 H 272.478 -1.18012 0.916166 0
M  V30 2824 H 274.36 -4.21394 0.0216739 0
M  V30 2825 H 273.035 -3.18362 -0.585431 0
M  V30 2826 H 271.942 -3.318 1.72799 0
M  V30 2827 H 273.275 -4.37452 2.25602 0
M  V30 2828 N 274.927 -0.932562 -1.27047 0
M  V30 2829 C 276.204 -0.49377 -1.89265 0
M  V30 2830 C 276.584 1.02833 -1.8436 0
M  V30 2831 O 275.932 1.88461 -1.29209 0
M  V30 2832 C 276.142 -1.04536 -3.32976 0
M  V30 2833 C 277.49 -1.10879 -4.09867 0
M  V30 2834 O 278.514 -0.995327 -3.42011 0
M  V30 2835 O 277.373 -1.28417 -5.31198 0
M  V30 2836 H 274.467 -0.159596 -0.811454 0
M  V30 2837 H 277.013 -1.02457 -1.3528 0
M  V30 2838 H 275.785 -2.08913 -3.30864 0
M  V30 2839 H 275.408 -0.496494 -3.94488 0
M  V30 2840 N 276.405 1.4127 -0.698611 0
M  V30 2841 C 277.335 2.33447 -0.049629 0
M  V30 2842 C 278.316 1.51982 0.763898 0
M  V30 2843 O 279.501 1.80509 0.716257 0
M  V30 2844 C 276.631 3.35828 0.885267 0
M  V30 2845 C 275.585 4.27627 0.178613 0
M  V30 2846 C 274.911 5.20406 1.22807 0
M  V30 2847 C 276.211 5.13459 -0.956933 0
M  V30 2848 H 277.905 2.87966 -0.81951 0
M  V30 2849 H 275.451 1.38461 -0.395538 0
M  V30 2850 H 277.404 3.9924 1.34854 0
M  V30 2851 H 276.128 2.79666 1.68685 0
M  V30 2852 H 274.787 3.65643 -0.26466 0
M  V30 2853 H 274.435 4.60558 2.02226 0
M  V30 2854 H 274.135 5.82661 0.760239 0
M  V30 2855 H 275.659 5.86695 1.69179 0
M  V30 2856 H 277.073 5.70421 -0.573805 0
M  V30 2857 H 275.47 5.8467 -1.35205 0
M  V30 2858 H 276.54 4.50443 -1.79524 0
M  V30 2859 N 277.883 0.443576 1.51229 0
M  V30 2860 C 279.294 -0.0180867 1.86691 0
M  V30 2861 C 279.645 -1.41384 1.36033 0
M  V30 2862 O 278.77 -2.04291 0.713722 0
M  V30 2863 C 279.365 -0.039597 3.38777 0
M  V30 2864 C 277.924 -0.445692 3.73752 0
M  V30 2865 C 277.071 0.357584 2.74985 0
M  V30 2866 H 280.022 0.659138 1.44364 0
M  V30 2867 H 280.043 -0.847761 3.70936 0
M  V30 2868 H 279.555 0.976382 3.75617 0
M  V30 2869 H 277.656 -1.46704 3.42503 0
M  V30 2870 H 277.769 -0.166155 4.78812 0
M  V30 2871 H 276.133 -0.184973 2.54027 0
M  V30 2872 H 276.916 1.37256 3.14668 0
M  V30 2873 N 279.361 -1.56624 0.175154 0
M  V30 2874 C 280.591 -2.01082 -0.474283 0
M  V30 2875 C 280.999 -1.05447 -1.57091 0
M  V30 2876 O 280.342 -0.0480595 -1.83637 0
M  V30 2877 C 280.404 -3.41963 -1.10911 0
M  V30 2878 C 280.068 -4.56742 -0.153666 0
M  V30 2879 C 281.065 -5.16076 0.629448 0
M  V30 2880 C 278.75 -5.02277 -0.0483776 0
M  V30 2881 C 280.744 -6.19377 1.50501 0
M  V30 2882 C 278.431 -6.05427 0.830768 0
M  V30 2883 C 279.429 -6.63849 1.60605 0
M  V30 2884 O 279.117 -7.64998 2.47049 0
M  V30 2885 H 278.849 -0.664261 -0.125432 0
M  V30 2886 H 281.403 -2.03549 0.275163 0
M  V30 2887 H 279.633 -3.36422 -1.90676 0
M  V30 2888 H 281.322 -3.70352 -1.66114 0
M  V30 2889 H 282.088 -4.81776 0.558297 0
M  V30 2890 H 277.967 -4.56513 -0.641611 0
M  V30 2891 H 281.511 -6.64906 2.1106 0
M  V30 2892 H 277.408 -6.39151 0.903107 0
M  V30 2893 H 278.176 -7.82336 2.40607 0
M  V30 2894 N 280.839 0.0985539 -1.57292 0
M  V30 2895 C 281.802 1.10402 -2.00858 0
M  V30 2896 C 282.802 1.33146 -0.901593 0
M  V30 2897 O 283.992 1.29318 -1.16716 0
M  V30 2898 C 281.124 2.45394 -2.36632 0
M  V30 2899 H 282.317 0.729099 -2.90902 0
M  V30 2900 H 279.87 0.343495 -1.52479 0
M  V30 2901 H 280.605 2.87769 -1.49531 0
M  V30 2902 H 280.39 2.30235 -3.17387 0
M  V30 2903 H 281.88 3.17718 -2.71007 0
M  V30 2904 N 282.317 1.53212 0.369288 0
M  V30 2905 C 283.563 1.69466 1.11397 0
M  V30 2906 C 283.896 0.443257 1.89074 0
M  V30 2907 O 283.171 -0.559386 1.86282 0
M  V30 2908 C 283.454 2.9422 2.07621 0
M  V30 2909 C 283.307 4.29508 1.33577 0
M  V30 2910 C 284.626 3.14565 3.07794 0
M  V30 2911 H 281.745 0.616667 0.403597 0
M  V30 2912 H 284.387 1.85845 0.395179 0
M  V30 2913 H 282.537 2.80387 2.68916 0
M  V30 2914 H 284.209 4.55147 0.750955 0
M  V30 2915 H 282.452 4.29088 0.637618 0
M  V30 2916 H 283.123 5.12926 2.03989 0
M  V30 2917 H 285.599 3.2756 2.56601 0
M  V30 2918 H 284.475 4.03297 3.72348 0
M  V30 2919 H 284.736 2.29675 3.77759 0
M  V30 2920 N 283.795 -0.628877 1.44509 0
M  V30 2921 C 285.042 -1.38839 1.47411 0
M  V30 2922 C 285.37 -1.94202 0.10757 0
M  V30 2923 O 284.625 -1.74243 -0.890947 0
M  V30 2924 C 284.924 -2.56995 2.48371 0
M  V30 2925 C 284.59 -2.19908 3.93639 0
M  V30 2926 C 283.252 -2.09506 4.33198 0
M  V30 2927 C 285.604 -1.9064 4.85083 0
M  V30 2928 C 282.932 -1.68028 5.62124 0
M  V30 2929 C 285.284 -1.50655 6.14399 0
M  V30 2930 C 283.948 -1.38796 6.5291 0
M  V30 2931 H 283.218 -0.508048 0.539414 0
M  V30 2932 H 285.865 -0.712913 1.77735 0
M  V30 2933 H 284.17 -3.29786 2.11538 0
M  V30 2934 H 285.867 -3.15223 2.47861 0
M  V30 2935 H 282.457 -2.28922 3.62343 0
M  V30 2936 H 286.641 -1.97585 4.55273 0
M  V30 2937 H 281.897 -1.57452 5.90778 0
M  V30 2938 H 286.071 -1.27048 6.84713 0
M  V30 2939 H 283.698 -1.06429 7.52713 0
M  V30 2940 N 285.273 -1.31445 -0.869486 0
M  V30 2941 C 286.22 -1.19135 -1.97675 0
M  V30 2942 C 287.19 -0.0770266 -1.65921 0
M  V30 2943 O 288.375 -0.249972 -1.89155 0
M  V30 2944 C 285.515 -0.905149 -3.33018 0
M  V30 2945 C 284.628 -2.10285 -3.77365 0
M  V30 2946 C 283.763 -1.75339 -5.01427 0
M  V30 2947 C 282.802 -2.91515 -5.38224 0
M  V30 2948 N 281.939 -2.56762 -6.53466 0
M  V30 2949 H 286.779 -2.13853 -2.07535 0
M  V30 2950 H 284.316 -1.06379 -1.01597 0
M  V30 2951 H 286.274 -0.719765 -4.10944 0
M  V30 2952 H 284.904 0.00519624 -3.228 0
M  V30 2953 H 283.956 -2.39899 -2.95216 0
M  V30 2954 H 285.268 -2.97237 -4.00564 0
M  V30 2955 H 284.422 -1.53266 -5.87022 0
M  V30 2956 H 283.161 -0.855801 -4.80133 0
M  V30 2957 H 282.166 -3.14237 -4.51149 0
M  V30 2958 H 283.391 -3.81985 -5.61484 0
M  V30 2959 H 281.337 -1.69526 -6.33717 0
M  V30 2960 H 281.254 -3.37243 -6.76612 0
M  V30 2961 H 282.522 -2.38083 -7.42251 0
M  V30 2962 N 286.751 1.08385 -1.14413 0
M  V30 2963 C 287.976 1.85057 -0.936413 0
M  V30 2964 C 288.401 1.81055 0.509971 0
M  V30 2965 O 287.759 1.1958 1.36273 0
M  V30 2966 C 287.807 3.30505 -1.44217 0
M  V30 2967 O 286.911 4.07491 -0.634409 0
M  V30 2968 H 286.252 0.573425 -0.334784 0
M  V30 2969 H 288.782 1.36799 -1.52142 0
M  V30 2970 H 288.792 3.81348 -1.45043 0
M  V30 2971 H 287.467 3.32734 -2.49522 0
M  V30 2972 H 286.044 3.66368 -0.694902 0
M  V30 2973 N 288.23 0.939286 1.26551 0
M  V30 2974 C 289.478 0.58469 1.93457 0
M  V30 2975 C 289.799 -0.878774 1.74076 0
M  V30 2976 O 289.069 -1.62421 1.09528 0
M  V30 2977 H 287.649 0.21325 0.715914 0
M  V30 2978 H 290.311 1.1942 1.54029 0
M  V30 2979 H 289.407 0.800849 3.0165 0
M  V30 2980 N 289.708 -1.40897 0.706093 0
M  V30 2981 C 290.671 -2.29131 0.0562841 0
M  V30 2982 C 291.671 -1.44901 -0.697166 0
M  V30 2983 O 292.861 -1.65926 -0.530484 0
M  V30 2984 C 289.993 -3.27957 -0.93043 0
M  V30 2985 H 291.186 -2.88091 0.833284 0
M  V30 2986 H 288.739 -1.4906 0.470192 0
M  V30 2987 H 289.474 -2.73997 -1.73482 0
M  V30 2988 H 289.259 -3.90124 -0.393166 0
M  V30 2989 H 290.749 -3.94049 -1.38256 0
M  V30 2990 N 291.186 -0.45159 -1.50991 0
M  V30 2991 C 292.432 0.110237 -2.025 0
M  V30 2992 C 292.765 1.41109 -1.33424 0
M  V30 2993 O 292.04 1.89135 -0.453659 0
M  V30 2994 C 292.323 0.314271 -3.58726 0
M  V30 2995 C 292.176 -1.00623 -4.38401 0
M  V30 2996 C 293.495 1.07767 -4.26702 0
M  V30 2997 H 290.614 0.0385897 -0.735989 0
M  V30 2998 H 293.256 -0.593374 -1.80497 0
M  V30 2999 H 291.406 0.913601 -3.77605 0
M  V30 3000 H 293.078 -1.64064 -4.31139 0
M  V30 3001 H 291.321 -1.6075 -4.02917 0
M  V30 3002 H 291.992 -0.817341 -5.45915 0
M  V30 3003 H 294.468 0.56986 -4.12179 0
M  V30 3004 H 293.344 1.18921 -5.35863 0
M  V30 3005 H 293.605 2.10939 -3.88532 0
M  V30 3006 N 292.664 1.56529 -0.183458 0
M  V30 3007 C 293.574 2.22144 0.754272 0
M  V30 3008 C 294.59 1.21684 1.24374 0
M  V30 3009 O 295.766 1.54385 1.29333 0
M  V30 3010 C 292.831 2.85884 1.96141 0
M  V30 3011 C 291.892 4.01579 1.51765 0
M  V30 3012 C 291.125 4.6227 2.66725 0
M  V30 3013 O 291.348 4.21865 3.83909 0
M  V30 3014 O 290.282 5.51936 2.40104 0
M  V30 3015 H 294.108 3.02861 0.225527 0
M  V30 3016 H 291.693 1.49331 0.0453032 0
M  V30 3017 H 293.575 3.26253 2.66715 0
M  V30 3018 H 292.25 2.08154 2.47899 0
M  V30 3019 H 291.157 3.65856 0.781049 0
M  V30 3020 H 292.49 4.80938 1.04686 0
M  V30 3021 N 294.142 -0.090211 1.57342 0
M  V30 3022 C 295.072 -1.10976 2.05443 0
M  V30 3023 C 296.053 -1.41482 0.944284 0
M  V30 3024 O 297.238 -1.51428 1.21586 0
M  V30 3025 C 294.368 -2.42831 2.48295 0
M  V30 3026 C 293.322 -2.26721 3.63018 0
M  V30 3027 C 292.648 -3.63796 3.91863 0
M  V30 3028 C 293.948 -1.7037 4.93732 0
M  V30 3029 H 295.642 -0.709564 2.9087 0
M  V30 3030 H 293.188 -0.339874 1.39932 0
M  V30 3031 H 295.141 -3.14431 2.80555 0
M  V30 3032 H 293.865 -2.84795 1.59873 0
M  V30 3033 H 292.524 -1.57565 3.31012 0
M  V30 3034 H 292.172 -4.03297 3.00601 0
M  V30 3035 H 291.872 -3.53861 4.69101 0
M  V30 3036 H 293.396 -4.36855 4.26603 0
M  V30 3037 H 294.81 -2.31816 5.24342 0
M  V30 3038 H 293.207 -1.71181 5.75167 0
M  V30 3039 H 294.277 -0.663542 4.80339 0
M  V30 3040 N 295.62 -1.53406 -0.361157 0
M  V30 3041 C 297.031 -1.61442 -0.937728 0
M  V30 3042 C 297.382 -0.48461 -1.90121 0
M  V30 3043 O 296.507 0.388312 -2.12888 0
M  V30 3044 C 297.102 -2.92624 -1.70753 0
M  V30 3045 C 295.661 -3.02981 -2.23337 0
M  V30 3046 C 294.808 -2.5677 -1.04712 0
M  V30 3047 H 297.759 -1.58083 -0.139816 0
M  V30 3048 H 297.78 -2.80675 -2.56908 0
M  V30 3049 H 297.292 -3.74834 -1.00604 0
M  V30 3050 H 295.393 -2.25368 -2.96715 0
M  V30 3051 H 295.506 -4.0814 -2.50916 0
M  V30 3052 H 293.87 -2.11752 -1.41539 0
M  V30 3053 H 294.653 -3.41402 -0.360539 0
M  V30 3054 N 297.098 0.621204 -1.44841 0
M  V30 3055 C 298.03 1.74615 -1.48466 0
M  V30 3056 C 299.043 1.58377 -0.37691 0
M  V30 3057 O 300.232 1.66508 -0.643215 0
M  V30 3058 C 297.332 3.12459 -1.31236 0
M  V30 3059 C 296.505 3.55064 -2.55438 0
M  V30 3060 C 295.564 4.71821 -2.32963 0
M  V30 3061 O 294.59 4.79628 -3.06505 0
M  V30 3062 N 295.792 5.64186 -1.36654 0
M  V30 3063 H 298.557 1.71973 -2.45449 0
M  V30 3064 H 296.118 0.806077 -1.40407 0
M  V30 3065 H 298.11 3.88302 -1.14032 0
M  V30 3066 H 296.68 3.09686 -0.4258 0
M  V30 3067 H 295.9 2.69324 -2.87851 0
M  V30 3068 H 297.188 3.80284 -3.38026 0
M  V30 3069 H 296.586 5.6058 -0.759344 0
M  V30 3070 H 295.143 6.39618 -1.25425 0
M  V30 3071 N 298.576 1.31904 0.862503 0
M  V30 3072 C 299.824 1.21776 1.61292 0
M  V30 3073 C 300.145 -0.222413 1.93727 0
M  V30 3074 O 299.415 -1.1451 1.58947 0
M  V30 3075 H 297.995 0.447717 0.597962 0
M  V30 3076 H 300.657 1.65326 1.03215 0
M  V30 3077 H 299.753 1.7948 2.5533 0
M  V30 3078 N 300.054 -1.07777 1.14986 0
M  V30 3079 C 301.301 -1.8029 0.922056 0
M  V30 3080 C 301.629 -1.86531 -0.55105 0
M  V30 3081 O 300.884 -1.34189 -1.42449 0
M  V30 3082 C 301.183 -3.25495 1.47608 0
M  V30 3083 C 300.849 -3.39361 2.96893 0
M  V30 3084 C 299.511 -3.42852 3.37647 0
M  V30 3085 C 301.863 -3.42512 3.92854 0
M  V30 3086 C 299.191 -3.47094 4.73015 0
M  V30 3087 C 301.543 -3.4829 5.28088 0
M  V30 3088 C 300.207 -3.50058 5.68345 0
M  V30 3089 H 299.477 -0.659727 0.337404 0
M  V30 3090 H 302.124 -1.26854 1.43459 0
M  V30 3091 H 300.429 -3.81683 0.88463 0
M  V30 3092 H 302.126 -3.80168 1.27568 0
M  V30 3093 H 298.716 -3.37339 2.64387 0
M  V30 3094 H 302.9 -3.3904 3.62444 0
M  V30 3095 H 298.156 -3.46758 5.03556 0
M  V30 3096 H 302.33 -3.49675 6.02246 0
M  V30 3097 H 299.957 -3.53097 6.73221 0
M  V30 3098 N 301.532 -0.945985 -1.26051 0
M  V30 3099 C 302.948 -0.649045 -1.45807 0
M  V30 3100 C 303.148 0.796158 -1.85104 0
M  V30 3101 O 302.204 1.57233 -1.97571 0
M  V30 3102 C 303.517 -1.61458 -2.53677 0
M  V30 3103 C 305.065 -1.62481 -2.67524 0
M  V30 3104 C 305.54 -2.57776 -3.7857 0
M  V30 3105 N 307.031 -2.5609 -3.85969 0
M  V30 3106 C 307.766 -3.26508 -4.7136 0
M  V30 3107 N 307.262 -4.0637 -5.61102 0
M  V30 3108 N 309.055 -3.15437 -4.65248 0
M  V30 3109 H 301.206 -1.88005 -0.988328 0
M  V30 3110 H 303.469 -0.808198 -0.4955 0
M  V30 3111 H 303.175 -2.64644 -2.31638 0
M  V30 3112 H 303.049 -1.37036 -3.51427 0
M  V30 3113 H 305.436 -0.600167 -2.88933 0
M  V30 3114 H 305.517 -1.90958 -1.70202 0
M  V30 3115 H 305.161 -3.60361 -3.57913 0
M  V30 3116 H 305.091 -2.26587 -4.75359 0
M  V30 3117 H 307.582 -1.98105 -3.21812 0
M  V30 3118 H 307.895 -4.57042 -6.23164 0
M  V30 3119 H 306.24 -4.10469 -5.60839 0
M  V30 3120 H 309.431 -2.52525 -3.94143 0
M  V30 3121 H 309.604 -3.70584 -5.31575 0
M  V30 3122 N 303.011 1.40521 -0.713556 0
M  V30 3123 C 303.941 2.33381 -0.0743864 0
M  V30 3124 C 304.922 1.52784 0.747735 0
M  V30 3125 O 306.107 1.81258 0.697071 0
M  V30 3126 C 303.237 3.36748 0.849598 0
M  V30 3127 C 302.191 4.27793 0.133247 0
M  V30 3128 C 301.517 5.21679 1.17281 0
M  V30 3129 C 302.817 5.12415 -1.01134 0
M  V30 3130 H 304.511 2.87081 -0.850007 0
M  V30 3131 H 302.057 1.38034 -0.410201 0
M  V30 3132 H 304.01 4.00648 1.30612 0
M  V30 3133 H 302.734 2.81439 1.65709 0
M  V30 3134 H 301.393 3.65342 -0.303426 0
M  V30 3135 H 301.041 4.62677 1.9733 0
M  V30 3136 H 300.741 5.83435 0.698397 0
M  V30 3137 H 302.265 5.88456 1.62947 0
M  V30 3138 H 303.679 5.69781 -0.634274 0
M  V30 3139 H 302.076 5.83203 -1.41399 0
M  V30 3140 H 303.146 4.48514 -1.84292 0
M  V30 3141 N 304.489 0.459591 1.5075 0
M  V30 3142 C 305.737 -0.0991532 2.01857 0
M  V30 3143 C 306.058 -1.41247 1.34441 0
M  V30 3144 O 305.328 -1.89775 0.486022 0
M  V30 3145 H 303.908 -0.039633 0.745948 0
M  V30 3146 H 306.57 0.607387 1.85194 0
M  V30 3147 H 305.666 -0.258998 3.11023 0
M  V30 3148 N 305.967 -1.56429 0.191757 0
M  V30 3149 C 307.192 -2.02309 -0.456706 0
M  V30 3150 C 307.617 -1.07103 -1.5463 0
M  V30 3151 O 306.975 -0.0539677 -1.8122 0
M  V30 3152 C 307.023 -3.46654 -0.993159 0
M  V30 3153 O 306.127 -3.54559 -2.10622 0
M  V30 3154 H 305.468 -0.655303 -0.107114 0
M  V30 3155 H 307.998 -2.02364 0.301653 0
M  V30 3156 H 308.008 -3.86377 -1.31061 0
M  V30 3157 H 306.683 -4.1544 -0.195504 0
M  V30 3158 H 305.26 -3.26708 -1.79767 0
M  V30 3159 N 307.445 0.0818655 -1.57387 0
M  V30 3160 C 308.408 1.08265 -2.02018 0
M  V30 3161 C 309.408 1.32183 -0.915664 0
M  V30 3162 O 310.598 1.28073 -1.18081 0
M  V30 3163 C 307.73 2.42871 -2.39221 0
M  V30 3164 H 308.923 0.698204 -2.91659 0
M  V30 3165 H 306.476 0.327303 -1.52835 0
M  V30 3166 H 307.211 2.86167 -1.52575 0
M  V30 3167 H 306.996 2.26855 -3.19811 0
M  V30 3168 H 308.486 3.14826 -2.74362 0
M  V30 3169 N 308.923 1.53595 0.353017 0
M  V30 3170 C 310.2 1.61002 1.11075 0
M  V30 3171 C 310.58 0.425356 2.0677 0
M  V30 3172 O 309.928 -0.583267 2.2093 0
M  V30 3173 C 310.138 2.96631 1.83877 0
M  V30 3174 C 311.486 3.51653 2.37961 0
M  V30 3175 O 312.51 2.98743 1.93987 0
M  V30 3176 O 311.369 4.44177 3.18386 0
M  V30 3177 H 308.463 0.650825 0.510251 0
M  V30 3178 H 311.009 1.6594 0.35527 0
M  V30 3179 H 309.781 3.74293 1.14108 0
M  V30 3180 H 309.404 2.95242 2.66304 0
M  V30 3181 N 310.401 -0.613514 1.45168 0
M  V30 3182 C 311.647 -1.37471 1.49096 0
M  V30 3183 C 311.98 -1.93765 0.129901 0
M  V30 3184 O 311.255 -1.74707 -0.854858 0
M  V30 3185 C 311.538 -2.52701 2.56542 0
M  V30 3186 C 311.391 -2.01643 4.0207 0
M  V30 3187 C 312.71 -3.54849 2.60327 0
M  V30 3188 H 309.829 -0.498502 0.54283 0
M  V30 3189 H 312.471 -0.692125 1.76945 0
M  V30 3190 H 310.621 -3.10931 2.32926 0
M  V30 3191 H 312.293 -1.48108 4.36877 0
M  V30 3192 H 310.536 -1.32688 4.13009 0
M  V30 3193 H 311.207 -2.84681 4.72928 0
M  V30 3194 H 313.683 -3.0645 2.81474 0
M  V30 3195 H 312.559 -4.32973 3.37381 0
M  V30 3196 H 312.82 -4.10079 1.6519 0
M  V30 3197 N 311.879 -1.3236 -0.855495 0
M  V30 3198 C 313.104 -1.2601 -1.64731 0
M  V30 3199 C 313.529 0.169068 -1.87339 0
M  V30 3200 O 312.887 1.12016 -1.42556 0
M  V30 3201 C 312.935 -2.02417 -2.98429 0
M  V30 3202 O 312.039 -1.3714 -3.8893 0
M  V30 3203 H 311.38 -0.434325 -0.502253 0
M  V30 3204 H 313.91 -1.74661 -1.06558 0
M  V30 3205 H 313.92 -2.12559 -3.48257 0
M  V30 3206 H 312.595 -3.06343 -2.81295 0
M  V30 3207 H 311.172 -1.3554 -3.47395 0
M  V30 3208 N 313.357 1.07166 -1.15556 0
M  V30 3209 C 314.582 1.84053 -0.955988 0
M  V30 3210 C 315.007 1.81586 0.490739 0
M  V30 3211 O 314.365 1.21018 1.34997 0
M  V30 3212 C 314.413 3.28957 -1.47714 0
M  V30 3213 O 313.517 4.06795 -0.677593 0
M  V30 3214 H 312.858 0.569842 -0.340847 0
M  V30 3215 H 315.388 1.35178 -1.53584 0
M  V30 3216 H 315.398 3.79788 -1.4908 0
M  V30 3217 H 314.073 3.30068 -2.53037 0
M  V30 3218 H 312.65 3.6561 -0.733721 0
M  V30 3219 N 314.835 0.952656 1.25548 0
M  V30 3220 C 316.081 0.607272 1.93494 0
M  V30 3221 C 316.414 -0.853245 1.74452 0
M  V30 3222 O 315.689 -1.61194 1.08843 0
M  V30 3223 C 315.972 0.96435 3.46947 0
M  V30 3224 C 315.825 2.48045 3.75225 0
M  V30 3225 C 317.144 0.487987 4.37386 0
M  V30 3226 H 314.263 0.222096 0.702739 0
M  V30 3227 H 316.905 1.18895 1.48203 0
M  V30 3228 H 315.055 0.469361 3.85654 0
M  V30 3229 H 316.727 3.04905 3.46166 0
M  V30 3230 H 314.97 2.919 3.209 0
M  V30 3231 H 315.641 2.6808 4.82532 0
M  V30 3232 H 318.117 0.912558 4.0597 0
M  V30 3233 H 316.993 0.766547 5.43521 0
M  V30 3234 H 317.254 -0.612063 4.37843 0
M  V30 3235 N 316.313 -1.40141 0.720998 0
M  V30 3236 C 317.26 -2.30688 0.071919 0
M  V30 3237 C 318.23 -1.48476 -0.744584 0
M  V30 3238 O 319.415 -1.77201 -0.707423 0
M  V30 3239 C 316.555 -3.34724 -0.839855 0
M  V30 3240 C 315.668 -4.31998 -0.0122438 0
M  V30 3241 C 314.803 -5.23102 -0.923995 0
M  V30 3242 C 313.842 -6.12033 -0.0907969 0
M  V30 3243 N 312.979 -6.95537 -0.957718 0
M  V30 3244 H 317.819 -2.85628 0.849755 0
M  V30 3245 H 315.356 -1.40653 0.430726 0
M  V30 3246 H 317.314 -3.93618 -1.38279 0
M  V30 3247 H 315.944 -2.81274 -1.58381 0
M  V30 3248 H 314.996 -3.74841 0.64794 0
M  V30 3249 H 316.308 -4.94772 0.632595 0
M  V30 3250 H 315.462 -5.86953 -1.53527 0
M  V30 3251 H 314.201 -4.60615 -1.60264 0
M  V30 3252 H 313.206 -5.47207 0.533377 0
M  V30 3253 H 314.431 -6.76581 0.584428 0
M  V30 3254 H 312.377 -6.35633 -1.62192 0
M  V30 3255 H 312.294 -7.55099 -0.36904 0
M  V30 3256 H 313.562 -7.63832 -1.555 0
M  V30 3257 N 317.792 -0.46758 -1.50504 0
M  V30 3258 C 319.203 -0.0116166 -1.86696 0
M  V30 3259 C 319.554 1.39202 -1.38265 0
M  V30 3260 O 318.679 2.0313 -0.746132 0
M  V30 3261 C 319.274 -0.0143044 -3.38797 0
M  V30 3262 C 317.833 0.386175 -3.74414 0
M  V30 3263 C 316.98 -0.401287 -2.74381 0
M  V30 3264 H 319.931 -0.682022 -1.43297 0
M  V30 3265 H 319.952 0.788641 -3.72237 0
M  V30 3266 H 319.464 -1.03602 -3.74016 0
M  V30 3267 H 317.565 1.41237 -3.44794 0
M  V30 3268 H 317.678 0.0899596 -4.79016 0
M  V30 3269 H 316.042 0.144536 -2.5429 0
M  V30 3270 H 316.825 -1.42244 -3.12444 0
M  V30 3271 N 319.27 1.56325 -0.20005 0
M  V30 3272 C 320.18 2.22931 0.730668 0
M  V30 3273 C 321.196 1.22997 1.23076 0
M  V30 3274 O 322.372 1.55748 1.27689 0
M  V30 3275 C 319.437 2.87948 1.93098 0
M  V30 3276 C 318.498 4.03166 1.47497 0
M  V30 3277 C 317.731 4.65073 2.61807 0
M  V30 3278 O 317.954 4.25913 3.79413 0
M  V30 3279 O 316.888 5.54452 2.34237 0
M  V30 3280 H 320.714 3.03084 0.193391 0
M  V30 3281 H 318.299 1.49371 0.0294621 0
M  V30 3282 H 320.181 3.29063 2.6324 0
M  V30 3283 H 318.856 2.10771 2.45677 0
M  V30 3284 H 317.763 3.66664 0.742201 0
M  V30 3285 H 319.096 4.82022 0.995796 0
M  V30 3286 N 320.748 -0.0735177 1.57428 0
M  V30 3287 C 321.681 -1.11932 1.98863 0
M  V30 3288 C 322.659 -1.37666 0.865266 0
M  V30 3289 O 323.843 -1.51068 1.12742 0
M  V30 3290 C 320.97 -2.46403 2.32386 0
M  V30 3291 C 320.016 -2.36815 3.54713 0
M  V30 3292 S 320.849 -1.76392 5.05614 0
M  V30 3293 C 322.005 -3.12444 5.42337 0
M  V30 3294 H 322.238 -0.766212 2.87257 0
M  V30 3295 H 319.771 -0.281987 1.51803 0
M  V30 3296 H 321.729 -3.23755 2.52375 0
M  V30 3297 H 320.39 -2.78876 1.44524 0
M  V30 3298 H 319.583 -3.35977 3.7568 0
M  V30 3299 H 319.185 -1.67598 3.34345 0
M  V30 3300 H 321.477 -4.08753 5.40303 0
M  V30 3301 H 322.42 -2.96258 6.43146 0
M  V30 3302 H 322.828 -3.1297 4.69798 0
M  V30 3303 N 322.226 -1.5378 -0.344866 0
M  V30 3304 C 323.642 -1.44015 -0.687888 0
M  V30 3305 C 323.842 -0.595834 -1.92489 0
M  V30 3306 O 322.898 -0.0863064 -2.52352 0
M  V30 3307 C 324.211 -2.87481 -0.881758 0
M  V30 3308 C 325.759 -2.97247 -0.980459 0
M  V30 3309 C 326.234 -4.41819 -1.20665 0
M  V30 3310 N 327.725 -4.45339 -1.27389 0
M  V30 3311 C 328.46 -5.54333 -1.46639 0
M  V30 3312 N 327.956 -6.73335 -1.63071 0
M  V30 3313 N 329.749 -5.41944 -1.49176 0
M  V30 3314 H 321.9 -2.07169 0.468475 0
M  V30 3315 H 324.163 -0.93643 0.147655 0
M  V30 3316 H 323.869 -3.51672 -0.0443444 0
M  V30 3317 H 323.743 -3.32352 -1.78388 0
M  V30 3318 H 326.13 -2.33197 -1.8084 0
M  V30 3319 H 326.211 -2.5574 -0.0552713 0
M  V30 3320 H 325.855 -5.06449 -0.383652 0
M  V30 3321 H 325.785 -4.80917 -2.14539 0
M  V30 3322 H 328.276 -3.59585 -1.1622 0
M  V30 3323 H 328.589 -7.52165 -1.77391 0
M  V30 3324 H 326.934 -6.76282 -1.60209 0
M  V30 3325 H 330.125 -4.47932 -1.3592 0
M  V30 3326 H 330.298 -6.26946 -1.63837 0
M  V30 3327 N 323.704 0.605807 -1.45491 0
M  V30 3328 C 324.929 1.39625 -1.53361 0
M  V30 3329 C 325.354 1.87351 -0.167645 0
M  V30 3330 O 324.712 1.60243 0.848051 0
M  V30 3331 C 324.76 2.57559 -2.5238 0
M  V30 3332 O 323.864 3.58248 -2.04285 0
M  V30 3333 H 323.205 0.416771 -0.516912 0
M  V30 3334 H 325.735 0.737103 -1.90861 0
M  V30 3335 H 325.745 3.0478 -2.71244 0
M  V30 3336 H 324.42 2.22171 -3.51586 0
M  V30 3337 H 322.997 3.17664 -1.95305 0
M  V30 3338 N 325.182 1.32811 0.848464 0
M  V30 3339 C 326.114 1.18095 1.96433 0
M  V30 3340 C 327.127 0.114354 1.62398 0
M  V30 3341 O 328.316 0.363892 1.74751 0
M  V30 3342 C 325.416 0.786798 3.2964 0
M  V30 3343 C 324.589 1.943 3.91875 0
M  V30 3344 C 323.648 1.53138 5.03423 0
M  V30 3345 O 322.674 2.24432 5.23086 0
M  V30 3346 N 323.876 0.430915 5.78898 0
M  V30 3347 H 326.641 2.14218 2.09597 0
M  V30 3348 H 324.202 1.2543 1.02367 0
M  V30 3349 H 326.194 0.493715 4.01677 0
M  V30 3350 H 324.764 -0.0834541 3.12489 0
M  V30 3351 H 323.984 2.40224 3.12547 0
M  V30 3352 H 325.272 2.71689 4.30189 0
M  V30 3353 H 324.67 -0.162333 5.65467 0
M  V30 3354 H 323.227 0.197466 6.51501 0
M  V30 3355 N 326.66 -1.06551 1.16123 0
M  V30 3356 C 327.607 -2.13961 0.865414 0
M  V30 3357 C 328.577 -1.65066 -0.185055 0
M  V30 3358 O 329.762 -1.90732 -0.05083 0
M  V30 3359 C 326.902 -3.43113 0.369776 0
M  V30 3360 C 326.015 -4.05756 1.48276 0
M  V30 3361 C 325.15 -5.22773 0.942414 0
M  V30 3362 C 324.189 -5.77395 2.03179 0
M  V30 3363 N 323.326 -6.85731 1.50721 0
M  V30 3364 H 328.166 -2.38605 1.78527 0
M  V30 3365 H 325.703 -1.17072 0.890646 0
M  V30 3366 H 327.661 -4.17151 0.0640643 0
M  V30 3367 H 326.291 -3.18695 -0.513143 0
M  V30 3368 H 325.343 -3.29292 1.9045 0
M  V30 3369 H 326.655 -4.42351 2.30493 0
M  V30 3370 H 325.809 -6.03827 0.589729 0
M  V30 3371 H 324.548 -4.87618 0.0895191 0
M  V30 3372 H 323.553 -4.94981 2.3932 0
M  V30 3373 H 324.778 -6.14603 2.8886 0
M  V30 3374 H 322.724 -6.52499 0.676811 0
M  V30 3375 H 322.641 -7.21254 2.26557 0
M  V30 3376 H 323.909 -7.7047 1.18303 0
M  V30 3377 N 328.138 -0.959301 -1.25041 0
M  V30 3378 C 329.385 -0.616611 -1.92884 0
M  V30 3379 C 329.713 0.847036 -1.75087 0
M  V30 3380 O 328.968 1.62374 -1.09239 0
M  V30 3381 C 329.267 -0.927136 -3.45165 0
M  V30 3382 C 328.933 -2.37757 -3.83122 0
M  V30 3383 C 327.595 -2.77402 -3.93194 0
M  V30 3384 C 329.947 -3.31929 -4.01836 0
M  V30 3385 C 327.275 -4.10277 -4.19392 0
M  V30 3386 C 329.627 -4.64423 -4.29528 0
M  V30 3387 C 328.291 -5.03857 -4.37818 0
M  V30 3388 H 327.561 -0.225634 -0.705812 0
M  V30 3389 H 330.208 -1.20921 -1.48493 0
M  V30 3390 H 328.513 -0.252195 -3.90987 0
M  V30 3391 H 330.21 -0.6405 -3.95852 0
M  V30 3392 H 326.8 -2.06013 -3.75841 0
M  V30 3393 H 330.984 -3.02488 -3.93465 0
M  V30 3394 H 326.24 -4.40467 -4.24027 0
M  V30 3395 H 330.414 -5.37369 -4.42953 0
M  V30 3396 H 328.041 -6.06843 -4.57871 0
M  V30 3397 N 329.616 1.39756 -0.72842 0
M  V30 3398 C 330.548 2.29157 -0.0446202 0
M  V30 3399 C 331.561 1.46484 0.710367 0
M  V30 3400 O 332.75 1.69632 0.55562 0
M  V30 3401 C 329.85 3.24987 0.961071 0
M  V30 3402 C 329.023 4.36572 0.268967 0
M  V30 3403 C 328.082 5.12756 1.18184 0
M  V30 3404 O 327.108 5.6534 0.661794 0
M  V30 3405 N 328.31 5.23331 2.51206 0
M  V30 3406 H 331.075 2.88482 -0.812295 0
M  V30 3407 H 328.636 1.51265 -0.577098 0
M  V30 3408 H 330.628 3.72827 1.57423 0
M  V30 3409 H 329.198 2.66739 1.63 0
M  V30 3410 H 328.418 3.90694 -0.524574 0
M  V30 3411 H 329.706 5.08363 -0.210934 0
M  V30 3412 H 329.104 4.82116 2.9594 0
M  V30 3413 H 327.661 5.74634 3.07634 0
M  V30 3414 N 331.094 0.475555 1.50254 0
M  V30 3415 C 332.057 -0.305016 2.27161 0
M  V30 3416 C 333.057 -0.916519 1.32123 0
M  V30 3417 O 334.247 -0.785003 1.5551 0
M  V30 3418 C 331.379 -1.43496 3.09227 0
M  V30 3419 H 332.572 0.369511 2.97615 0
M  V30 3420 H 330.125 0.229747 1.54602 0
M  V30 3421 H 330.86 -2.14441 2.43281 0
M  V30 3422 H 330.645 -1.00223 3.79075 0
M  V30 3423 H 332.135 -1.98548 3.67381 0
M  V30 3424 N 332.573 -1.56217 0.208337 0
M  V30 3425 C 333.819 -1.98242 -0.427552 0
M  V30 3426 C 334.152 -1.09554 -1.60348 0
M  V30 3427 O 333.427 -0.15035 -1.93918 0
M  V30 3428 C 333.71 -3.4931 -0.874907 0
M  V30 3429 C 333.563 -4.48773 0.303751 0
M  V30 3430 C 334.882 -4.04424 -1.73577 0
M  V30 3431 H 332.001 -0.720744 -0.153936 0
M  V30 3432 H 334.643 -1.87586 0.30192 0
M  V30 3433 H 332.793 -3.58522 -1.49648 0
M  V30 3434 H 334.465 -4.51586 0.941682 0
M  V30 3435 H 332.708 -4.23194 0.953375 0
M  V30 3436 H 333.379 -5.51976 -0.0519883 0
M  V30 3437 H 335.855 -3.98075 -1.21143 0
M  V30 3438 H 334.731 -5.1047 -2.01771 0
M  V30 3439 H 334.992 -3.50494 -2.69456 0
M  V30 3440 N 334.051 0.0651679 -1.57465 0
M  V30 3441 C 334.961 1.09448 -2.07505 0
M  V30 3442 C 335.977 1.41974 -1.00595 0
M  V30 3443 O 337.153 1.52018 -1.32107 0
M  V30 3444 C 334.218 2.38689 -2.51453 0
M  V30 3445 C 333.279 2.13073 -3.72691 0
M  V30 3446 C 332.512 3.36152 -4.14533 0
M  V30 3447 O 332.735 4.45517 -3.56189 0
M  V30 3448 O 331.669 3.23974 -5.07272 0
M  V30 3449 H 335.495 0.69935 -2.95538 0
M  V30 3450 H 333.08 0.279752 -1.46757 0
M  V30 3451 H 334.962 3.14736 -2.80212 0
M  V30 3452 H 333.637 2.77568 -1.66546 0
M  V30 3453 H 332.544 1.34709 -3.49005 0
M  V30 3454 H 333.877 1.79071 -4.5847 0
M  V30 3455 N 335.529 1.53961 0.336706 0
M  V30 3456 C 336.945 1.44378 0.680241 0
M  V30 3457 C 337.145 0.606034 1.9217 0
M  V30 3458 O 336.201 0.099688 2.52303 0
M  V30 3459 C 337.514 2.87945 0.8665 0
M  V30 3460 C 339.062 2.97763 0.964682 0
M  V30 3461 C 339.537 4.42453 1.18321 0
M  V30 3462 N 341.028 4.46008 1.25025 0
M  V30 3463 C 341.763 5.55102 1.43697 0
M  V30 3464 N 341.259 6.7419 1.59498 0
M  V30 3465 N 343.052 5.42727 1.463 0
M  V30 3466 H 335.203 2.06918 -0.479455 0
M  V30 3467 H 337.466 0.935634 -0.152619 0
M  V30 3468 H 337.172 3.51691 0.0256937 0
M  V30 3469 H 337.046 3.33293 1.76623 0
M  V30 3470 H 339.433 2.34153 1.796 0
M  V30 3471 H 339.514 2.55766 0.041708 0
M  V30 3472 H 339.158 5.06645 0.356788 0
M  V30 3473 H 339.088 4.82048 2.11985 0
M  V30 3474 H 341.579 3.60196 1.14312 0
M  V30 3475 H 341.892 7.53095 1.734 0
M  V30 3476 H 340.237 6.77123 1.56621 0
M  V30 3477 H 343.428 4.48647 1.33543 0
M  V30 3478 H 343.601 6.27806 1.6051 0
M  V30 3479 N 337.007 -0.598083 1.45811 0
M  V30 3480 C 338.237 -1.38121 1.53643 0
M  V30 3481 C 338.645 -1.88425 0.171081 0
M  V30 3482 O 337.988 -1.63409 -0.839237 0
M  V30 3483 C 338.05 -2.61432 2.46766 0
M  V30 3484 C 337.714 -2.32702 3.93318 0
M  V30 3485 C 338.711 -1.92479 4.82957 0
M  V30 3486 C 336.396 -2.45321 4.38318 0
M  V30 3487 C 338.39 -1.65248 6.15607 0
M  V30 3488 C 336.077 -2.17703 5.71007 0
M  V30 3489 C 337.075 -1.7773 6.5947 0
M  V30 3490 O 336.763 -1.50441 7.89698 0
M  V30 3491 H 336.495 -0.428863 0.522544 0
M  V30 3492 H 339.049 -0.73557 1.91777 0
M  V30 3493 H 337.279 -3.28749 2.0362 0
M  V30 3494 H 338.968 -3.23487 2.45175 0
M  V30 3495 H 339.734 -1.82258 4.49452 0
M  V30 3496 H 335.613 -2.75399 3.69697 0
M  V30 3497 H 339.157 -1.33973 6.84614 0
M  V30 3498 H 335.054 -2.27544 6.04065 0
M  V30 3499 H 335.822 -1.64415 8.01817 0
M  V30 3500 N 338.485 -1.33259 -0.841409 0
M  V30 3501 C 339.71 -1.2775 -1.63385 0
M  V30 3502 C 340.135 0.149188 -1.87507 0
M  V30 3503 O 339.493 1.10498 -1.43736 0
M  V30 3504 C 339.541 -2.05571 -2.96265 0
M  V30 3505 O 338.645 -1.41257 -3.87453 0
M  V30 3506 H 337.986 -0.439627 -0.497618 0
M  V30 3507 H 340.516 -1.75782 -1.04699 0
M  V30 3508 H 340.526 -2.16241 -3.45982 0
M  V30 3509 H 339.201 -3.09309 -2.7803 0
M  V30 3510 H 337.778 -1.39217 -3.45938 0
M  V30 3511 N 339.963 1.05934 -1.16686 0
M  V30 3512 C 341.188 1.83029 -0.975455 0
M  V30 3513 C 341.613 1.82096 0.471452 0
M  V30 3514 O 340.971 1.22443 1.33706 0
M  V30 3515 C 341.019 3.27372 -1.51195 0
M  V30 3516 O 340.123 4.06054 -0.720701 0
M  V30 3517 H 339.464 0.566194 -0.346872 0
M  V30 3518 H 341.994 1.33541 -1.55009 0
M  V30 3519 H 342.004 3.78186 -1.53099 0
M  V30 3520 H 340.679 3.27366 -2.56523 0
M  V30 3521 H 339.256 3.64812 -0.772458 0
M  V30 3522 N 341.441 0.965919 1.2453 0
M  V30 3523 C 342.373 0.452465 2.2469 0
M  V30 3524 C 343.386 -0.437821 1.56802 0
M  V30 3525 O 344.575 -0.244283 1.76821 0
M  V30 3526 C 341.675 -0.366258 3.36915 0
M  V30 3527 C 340.848 0.513701 4.34373 0
M  V30 3528 C 339.907 -0.248716 5.25612 0
M  V30 3529 O 338.933 0.356745 5.68081 0
M  V30 3530 N 340.135 -1.53877 5.59734 0
M  V30 3531 H 342.9 1.31361 2.69378 0
M  V30 3532 H 340.461 0.837541 1.38553 0
M  V30 3533 H 342.453 -0.884297 3.94921 0
M  V30 3534 H 341.023 -1.12832 2.91526 0
M  V30 3535 H 340.243 1.21273 3.75082 0
M  V30 3536 H 341.531 1.11391 4.96457 0
M  V30 3537 H 340.929 -2.05243 5.27154 0
M  V30 3538 H 339.486 -2.00254 6.20275 0
M  V30 3539 N 342.919 -1.39368 0.735821 0
M  V30 3540 C 343.852 -2.28155 0.0451175 0
M  V30 3541 C 344.83 -1.44433 -0.746852 0
M  V30 3542 O 346.014 -1.73823 -0.729237 0
M  V30 3543 C 343.141 -3.253 -0.943266 0
M  V30 3544 C 342.187 -4.25826 -0.239685 0
M  V30 3545 S 343.02 -5.25166 1.04693 0
M  V30 3546 C 344.176 -6.2587 0.0611639 0
M  V30 3547 H 344.409 -2.86388 0.79807 0
M  V30 3548 H 341.942 -1.45104 0.527653 0
M  V30 3549 H 343.9 -3.81789 -1.50824 0
M  V30 3550 H 342.561 -2.66085 -1.66906 0
M  V30 3551 H 341.754 -4.94229 -0.987596 0
M  V30 3552 H 341.356 -3.73141 0.253274 0
M  V30 3553 H 343.648 -6.73007 -0.778941 0
M  V30 3554 H 344.591 -7.04508 0.712362 0
M  V30 3555 H 344.999 -5.63639 -0.311602 0
M  V30 3556 N 344.397 -0.483516 -1.5 0
M  V30 3557 C 345.643 0.0672592 -2.02688 0
M  V30 3558 C 345.976 1.38247 -1.36387 0
M  V30 3559 O 345.251 1.88131 -0.493675 0
M  V30 3560 C 345.534 0.238109 -3.59312 0
M  V30 3561 C 345.387 -1.099 -4.36168 0
M  V30 3562 C 346.706 0.986916 -4.28892 0
M  V30 3563 H 343.825 0.0229696 -0.736642 0
M  V30 3564 H 346.467 -0.631527 -1.79197 0
M  V30 3565 H 344.617 0.8333 -3.79458 0
M  V30 3566 H 346.289 -1.73172 -4.27562 0
M  V30 3567 H 344.532 -1.69261 -3.99416 0
M  V30 3568 H 345.203 -0.932954 -5.44059 0
M  V30 3569 H 347.679 0.482302 -4.13295 0
M  V30 3570 H 346.555 1.07527 -5.38265 0
M  V30 3571 H 346.816 2.0265 -3.92919 0
M  V30 3572 N 345.875 1.56104 -0.216619 0
M  V30 3573 C 346.805 2.23063 0.690296 0
M  V30 3574 C 347.786 1.20072 1.20485 0
M  V30 3575 O 348.971 1.48643 1.24976 0
M  V30 3576 C 346.101 2.90672 1.90072 0
M  V30 3577 C 345.055 4.00092 1.5202 0
M  V30 3578 C 344.381 4.54972 2.80899 0
M  V30 3579 C 345.681 5.17398 0.71391 0
M  V30 3580 H 347.375 2.99109 0.132038 0
M  V30 3581 H 344.921 1.43866 0.0620664 0
M  V30 3582 H 346.874 3.36204 2.54057 0
M  V30 3583 H 345.598 2.12066 2.48386 0
M  V30 3584 H 344.257 3.55283 0.903839 0
M  V30 3585 H 343.905 3.73102 3.37348 0
M  V30 3586 H 343.605 5.28817 2.56176 0
M  V30 3587 H 345.129 5.0322 3.45836 0
M  V30 3588 H 346.543 5.59342 1.25735 0
M  V30 3589 H 344.94 5.97444 0.563951 0
M  V30 3590 H 346.01 4.84088 -0.280527 0
M  V30 3591 N 347.353 -0.0568162 1.57498 0
M  V30 3592 C 348.283 -1.06593 2.0775 0
M  V30 3593 C 349.264 -1.39448 0.974082 0
M  V30 3594 O 350.449 -1.48815 1.24771 0
M  V30 3595 C 347.579 -2.37509 2.5339 0
M  V30 3596 C 346.533 -2.1897 3.67745 0
M  V30 3597 C 345.859 -3.55402 3.99492 0
M  V30 3598 C 347.159 -1.59859 4.97235 0
M  V30 3599 H 348.853 -0.647706 2.9231 0
M  V30 3600 H 346.399 -0.310116 1.40621 0
M  V30 3601 H 348.352 -3.08409 2.87162 0
M  V30 3602 H 347.076 -2.8134 1.65878 0
M  V30 3603 H 345.735 -1.50508 3.3428 0
M  V30 3604 H 345.383 -3.9683 3.09088 0
M  V30 3605 H 345.083 -3.43831 4.76502 0
M  V30 3606 H 346.607 -4.27708 4.35773 0
M  V30 3607 H 348.021 -2.20642 5.29141 0
M  V30 3608 H 346.418 -1.58942 5.78669 0
M  V30 3609 H 347.488 -0.561506 4.81638 0
M  V30 3610 N 348.832 -1.54138 -0.328536 0
M  V30 3611 C 349.78 -1.83894 -1.42428 0
M  V30 3612 C 350.774 -0.710478 -1.53781 0
M  V30 3613 O 351.98 -0.894062 -1.56226 0
M  V30 3614 H 348.355 -0.582837 -0.475189 0
M  V30 3615 H 350.326 -2.75537 -1.14552 0
M  V30 3616 C 349.075 -2.07866 -2.78724 0
M  V30 3617 H 348.398 -2.94158 -2.7076 0
M  V30 3618 H 349.838 -2.32644 -3.54476 0
M  V30 3619 C 348.297 -0.868689 -3.25508 0
M  V30 3620 O 348.827 -0.0754908 -4.01629 0
M  V30 3621 N 347.033 -0.681711 -2.82491 0
M  V30 3622 H 346.58 -1.32838 -2.20708 0
M  V30 3623 H 346.538 0.126374 -3.14146 0
M  V30 3624 N 350.31 0.590341 -1.46126 0
M  V30 3625 C 351.558 1.34616 -1.50742 0
M  V30 3626 C 351.879 1.94363 -0.157486 0
M  V30 3627 O 351.149 1.78136 0.815136 0
M  V30 3628 H 349.729 0.499789 -0.555175 0
M  V30 3629 H 352.391 0.691953 -1.82203 0
M  V30 3630 H 351.487 2.15678 -2.25587 0
M  V30 3631 N 351.788 1.33704 0.83433 0
M  V30 3632 C 353.013 1.28615 1.62705 0
M  V30 3633 C 353.438 -0.139242 1.87584 0
M  V30 3634 O 352.796 -1.09734 1.4432 0
M  V30 3635 C 352.844 2.07139 2.95171 0
M  V30 3636 O 351.948 1.4331 3.86699 0
M  V30 3637 H 351.289 0.44226 0.49528 0
M  V30 3638 H 353.819 1.76335 1.03766 0
M  V30 3639 H 353.829 2.18073 3.44831 0
M  V30 3640 H 352.504 3.10779 2.76386 0
M  V30 3641 H 351.081 1.4105 3.45195 0
M  V30 3642 N 353.266 -1.05314 1.17247 0
M  V30 3643 C 354.176 -2.16538 0.90268 0
M  V30 3644 C 355.192 -1.73523 -0.128707 0
M  V30 3645 O 356.368 -2.01337 0.0502701 0
M  V30 3646 C 353.433 -3.44167 0.418356 0
M  V30 3647 C 352.494 -4.01635 1.51618 0
M  V30 3648 C 351.727 -5.23171 1.05487 0
M  V30 3649 O 351.95 -5.70327 -0.0914715 0
M  V30 3650 O 350.884 -5.72848 1.8474 0
M  V30 3651 H 354.71 -2.42145 1.83302 0
M  V30 3652 H 352.295 -1.15037 0.953246 0
M  V30 3653 H 354.177 -4.21112 0.155726 0
M  V30 3654 H 352.852 -3.20063 -0.48385 0
M  V30 3655 H 351.759 -3.26135 1.83268 0
M  V30 3656 H 353.092 -4.30053 2.39405 0
M  V30 3657 N 354.744 -0.972509 -1.24016 0
M  V30 3658 C 355.692 -0.498562 -2.27194 0
M  V30 3659 C 356.686 0.440372 -1.63576 0
M  V30 3660 O 357.892 0.315133 -1.7722 0
M  V30 3661 H 354.267 -0.142775 -0.738322 0
M  V30 3662 H 356.238 -1.38065 -2.64539 0
M  V30 3663 C 354.987 0.191072 -3.47175 0
M  V30 3664 H 354.31 -0.522318 -3.96373 0
M  V30 3665 H 355.75 0.486445 -4.212 0
M  V30 3666 C 354.209 1.41967 -3.05527 0
M  V30 3667 O 354.739 2.51642 -3.13112 0
M  V30 3668 N 352.945 1.28746 -2.60524 0
M  V30 3669 H 352.492 0.395089 -2.54552 0
M  V30 3670 H 352.45 2.11061 -2.33025 0
M  V30 3671 N 356.222 1.38976 -0.743202 0
M  V30 3672 C 357.17 2.32394 -0.0978389 0
M  V30 3673 C 358.164 1.53486 0.716824 0
M  V30 3674 O 359.37 1.69092 0.617088 0
M  V30 3675 H 355.745 0.75189 -0.0128402 0
M  V30 3676 H 357.716 2.84441 -0.901981 0
M  V30 3677 C 356.465 3.38629 0.789036 0
M  V30 3678 H 355.788 3.99432 0.171559 0
M  V30 3679 H 357.228 4.06426 1.20807 0
M  V30 3680 C 355.687 2.76347 1.92702 0
M  V30 3681 O 356.217 2.64836 3.02034 0
M  V30 3682 N 354.423 2.34311 1.71891 0
M  V30 3683 H 353.97 2.43873 0.829675 0
M  V30 3684 H 353.928 1.9298 2.48205 0
M  V30 3685 N 357.7 0.491464 1.49741 0
M  V30 3686 C 358.63 -0.28154 2.31796 0
M  V30 3687 C 359.611 -0.971473 1.3963 0
M  V30 3688 O 360.796 -0.964719 1.68543 0
M  V30 3689 C 357.926 -1.35203 3.19902 0
M  V30 3690 C 356.88 -0.782529 4.20786 0
M  V30 3691 C 356.206 -1.95283 4.97764 0
M  V30 3692 C 357.506 0.21999 5.21837 0
M  V30 3693 H 359.2 0.403355 2.96671 0
M  V30 3694 H 356.746 0.195425 1.42668 0
M  V30 3695 H 358.699 -1.90045 3.76113 0
M  V30 3696 H 357.423 -2.06598 2.52953 0
M  V30 3697 H 356.082 -0.255928 3.65706 0
M  V30 3698 H 355.73 -2.65423 4.2727 0
M  V30 3699 H 355.43 -1.57789 5.66018 0
M  V30 3700 H 356.954 -2.50577 5.56816 0
M  V30 3701 H 358.368 -0.23996 5.72798 0
M  V30 3702 H 356.765 0.51026 5.97927 0
M  V30 3703 H 357.835 1.13911 4.7133 0
M  V30 3704 N 359.178 -1.55987 0.224894 0
M  V30 3705 C 360.425 -1.9839 -0.4059 0
M  V30 3706 C 360.753 -1.11261 -1.59535 0
M  V30 3707 O 360.008 -0.158314 -1.95059 0
M  V30 3708 C 360.307 -3.46394 -0.880106 0
M  V30 3709 C 359.973 -4.5046 0.19918 0
M  V30 3710 C 358.635 -4.7864 0.495661 0
M  V30 3711 C 360.987 -5.12855 0.928939 0
M  V30 3712 C 358.315 -5.66497 1.52636 0
M  V30 3713 C 360.667 -6.01828 1.949 0
M  V30 3714 C 359.331 -6.28351 2.25236 0
M  V30 3715 H 358.601 -0.725961 -0.148529 0
M  V30 3716 H 361.248 -1.88668 0.328113 0
M  V30 3717 H 359.553 -3.53337 -1.69294 0
M  V30 3718 H 361.25 -3.76577 -1.37808 0
M  V30 3719 H 357.84 -4.28579 -0.0420526 0
M  V30 3720 H 362.024 -4.9115 0.713129 0
M  V30 3721 H 357.28 -5.8531 1.76698 0
M  V30 3722 H 361.454 -6.49225 2.51951 0
M  V30 3723 H 359.081 -6.96226 3.05244 0
M  V30 3724 N 360.656 0.0484629 -1.57525 0
M  V30 3725 C 361.933 0.777447 -1.79486 0
M  V30 3726 C 362.313 1.94597 -0.818251 0
M  V30 3727 O 361.661 2.28047 0.143767 0
M  V30 3728 C 361.871 1.22864 -3.26658 0
M  V30 3729 C 363.219 1.65251 -3.91123 0
M  V30 3730 O 364.243 1.32372 -3.3069 0
M  V30 3731 O 363.102 2.26207 -4.97486 0
M  V30 3732 H 360.196 0.374357 -0.737419 0
M  V30 3733 H 362.742 0.0267359 -1.69679 0
M  V30 3734 H 361.514 0.393589 -3.89316 0
M  V30 3735 H 361.137 2.03996 -3.41279 0
M  V30 3736 N 362.134 1.5431 0.320358 0
M  V30 3737 C 363.55 1.45091 0.664889 0
M  V30 3738 C 363.75 0.626382 1.91517 0
M  V30 3739 O 362.806 0.126443 2.52183 0
M  V30 3740 C 364.119 2.88848 0.83591 0
M  V30 3741 C 365.667 2.9877 0.933046 0
M  V30 3742 C 366.142 4.43683 1.13621 0
M  V30 3743 N 367.633 4.47309 1.20287 0
M  V30 3744 C 368.368 5.56595 1.37801 0
M  V30 3745 N 367.864 6.75844 1.52338 0
M  V30 3746 N 369.657 5.44248 1.40535 0
M  V30 3747 H 361.808 2.06398 -0.501374 0
M  V30 3748 H 364.071 0.933963 -0.162534 0
M  V30 3749 H 363.777 3.51698 -0.0116092 0
M  V30 3750 H 363.651 3.35148 1.73078 0
M  V30 3751 H 366.038 2.36045 1.77107 0
M  V30 3752 H 366.119 2.55796 0.0145782 0
M  V30 3753 H 365.763 5.06995 0.303032 0
M  V30 3754 H 365.693 4.84269 2.0686 0
M  V30 3755 H 368.184 3.61388 1.10485 0
M  V30 3756 H 368.497 7.54892 1.65403 0
M  V30 3757 H 366.842 6.78746 1.4943 0
M  V30 3758 H 370.033 4.50038 1.28777 0
M  V30 3759 H 370.206 6.29473 1.53842 0
M  V30 3760 N 363.613 -0.582584 1.46437 0
M  V30 3761 C 364.543 -1.70187 1.59871 0
M  V30 3762 C 365.524 -1.64066 0.449042 0
M  V30 3763 O 366.709 -1.82081 0.6753 0
M  V30 3764 C 363.839 -3.08827 1.58881 0
M  V30 3765 C 362.793 -3.29779 2.72819 0
M  V30 3766 C 362.119 -4.68947 2.5689 0
M  V30 3767 C 363.419 -3.17601 4.1464 0
M  V30 3768 H 365.113 -1.592 2.53566 0
M  V30 3769 H 362.659 -0.764472 1.22032 0
M  V30 3770 H 364.612 -3.86951 1.66873 0
M  V30 3771 H 363.336 -3.20713 0.617306 0
M  V30 3772 H 361.995 -2.54054 2.64296 0
M  V30 3773 H 361.643 -4.77599 1.57823 0
M  V30 3774 H 361.343 -4.83919 3.33312 0
M  V30 3775 H 362.867 -5.4924 2.66773 0
M  V30 3776 H 364.281 -3.8557 4.24274 0
M  V30 3777 H 362.678 -3.44094 4.9165 0
M  V30 3778 H 363.748 -2.14681 4.34788 0
M  V30 3779 N 365.091 -1.34144 -0.827227 0
M  V30 3780 C 366.368 -1.16844 -1.56865 0
M  V30 3781 C 366.748 0.260654 -2.09485 0
M  V30 3782 O 366.096 1.26138 -1.9053 0
M  V30 3783 C 366.306 -2.21939 -2.6934 0
M  V30 3784 C 367.654 -2.56695 -3.3822 0
M  V30 3785 O 368.678 -2.20695 -2.79593 0
M  V30 3786 O 367.537 -3.18518 -4.44082 0
M  V30 3787 H 364.631 -0.452669 -0.692112 0
M  V30 3788 H 367.177 -1.45763 -0.868973 0
M  V30 3789 H 365.949 -3.17882 -2.28182 0
M  V30 3790 H 365.572 -1.94172 -3.46962 0
M  V30 3791 N 366.569 1.04691 -1.17803 0
M  V30 3792 C 367.479 2.16057 -0.914151 0
M  V30 3793 C 368.495 1.73589 0.119503 0
M  V30 3794 O 369.671 2.01308 -0.0609468 0
M  V30 3795 C 366.736 3.4394 -0.436603 0
M  V30 3796 C 365.797 4.00825 -1.53746 0
M  V30 3797 C 365.03 5.22604 -1.0826 0
M  V30 3798 O 365.253 5.70367 0.0612244 0
M  V30 3799 O 364.187 5.7186 -1.87775 0
M  V30 3800 H 368.013 2.41169 -1.84584 0
M  V30 3801 H 365.598 1.1453 -0.959334 0
M  V30 3802 H 367.48 4.21024 -0.178057 0
M  V30 3803 H 366.155 3.20316 0.466869 0
M  V30 3804 H 365.062 3.25158 -1.84995 0
M  V30 3805 H 366.395 4.28778 -2.41683 0
M  V30 3806 N 368.047 0.979072 1.23499 0
M  V30 3807 C 368.997 0.489378 2.22686 0
M  V30 3808 C 369.981 -0.434871 1.54912 0
M  V30 3809 O 371.173 -0.263941 1.75021 0
M  V30 3810 C 368.302 -0.208178 3.42668 0
M  V30 3811 C 367.388 0.735563 4.17672 0
M  V30 3812 N 367.779 1.87763 4.69658 0
M  V30 3813 C 366.077 0.548625 4.42613 0
M  V30 3814 C 366.778 2.46886 5.26709 0
M  V30 3815 N 365.754 1.75287 5.14563 0
M  V30 3816 H 369.556 1.36062 2.60508 0
M  V30 3817 H 367.07 0.83958 1.39014 0
M  V30 3818 H 369.067 -0.576295 4.12898 0
M  V30 3819 H 367.727 -1.07572 3.06363 0
M  V30 3820 H 368.738 2.25885 4.66043 0
M  V30 3821 H 365.415 -0.274006 4.166 0
M  V30 3822 H 366.805 3.43326 5.77561 0
M  V30 3823 N 369.525 -1.3858 0.750561 0
M  V30 3824 C 370.488 -2.28836 0.129152 0
M  V30 3825 C 371.488 -1.47045 -0.650714 0
M  V30 3826 O 372.678 -1.6753 -0.477428 0
M  V30 3827 C 369.81 -3.30751 -0.825622 0
M  V30 3828 H 371.003 -2.85294 0.924516 0
M  V30 3829 H 368.556 -1.47489 0.517376 0
M  V30 3830 H 369.291 -2.79378 -1.64677 0
M  V30 3831 H 369.076 -3.91177 -0.268852 0
M  V30 3832 H 370.566 -3.98249 -1.2565 0
M  V30 3833 N 371.003 -0.499398 -1.49478 0
M  V30 3834 C 372.419 -0.155261 -1.58843 0
M  V30 3835 C 372.619 1.34008 -1.50479 0
M  V30 3836 O 371.675 2.11589 -1.37791 0
M  V30 3837 C 372.988 -0.730636 -2.91689 0
M  V30 3838 C 374.536 -0.696599 -3.0515 0
M  V30 3839 C 375.011 -1.25001 -4.40612 0
M  V30 3840 N 376.502 -1.21064 -4.47099 0
M  V30 3841 C 377.237 -1.60905 -5.50361 0
M  V30 3842 N 376.733 -2.08331 -6.60735 0
M  V30 3843 N 378.526 -1.52331 -5.41065 0
M  V30 3844 H 370.677 -1.47162 -1.53158 0
M  V30 3845 H 372.94 -0.610309 -0.725415 0
M  V30 3846 H 372.646 -1.77928 -3.03372 0
M  V30 3847 H 372.52 -0.190161 -3.7672 0
M  V30 3848 H 374.907 0.343204 -2.93097 0
M  V30 3849 H 374.988 -1.2742 -2.21806 0
M  V30 3850 H 374.632 -2.28859 -4.53416 0
M  V30 3851 H 374.562 -0.64836 -5.22593 0
M  V30 3852 H 377.053 -0.863128 -3.67911 0
M  V30 3853 H 377.366 -2.36805 -7.35624 0
M  V30 3854 H 375.711 -2.12304 -6.6178 0
M  V30 3855 H 378.902 -1.151 -4.53729 0
M  V30 3856 H 379.075 -1.83704 -6.21415 0
M  V30 3857 N 372.481 1.55866 -0.233164 0
M  V30 3858 C 373.413 2.18099 0.704668 0
M  V30 3859 C 374.426 1.15334 1.14899 0
M  V30 3860 O 375.615 1.42262 1.07814 0
M  V30 3861 C 372.715 2.7592 1.96777 0
M  V30 3862 C 371.888 4.03969 1.67713 0
M  V30 3863 C 370.947 4.46242 2.78845 0
M  V30 3864 O 369.973 5.12903 2.46818 0
M  V30 3865 N 371.175 4.12886 4.08051 0
M  V30 3866 H 373.94 2.99205 0.172258 0
M  V30 3867 H 371.501 1.61815 -0.0525945 0
M  V30 3868 H 373.493 3.01165 2.70337 0
M  V30 3869 H 372.063 1.99051 2.41034 0
M  V30 3870 H 371.283 3.86459 0.777391 0
M  V30 3871 H 372.571 4.8748 1.4574 0
M  V30 3872 H 371.969 3.59342 4.3691 0
M  V30 3873 H 370.526 4.42997 4.78118 0
M  V30 3874 N 373.959 -0.0401083 1.57549 0
M  V30 3875 C 374.907 -1.06264 2.06908 0
M  V30 3876 C 375.901 -1.38132 0.980608 0
M  V30 3877 O 377.107 -1.37167 1.16556 0
M  V30 3878 H 373.482 -0.360166 0.660139 0
M  V30 3879 H 375.453 -0.620445 2.91878 0
M  V30 3880 C 374.202 -2.35846 2.55483 0
M  V30 3881 H 373.525 -2.12183 3.38849 0
M  V30 3882 H 374.965 -3.05765 2.93741 0
M  V30 3883 C 373.424 -3.0404 1.45126 0
M  V30 3884 O 373.954 -3.93424 0.811216 0
M  V30 3885 N 372.16 -2.65184 1.18852 0
M  V30 3886 H 371.707 -1.92584 1.71083 0
M  V30 3887 H 371.665 -3.1113 0.452244 0
M  V30 3888 N 375.437 -1.54477 -0.31217 0
M  V30 3889 C 376.4 -1.83923 -1.36766 0
M  V30 3890 C 377.4 -0.711563 -1.44199 0
M  V30 3891 O 378.59 -0.979866 -1.44029 0
M  V30 3892 C 375.722 -2.0095 -2.75376 0
M  V30 3893 H 376.915 -2.78239 -1.11906 0
M  V30 3894 H 374.468 -1.46369 -0.548257 0
M  V30 3895 H 375.203 -1.08883 -3.05475 0
M  V30 3896 H 374.988 -2.83018 -2.71373 0
M  V30 3897 H 376.478 -2.2514 -3.51713 0
M  V30 3898 N 376.915 0.57481 -1.46744 0
M  V30 3899 C 378.326 1.15695 -1.46532 0
M  V30 3900 C 378.677 1.95068 -0.210425 0
M  V30 3901 O 377.802 2.05241 0.685944 0
M  V30 3902 C 378.397 2.1048 -2.65487 0
M  V30 3903 C 376.956 2.64002 -2.68291 0
M  V30 3904 C 376.103 1.40026 -2.39349 0
M  V30 3905 H 379.054 0.362325 -1.54509 0
M  V30 3906 H 379.075 2.94074 -2.41455 0
M  V30 3907 H 378.587 1.52683 -3.56805 0
M  V30 3908 H 376.688 3.25646 -1.81067 0
M  V30 3909 H 376.801 3.06197 -3.68483 0
M  V30 3910 H 375.165 1.70106 -1.89568 0
M  V30 3911 H 375.948 0.840485 -3.32852 0
M  V30 3912 N 378.394 1.34581 0.820102 0
M  V30 3913 C 379.344 1.22943 1.92013 0
M  V30 3914 C 380.328 0.127802 1.60392 0
M  V30 3915 O 381.52 0.357737 1.73347 0
M  V30 3916 C 378.649 0.989938 3.28717 0
M  V30 3917 C 377.735 2.13486 3.66449 0
M  V30 3918 N 378.126 3.38625 3.75722 0
M  V30 3919 C 376.424 2.04573 3.96315 0
M  V30 3920 C 377.125 4.13832 4.08801 0
M  V30 3921 N 376.101 3.42451 4.22171 0
M  V30 3922 H 379.903 2.17771 1.97365 0
M  V30 3923 H 377.417 1.2686 1.01392 0
M  V30 3924 H 379.414 0.887462 4.07345 0
M  V30 3925 H 378.074 0.0503691 3.24661 0
M  V30 3926 H 379.085 3.73143 3.59144 0
M  V30 3927 H 375.762 1.1839 4.00362 0
M  V30 3928 H 377.152 5.21909 4.23156 0
M  V30 3929 N 379.872 -1.04064 1.18357 0
M  V30 3930 C 381.12 -1.76915 0.977013 0
M  V30 3931 C 381.441 -1.88624 -0.494577 0
M  V30 3932 O 380.711 -1.41125 -1.3587 0
M  V30 3933 H 379.291 -0.65535 0.358504 0
M  V30 3934 H 381.953 -1.25592 1.49039 0
M  V30 3935 H 381.049 -2.78178 1.41504 0
M  V30 3936 N 381.35 -0.985608 -1.22978 0
M  V30 3937 C 382.598 -0.656087 -1.91154 0
M  V30 3938 C 382.919 0.813561 -1.77218 0
M  V30 3939 O 382.189 1.58244 -1.1548 0
M  V30 3940 H 380.769 -0.239674 -0.707506 0
M  V30 3941 H 383.431 -1.25054 -1.49491 0
M  V30 3942 H 382.527 -0.912253 -2.9847 0
M  V30 3943 N 382.828 1.3818 -0.7579 0
M  V30 3944 C 384.058 2.04004 -0.326463 0
M  V30 3945 C 384.466 1.57286 1.05156 0
M  V30 3946 O 383.809 0.743144 1.67997 0
M  V30 3947 C 383.871 3.58444 -0.275402 0
M  V30 3948 C 383.535 4.28237 -1.59569 0
M  V30 3949 C 384.532 4.53312 -2.54566 0
M  V30 3950 C 382.217 4.66341 -1.86631 0
M  V30 3951 C 384.211 5.15531 -3.74842 0
M  V30 3952 C 381.898 5.28283 -3.0718 0
M  V30 3953 C 382.896 5.52814 -4.01106 0
M  V30 3954 O 382.584 6.13465 -5.19534 0
M  V30 3955 H 382.316 0.662026 -0.136739 0
M  V30 3956 H 384.87 1.7777 -1.02893 0
M  V30 3957 H 383.1 3.83667 0.483337 0
M  V30 3958 H 384.789 4.05701 0.127099 0
M  V30 3959 H 385.555 4.24299 -2.34936 0
M  V30 3960 H 381.434 4.46591 -1.14358 0
M  V30 3961 H 384.978 5.34594 -4.48168 0
M  V30 3962 H 380.875 5.56719 -3.26702 0
M  V30 3963 H 381.643 6.31951 -5.20173 0
M  V30 3964 N 384.306 0.507319 1.49211 0
M  V30 3965 C 385.554 -0.0348839 2.0207 0
M  V30 3966 C 385.875 -1.36898 1.38866 0
M  V30 3967 O 385.145 -1.88133 0.546151 0
M  V30 3968 H 383.725 -0.0158812 0.746831 0
M  V30 3969 H 386.387 0.665998 1.83168 0
M  V30 3970 H 385.483 -0.159917 3.1169 0
M  V30 3971 N 385.784 -1.5574 0.241426 0
M  V30 3972 C 386.694 -2.2479 -0.671305 0
M  V30 3973 C 387.71 -1.26217 -1.19772 0
M  V30 3974 O 388.886 -1.59079 -1.23514 0
M  V30 3975 C 385.951 -2.92966 -1.85396 0
M  V30 3976 C 385.012 -4.06935 -1.36756 0
M  V30 3977 C 384.245 -4.71851 -2.49384 0
M  V30 3978 O 384.468 -4.35823 -3.67987 0
M  V30 3979 O 383.402 -5.60467 -2.19454 0
M  V30 3980 H 387.228 -3.0349 -0.112966 0
M  V30 3981 H 384.813 -1.49397 0.0101513 0
M  V30 3982 H 386.695 -3.35927 -2.54423 0
M  V30 3983 H 385.37 -2.17211 -2.40002 0
M  V30 3984 H 384.277 -3.68503 -0.644726 0
M  V30 3985 H 385.61 -4.84492 -0.867647 0
M  V30 3986 N 387.262 0.0317525 -1.57568 0
M  V30 3987 C 388.49 0.734949 -1.93407 0
M  V30 3988 C 388.905 1.69036 -0.84096 0
M  V30 3989 O 388.262 1.81582 0.182836 0
M  V30 3990 C 388.313 1.49432 -3.29169 0
M  V30 3991 O 388.034 0.577261 -4.3428 0
M  V30 3992 C 389.535 2.29492 -3.79273 0
M  V30 3993 H 386.755 0.206706 -0.638368 0
M  V30 3994 H 389.299 -0.00992046 -2.04498 0
M  V30 3995 H 387.454 2.1911 -3.19483 0
M  V30 3996 H 387.868 1.10952 -5.1263 0
M  V30 3997 H 389.342 2.78172 -4.76785 0
M  V30 3998 H 389.819 3.10794 -3.10328 0
M  V30 3999 H 390.425 1.64894 -3.92033 0
M  V30 4000 N 388.74 1.54641 0.303973 0
M  V30 4001 C 389.968 1.77768 1.05858 0
M  V30 4002 C 390.383 0.535722 1.8104 0
M  V30 4003 O 389.74 -0.494337 1.75677 0
M  V30 4004 C 389.791 2.9834 2.04146 0
M  V30 4005 O 389.512 4.17736 1.32015 0
M  V30 4006 C 391.013 3.33832 2.91669 0
M  V30 4007 H 388.233 0.592961 0.314067 0
M  V30 4008 H 390.777 2.01583 0.344149 0
M  V30 4009 H 388.932 2.76742 2.71096 0
M  V30 4010 H 389.346 4.85693 1.97998 0
M  V30 4011 H 390.82 4.21448 3.56491 0
M  V30 4012 H 391.297 2.51857 3.59812 0
M  V30 4013 H 391.903 3.57579 2.30254 0
M  V30 4014 N 390.218 -0.567019 1.47046 0
M  V30 4015 C 391.464 -1.32434 1.54379 0
M  V30 4016 C 391.819 -1.91365 0.199276 0
M  V30 4017 O 391.112 -1.74378 -0.793915 0
M  V30 4018 C 391.306 -2.4623 2.59047 0
M  V30 4019 C 391.135 -1.98448 4.03545 0
M  V30 4020 C 389.905 -1.82741 4.71098 0
M  V30 4021 C 392.103 -1.53477 4.90866 0
M  V30 4022 N 390.085 -1.29196 6.00151 0
M  V30 4023 C 391.456 -1.1163 6.09868 0
M  V30 4024 C 393.511 -1.41438 4.77388 0
M  V30 4025 C 392.214 -0.589425 7.16881 0
M  V30 4026 C 394.24 -0.901528 5.84488 0
M  V30 4027 C 393.602 -0.492932 7.02673 0
M  V30 4028 H 389.701 -0.477005 0.61967 0
M  V30 4029 H 392.285 -0.643856 1.83746 0
M  V30 4030 H 390.456 -3.11821 2.31564 0
M  V30 4031 H 392.188 -3.13213 2.56281 0
M  V30 4032 H 388.943 -2.05162 4.26855 0
M  V30 4033 H 389.367 -1.0454 6.6888 0
M  V30 4034 H 394.009 -1.71643 3.86392 0
M  V30 4035 H 391.727 -0.274994 8.07632 0
M  V30 4036 H 395.313 -0.812071 5.76105 0
M  V30 4037 H 394.193 -0.102227 7.84133 0
M  V30 4038 N 391.696 -1.35014 -0.812953 0
M  V30 4039 C 393.107 -1.25035 -1.38648 0
M  V30 4040 C 393.458 0.119967 -1.95833 0
M  V30 4041 O 392.583 1.02069 -1.90816 0
M  V30 4042 C 393.178 -2.26394 -2.52054 0
M  V30 4043 C 391.737 -2.20175 -3.05287 0
M  V30 4044 C 390.884 -2.12451 -1.78213 0
M  V30 4045 H 393.835 -1.46235 -0.616516 0
M  V30 4046 H 393.856 -1.88672 -3.30429 0
M  V30 4047 H 393.368 -3.26116 -2.10404 0
M  V30 4048 H 391.469 -1.23841 -3.51417 0
M  V30 4049 H 391.582 -3.11863 -3.63701 0
M  V30 4050 H 389.946 -1.58328 -1.9951 0
M  V30 4051 H 390.729 -3.14024 -1.38723 0
M  V30 4052 N 393.175 1.03435 -1.18907 0
M  V30 4053 C 394.421 1.77005 -0.989798 0
M  V30 4054 C 394.754 1.88205 0.478816 0
M  V30 4055 O 394.029 1.39481 1.35556 0
M  V30 4056 C 394.312 3.19925 -1.65287 0
M  V30 4057 C 394.165 3.1663 -3.19477 0
M  V30 4058 C 395.484 4.18189 -1.37134 0
M  V30 4059 H 392.603 0.642538 -0.360991 0
M  V30 4060 H 395.245 1.20784 -1.46667 0
M  V30 4061 H 393.395 3.67929 -1.24741 0
M  V30 4062 H 395.067 2.76567 -3.692 0
M  V30 4063 H 393.31 2.54491 -3.51307 0
M  V30 4064 H 393.981 4.1758 -3.61013 0
M  V30 4065 H 396.457 3.78761 -1.72276 0
M  V30 4066 H 395.333 5.16394 -1.86087 0
M  V30 4067 H 395.594 4.41112 -0.295424 0
M  V30 4068 N 394.653 0.992116 1.22453 0
M  V30 4069 C 395.899 0.668523 1.91464 0
M  V30 4070 C 396.232 -0.797313 1.77078 0
M  V30 4071 O 395.507 -1.5765 1.13916 0
M  V30 4072 C 395.79 1.07424 3.43703 0
M  V30 4073 C 395.643 2.59857 3.67143 0
M  V30 4074 C 396.962 0.626891 4.35612 0
M  V30 4075 H 394.081 0.244341 0.695318 0
M  V30 4076 H 396.723 1.2355 1.44345 0
M  V30 4077 H 394.873 0.591816 3.83966 0
M  V30 4078 H 396.545 3.15764 3.3629 0
M  V30 4079 H 394.788 3.01961 3.11451 0
M  V30 4080 H 395.459 2.83296 4.73759 0
M  V30 4081 H 397.935 1.04125 4.02861 0
M  V30 4082 H 396.811 0.939076 5.40807 0
M  V30 4083 H 397.072 -0.472457 4.39568 0
M  V30 4084 N 396.131 -1.37776 0.765217 0
M  V30 4085 C 397.547 -1.53297 0.444108 0
M  V30 4086 C 397.747 -1.72515 -1.04119 0
M  V30 4087 O 396.803 -1.74278 -1.82711 0
M  V30 4088 C 398.116 -2.73328 1.25349 0
M  V30 4089 C 399.664 -2.87185 1.24473 0
M  V30 4090 C 400.139 -4.10191 2.03733 0
M  V30 4091 N 401.63 -4.17291 2.01053 0
M  V30 4092 C 402.365 -5.11488 2.59166 0
M  V30 4093 N 401.861 -6.11285 3.26041 0
M  V30 4094 N 403.654 -5.03924 2.49032 0
M  V30 4095 H 395.805 -1.23552 1.72768 0
M  V30 4096 H 398.068 -0.601103 0.733062 0
M  V30 4097 H 397.774 -2.6557 2.30577 0
M  V30 4098 H 397.648 -3.66834 0.87823 0
M  V30 4099 H 400.035 -2.94418 0.20047 0
M  V30 4100 H 400.116 -1.94657 1.65959 0
M  V30 4101 H 399.76 -4.0372 3.08176 0
M  V30 4102 H 399.69 -5.01821 1.59633 0
M  V30 4103 H 402.181 -3.45825 1.5236 0
M  V30 4104 H 402.494 -6.79678 3.67774 0
M  V30 4105 H 400.839 -6.11583 3.30138 0
M  V30 4106 H 404.03 -4.24902 1.96407 0
M  V30 4107 H 404.203 -5.77152 2.94617 0
M  V30 4108 N 397.609 -0.515225 -1.4894 0
M  V30 4109 C 398.834 0.022727 -2.07388 0
M  V30 4110 C 399.259 1.2876 -1.37122 0
M  V30 4111 O 398.617 1.76067 -0.432431 0
M  V30 4112 C 398.665 0.244869 -3.59768 0
M  V30 4113 O 397.769 1.31667 -3.90817 0
M  V30 4114 H 397.11 -0.0325506 -0.663202 0
M  V30 4115 H 399.64 -0.718918 -1.91553 0
M  V30 4116 H 399.65 0.47205 -4.0526 0
M  V30 4117 H 398.325 -0.679194 -4.10317 0
M  V30 4118 H 396.902 1.07331 -3.5712 0
M  V30 4119 N 399.087 1.5561 -0.249682 0
M  V30 4120 C 400.364 1.90932 0.424761 0
M  V30 4121 C 400.744 1.17078 1.75658 0
M  V30 4122 O 400.092 0.289176 2.26663 0
M  V30 4123 C 400.302 3.43975 0.590109 0
M  V30 4124 C 401.65 4.15281 0.884714 0
M  V30 4125 O 402.674 3.49729 0.67587 0
M  V30 4126 O 401.533 5.31236 1.28259 0
M  V30 4127 H 398.627 0.794815 0.228468 0
M  V30 4128 H 401.173 1.67135 -0.293954 0
M  V30 4129 H 399.945 3.89748 -0.34818 0
M  V30 4130 H 399.568 3.73644 1.35926 0
M  V30 4131 N 400.565 -0.0233959 1.57583 0
M  V30 4132 C 401.842 -0.748794 1.807 0
M  V30 4133 C 402.222 -1.9327 0.849106 0
M  V30 4134 O 401.57 -2.28247 -0.107468 0
M  V30 4135 C 401.78 -1.17651 3.28571 0
M  V30 4136 C 403.128 -1.59008 3.93702 0
M  V30 4137 O 404.152 -1.27094 3.32755 0
M  V30 4138 O 403.011 -2.18264 5.01022 0
M  V30 4139 H 400.105 -0.362578 0.743281 0
M  V30 4140 H 402.651 0.000261958 1.697 0
M  V30 4141 H 401.423 -0.331603 3.89892 0
M  V30 4142 H 401.046 -1.98541 3.44481 0
M  V30 4143 N 402.043 -1.548 -0.295768 0
M  V30 4144 C 403.268 -1.78653 -1.05346 0
M  V30 4145 C 403.693 -0.546894 -1.79974 0
M  V30 4146 O 403.051 0.502763 -1.7419 0
M  V30 4147 C 403.099 -2.99679 -2.00561 0
M  V30 4148 O 402.203 -2.7317 -3.08953 0
M  V30 4149 H 401.544 -0.59116 -0.302367 0
M  V30 4150 H 404.074 -2.01895 -0.331598 0
M  V30 4151 H 404.084 -3.27793 -2.42932 0
M  V30 4152 H 402.759 -3.89562 -1.4565 0
M  V30 4153 H 401.336 -2.56089 -2.71059 0
M  V30 4154 O 403.56 0.441645 -1.55344 0
M  V30 4155 H 404.251 1.0953 -1.59759 0
M  V30 END ATOM
M  V30 BEGIN BOND
M  V30 END BOND
M  V30 END CTAB
M  END
$$$$
