drugbank_target|Q70GK9 5'-fluoro-5'-deoxy-adenosine synthase (DB03716; DB07170)
 OpenBabel12092120283D

  0  0  0     0  0            999 V3000
M  V30 BEGIN CTAB
M  V30 COUNTS 4511 4567 0 0 0
M  V30 BEGIN ATOM
M  V30 1 H -0.908 1.98254 -0.117106 0
M  V30 2 N 0 1.576 0 0
M  V30 3 C 0.933 2.03868 1.02534 0
M  V30 4 C 1.911 0.928543 1.3348 0
M  V30 5 O 3.095 1.19667 1.45644 0
M  V30 6 C 0.222 2.43627 2.35294 0
M  V30 7 C -0.732 3.65373 2.2001 0
M  V30 8 S 0.101 5.13292 1.52614 0
M  V30 9 C 1.257 5.56322 2.86805 0
M  V30 10 H 1.49 2.90518 0.631377 0
M  V30 11 H -0.977 1.52953 0.210867 0
M  V30 12 H 0.981 2.67203 3.11629 0
M  V30 13 H -0.358 1.57376 2.7183 0
M  V30 14 H -1.165 3.90944 3.18086 0
M  V30 15 H -1.563 3.418 1.51819 0
M  V30 16 H 0.729 5.58782 3.83104 0
M  V30 17 H 1.672 6.56266 2.65933 0
M  V30 18 H 2.08 4.83886 2.90714 0
M  V30 19 N 1.4781 -0.272755 1.55222 0
M  V30 20 C 2.4411 -1.32041 1.87344 0
M  V30 21 C 3.4411 -1.42342 0.74803 0
M  V30 22 O 4.6311 -1.41488 1.0162 0
M  V30 23 C 1.7631 -2.70173 2.07893 0
M  V30 24 H 2.9561 -1.04789 2.80997 0
M  V30 25 H 0.5091 -0.51083 1.47717 0
M  V30 26 H 1.2441 -3.02605 1.16622 0
M  V30 27 H 1.0291 -2.64082 2.89833 0
M  V30 28 H 2.5191 -3.45869 2.34017 0
M  V30 29 N 2.9562 -1.48159 -0.537278 0
M  V30 30 C 3.9192 -1.61665 -1.62472 0
M  V30 31 C 4.9192 -0.490395 -1.5314 0
M  V30 32 O 6.1092 -0.755998 -1.5694 0
M  V30 33 C 3.2412 -1.57997 -3.02076 0
M  V30 34 H 4.4342 -2.58621 -1.51839 0
M  V30 35 H 1.9872 -1.36647 -0.758771 0
M  V30 36 H 2.7222 -0.624913 -3.18222 0
M  V30 37 H 2.5072 -2.39755 -3.10258 0
M  V30 38 H 3.9972 -1.70627 -3.81151 0
M  V30 39 N 4.4343 0.785586 -1.36625 0
M  V30 40 C 5.3823 1.91978 -1.31329 0
M  V30 41 C 6.3763 1.68162 -0.204416 0
M  V30 42 O 7.5823 1.76122 -0.371645 0
M  V30 43 H 3.9573 0.631087 -0.408942 0
M  V30 44 H 5.9283 1.93562 -2.27104 0
M  V30 45 C 4.6773 3.29055 -1.12329 0
M  V30 46 H 4.0003 3.4795 -1.96903 0
M  V30 47 H 5.4403 4.08756 -1.12671 0
M  V30 48 C 3.8993 3.36461 0.171861 0
M  V30 49 O 4.4293 3.84576 1.16035 0
M  V30 50 N 2.6353 2.89782 0.217846 0
M  V30 51 H 2.1823 2.50819 -0.587183 0
M  V30 52 H 2.1403 2.95119 1.08408 0
M  V30 53 N 5.9124 1.20967 1.01018 0
M  V30 54 C 7.1374 1.0503 1.78839 0
M  V30 55 C 7.5624 -0.395752 1.8389 0
M  V30 56 O 6.9204 -1.28529 1.27867 0
M  V30 57 C 6.9684 1.64602 3.2084 0
M  V30 58 O 6.0724 0.887988 4.02726 0
M  V30 59 H 5.4134 0.369987 0.551367 0
M  V30 60 H 7.9434 1.60399 1.27018 0
M  V30 61 H 7.9534 1.68607 3.71532 0
M  V30 62 H 6.6284 2.69841 3.16479 0
M  V30 63 H 5.2054 0.922648 3.61305 0
M  V30 64 N 7.3905 -1.2043 1.01659 0
M  V30 65 C 8.6185 -1.93777 0.725132 0
M  V30 66 C 9.0335 -1.74772 -0.714166 0
M  V30 67 O 8.3905 -1.06169 -1.4844 0
M  V30 68 C 8.4415 -3.45876 1.05129 0
M  V30 69 O 8.1625 -3.6426 2.43406 0
M  V30 70 C 9.6635 -4.36368 0.780891 0
M  V30 71 H 6.8835 -0.615901 0.266284 0
M  V30 72 H 9.4275 -1.52922 1.35776 0
M  V30 73 H 7.5825 -3.8461 0.464065 0
M  V30 74 H 7.9965 -4.58246 2.55169 0
M  V30 75 H 9.4705 -5.41743 1.05918 0
M  V30 76 H 9.9475 -4.38275 -0.284937 0
M  V30 77 H 10.5535 -4.03296 1.35027 0
M  V30 78 N 8.8686 -0.792821 -1.36206 0
M  V30 79 C 10.2846 -0.474903 -1.52371 0
M  V30 80 C 10.4846 1.00622 -1.74578 0
M  V30 81 O 9.5406 1.79162 -1.77924 0
M  V30 82 C 10.8536 -1.3083 -2.70747 0
M  V30 83 C 12.4016 -1.30234 -2.84619 0
M  V30 84 C 12.8766 -2.11956 -4.06004 0
M  V30 85 N 14.3676 -2.09419 -4.13156 0
M  V30 86 C 15.1026 -2.69419 -5.06163 0
M  V30 87 N 14.5986 -3.3829 -6.04592 0
M  V30 88 N 16.3916 -2.59134 -4.98804 0
M  V30 89 H 8.5426 -1.75222 -1.20046 0
M  V30 90 H 10.8056 -0.745024 -0.586211 0
M  V30 91 H 10.5116 -2.35881 -2.6087 0
M  V30 92 H 10.3856 -0.95196 -3.6499 0
M  V30 93 H 12.7726 -0.259748 -2.93955 0
M  V30 94 H 12.8536 -1.69847 -1.91274 0
M  V30 95 H 12.4976 -3.16248 -3.97429 0
M  V30 96 H 12.4276 -1.69711 -4.98503 0
M  V30 97 H 14.9186 -1.59297 -3.42685 0
M  V30 98 H 15.2316 -3.81394 -6.7213 0
M  V30 99 H 13.5766 -3.42393 -6.04807 0
M  V30 100 H 16.7676 -2.04927 -4.20859 0
M  V30 101 H 16.9406 -3.06185 -5.711 0
M  V30 102 N 10.3467 1.47872 -0.545128 0
M  V30 103 C 11.7627 1.5829 -0.204032 0
M  V30 104 C 11.9627 1.54529 1.29317 0
M  V30 105 O 11.0187 1.44232 2.07252 0
M  V30 106 C 12.3317 2.89304 -0.819987 0
M  V30 107 C 13.8797 3.02864 -0.790105 0
M  V30 108 C 14.3547 4.3656 -1.38491 0
M  V30 109 N 15.8457 4.43165 -1.34755 0
M  V30 110 C 16.5807 5.45153 -1.77753 0
M  V30 111 N 16.0767 6.54016 -2.2855 0
M  V30 112 N 17.8697 5.36125 -1.68897 0
M  V30 113 H 10.0207 1.4856 -1.51802 0
M  V30 114 H 12.2837 0.706305 -0.632327 0
M  V30 115 H 11.9897 2.97757 -1.87173 0
M  V30 116 H 11.8637 3.75957 -0.305915 0
M  V30 117 H 14.2507 2.94014 0.252913 0
M  V30 118 H 14.3317 2.17782 -1.34181 0
M  V30 119 H 13.9757 4.46164 -2.42693 0
M  V30 120 H 13.9057 5.20353 -0.808754 0
M  V30 121 H 16.3967 3.65083 -0.975855 0
M  V30 122 H 16.7097 7.27994 -2.59314 0
M  V30 123 H 15.0547 6.54938 -2.32553 0
M  V30 124 H 18.2457 4.49975 -1.28998 0
M  V30 125 H 18.4187 6.15472 -2.02726 0
M  V30 126 N 11.8248 0.280983 1.55075 0
M  V30 127 C 13.2358 -0.215629 1.85451 0
M  V30 128 C 13.5868 -1.54991 1.203 0
M  V30 129 O 12.7118 -2.10699 0.493435 0
M  V30 130 C 13.3068 -0.398026 3.36454 0
M  V30 131 C 11.8658 -0.838866 3.66933 0
M  V30 132 C 11.0128 0.064458 2.77225 0
M  V30 133 H 13.9638 0.502601 1.50531 0
M  V30 134 H 13.9848 -1.23569 3.59876 0
M  V30 135 H 13.4968 0.573241 3.83843 0
M  V30 136 H 11.5978 -1.8214 3.25048 0
M  V30 137 H 11.7108 -0.672123 4.74362 0
M  V30 138 H 10.0748 -0.452863 2.50642 0
M  V30 139 H 10.8578 1.03172 3.2743 0
M  V30 140 N 13.3029 -1.57598 0.00835791 0
M  V30 141 C 14.5519 -1.90107 -0.673968 0
M  V30 142 C 14.8649 -0.884275 -1.7447 0
M  V30 143 O 16.0709 -1.09987 -2.48224 0
M  V30 144 C 14.5269 -3.37497 -1.24995 0
M  V30 145 C 14.1349 -4.47491 -0.2136 0
M  V30 146 C 15.8789 -3.79104 -1.90999 0
M  V30 147 C 13.7859 -5.85963 -0.80005 0
M  V30 148 H 12.7159 -0.709393 -0.255495 0
M  V30 149 H 15.3669 -1.83365 0.0702693 0
M  V30 150 H 13.7489 -3.39102 -2.04513 0
M  V30 151 H 14.9229 -4.57414 0.557596 0
M  V30 152 H 13.2379 -4.14956 0.346474 0
M  V30 153 H 15.8349 -4.79901 -2.35795 0
M  V30 154 H 16.1779 -3.1306 -2.74407 0
M  V30 155 H 16.7109 -3.79833 -1.18203 0
M  V30 156 H 13.4499 -6.555 -0.00456708 0
M  V30 157 H 12.9699 -5.79687 -1.54021 0
M  V30 158 H 14.6489 -6.33884 -1.29615 0
M  V30 159 N 14.781 0.264519 -1.55364 0
M  V30 160 C 16.03 0.992812 -1.75574 0
M  V30 161 C 16.343 1.87142 -0.568979 0
M  V30 162 O 17.549 2.63513 -0.653682 0
M  V30 163 C 16.005 1.81519 -3.10771 0
M  V30 164 C 15.613 0.984839 -4.37041 0
M  V30 165 C 17.357 2.53727 -3.40327 0
M  V30 166 C 15.264 1.80209 -5.63275 0
M  V30 167 H 14.194 0.374412 -0.65447 0
M  V30 168 H 16.845 0.248138 -1.81815 0
M  V30 169 H 15.227 2.60115 -2.98591 0
M  V30 170 H 16.401 0.242455 -4.60162 0
M  V30 171 H 14.716 0.37691 -4.14691 0
M  V30 172 H 17.313 3.15292 -4.3185 0
M  V30 173 H 17.656 3.24447 -2.60845 0
M  V30 174 H 18.189 1.82156 -3.53644 0
M  V30 175 H 14.928 1.13896 -6.45529 0
M  V30 176 H 14.448 2.52022 -5.44284 0
M  V30 177 H 16.127 2.37364 -6.01887 0
M  V30 178 N 16.2591 1.48442 0.529413 0
M  V30 179 C 17.2221 1.62524 1.61612 0
M  V30 180 C 18.2221 0.498509 1.52877 0
M  V30 181 O 19.4121 0.76431 1.56537 0
M  V30 182 C 16.5441 1.59597 3.01233 0
M  V30 183 H 17.7371 2.59423 1.50465 0
M  V30 184 H 15.2901 1.37047 0.751514 0
M  V30 185 H 16.0251 0.641781 3.17886 0
M  V30 186 H 15.8101 2.41397 3.08982 0
M  V30 187 H 17.3001 1.72646 3.80241 0
M  V30 188 N 17.7372 -0.778329 1.37039 0
M  V30 189 C 18.9842 -1.53665 1.31884 0
M  V30 190 C 19.3122 -1.9425 -0.0986303 0
M  V30 191 O 18.5672 -1.63832 -1.07041 0
M  V30 192 C 18.8662 -2.81845 2.19768 0
M  V30 193 C 18.5322 -2.60345 3.68146 0
M  V30 194 C 17.1942 -2.5419 4.08584 0
M  V30 195 C 19.5462 -2.40923 4.62175 0
M  V30 196 C 16.8742 -2.26594 5.41177 0
M  V30 197 C 19.2262 -2.14852 5.94997 0
M  V30 198 C 17.8902 -2.07137 6.34547 0
M  V30 199 H 17.1602 -0.562299 0.482598 0
M  V30 200 H 19.8072 -0.897069 1.69189 0
M  V30 201 H 18.1122 -3.50328 1.75436 0
M  V30 202 H 19.8092 -3.39692 2.13097 0
M  V30 203 H 16.3992 -2.65996 3.36072 0
M  V30 204 H 20.5832 -2.44673 4.31797 0
M  V30 205 H 15.8392 -2.19111 5.70789 0
M  V30 206 H 20.0132 -1.98822 6.67415 0
M  V30 207 H 17.6402 -1.85518 7.37216 0
M  V30 208 N 19.2153 -1.21501 -1.00376 0
M  V30 209 C 20.1483 -0.918669 -2.08892 0
M  V30 210 C 21.1263 0.134277 -1.62045 0
M  V30 211 O 22.3103 0.00504255 -1.88499 0
M  V30 212 C 19.4373 -0.379645 -3.36566 0
M  V30 213 C 18.4833 -1.41559 -4.02323 0
M  V30 214 S 19.3163 -2.98521 -4.44574 0
M  V30 215 C 20.4723 -2.46228 -5.75433 0
M  V30 216 H 20.7053 -1.83761 -2.33707 0
M  V30 217 H 18.2383 -1.04489 -1.13673 0
M  V30 218 H 20.1963 -0.0752195 -4.10431 0
M  V30 219 H 18.8573 0.518008 -3.09799 0
M  V30 220 H 18.0503 -0.988076 -4.9422 0
M  V30 221 H 17.6523 -1.66815 -3.34737 0
M  V30 222 H 19.9443 -1.86791 -6.51241 0
M  V30 223 H 20.8873 -3.36572 -6.22997 0
M  V30 224 H 21.2953 -1.87894 -5.32312 0
M  V30 225 N 20.6934 1.19889 -1.02296 0
M  V30 226 C 21.9184 1.9393 -0.735237 0
M  V30 227 C 22.3434 1.74639 0.698782 0
M  V30 228 O 21.7014 1.04481 1.48167 0
M  V30 229 C 21.7494 3.43916 -1.08417 0
M  V30 230 O 20.8534 4.11917 -0.199446 0
M  V30 231 H 20.1944 0.605645 -0.272196 0
M  V30 232 H 22.7244 1.52137 -1.36804 0
M  V30 233 H 22.7344 3.9456 -1.03856 0
M  V30 234 H 21.4094 3.5728 -2.12894 0
M  V30 235 H 19.9864 3.71666 -0.303136 0
M  V30 236 N 22.1715 0.800033 1.35784 0
M  V30 237 C 23.4485 0.30088 1.93272 0
M  V30 238 C 23.8285 -1.20857 1.73081 0
M  V30 239 O 23.1765 -2.00502 1.09596 0
M  V30 240 C 23.3865 0.70511 3.41803 0
M  V30 241 C 24.7345 0.690871 4.18942 0
M  V30 242 O 25.7585 0.646244 3.50289 0
M  V30 243 O 24.6175 0.74332 5.41421 0
M  V30 244 H 21.7115 0.0771605 0.823393 0
M  V30 245 H 24.2575 0.88329 1.449 0
M  V30 246 H 23.0295 1.74571 3.50201 0
M  V30 247 H 22.6525 0.0971541 3.97481 0
M  V30 248 N 23.6496 -1.47581 0.552962 0
M  V30 249 C 24.5796 -2.32762 -0.185451 0
M  V30 250 C 25.5606 -1.43527 -0.912905 0
M  V30 251 O 26.7456 -1.72388 -0.894201 0
M  V30 252 C 23.8756 -3.25219 -1.21859 0
M  V30 253 C 22.8296 -4.23661 -0.607864 0
M  V30 254 C 22.1556 -5.05413 -1.74533 0
M  V30 255 C 23.4556 -5.20481 0.435582 0
M  V30 256 H 25.1496 -2.94749 0.525684 0
M  V30 257 H 22.6956 -1.41738 0.254251 0
M  V30 258 H 24.6486 -3.8365 -1.7433 0
M  V30 259 H 23.3726 -2.61279 -1.95961 0
M  V30 260 H 22.0316 -3.66451 -0.104489 0
M  V30 261 H 21.6796 -4.3788 -2.47529 0
M  V30 262 H 21.3796 -5.72059 -1.34249 0
M  V30 263 H 22.9036 -5.66701 -2.27338 0
M  V30 264 H 24.3176 -5.733 -0.00290157 0
M  V30 265 H 22.7146 -5.95305 0.757067 0
M  V30 266 H 23.7846 -4.66217 1.33303 0
M  V30 267 N 25.1277 -0.289203 -1.54924 0
M  V30 268 C 26.3757 0.322879 -1.99504 0
M  V30 269 C 26.6967 1.55313 -1.1791 0
M  V30 270 O 25.9667 1.94001 -0.272097 0
M  V30 271 H 24.5467 0.122291 -0.736922 0
M  V30 272 H 27.2087 -0.397802 -1.90797 0
M  V30 273 H 26.3047 0.603061 -3.06218 0
M  V30 274 N 26.6058 1.57591 -0.0167156 0
M  V30 275 C 27.8338 1.95575 0.675128 0
M  V30 276 C 28.2488 0.892542 1.6637 0
M  V30 277 O 27.6058 -0.126912 1.82058 0
M  V30 278 C 27.6568 3.33608 1.39239 0
M  V30 279 O 27.3778 4.3585 0.443444 0
M  V30 280 C 28.8788 3.86151 2.17721 0
M  V30 281 H 26.0988 0.644423 0.186978 0
M  V30 282 H 28.6428 2.0437 -0.0728 0
M  V30 283 H 26.7978 3.2607 2.09182 0
M  V30 284 H 27.2118 5.158 0.951358 0
M  V30 285 H 28.6858 4.85114 2.63379 0
M  V30 286 H 29.1628 3.19738 3.01105 0
M  V30 287 H 29.7688 3.96918 1.52761 0
M  V30 288 N 28.0839 -0.256276 1.55502 0
M  V30 289 C 29.3119 -1.00342 1.8094 0
M  V30 290 C 29.7269 -1.79307 0.59114 0
M  V30 291 O 29.0839 -1.77114 -0.440081 0
M  V30 292 C 29.1349 -1.94875 3.04476 0
M  V30 293 O 28.8559 -1.19107 4.21598 0
M  V30 294 C 30.3569 -2.81266 3.42644 0
M  V30 295 H 27.5769 -0.295685 0.602338 0
M  V30 296 H 30.1209 -0.281998 2.02546 0
M  V30 297 H 28.2759 -2.62457 2.84947 0
M  V30 298 H 28.6899 -1.82969 4.91551 0
M  V30 299 H 30.1639 -3.43362 4.32211 0
M  V30 300 H 30.6409 -3.51897 2.62802 0
M  V30 301 H 31.2469 -2.1915 3.64491 0
M  V30 302 N 29.562 -1.4872 -0.521534 0
M  V30 303 C 30.839 -1.4766 -1.2828 0
M  V30 304 C 31.219 -0.19292 -2.10217 0
M  V30 305 O 30.567 0.825193 -2.13079 0
M  V30 306 C 30.777 -2.74358 -2.15705 0
M  V30 307 C 32.125 -3.23028 -2.75569 0
M  V30 308 O 33.149 -2.75333 -2.25987 0
M  V30 309 O 32.008 -4.0604 -3.65778 0
M  V30 310 H 29.102 -0.590085 -0.579421 0
M  V30 311 H 31.648 -1.60963 -0.537492 0
M  V30 312 H 30.42 -3.59292 -1.54999 0
M  V30 313 H 30.043 -2.63816 -2.97467 0
M  V30 314 N 31.0401 0.771051 -1.3745 0
M  V30 315 C 32.3171 1.519 -1.23231 0
M  V30 316 C 32.6971 2.10383 0.173809 0
M  V30 317 O 32.0451 1.95583 1.18151 0
M  V30 318 C 32.2551 2.59933 -2.32886 0
M  V30 319 C 33.6031 3.27316 -2.70461 0
M  V30 320 O 34.6271 2.70228 -2.32068 0
M  V30 321 O 33.4861 4.30531 -3.36608 0
M  V30 322 H 30.5801 0.672803 -0.480901 0
M  V30 323 H 33.1261 0.807957 -1.49232 0
M  V30 324 H 31.8981 2.14842 -3.27045 0
M  V30 325 H 31.5211 3.38637 -2.08353 0
M  V30 326 N 32.5182 1.22032 0.997298 0
M  V30 327 C 33.7432 1.06921 1.77715 0
M  V30 328 C 34.1682 -0.376226 1.84299 0
M  V30 329 O 33.5262 -1.27165 1.29223 0
M  V30 330 C 33.5742 1.67996 3.19076 0
M  V30 331 O 32.6782 0.930653 4.01762 0
M  V30 332 H 32.0192 0.375814 0.547412 0
M  V30 333 H 34.5492 1.61737 1.25309 0
M  V30 334 H 34.5592 1.72538 3.69723 0
M  V30 335 H 33.2342 2.73182 3.13599 0
M  V30 336 H 31.8112 0.960917 3.60307 0
M  V30 337 N 33.9963 -1.19345 1.0293 0
M  V30 338 C 35.2423 -1.89318 0.727083 0
M  V30 339 C 35.5753 -1.79446 -0.742483 0
M  V30 340 O 34.8503 -1.1871 -1.54072 0
M  V30 341 C 35.1333 -3.40238 1.17942 0
M  V30 342 C 34.9863 -3.58979 2.71024 0
M  V30 343 C 36.3053 -4.33479 0.760548 0
M  V30 344 H 33.4243 -0.687475 0.265606 0
M  V30 345 H 36.0663 -1.40477 1.2793 0
M  V30 346 H 34.2163 -3.81964 0.709608 0
M  V30 347 H 35.8883 -3.26421 3.25955 0
M  V30 348 H 34.1313 -3.02018 3.11396 0
M  V30 349 H 34.8023 -4.64823 2.9773 0
M  V30 350 H 37.2783 -3.99469 1.16464 0
M  V30 351 H 36.1543 -5.37664 1.10493 0
M  V30 352 H 36.4153 -4.40813 -0.337063 0
M  V30 353 N 35.4744 -0.807222 -1.35358 0
M  V30 354 C 36.4374 -0.223665 -2.28106 0
M  V30 355 C 37.4374 0.589354 -1.4961 0
M  V30 356 O 38.6274 0.407745 -1.69361 0
M  V30 357 C 35.7594 0.688149 -3.33882 0
M  V30 358 H 36.9524 -1.04169 -2.81227 0
M  V30 359 H 34.5054 -0.577921 -1.45223 0
M  V30 360 H 35.2404 1.52984 -2.85948 0
M  V30 361 H 35.0254 0.10687 -3.91954 0
M  V30 362 H 36.5154 1.09075 -4.03104 0
M  V30 363 N 36.9525 1.47285 -0.560781 0
M  V30 364 C 37.8845 2.28118 0.222438 0
M  V30 365 C 38.8975 1.37219 0.876056 0
M  V30 366 O 40.0865 1.62011 0.749307 0
M  V30 367 C 37.1865 3.1159 1.33285 0
M  V30 368 C 36.3595 4.30473 0.77534 0
M  V30 369 C 35.4185 4.95513 1.77069 0
M  V30 370 O 34.4445 5.53792 1.31539 0
M  V30 371 N 35.6465 4.90531 3.10418 0
M  V30 372 H 38.4115 2.95976 -0.470958 0
M  V30 373 H 35.9725 1.56955 -0.39709 0
M  V30 374 H 37.9645 3.51967 1.99752 0
M  V30 375 H 36.5345 2.45951 1.92943 0
M  V30 376 H 35.7545 3.94144 -0.0662113 0
M  V30 377 H 37.0425 5.07362 0.382272 0
M  V30 378 H 36.4405 4.44389 3.5005 0
M  V30 379 H 34.9975 5.34917 3.72434 0
M  V30 380 N 38.4306 0.297415 1.54768 0
M  V30 381 C 39.6706 -0.313829 2.01976 0
M  V30 382 C 40.0346 -1.51366 1.1812 0
M  V30 383 O 41.2356 -2.19603 1.5501 0
M  V30 384 C 39.5066 -0.664964 3.51159 0
M  V30 385 S 41.0656 -1.25958 4.20333 0
M  V30 386 H 37.8836 -0.0965014 0.704421 0
M  V30 387 H 40.4856 0.424451 1.90837 0
M  V30 388 H 39.1896 0.21681 4.09827 0
M  V30 389 H 38.7206 -1.43413 3.66328 0
M  V30 390 H 40.7356 -2.54751 4.25813 0
M  V30 391 N 39.9087 -1.5758 0.0250728 0
M  V30 392 C 40.8557 -2.09973 -0.958129 0
M  V30 393 C 41.8257 -1.00085 -1.3256 0
M  V30 394 O 43.0107 -1.27481 -1.41962 0
M  V30 395 C 40.1507 -2.62812 -2.2366 0
M  V30 396 C 39.2637 -3.86693 -1.92594 0
M  V30 397 C 38.3987 -4.27941 -3.14707 0
M  V30 398 C 37.4377 -5.44591 -2.79442 0
M  V30 399 N 36.5747 -5.81014 -3.94167 0
M  V30 400 H 41.4147 -2.937 -0.504428 0
M  V30 401 H 38.9517 -1.45172 -0.237392 0
M  V30 402 H 40.9097 -2.91536 -2.98434 0
M  V30 403 H 39.5397 -1.81922 -2.66654 0
M  V30 404 H 38.5917 -3.64723 -1.0808 0
M  V30 405 H 39.9037 -4.71547 -1.62619 0
M  V30 406 H 39.0577 -4.58079 -3.97804 0
M  V30 407 H 37.7967 -3.41845 -3.4784 0
M  V30 408 H 36.8017 -5.1415 -1.94755 0
M  V30 409 H 38.0267 -6.32382 -2.47528 0
M  V30 410 H 35.9727 -4.97874 -4.2715 0
M  V30 411 H 35.8897 -6.60498 -3.67801 0
M  V30 412 H 37.1577 -6.15756 -4.7798 0
M  V30 413 N 41.3868 0.248026 -1.55636 0
M  V30 414 C 42.6348 0.974295 -1.77065 0
M  V30 415 C 42.9558 1.85897 -0.588849 0
M  V30 416 O 42.2258 1.91868 0.395407 0
M  V30 417 H 40.8058 0.362733 -0.653019 0
M  V30 418 H 43.4678 0.266244 -1.93073 0
M  V30 419 H 42.5638 1.59667 -2.68166 0
M  V30 420 N 42.8649 1.48995 0.513639 0
M  V30 421 C 43.7949 1.67636 1.62544 0
M  V30 422 C 44.7759 0.525087 1.61793 0
M  V30 423 O 45.9609 0.759502 1.78732 0
M  V30 424 C 43.0909 1.73114 3.01079 0
M  V30 425 C 42.0449 2.87905 3.16693 0
M  V30 426 C 41.3709 2.78486 4.56453 0
M  V30 427 C 42.6709 4.29005 2.97913 0
M  V30 428 H 44.3649 2.60716 1.47198 0
M  V30 429 H 41.9109 1.25465 0.706714 0
M  V30 430 H 43.8639 1.84742 3.78746 0
M  V30 431 H 42.5879 0.766241 3.17484 0
M  V30 432 H 41.2469 2.75859 2.41448 0
M  V30 433 H 40.8949 1.7993 4.69717 0
M  V30 434 H 40.5949 3.55523 4.67843 0
M  V30 435 H 42.1189 2.92104 5.36197 0
M  V30 436 H 43.5329 4.41798 3.65359 0
M  V30 437 H 41.9299 5.07166 3.20785 0
M  V30 438 H 42.9999 4.44329 1.94165 0
M  V30 439 N 44.343 -0.763751 1.37857 0
M  V30 440 C 45.276 -1.88486 1.28639 0
M  V30 441 C 46.254 -1.61757 0.165363 0
M  V30 442 O 47.438 -1.85391 0.340948 0
M  V30 443 C 44.565 -3.23884 0.990811 0
M  V30 444 C 43.611 -3.69514 2.12983 0
M  V30 445 S 44.444 -3.82244 3.75033 0
M  V30 446 C 45.6 -5.20477 3.47641 0
M  V30 447 H 45.833 -1.96017 2.23527 0
M  V30 448 H 43.366 -0.925684 1.23574 0
M  V30 449 H 45.324 -4.02081 0.827101 0
M  V30 450 H 43.985 -3.14044 0.0592832 0
M  V30 451 H 43.178 -4.67696 1.87821 0
M  V30 452 H 42.78 -2.98441 2.25408 0
M  V30 453 H 45.072 -6.05905 3.03125 0
M  V30 454 H 46.015 -5.50655 4.4518 0
M  V30 455 H 46.423 -4.88793 2.82385 0
M  V30 456 N 45.8211 -1.22559 -0.990812 0
M  V30 457 C 47.0511 -1.07623 -1.76355 0
M  V30 458 C 47.4591 0.37601 -1.85426 0
M  V30 459 O 46.8021 1.27228 -1.32509 0
M  V30 460 C 46.8641 -1.61507 -3.21179 0
M  V30 461 C 46.5281 -3.10146 -3.35646 0
M  V30 462 C 47.5251 -4.07553 -3.22796 0
M  V30 463 C 45.2101 -3.49644 -3.60631 0
M  V30 464 C 47.2041 -5.42442 -3.34716 0
M  V30 465 C 44.8911 -4.84682 -3.72192 0
M  V30 466 C 45.8891 -5.8089 -3.59243 0
M  V30 467 O 45.5771 -7.13476 -3.70415 0
M  V30 468 H 45.3091 -0.377745 -0.560611 0
M  V30 469 H 47.8631 -1.62658 -1.25425 0
M  V30 470 H 46.0931 -1.00881 -3.73309 0
M  V30 471 H 47.7821 -1.42202 -3.80175 0
M  V30 472 H 48.5481 -3.78381 -3.03403 0
M  V30 473 H 44.4271 -2.75282 -3.69785 0
M  V30 474 H 47.9711 -6.17518 -3.24526 0
M  V30 475 H 43.8681 -5.13534 -3.91092 0
M  V30 476 H 44.6361 -7.21083 -3.87275 0
M  V30 477 N 47.2992 1.18797 -1.03562 0
M  V30 478 C 48.5242 1.9314 -0.755764 0
M  V30 479 C 48.9492 1.7537 0.68022 0
M  V30 480 O 48.3072 1.06046 1.47051 0
M  V30 481 C 48.3552 3.42747 -1.12058 0
M  V30 482 O 47.4592 4.11683 -0.243124 0
M  V30 483 H 46.8002 0.602724 -0.278604 0
M  V30 484 H 49.3302 1.50678 -1.3841 0
M  V30 485 H 49.3402 3.93437 -1.08035 0
M  V30 486 H 48.0152 3.55002 -2.16672 0
M  V30 487 H 46.5922 3.71323 -0.342539 0
M  V30 488 N 48.7773 0.814389 1.34928 0
M  V30 489 C 50.0263 0.394871 1.97797 0
M  V30 490 C 50.3393 -1.04555 1.65311 0
M  V30 491 O 51.5453 -1.56856 2.21604 0
M  V30 492 C 50.0013 0.655103 3.53888 0
M  V30 493 C 49.6093 2.10858 3.95276 0
M  V30 494 C 51.3533 0.301329 4.23429 0
M  V30 495 C 49.2603 2.31415 5.44244 0
M  V30 496 H 48.1903 0.143913 0.740139 0
M  V30 497 H 50.8413 0.999544 1.53888 0
M  V30 498 H 49.2233 -0.0196253 3.95995 0
M  V30 499 H 50.3973 2.82176 3.64298 0
M  V30 500 H 48.7123 2.42297 3.38646 0
M  V30 501 H 51.3093 0.432869 5.32945 0
M  V30 502 H 51.6523 -0.75331 4.09428 0
M  V30 503 H 52.1853 0.930288 3.86769 0
M  V30 504 H 48.9243 3.35353 5.63222 0
M  V30 505 H 48.4443 1.6463 5.76764 0
M  V30 506 H 50.1233 2.13352 6.10811 0
M  V30 507 N 50.2554 -1.46986 0.568584 0
M  V30 508 C 51.4954 -2.04336 0.0512999 0
M  V30 509 C 51.8594 -1.43214 -1.27881 0
M  V30 510 O 53.0604 -1.91679 -1.88448 0
M  V30 511 C 51.3314 -3.57389 -0.0282328 0
M  V30 512 S 52.8904 -4.36056 -0.489991 0
M  V30 513 H 49.7084 -0.71034 0.0306349 0
M  V30 514 H 52.3104 -1.80212 0.757891 0
M  V30 515 H 51.0144 -3.99395 0.944011 0
M  V30 516 H 50.5454 -3.86028 -0.75803 0
M  V30 517 H 52.5604 -4.6441 -1.74752 0
M  V30 518 N 51.7335 -0.305618 -1.54608 0
M  V30 519 C 53.1445 0.186098 -1.8577 0
M  V30 520 C 53.4955 1.53058 -1.22751 0
M  V30 521 O 52.6205 2.09888 -0.526893 0
M  V30 522 C 53.2155 0.344449 -3.37044 0
M  V30 523 C 51.7745 0.780384 -3.68221 0
M  V30 524 C 50.9215 -0.108554 -2.77087 0
M  V30 525 H 53.8725 -0.526485 -1.49712 0
M  V30 526 H 53.8935 1.17828 -3.61796 0
M  V30 527 H 53.4055 -0.634235 -3.82883 0
M  V30 528 H 51.5065 1.76945 -3.27904 0
M  V30 529 H 51.6195 0.596572 -4.75371 0
M  V30 530 H 49.9835 0.412931 -2.5133 0
M  V30 531 H 50.7665 -1.08368 -3.25747 0
M  V30 532 N 53.2116 1.57565 -0.0334293 0
M  V30 533 C 54.4886 1.83282 0.683163 0
M  V30 534 C 54.8686 0.91823 1.90084 0
M  V30 535 O 54.2166 -0.025113 2.28486 0
M  V30 536 C 54.4266 3.32599 1.0573 0
M  V30 537 C 55.7746 3.99179 1.44711 0
M  V30 538 O 56.7986 3.3712 1.15015 0
M  V30 539 O 55.6576 5.08565 2.0006 0
M  V30 540 H 52.7516 0.755869 0.335546 0
M  V30 541 H 55.2976 1.69589 -0.0614402 0
M  V30 542 H 54.0696 3.90834 0.190828 0
M  V30 543 H 53.6926 3.51415 1.85993 0
M  V30 544 N 54.6897 -0.239769 1.55765 0
M  V30 545 C 55.9357 -0.968234 1.78194 0
M  V30 546 C 56.2687 -1.84701 0.599938 0
M  V30 547 O 55.5437 -1.9031 -0.401524 0
M  V30 548 C 55.8267 -1.8227 3.10564 0
M  V30 549 C 55.6797 -0.971633 4.3918 0
M  V30 550 C 56.9987 -2.80388 3.39221 0
M  V30 551 H 54.1177 -0.350572 0.648281 0
M  V30 552 H 56.7597 -0.238259 1.885 0
M  V30 553 H 54.9097 -2.44507 3.01908 0
M  V30 554 H 56.5817 -0.367408 4.59835 0
M  V30 555 H 54.8247 -0.276276 4.32919 0
M  V30 556 H 55.4957 -1.60346 5.28198 0
M  V30 557 H 57.9717 -2.28287 3.47885 0
M  V30 558 H 56.8477 -3.3729 4.33044 0
M  V30 559 H 57.1087 -3.57212 2.60484 0
M  V30 560 N 56.1678 -1.49265 -0.50573 0
M  V30 561 C 57.3958 -1.62215 -1.28429 0
M  V30 562 C 57.8108 -0.291697 -1.86533 0
M  V30 563 O 57.1678 0.722233 -1.67601 0
M  V30 564 C 57.2188 -2.68735 -2.41793 0
M  V30 565 O 56.9398 -3.96619 -1.86078 0
M  V30 566 C 58.4408 -2.92346 -3.3324 0
M  V30 567 H 55.6608 -0.546239 -0.389697 0
M  V30 568 H 58.2048 -1.95265 -0.607609 0
M  V30 569 H 56.3598 -2.38476 -3.053 0
M  V30 570 H 56.7738 -4.55256 -2.60465 0
M  V30 571 H 58.2478 -3.70623 -4.09075 0
M  V30 572 H 58.7248 -2.02081 -3.89948 0
M  V30 573 H 59.3308 -3.24003 -2.75503 0
M  V30 574 N 57.6459 0.756429 -1.3826 0
M  V30 575 C 58.8919 1.51772 -1.34511 0
M  V30 576 C 59.2249 1.94089 0.0656691 0
M  V30 577 O 58.4999 1.65221 1.02626 0
M  V30 578 C 58.7829 2.77226 -2.29821 0
M  V30 579 C 58.6359 2.41065 -3.79747 0
M  V30 580 C 59.9549 3.79236 -2.23312 0
M  V30 581 H 57.0739 0.550578 -0.489931 0
M  V30 582 H 59.7159 0.866607 -1.69086 0
M  V30 583 H 57.8659 3.32784 -2.00467 0
M  V30 584 H 59.5379 1.91303 -4.19763 0
M  V30 585 H 57.7809 1.7356 -3.97567 0
M  V30 586 H 58.4519 3.3081 -4.41892 0
M  V30 587 H 60.9279 3.3321 -2.49219 0
M  V30 588 H 59.8039 4.64714 -2.92116 0
M  V30 589 H 60.0649 4.24615 -1.23102 0
M  V30 590 N 59.124 1.23083 0.984299 0
M  V30 591 C 60.37 1.06214 1.72761 0
M  V30 592 C 60.703 -0.400584 1.90024 0
M  V30 593 O 59.978 -1.29672 1.44967 0
M  V30 594 C 60.261 1.78375 3.12817 0
M  V30 595 C 60.114 3.32296 3.03149 0
M  V30 596 C 61.433 1.54309 4.12161 0
M  V30 597 H 58.552 0.387251 0.627061 0
M  V30 598 H 61.194 1.51536 1.14616 0
M  V30 599 H 59.344 1.39848 3.62457 0
M  V30 600 H 61.016 3.8032 2.61064 0
M  V30 601 H 59.259 3.6153 2.39747 0
M  V30 602 H 59.93 3.77972 4.02295 0
M  V30 603 H 62.406 1.87791 3.71314 0
M  V30 604 H 61.282 2.07281 5.08258 0
M  V30 605 H 61.543 0.477572 4.39513 0
M  V30 606 N 60.6021 -1.18246 1.0419 0
M  V30 607 C 61.8791 -1.84121 0.660208 0
M  V30 608 C 62.2591 -1.92778 -0.860221 0
M  V30 609 O 61.6071 -1.45464 -1.76217 0
M  V30 610 C 61.8171 -3.22355 1.33747 0
M  V30 611 C 63.1651 -3.98376 1.46906 0
M  V30 612 O 64.1891 -3.31799 1.29568 0
M  V30 613 O 63.0481 -5.17665 1.75171 0
M  V30 614 H 60.1421 -0.794036 0.231161 0
M  V30 615 H 62.6881 -1.25628 1.14087 0
M  V30 616 H 61.4601 -3.10964 2.37522 0
M  V30 617 H 61.0831 -3.88506 0.845515 0
M  V30 618 N 62.0802 -0.821533 -1.34494 0
M  V30 619 C 63.3262 -0.409552 -1.98622 0
M  V30 620 C 63.6592 1.0244 -1.64984 0
M  V30 621 O 62.9342 1.71325 -0.920758 0
M  V30 622 C 63.2172 -0.610458 -3.54888 0
M  V30 623 C 63.0702 -2.09043 -3.98273 0
M  V30 624 C 64.3892 -0.0455379 -4.40076 0
M  V30 625 H 61.5082 -0.15028 -0.721516 0
M  V30 626 H 64.1502 -1.03384 -1.59411 0
M  V30 627 H 62.3002 -0.079044 -3.8842 0
M  V30 628 H 63.9722 -2.68537 -3.75081 0
M  V30 629 H 62.2152 -2.58139 -3.48635 0
M  V30 630 H 62.8862 -2.18182 -5.07051 0
M  V30 631 H 65.3622 -0.499557 -4.1309 0
M  V30 632 H 64.2382 -0.215922 -5.48475 0
M  V30 633 H 64.4992 1.04939 -4.29465 0
M  V30 634 N 63.5583 1.46682 -0.576371 0
M  V30 635 C 64.7983 2.04306 -0.0621356 0
M  V30 636 C 65.1623 1.4389 1.2712 0
M  V30 637 O 66.3633 1.92675 1.87429 0
M  V30 638 C 64.6343 3.57399 0.00927922 0
M  V30 639 S 66.1933 4.36309 0.466859 0
M  V30 640 H 63.0113 0.710167 -0.0344016 0
M  V30 641 H 65.6133 1.79807 -0.767437 0
M  V30 642 H 64.3173 3.98889 -0.965178 0
M  V30 643 H 63.8483 3.86424 0.737547 0
M  V30 644 H 65.8633 4.6533 1.72287 0
M  V30 645 N 65.0364 0.313813 1.54444 0
M  V30 646 C 65.9864 -0.571898 2.20711 0
M  V30 647 C 66.9704 -1.08913 1.18435 0
M  V30 648 O 68.1624 -1.02777 1.44104 0
M  V30 649 C 65.2914 -1.7371 2.96108 0
M  V30 650 C 64.3774 -1.23522 4.05713 0
M  V30 651 N 64.7684 -0.452288 5.03774 0
M  V30 652 C 63.0664 -1.51482 4.19487 0
M  V30 653 C 63.7674 -0.183438 5.81411 0
M  V30 654 N 62.7434 -0.766845 5.38164 0
M  V30 655 H 66.5454 0.0336802 2.93881 0
M  V30 656 H 64.0594 0.119192 1.61962 0
M  V30 657 H 66.0564 -2.38329 3.4206 0
M  V30 658 H 64.7164 -2.34625 2.24458 0
M  V30 659 H 65.7274 -0.0960131 5.17811 0
M  V30 660 H 62.4044 -2.13053 3.59047 0
M  V30 661 H 63.7944 0.446216 6.70417 0
M  V30 662 N 66.5145 -1.57545 0.0417849 0
M  V30 663 C 67.7395 -1.97035 -0.647455 0
M  V30 664 C 68.1645 -0.918775 -1.64135 0
M  V30 665 O 67.5225 0.119006 -1.80909 0
M  V30 666 C 67.5705 -3.35609 -1.31905 0
M  V30 667 O 66.6745 -3.3287 -2.43457 0
M  V30 668 H 66.0155 -0.64211 -0.169086 0
M  V30 669 H 68.5455 -2.04318 0.107399 0
M  V30 670 H 68.5555 -3.72126 -1.67291 0
M  V30 671 H 67.2305 -4.11685 -0.590586 0
M  V30 672 H 65.8075 -3.08087 -2.10088 0
M  V30 673 N 67.9926 0.231505 -1.5589 0
M  V30 674 C 68.9256 1.31369 -1.86595 0
M  V30 675 C 69.9036 1.45671 -0.722397 0
M  V30 676 O 71.0876 1.61642 -0.969743 0
M  V30 677 C 68.2146 2.68529 -2.06421 0
M  V30 678 C 67.2606 2.71295 -3.29092 0
M  V30 679 S 68.0936 2.26358 -4.85306 0
M  V30 680 C 69.2496 3.65414 -5.08157 0
M  V30 681 H 69.4826 1.05128 -2.78092 0
M  V30 682 H 67.0156 0.433259 -1.48197 0
M  V30 683 H 68.9736 3.47499 -2.18528 0
M  V30 684 H 67.6346 2.91999 -1.15738 0
M  V30 685 H 66.8276 3.72063 -3.39978 0
M  V30 686 H 66.4296 2.0038 -3.15791 0
M  V30 687 H 68.7216 4.6103 -4.96445 0
M  V30 688 H 69.6646 3.5945 -6.10083 0
M  V30 689 H 70.0726 3.5864 -4.35933 0
M  V30 690 N 69.4707 1.49531 0.497807 0
M  V30 691 C 70.6987 1.62893 1.27567 0
M  V30 692 C 71.1137 0.301585 1.86376 0
M  V30 693 O 70.4707 -0.713335 1.67982 0
M  V30 694 C 70.5217 2.70013 2.40364 0
M  V30 695 O 70.2427 3.976 1.83972 0
M  V30 696 C 71.7437 2.94109 3.31685 0
M  V30 697 H 68.9637 0.548298 0.386794 0
M  V30 698 H 71.5077 1.95584 0.597245 0
M  V30 699 H 69.6627 2.40092 3.04031 0
M  V30 700 H 70.0767 4.56631 2.58047 0
M  V30 701 H 71.5507 3.72788 4.07104 0
M  V30 702 H 72.0277 2.04147 3.88871 0
M  V30 703 H 72.6337 3.2546 2.73781 0
M  V30 704 N 70.9488 -0.749086 1.3866 0
M  V30 705 C 72.3598 -1.32664 1.31366 0
M  V30 706 C 72.7108 -1.96179 -0.028484 0
M  V30 707 O 71.8358 -1.9537 -0.93057 0
M  V30 708 C 72.4308 -2.41219 2.37905 0
M  V30 709 C 70.9898 -2.94684 2.34176 0
M  V30 710 C 70.1368 -1.68108 2.20533 0
M  V30 711 H 73.0878 -0.547628 1.48952 0
M  V30 712 H 73.1088 -3.21268 2.0388 0
M  V30 713 H 72.6208 -1.94962 3.35576 0
M  V30 714 H 70.7218 -3.45258 1.401 0
M  V30 715 H 70.8348 -3.48757 3.2849 0
M  V30 716 H 69.1988 -1.91907 1.67463 0
M  V30 717 H 69.9818 -1.23923 3.20153 0
M  V30 718 N 72.4269 -1.23603 -0.977757 0
M  V30 719 C 73.6729 -1.08136 -1.72274 0
M  V30 720 C 74.0279 0.377453 -1.88661 0
M  V30 721 O 73.3209 1.27552 -1.42972 0
M  V30 722 C 73.5149 -1.7433 -3.11999 0
M  V30 723 C 73.3439 -3.26498 -3.0924 0
M  V30 724 C 72.1139 -3.9567 -3.14282 0
M  V30 725 C 74.3119 -4.2323 -2.92201 0
M  V30 726 N 72.2939 -5.34799 -3.01436 0
M  V30 727 C 73.6649 -5.49289 -2.87544 0
M  V30 728 C 75.7199 -4.13931 -2.76705 0
M  V30 729 C 74.4229 -6.67116 -2.68978 0
M  V30 730 C 76.4489 -5.31424 -2.59504 0
M  V30 731 C 75.8109 -6.5641 -2.55548 0
M  V30 732 H 71.9099 -0.450247 -0.639376 0
M  V30 733 H 74.4939 -1.5637 -1.16002 0
M  V30 734 H 72.6649 -1.28624 -3.66484 0
M  V30 735 H 74.3969 -1.51815 -3.75146 0
M  V30 736 H 71.1519 -3.46767 -3.22567 0
M  V30 737 H 71.5759 -6.07748 -2.98281 0
M  V30 738 H 76.2179 -3.1807 -2.78552 0
M  V30 739 H 73.9359 -7.63109 -2.65876 0
M  V30 740 H 77.5219 -5.26072 -2.48474 0
M  V30 741 H 76.4019 -7.45795 -2.42405 0
M  V30 742 N 73.905 1.17692 -1.04816 0
M  V30 743 C 75.182 1.83768 -0.669963 0
M  V30 744 C 75.562 1.93232 0.849986 0
M  V30 745 O 74.91 1.46397 1.75443 0
M  V30 746 C 75.12 3.21641 -1.35455 0
M  V30 747 C 76.468 3.97592 -1.49017 0
M  V30 748 O 77.492 3.31107 -1.31326 0
M  V30 749 O 76.351 5.16729 -1.77914 0
M  V30 750 H 73.445 0.792799 -0.235368 0
M  V30 751 H 75.991 1.25021 -1.14751 0
M  V30 752 H 74.763 3.097 -2.39168 0
M  V30 753 H 74.386 3.88052 -0.866107 0
M  V30 754 N 75.3831 0.828654 1.34056 0
M  V30 755 C 76.6291 0.42008 1.98402 0
M  V30 756 C 76.9621 -1.01564 1.65525 0
M  V30 757 O 76.2371 -1.70834 0.929831 0
M  V30 758 C 76.5201 0.62927 3.54559 0
M  V30 759 C 76.3731 2.11152 3.97159 0
M  V30 760 C 77.6921 0.0688756 4.40046 0
M  V30 761 H 74.8111 0.154104 0.720709 0
M  V30 762 H 77.4531 1.04228 1.5886 0
M  V30 763 H 75.6031 0.0996418 3.88372 0
M  V30 764 H 77.2751 2.70522 3.73651 0
M  V30 765 H 75.5181 2.59985 3.47261 0
M  V30 766 H 76.1891 2.20868 5.05887 0
M  V30 767 H 78.6651 0.521458 4.1282 0
M  V30 768 H 77.5411 0.245006 5.48353 0
M  V30 769 H 77.8021 -1.0266 4.30015 0
M  V30 770 N 76.8612 -1.46375 0.584142 0
M  V30 771 C 77.7712 -2.34115 -0.150728 0
M  V30 772 C 78.7872 -1.49838 -0.884567 0
M  V30 773 O 79.9632 -1.82704 -0.847429 0
M  V30 774 C 77.0282 -3.2705 -1.15062 0
M  V30 775 C 76.0892 -4.27228 -0.421293 0
M  V30 776 C 75.3222 -5.15722 -1.37355 0
M  V30 777 O 75.5452 -5.07176 -2.61014 0
M  V30 778 O 74.4792 -5.95383 -0.883355 0
M  V30 779 H 78.3052 -2.98309 0.569708 0
M  V30 780 H 75.8902 -1.45373 0.344535 0
M  V30 781 H 77.7722 -3.84381 -1.72712 0
M  V30 782 H 76.4472 -2.65451 -1.8525 0
M  V30 783 H 75.3542 -3.7358 0.197085 0
M  V30 784 H 76.6872 -4.91616 0.239641 0
M  V30 785 N 78.3393 -0.321999 -1.54275 0
M  V30 786 C 79.2493 0.553631 -2.27974 0
M  V30 787 C 80.2653 1.13054 -1.32268 0
M  V30 788 O 81.4413 1.15084 -1.6528 0
M  V30 789 C 78.5063 1.69927 -3.02201 0
M  V30 790 C 77.5673 1.15433 -4.1349 0
M  V30 791 C 76.8003 2.24537 -4.84168 0
M  V30 792 O 77.0233 3.44852 -4.5435 0
M  V30 793 O 75.9573 1.90044 -5.7111 0
M  V30 794 H 79.7833 -0.0448345 -3.03667 0
M  V30 795 H 77.3683 -0.0877418 -1.49142 0
M  V30 796 H 79.2503 2.3663 -3.48689 0
M  V30 797 H 77.9253 2.28395 -2.29385 0
M  V30 798 H 76.8323 0.452436 -3.71354 0
M  V30 799 H 78.1653 0.614805 -4.88345 0
M  V30 800 N 79.8174 1.5752 -0.0501392 0
M  V30 801 C 81.0654 1.9227 0.622642 0
M  V30 802 C 81.3864 0.929083 1.71444 0
M  V30 803 O 80.6564 -0.0262186 1.95882 0
M  V30 804 H 79.2364 0.709739 0.232981 0
M  V30 805 H 81.8984 1.94628 -0.102898 0
M  V30 806 H 80.9944 2.93479 1.06191 0
M  V30 807 N 81.2955 -0.223234 1.56011 0
M  V30 808 C 82.2585 -1.26014 1.9145 0
M  V30 809 C 83.2585 -1.3989 0.792937 0
M  V30 810 O 84.4485 -1.38184 1.0607 0
M  V30 811 C 81.5805 -2.63422 2.16383 0
M  V30 812 H 82.7735 -0.95796 2.84189 0
M  V30 813 H 80.3265 -0.463576 1.49267 0
M  V30 814 H 81.0615 -2.98741 1.2619 0
M  V30 815 H 80.8465 -2.54728 2.98088 0
M  V30 816 H 82.3365 -3.38249 2.44903 0
M  V30 817 N 82.7736 -1.49793 -0.48987 0
M  V30 818 C 84.1896 -1.36803 -0.822022 0
M  V30 819 C 84.3896 -0.409652 -1.97292 0
M  V30 820 O 83.4456 0.154614 -2.52026 0
M  V30 821 C 84.7586 -2.77768 -1.15175 0
M  V30 822 C 86.3066 -2.86549 -1.25931 0
M  V30 823 C 86.7816 -4.28306 -1.62228 0
M  V30 824 N 88.2726 -4.31169 -1.69256 0
M  V30 825 C 89.0076 -5.37832 -1.98807 0
M  V30 826 N 88.5036 -6.54726 -2.26507 0
M  V30 827 N 90.2966 -5.25258 -2.00152 0
M  V30 828 H 82.4476 -2.10691 0.268881 0
M  V30 829 H 84.7106 -0.946241 0.057728 0
M  V30 830 H 84.4166 -3.49648 -0.379335 0
M  V30 831 H 84.2906 -3.13836 -2.09253 0
M  V30 832 H 86.6776 -2.14899 -2.02243 0
M  V30 833 H 86.7586 -2.54049 -0.298776 0
M  V30 834 H 86.4026 -5.00486 -0.864622 0
M  V30 835 H 86.3326 -4.58279 -2.594 0
M  V30 836 H 88.8236 -3.4687 -1.49965 0
M  V30 837 H 89.1366 -7.31833 -2.48276 0
M  V30 838 H 87.4816 -6.57933 -2.23939 0
M  V30 839 H 90.6726 -4.32938 -1.77996 0
M  V30 840 H 90.8456 -6.08476 -2.22848 0
M  V30 841 N 84.2517 0.741722 -1.39055 0
M  V30 842 C 85.4817 1.52876 -1.3897 0
M  V30 843 C 85.8897 1.8919 0.0193266 0
M  V30 844 O 85.2327 1.54138 0.999356 0
M  V30 845 C 85.2947 2.84929 -2.19216 0
M  V30 846 C 84.9587 2.71086 -3.67915 0
M  V30 847 C 85.9557 2.40084 -4.61146 0
M  V30 848 C 83.6407 2.88168 -4.11418 0
M  V30 849 C 85.6347 2.26335 -5.95862 0
M  V30 850 C 83.3217 2.74037 -5.46211 0
M  V30 851 C 84.3197 2.43166 -6.38247 0
M  V30 852 O 84.0077 2.29115 -7.70559 0
M  V30 853 H 83.7397 0.479252 -0.476753 0
M  V30 854 H 86.2937 0.924751 -1.83405 0
M  V30 855 H 84.5237 3.47564 -1.69518 0
M  V30 856 H 86.2127 3.46509 -2.11392 0
M  V30 857 H 86.9787 2.26545 -4.28838 0
M  V30 858 H 82.8577 3.11191 -3.40119 0
M  V30 859 H 86.4017 2.0216 -6.67665 0
M  V30 860 H 82.2987 2.87153 -5.78112 0
M  V30 861 H 83.0667 2.44237 -7.81211 0
M  V30 862 N 85.7298 1.2412 0.971189 0
M  V30 863 C 86.9788 1.07284 1.70801 0
M  V30 864 C 87.2918 -0.388902 1.91695 0
M  V30 865 O 88.4978 -0.677379 2.62914 0
M  V30 866 C 86.9538 1.87145 3.07416 0
M  V30 867 C 86.5618 3.37707 2.94377 0
M  V30 868 C 88.3058 1.78828 3.84995 0
M  V30 869 C 86.2128 4.09925 4.26281 0
M  V30 870 H 85.1428 0.397854 0.64049 0
M  V30 871 H 87.7938 1.4817 1.0825 0
M  V30 872 H 86.1758 1.39071 3.70777 0
M  V30 873 H 87.3498 3.93335 2.4005 0
M  V30 874 H 85.6648 3.46938 2.30267 0
M  V30 875 H 88.2618 2.30089 4.82662 0
M  V30 876 H 88.6048 0.75284 4.09436 0
M  V30 877 H 89.1378 2.24563 3.28354 0
M  V30 878 H 85.8768 5.13813 4.07033 0
M  V30 879 H 85.3968 3.59083 4.80437 0
M  V30 880 H 87.0758 4.1673 4.94919 0
M  V30 881 N 87.2079 -1.17134 1.05439 0
M  V30 882 C 88.4539 -1.87733 0.767077 0
M  V30 883 C 88.7869 -1.8098 -0.704253 0
M  V30 884 O 88.0619 -1.21951 -1.5152 0
M  V30 885 C 88.3449 -3.37659 1.25133 0
M  V30 886 C 88.1979 -3.53149 2.78578 0
M  V30 887 C 89.5169 -4.31768 0.852324 0
M  V30 888 H 86.6359 -0.681687 0.280129 0
M  V30 889 H 89.2779 -1.37732 1.30881 0
M  V30 890 H 87.4279 -3.80373 0.790469 0
M  V30 891 H 89.0999 -3.19434 3.32806 0
M  V30 892 H 87.3429 -2.95345 3.17732 0
M  V30 893 H 88.0139 -4.58403 3.07523 0
M  V30 894 H 90.4899 -3.96909 1.24911 0
M  V30 895 H 89.3659 -5.35199 1.21873 0
M  V30 896 H 89.6269 -4.41429 -0.243485 0
M  V30 897 N 88.686 -0.835752 -1.33615 0
M  V30 898 C 89.963 -0.352017 -1.92406 0
M  V30 899 C 90.343 1.16225 -1.76224 0
M  V30 900 O 89.691 1.97526 -1.14873 0
M  V30 901 C 89.901 -0.795485 -3.39813 0
M  V30 902 C 91.249 -0.801703 -4.16963 0
M  V30 903 O 92.273 -0.738889 -3.48452 0
M  V30 904 O 91.132 -0.886607 -5.3926 0
M  V30 905 H 88.226 -0.0989641 -0.821057 0
M  V30 906 H 90.772 -0.921397 -1.42507 0
M  V30 907 H 89.544 -1.83795 -3.45449 0
M  V30 908 H 89.167 -0.202505 -3.97084 0
M  V30 909 N 90.1641 1.46063 -0.591896 0
M  V30 910 C 91.0941 2.33172 0.123673 0
M  V30 911 C 92.0751 1.45897 0.87453 0
M  V30 912 O 93.2601 1.74698 0.848181 0
M  V30 913 C 90.3901 3.28336 1.13194 0
M  V30 914 C 89.3441 4.25124 0.495324 0
M  V30 915 C 88.6701 5.09863 1.61071 0
M  V30 916 C 89.9701 5.19143 -0.573425 0
M  V30 917 H 91.6641 2.93252 -0.603646 0
M  V30 918 H 89.2101 1.41014 -0.291741 0
M  V30 919 H 91.1631 3.88137 1.64097 0
M  V30 920 H 89.8871 2.66383 1.88965 0
M  V30 921 H 88.5461 3.66599 0.00729452 0
M  V30 922 H 88.1941 4.44288 2.35832 0
M  V30 923 H 87.8941 5.75417 1.19035 0
M  V30 924 H 89.4181 5.72529 2.12233 0
M  V30 925 H 90.8321 5.73106 -0.1491 0
M  V30 926 H 89.2291 5.93089 -0.914636 0
M  V30 927 H 90.2991 4.62519 -1.45617 0
M  V30 928 N 91.6422 0.330177 1.54103 0
M  V30 929 C 93.0532 -0.15652 1.86043 0
M  V30 930 C 93.4042 -1.51086 1.2517 0
M  V30 931 O 92.5292 -2.09023 0.560217 0
M  V30 932 C 93.1242 -0.290784 3.3755 0
M  V30 933 C 91.6832 -0.721705 3.69416 0
M  V30 934 C 90.8302 0.152622 2.7688 0
M  V30 935 H 93.7812 0.550237 1.48856 0
M  V30 936 H 93.8022 -1.12058 3.63625 0
M  V30 937 H 93.3142 0.695068 3.81825 0
M  V30 938 H 91.4152 -1.71706 3.30678 0
M  V30 939 H 91.5282 -0.520869 4.7626 0
M  V30 940 H 89.8922 -0.372894 2.51956 0
M  V30 941 H 90.6752 1.13536 3.23982 0
M  V30 942 N 93.1203 -1.57491 0.0584922 0
M  V30 943 C 94.5363 -1.56792 -0.298091 0
M  V30 944 C 94.7363 -1.06679 -1.70944 0
M  V30 945 O 93.7923 -0.726672 -2.41818 0
M  V30 946 C 95.1053 -3.00461 -0.119879 0
M  V30 947 C 96.6533 -3.1242 -0.190428 0
M  V30 948 C 97.1283 -4.57982 -0.0406567 0
M  V30 949 N 98.6193 -4.63099 -0.0966958 0
M  V30 950 C 99.3543 -5.734 -0.00502943 0
M  V30 951 N 98.8503 -6.9266 0.139402 0
M  V30 952 N 100.643 -5.62067 -0.0611391 0
M  V30 953 H 92.7943 -1.88386 0.98105 0
M  V30 954 H 95.0573 -0.867865 0.381463 0
M  V30 955 H 94.7633 -3.41187 0.85349 0
M  V30 956 H 94.6373 -3.66843 -0.877833 0
M  V30 957 H 97.0243 -2.71589 -1.15427 0
M  V30 958 H 97.1053 -2.48702 0.598405 0
M  V30 959 H 96.7493 -4.995 0.919897 0
M  V30 960 H 96.6793 -5.19715 -0.848727 0
M  V30 961 H 99.1703 -3.77331 -0.207277 0
M  V30 962 H 99.4833 -7.72536 0.201855 0
M  V30 963 H 97.8283 -6.94781 0.174586 0
M  V30 964 H 101.019 -4.67782 -0.172583 0
M  V30 965 H 101.192 -6.47999 0.0137562 0
M  V30 966 N 94.5984 0.214957 -1.56127 0
M  V30 967 C 95.8454 0.938372 -1.79446 0
M  V30 968 C 96.1734 1.8407 -0.628378 0
M  V30 969 O 95.4284 1.91837 0.386925 0
M  V30 970 C 95.7274 1.80314 -3.0858 0
M  V30 971 C 95.3934 1.05349 -4.3842 0
M  V30 972 C 94.0554 0.846435 -4.73697 0
M  V30 973 C 96.4074 0.524588 -5.18553 0
M  V30 974 C 93.7354 0.098683 -5.86617 0
M  V30 975 C 96.0874 -0.209853 -6.32252 0
M  V30 976 C 94.7514 -0.428102 -6.66126 0
M  V30 977 H 94.0214 0.343375 -0.656639 0
M  V30 978 H 96.6684 0.206077 -1.90388 0
M  V30 979 H 94.9734 2.6035 -2.92789 0
M  V30 980 H 96.6704 2.36513 -3.23825 0
M  V30 981 H 93.2604 1.22486 -4.10725 0
M  V30 982 H 97.4444 0.672008 -4.91729 0
M  V30 983 H 92.7004 -0.0805753 -6.11347 0
M  V30 984 H 96.8744 -0.627157 -6.9357 0
M  V30 985 H 94.5014 -1.00944 -7.53468 0
M  V30 986 N 96.0765 1.50051 0.48192 0
M  V30 987 C 97.3235 1.60498 1.23477 0
M  V30 988 C 97.6515 0.300331 1.92167 0
M  V30 989 O 96.9065 -0.713094 1.82246 0
M  V30 990 C 97.2055 2.72717 2.30998 0
M  V30 991 C 96.8715 4.13572 1.79636 0
M  V30 992 C 95.5335 4.519 1.65348 0
M  V30 993 C 97.8855 5.01649 1.41412 0
M  V30 994 C 95.2135 5.76057 1.11244 0
M  V30 995 C 97.5655 6.26343 0.887538 0
M  V30 996 C 96.2295 6.63483 0.731207 0
M  V30 997 H 95.4995 0.587303 0.451836 0
M  V30 998 H 98.1465 1.83948 0.532468 0
M  V30 999 H 96.4515 2.43312 3.07094 0
M  V30 1000 H 98.1485 2.78006 2.88988 0
M  V30 1001 H 94.7385 3.83329 1.91721 0
M  V30 1002 H 98.9225 4.72679 1.51289 0
M  V30 1003 H 94.1785 6.03516 0.978686 0
M  V30 1004 H 98.3525 6.93958 0.582654 0
M  V30 1005 H 95.9795 7.59568 0.309806 0
M  V30 1006 N 97.5546 -0.734337 1.39446 0
M  V30 1007 C 98.9656 -1.31264 1.32766 0
M  V30 1008 C 99.3166 -1.96198 -0.00767497 0
M  V30 1009 O 98.4416 -1.96346 -0.909796 0
M  V30 1010 C 99.0366 -2.38682 2.4045 0
M  V30 1011 C 97.5956 -2.92184 2.37288 0
M  V30 1012 C 96.7426 -1.6576 2.22304 0
M  V30 1013 H 99.6936 -0.531799 1.49525 0
M  V30 1014 H 99.7146 -3.19087 2.07276 0
M  V30 1015 H 99.2266 -1.91392 3.37625 0
M  V30 1016 H 97.3276 -3.43752 1.43754 0
M  V30 1017 H 97.4406 -3.45253 3.3217 0
M  V30 1018 H 95.8046 -1.9012 1.69489 0
M  V30 1019 H 96.5876 -1.20521 3.21449 0
M  V30 1020 N 99.0327 -1.24633 -0.964593 0
M  V30 1021 C 99.9427 -1.05859 -2.09359 0
M  V30 1022 C 100.959 0.00148855 -1.74 0
M  V30 1023 O 102.135 -0.197346 -2.00431 0
M  V30 1024 C 99.1997 -0.668879 -3.40187 0
M  V30 1025 C 98.2607 -1.80578 -3.89474 0
M  V30 1026 C 97.4937 -1.43457 -5.14058 0
M  V30 1027 O 97.7167 -0.325775 -5.69469 0
M  V30 1028 O 96.6507 -2.2613 -5.57807 0
M  V30 1029 H 100.477 -2.00516 -2.28094 0
M  V30 1030 H 98.0617 -1.03481 -1.0776 0
M  V30 1031 H 99.9437 -0.463211 -4.18846 0
M  V30 1032 H 98.6187 0.248536 -3.22744 0
M  V30 1033 H 97.5257 -2.06623 -3.11862 0
M  V30 1034 H 98.8587 -2.70208 -4.11398 0
M  V30 1035 N 100.511 1.16574 -1.06058 0
M  V30 1036 C 101.759 1.86677 -0.77434 0
M  V30 1037 C 102.08 1.81959 0.701147 0
M  V30 1038 O 101.35 1.2515 1.50713 0
M  V30 1039 H 99.9298 0.691134 -0.283449 0
M  V30 1040 H 102.592 1.41378 -1.34158 0
M  V30 1041 H 101.688 2.92181 -1.09711 0
M  V30 1042 N 101.989 0.842826 1.3317 0
M  V30 1043 C 103.217 0.454055 2.01856 0
M  V30 1044 C 103.632 -0.94587 1.63397 0
M  V30 1045 O 102.989 -1.61534 0.849302 0
M  V30 1046 C 103.04 0.569715 3.56982 0
M  V30 1047 O 102.761 1.91448 3.94055 0
M  V30 1048 C 104.262 0.178412 4.42941 0
M  V30 1049 H 101.482 0.17979 0.646465 0
M  V30 1050 H 104.026 1.1365 1.70012 0
M  V30 1051 H 102.181 -0.0648587 3.87346 0
M  V30 1052 H 102.595 1.90282 4.88767 0
M  V30 1053 H 104.069 0.310376 5.51127 0
M  V30 1054 H 104.546 -0.880056 4.30293 0
M  V30 1055 H 105.152 0.787579 4.17944 0
M  V30 1056 N 103.467 -1.45747 0.599634 0
M  V30 1057 C 104.713 -2.02592 0.0918643 0
M  V30 1058 C 105.046 -1.46806 -1.27128 0
M  V30 1059 O 104.321 -0.639658 -1.83681 0
M  V30 1060 C 104.604 -3.60073 0.0443398 0
M  V30 1061 C 104.457 -4.26208 1.43759 0
M  V30 1062 C 105.776 -4.35309 -0.647608 0
M  V30 1063 H 102.895 -0.736175 0.034857 0
M  V30 1064 H 105.537 -1.73694 0.770081 0
M  V30 1065 H 103.687 -3.84823 -0.533224 0
M  V30 1066 H 105.359 -4.12668 2.06162 0
M  V30 1067 H 103.602 -3.84916 2.00056 0
M  V30 1068 H 104.273 -5.35069 1.35665 0
M  V30 1069 H 106.749 -4.15805 -0.156776 0
M  V30 1070 H 105.625 -5.45038 -0.649942 0
M  V30 1071 H 105.886 -4.07598 -1.71219 0
M  V30 1072 N 104.945 -0.338344 -1.53925 0
M  V30 1073 C 106.192 0.259758 -2.00827 0
M  V30 1074 C 106.52 1.50973 -1.22628 0
M  V30 1075 O 105.775 1.93379 -0.300509 0
M  V30 1076 C 106.074 0.62448 -3.51902 0
M  V30 1077 C 105.74 -0.528006 -4.47798 0
M  V30 1078 C 104.402 -0.844298 -4.73735 0
M  V30 1079 C 106.754 -1.30143 -5.0469 0
M  V30 1080 C 104.082 -1.93648 -5.53821 0
M  V30 1081 C 106.434 -2.38382 -5.85967 0
M  V30 1082 C 105.098 -2.70576 -6.10201 0
M  V30 1083 H 104.368 0.0950523 -0.734878 0
M  V30 1084 H 107.015 -0.465182 -1.85764 0
M  V30 1085 H 105.32 1.43006 -3.64769 0
M  V30 1086 H 107.017 1.09905 -3.85645 0
M  V30 1087 H 103.607 -0.271421 -4.2774 0
M  V30 1088 H 107.791 -1.07033 -4.84621 0
M  V30 1089 H 103.047 -2.19021 -5.70824 0
M  V30 1090 H 107.221 -2.98746 -6.29066 0
M  V30 1091 H 104.848 -3.55333 -6.72044 0
M  V30 1092 N 106.423 1.57458 -0.0668435 0
M  V30 1093 C 107.386 2.11323 0.887422 0
M  V30 1094 C 108.386 1.03618 1.22964 0
M  V30 1095 O 109.576 1.29626 1.16373 0
M  V30 1096 C 106.708 2.61048 2.19242 0
M  V30 1097 H 107.901 2.96942 0.420194 0
M  V30 1098 H 105.454 1.55239 0.181793 0
M  V30 1099 H 106.189 1.78868 2.70512 0
M  V30 1100 H 105.974 3.39769 1.95702 0
M  V30 1101 H 107.464 3.02814 2.87565 0
M  V30 1102 N 107.901 -0.206675 1.56239 0
M  V30 1103 C 109.129 -0.945345 1.8404 0
M  V30 1104 C 109.544 -1.77336 0.647885 0
M  V30 1105 O 108.901 -1.78425 -0.383511 0
M  V30 1106 C 108.952 -1.8509 3.10522 0
M  V30 1107 O 108.673 -1.05634 4.25174 0
M  V30 1108 C 110.174 -2.70222 3.51418 0
M  V30 1109 H 107.394 -0.276372 0.61144 0
M  V30 1110 H 109.938 -0.217417 2.03341 0
M  V30 1111 H 108.093 -2.53259 2.93153 0
M  V30 1112 H 108.507 -1.67238 4.97124 0
M  V30 1113 H 109.981 -3.29438 4.42916 0
M  V30 1114 H 110.458 -3.43358 2.73864 0
M  V30 1115 H 111.064 -2.07443 3.71278 0
M  V30 1116 N 109.379 -1.50304 -0.473955 0
M  V30 1117 C 110.607 -1.64902 -1.24959 0
M  V30 1118 C 111.022 -0.331198 -1.85872 0
M  V30 1119 O 110.379 0.68652 -1.69095 0
M  V30 1120 C 110.43 -2.73803 -2.36038 0
M  V30 1121 O 110.151 -4.00477 -1.77624 0
M  V30 1122 C 111.652 -2.99349 -3.26964 0
M  V30 1123 H 108.872 -0.554383 -0.378022 0
M  V30 1124 H 111.416 -1.9651 -0.566054 0
M  V30 1125 H 109.571 -2.44898 -3.00173 0
M  V30 1126 H 109.985 -4.60678 -2.5075 0
M  V30 1127 H 111.459 -3.79217 -4.01121 0
M  V30 1128 H 111.936 -2.10307 -3.85574 0
M  V30 1129 H 112.542 -3.29774 -2.68569 0
M  V30 1130 N 110.857 0.726932 -1.39834 0
M  V30 1131 C 112.085 1.51613 -1.40787 0
M  V30 1132 C 112.5 1.88799 -0.00451505 0
M  V30 1133 O 111.857 1.54662 0.968809 0
M  V30 1134 C 111.908 2.79863 -2.28821 0
M  V30 1135 O 111.629 2.44253 -3.63692 0
M  V30 1136 C 113.13 3.73837 -2.38245 0
M  V30 1137 H 110.35 0.468264 -0.480593 0
M  V30 1138 H 112.894 0.897607 -1.83748 0
M  V30 1139 H 111.049 3.38027 -1.89252 0
M  V30 1140 H 111.463 3.26695 -4.1033 0
M  V30 1141 H 112.937 4.60699 -3.04073 0
M  V30 1142 H 113.414 4.16153 -1.40403 0
M  V30 1143 H 114.02 3.21589 -2.78317 0
M  V30 1144 N 112.336 1.25143 0.95797 0
M  V30 1145 C 113.566 1.12261 1.73439 0
M  V30 1146 C 113.974 -0.326715 1.86358 0
M  V30 1147 O 113.317 -1.2367 1.35836 0
M  V30 1148 C 113.379 1.69966 3.16784 0
M  V30 1149 C 113.043 3.18936 3.27305 0
M  V30 1150 C 114.04 4.15968 3.11877 0
M  V30 1151 C 111.725 3.59083 3.51234 0
M  V30 1152 C 113.719 5.51126 3.20217 0
M  V30 1153 C 111.406 4.9438 3.5921 0
M  V30 1154 C 112.404 5.90211 3.43716 0
M  V30 1155 O 112.092 7.23046 3.51368 0
M  V30 1156 H 111.824 0.392476 0.550399 0
M  V30 1157 H 114.378 1.65927 1.21068 0
M  V30 1158 H 112.608 1.10744 3.70503 0
M  V30 1159 H 114.297 1.52232 3.76272 0
M  V30 1160 H 115.063 3.86292 2.93264 0
M  V30 1161 H 110.942 2.84989 3.62356 0
M  V30 1162 H 114.486 6.25905 3.0804 0
M  V30 1163 H 110.383 5.23723 3.77339 0
M  V30 1164 H 111.151 7.31097 3.6802 0
M  V30 1165 N 113.814 -1.1601 1.06675 0
M  V30 1166 C 115.225 -1.68235 0.809565 0
M  V30 1167 C 115.576 -1.8454 -0.666303 0
M  V30 1168 O 114.701 -1.54374 -1.5165 0
M  V30 1169 C 115.296 -3.05585 1.46299 0
M  V30 1170 C 113.855 -3.54915 1.25349 0
M  V30 1171 C 113.002 -2.30804 1.53703 0
M  V30 1172 H 115.953 -1.00318 1.22971 0
M  V30 1173 H 115.974 -3.70174 0.880431 0
M  V30 1174 H 115.486 -2.93686 2.53713 0
M  V30 1175 H 113.587 -3.72067 0.199261 0
M  V30 1176 H 113.7 -4.36774 1.9689 0
M  V30 1177 H 112.064 -2.36007 0.957739 0
M  V30 1178 H 112.847 -2.21499 2.62284 0
M  V30 1179 N 115.292 -0.849877 -1.32721 0
M  V30 1180 C 116.255 -0.296122 -2.27279 0
M  V30 1181 C 117.255 0.541458 -1.5141 0
M  V30 1182 O 118.445 0.353658 -1.70572 0
M  V30 1183 C 115.577 0.581579 -3.35902 0
M  V30 1184 H 116.77 -1.13064 -2.77771 0
M  V30 1185 H 114.323 -0.62383 -1.43311 0
M  V30 1186 H 115.058 1.43809 -2.9067 0
M  V30 1187 H 114.843 -0.0178814 -3.92096 0
M  V30 1188 H 116.333 0.961951 -4.0637 0
M  V30 1189 N 116.77 1.45427 -0.607355 0
M  V30 1190 C 117.998 2.06614 -0.108814 0
M  V30 1191 C 118.413 1.45204 1.2067 0
M  V30 1192 O 117.77 0.566132 1.73497 0
M  V30 1193 C 117.821 3.61481 0.0375347 0
M  V30 1194 O 117.542 4.20598 -1.22593 0
M  V30 1195 C 119.043 4.39652 0.567561 0
M  V30 1196 H 116.263 0.66747 -0.0687351 0
M  V30 1197 H 118.807 1.86675 -0.835022 0
M  V30 1198 H 116.962 3.80762 0.714068 0
M  V30 1199 H 117.376 5.1377 -1.05547 0
M  V30 1200 H 118.85 5.48518 0.61905 0
M  V30 1201 H 119.327 4.09417 1.58978 0
M  V30 1202 H 119.933 4.25234 -0.0749202 0
M  V30 1203 N 118.248 0.346503 1.53744 0
M  V30 1204 C 119.496 -0.248612 2.00565 0
M  V30 1205 C 119.817 -1.5083 1.23593 0
M  V30 1206 O 119.087 -1.92858 0.343912 0
M  V30 1207 H 117.667 -0.0948564 0.740953 0
M  V30 1208 H 120.329 0.468341 1.89189 0
M  V30 1209 H 119.425 -0.488994 3.08245 0
M  V30 1210 N 119.726 -1.57421 0.075193 0
M  V30 1211 C 120.954 -1.97946 -0.602076 0
M  V30 1212 C 121.369 -0.953674 -1.62943 0
M  V30 1213 O 120.726 0.0592551 -1.82404 0
M  V30 1214 C 120.777 -3.38546 -1.26762 0
M  V30 1215 O 120.498 -4.37195 -0.281376 0
M  V30 1216 C 121.999 -3.93966 -2.03239 0
M  V30 1217 H 119.219 -0.650918 -0.162931 0
M  V30 1218 H 121.763 -2.03959 0.148601 0
M  V30 1219 H 119.918 -3.33609 -1.96936 0
M  V30 1220 H 120.332 -5.18975 -0.759267 0
M  V30 1221 H 121.806 -4.94555 -2.45193 0
M  V30 1222 H 122.283 -3.30693 -2.8903 0
M  V30 1223 H 122.889 -4.02315 -1.37924 0
M  V30 1224 N 121.204 0.198386 -1.56346 0
M  V30 1225 C 122.432 0.935572 -1.84539 0
M  V30 1226 C 122.847 1.76989 -0.657281 0
M  V30 1227 O 122.204 1.78626 0.374043 0
M  V30 1228 C 122.255 1.8344 -3.11499 0
M  V30 1229 O 121.976 1.03377 -4.25728 0
M  V30 1230 C 123.477 2.68355 -3.52846 0
M  V30 1231 H 120.697 0.273126 -0.612897 0
M  V30 1232 H 123.241 0.20663 -2.03453 0
M  V30 1233 H 121.396 2.51701 -2.94492 0
M  V30 1234 H 121.81 1.64599 -4.98003 0
M  V30 1235 H 123.284 3.27085 -4.44657 0
M  V30 1236 H 123.761 3.41901 -2.75681 0
M  V30 1237 H 124.367 2.05471 -3.72373 0
M  V30 1238 N 122.682 1.50554 0.465978 0
M  V30 1239 C 123.91 1.65563 1.24083 0
M  V30 1240 C 124.325 0.341051 1.85694 0
M  V30 1241 O 123.682 -0.677543 1.69457 0
M  V30 1242 C 123.733 2.75051 2.34583 0
M  V30 1243 O 123.454 4.01413 1.75497 0
M  V30 1244 C 124.955 3.01078 3.25372 0
M  V30 1245 H 122.175 0.55638 0.375077 0
M  V30 1246 H 124.719 1.96807 0.555624 0
M  V30 1247 H 122.874 2.46486 2.9887 0
M  V30 1248 H 123.288 4.62002 2.48303 0
M  V30 1249 H 124.762 3.81339 3.99105 0
M  V30 1250 H 125.239 2.12349 3.84453 0
M  V30 1251 H 125.845 3.31194 2.66816 0
M  V30 1252 N 124.16 -0.719506 1.40217 0
M  V30 1253 C 125.576 -1.02707 1.22161 0
M  V30 1254 C 125.776 -2.0128 0.0940557 0
M  V30 1255 O 124.832 -2.46452 -0.549318 0
M  V30 1256 C 126.145 -1.57454 2.56181 0
M  V30 1257 C 127.693 -1.69458 2.63159 0
M  V30 1258 C 128.168 -2.27611 3.97438 0
M  V30 1259 N 129.659 -2.35002 3.99159 0
M  V30 1260 C 130.394 -2.80972 4.99842 0
M  V30 1261 N 129.89 -3.26723 6.10921 0
M  V30 1262 N 131.683 -2.80321 4.87213 0
M  V30 1263 H 123.834 -0.0660492 2.12297 0
M  V30 1264 H 126.097 -0.0919077 0.943534 0
M  V30 1265 H 125.803 -0.924873 3.39321 0
M  V30 1266 H 125.677 -2.56036 2.76993 0
M  V30 1267 H 128.064 -2.33543 1.80393 0
M  V30 1268 H 128.145 -0.694867 2.46181 0
M  V30 1269 H 127.789 -1.6415 4.80643 0
M  V30 1270 H 127.719 -3.2829 4.11744 0
M  V30 1271 H 130.21 -2.02685 3.18947 0
M  V30 1272 H 130.523 -3.60355 6.8364 0
M  V30 1273 H 128.868 -3.24692 6.14492 0
M  V30 1274 H 132.059 -2.43912 3.9953 0
M  V30 1275 H 132.232 -3.15831 5.65822 0
M  V30 1276 N 125.638 -1.25649 -0.95132 0
M  V30 1277 C 126.863 -1.13443 -1.73624 0
M  V30 1278 C 127.288 0.307565 -1.85568 0
M  V30 1279 O 126.646 1.22282 -1.33854 0
M  V30 1280 C 126.694 -1.79723 -3.12621 0
M  V30 1281 O 125.798 -1.07912 -3.98031 0
M  V30 1282 H 125.139 -0.395872 -0.533086 0
M  V30 1283 H 127.669 -1.66276 -1.1922 0
M  V30 1284 H 127.679 -1.86141 -3.63064 0
M  V30 1285 H 126.354 -2.84633 -3.03244 0
M  V30 1286 H 124.931 -1.09398 -3.56492 0
M  V30 1287 N 127.117 1.15442 -1.07289 0
M  V30 1288 C 128.363 1.86489 -0.796846 0
M  V30 1289 C 128.696 1.82078 0.675371 0
M  V30 1290 O 127.971 1.24346 1.4956 0
M  V30 1291 C 128.254 3.35626 -1.30489 0
M  V30 1292 C 128.107 3.48673 -2.84161 0
M  V30 1293 C 129.426 4.30357 -0.920907 0
M  V30 1294 H 126.545 0.677144 -0.290939 0
M  V30 1295 H 129.187 1.35633 -1.33056 0
M  V30 1296 H 127.337 3.79068 -0.850883 0
M  V30 1297 H 129.009 3.14099 -3.37846 0
M  V30 1298 H 127.252 2.90253 -3.22391 0
M  V30 1299 H 127.923 4.53453 -3.14777 0
M  V30 1300 H 130.399 3.94871 -1.3121 0
M  V30 1301 H 129.275 5.33193 -1.30372 0
M  V30 1302 H 129.536 4.4176 0.173226 0
M  V30 1303 N 128.595 0.856903 1.32268 0
M  V30 1304 C 129.558 0.308171 2.27119 0
M  V30 1305 C 130.558 -0.533421 1.51695 0
M  V30 1306 O 131.748 -0.344607 1.70757 0
M  V30 1307 C 128.88 -0.563757 3.36206 0
M  V30 1308 H 130.073 1.14535 2.77167 0
M  V30 1309 H 127.626 0.631421 1.42978 0
M  V30 1310 H 128.361 -1.42266 2.91429 0
M  V30 1311 H 128.146 0.0386749 3.92081 0
M  V30 1312 H 129.636 -0.940386 4.06874 0
M  V30 1313 N 130.073 -1.45103 0.615059 0
M  V30 1314 C 131.319 -2.02483 0.113347 0
M  V30 1315 C 131.652 -1.48146 -1.25564 0
M  V30 1316 O 130.927 -0.659104 -1.82992 0
M  V30 1317 C 131.21 -3.60005 0.0825278 0
M  V30 1318 C 131.063 -4.2466 1.48271 0
M  V30 1319 C 132.382 -4.35972 -0.601401 0
M  V30 1320 H 129.501 -0.735764 0.0426632 0
M  V30 1321 H 132.143 -1.72868 0.788461 0
M  V30 1322 H 130.293 -3.85367 -0.492378 0
M  V30 1323 H 131.965 -4.10458 2.10527 0
M  V30 1324 H 130.208 -3.82772 2.04127 0
M  V30 1325 H 130.879 -5.336 1.41332 0
M  V30 1326 H 133.355 -4.15947 -0.112666 0
M  V30 1327 H 132.231 -5.45697 -0.592097 0
M  V30 1328 H 132.492 -4.09391 -1.66887 0
M  V30 1329 N 131.551 -0.354651 -1.53558 0
M  V30 1330 C 132.967 -0.00315426 -1.596 0
M  V30 1331 C 133.167 1.47741 -1.37021 0
M  V30 1332 O 132.223 2.23759 -1.16996 0
M  V30 1333 C 133.536 -0.44929 -2.97325 0
M  V30 1334 C 135.084 -0.402578 -3.104 0
M  V30 1335 C 135.559 -0.824355 -4.5052 0
M  V30 1336 N 137.05 -0.778979 -4.56603 0
M  V30 1337 C 137.785 -1.07715 -5.63192 0
M  V30 1338 N 137.281 -1.44405 -6.77583 0
M  V30 1339 N 139.074 -1.00066 -5.53121 0
M  V30 1340 H 131.225 -1.31893 -1.66487 0
M  V30 1341 H 133.488 -0.538388 -0.780284 0
M  V30 1342 H 133.194 -1.48202 -3.1895 0
M  V30 1343 H 133.068 0.169772 -3.76818 0
M  V30 1344 H 135.455 0.621004 -2.88492 0
M  V30 1345 H 135.536 -1.05699 -2.32941 0
M  V30 1346 H 135.18 -1.846 -4.73165 0
M  V30 1347 H 135.11 -0.147304 -5.26394 0
M  V30 1348 H 137.601 -0.508528 -3.74463 0
M  V30 1349 H 137.914 -1.65612 -7.54846 0
M  V30 1350 H 136.259 -1.4826 -6.79002 0
M  V30 1351 H 139.45 -0.713293 -4.62633 0
M  V30 1352 H 139.623 -1.23638 -6.36096 0
M  V30 1353 N 133.029 1.57378 -0.0835403 0
M  V30 1354 C 134.278 1.93106 0.582498 0
M  V30 1355 C 134.591 0.96651 1.70053 0
M  V30 1356 O 135.797 1.21705 2.42693 0
M  V30 1357 C 134.253 3.43076 1.08751 0
M  V30 1358 C 133.861 4.48 -0.000146404 0
M  V30 1359 C 135.605 3.87785 1.72694 0
M  V30 1360 C 133.512 5.89113 0.519568 0
M  V30 1361 H 132.442 0.720775 0.221358 0
M  V30 1362 H 135.093 1.82821 -0.157675 0
M  V30 1363 H 133.475 3.48474 1.88101 0
M  V30 1364 H 134.649 4.54233 -0.775199 0
M  V30 1365 H 132.964 4.1283 -0.54406 0
M  V30 1366 H 135.561 4.90604 2.1263 0
M  V30 1367 H 135.904 3.25796 2.59158 0
M  V30 1368 H 136.437 3.8504 0.999457 0
M  V30 1369 H 133.176 6.54775 -0.308186 0
M  V30 1370 H 132.696 5.86376 1.26188 0
M  V30 1371 H 134.375 6.39346 0.992237 0
M  V30 1372 N 134.507 -0.190092 1.56449 0
M  V30 1373 C 135.454 -1.23557 1.94942 0
M  V30 1374 C 136.424 -1.44972 0.810696 0
M  V30 1375 O 137.609 -1.58023 1.06927 0
M  V30 1376 C 134.749 -2.57416 2.2985 0
M  V30 1377 C 133.862 -2.43537 3.5681 0
M  V30 1378 C 132.997 -3.70134 3.81017 0
M  V30 1379 C 132.036 -3.51109 5.01387 0
M  V30 1380 N 131.173 -4.6973 5.21822 0
M  V30 1381 H 136.013 -0.900304 2.84075 0
M  V30 1382 H 133.55 -0.43318 1.40577 0
M  V30 1383 H 135.508 -3.35409 2.48106 0
M  V30 1384 H 134.138 -2.88975 1.43852 0
M  V30 1385 H 133.19 -1.56816 3.46573 0
M  V30 1386 H 134.502 -2.25415 4.4496 0
M  V30 1387 H 133.656 -4.56566 3.9954 0
M  V30 1388 H 132.395 -3.91215 2.91207 0
M  V30 1389 H 131.4 -2.63063 4.82782 0
M  V30 1390 H 132.625 -3.31468 5.9271 0
M  V30 1391 H 130.571 -4.91065 4.34961 0
M  V30 1392 H 130.488 -4.54452 6.0416 0
M  V30 1393 H 131.756 -5.57499 5.44808 0
M  V30 1394 N 135.985 -1.50799 -0.457987 0
M  V30 1395 C 136.917 -1.66786 -1.57211 0
M  V30 1396 C 137.93 -0.548962 -1.53265 0
M  V30 1397 O 139.119 -0.8226 -1.58416 0
M  V30 1398 C 136.219 -1.64834 -2.96113 0
M  V30 1399 C 135.392 -2.92971 -3.24787 0
M  V30 1400 C 134.451 -2.83485 -4.43309 0
M  V30 1401 O 133.477 -3.5744 -4.42973 0
M  V30 1402 N 134.679 -1.97929 -5.45714 0
M  V30 1403 H 137.444 -2.62889 -1.43909 0
M  V30 1404 H 135.005 -1.48427 -0.646617 0
M  V30 1405 H 136.997 -1.56084 -3.7339 0
M  V30 1406 H 135.567 -0.764118 -3.03117 0
M  V30 1407 H 134.787 -3.15749 -2.36 0
M  V30 1408 H 136.075 -3.77834 -3.40762 0
M  V30 1409 H 135.473 -1.37182 -5.48815 0
M  V30 1410 H 134.03 -1.95073 -6.21924 0
M  V30 1411 N 137.463 0.71206 -1.40597 0
M  V30 1412 C 138.426 1.80785 -1.40888 0
M  V30 1413 C 139.426 1.57937 -0.302103 0
M  V30 1414 O 140.616 1.64913 -0.561182 0
M  V30 1415 C 137.748 3.18927 -1.20409 0
M  V30 1416 H 138.941 1.81924 -2.38419 0
M  V30 1417 H 136.494 0.91805 -1.26497 0
M  V30 1418 H 137.229 3.23436 -0.236522 0
M  V30 1419 H 137.014 3.36911 -2.00582 0
M  V30 1420 H 138.504 3.98949 -1.23408 0
M  V30 1421 N 138.941 1.26152 0.944643 0
M  V30 1422 C 139.904 1.07474 2.0244 0
M  V30 1423 C 140.904 0.0242064 1.60782 0
M  V30 1424 O 142.094 0.267302 1.72137 0
M  V30 1425 C 139.226 0.633956 3.34953 0
M  V30 1426 H 140.419 2.03336 2.20442 0
M  V30 1427 H 137.972 1.087 1.12312 0
M  V30 1428 H 138.707 -0.326811 3.22649 0
M  V30 1429 H 138.492 1.39247 3.66542 0
M  V30 1430 H 139.982 0.52501 4.14287 0
M  V30 1431 N 140.419 -1.14872 1.07899 0
M  V30 1432 C 141.366 -2.19791 0.704319 0
M  V30 1433 C 142.336 -1.63238 -0.306987 0
M  V30 1434 O 143.521 -1.8983 -0.192171 0
M  V30 1435 C 140.661 -3.44911 0.114244 0
M  V30 1436 C 139.774 -4.15637 1.1777 0
M  V30 1437 C 138.909 -5.28324 0.552037 0
M  V30 1438 C 137.948 -5.90875 1.59789 0
M  V30 1439 N 137.085 -6.95022 0.994404 0
M  V30 1440 H 141.925 -2.5119 1.60336 0
M  V30 1441 H 139.462 -1.23356 0.801352 0
M  V30 1442 H 141.42 -4.16477 -0.245544 0
M  V30 1443 H 140.05 -3.14011 -0.74813 0
M  V30 1444 H 139.102 -3.42512 1.65499 0
M  V30 1445 H 140.414 -4.5823 1.97046 0
M  V30 1446 H 139.568 -6.06538 0.1402 0
M  V30 1447 H 138.307 -4.86939 -0.272431 0
M  V30 1448 H 137.312 -5.11369 2.01945 0
M  V30 1449 H 138.537 -6.34337 2.42474 0
M  V30 1450 H 136.483 -6.55722 0.190939 0
M  V30 1451 H 136.4 -7.36073 1.72432 0
M  V30 1452 H 137.668 -7.77123 0.608253 0
M  V30 1453 N 141.898 -0.863906 -1.31812 0
M  V30 1454 C 143.146 -0.470904 -1.96537 0
M  V30 1455 C 143.467 0.978771 -1.68657 0
M  V30 1456 O 142.737 1.6853 -0.998717 0
M  V30 1457 H 141.317 -0.171148 -0.72713 0
M  V30 1458 H 143.979 -1.10236 -1.60729 0
M  V30 1459 H 143.075 -0.623616 -3.05806 0
M  V30 1460 N 143.376 1.44774 -0.622745 0
M  V30 1461 C 144.624 2.01721 -0.123655 0
M  V30 1462 C 144.945 1.49172 1.25589 0
M  V30 1463 O 144.215 0.691974 1.83272 0
M  V30 1464 H 142.795 0.745777 -0.0427225 0
M  V30 1465 H 145.457 1.77382 -0.807559 0
M  V30 1466 H 144.553 3.11984 -0.0849534 0
M  V30 1467 N 144.854 0.36279 1.53368 0
M  V30 1468 C 145.817 -0.472679 2.24273 0
M  V30 1469 C 146.817 -1.012 1.24961 0
M  V30 1470 O 148.007 -0.898194 1.49259 0
M  V30 1471 C 145.139 -1.66039 2.97731 0
M  V30 1472 H 146.332 0.14773 2.99536 0
M  V30 1473 H 143.885 0.114434 1.55881 0
M  V30 1474 H 144.62 -2.31896 2.26704 0
M  V30 1475 H 144.405 -1.28066 3.70596 0
M  V30 1476 H 145.895 -2.25252 3.51641 0
M  V30 1477 N 146.332 -1.57332 0.0918853 0
M  V30 1478 C 147.748 -1.57389 -0.264766 0
M  V30 1479 C 147.948 -1.10281 -1.68643 0
M  V30 1480 O 147.004 -0.777801 -2.40222 0
M  V30 1481 C 148.317 -3.00648 -0.0561195 0
M  V30 1482 C 149.865 -3.12754 -0.124116 0
M  V30 1483 C 150.34 -4.57965 0.0564972 0
M  V30 1484 N 151.831 -4.632 0.00155611 0
M  V30 1485 C 152.566 -5.73281 0.116598 0
M  V30 1486 N 152.062 -6.92208 0.286294 0
M  V30 1487 N 153.855 -5.6207 0.0580973 0
M  V30 1488 H 146.006 -1.86262 1.02079 0
M  V30 1489 H 148.269 -0.859579 0.399786 0
M  V30 1490 H 147.975 -3.393 0.925669 0
M  V30 1491 H 147.849 -3.68623 -0.799823 0
M  V30 1492 H 150.236 -2.73976 -1.09641 0
M  V30 1493 H 150.317 -2.47377 0.651024 0
M  V30 1494 H 149.961 -4.97436 1.02564 0
M  V30 1495 H 149.891 -5.21399 -0.738297 0
M  V30 1496 H 152.382 -3.77686 -0.127192 0
M  V30 1497 H 152.695 -7.71934 0.365676 0
M  V30 1498 H 151.04 -6.94254 0.32192 0
M  V30 1499 H 154.231 -4.68043 -0.0733204 0
M  V30 1500 H 154.404 -6.47824 0.151203 0
M  V30 1501 N 147.81 0.181792 -1.56548 0
M  V30 1502 C 149.058 0.89832 -1.81038 0
M  V30 1503 C 149.379 1.83232 -0.667164 0
M  V30 1504 O 148.649 1.93372 0.313673 0
M  V30 1505 H 147.229 0.33471 -0.667816 0
M  V30 1506 H 149.891 0.184116 -1.94028 0
M  V30 1507 H 148.987 1.4815 -2.74696 0
M  V30 1508 N 149.288 1.51039 0.449983 0
M  V30 1509 C 150.22 1.67617 1.56324 0
M  V30 1510 C 151.233 0.557083 1.52972 0
M  V30 1511 O 152.422 0.830989 1.57977 0
M  V30 1512 C 149.522 1.66402 2.95235 0
M  V30 1513 C 148.695 2.9469 3.23229 0
M  V30 1514 C 147.754 2.85832 4.41799 0
M  V30 1515 O 146.78 3.59785 4.41071 0
M  V30 1516 N 147.982 2.00821 5.44657 0
M  V30 1517 H 150.747 2.63648 1.42512 0
M  V30 1518 H 148.308 1.48767 0.638737 0
M  V30 1519 H 150.3 1.58062 3.72557 0
M  V30 1520 H 148.87 0.780182 3.02708 0
M  V30 1521 H 148.09 3.16996 2.34323 0
M  V30 1522 H 149.378 3.79636 3.38754 0
M  V30 1523 H 148.776 1.40091 5.48079 0
M  V30 1524 H 147.333 1.98368 6.20881 0
M  V30 1525 N 150.766 -0.704594 1.40972 0
M  V30 1526 C 152.012 -1.46546 1.41053 0
M  V30 1527 C 152.367 -1.92393 0.0159714 0
M  V30 1528 O 151.66 -1.66017 -0.956506 0
M  V30 1529 C 151.854 -2.698 2.34399 0
M  V30 1530 C 151.683 -2.36008 3.82793 0
M  V30 1531 C 150.453 -2.26812 4.51536 0
M  V30 1532 C 152.651 -1.99565 4.74003 0
M  V30 1533 N 150.633 -1.8581 5.85105 0
M  V30 1534 C 152.004 -1.69251 5.96451 0
M  V30 1535 C 154.059 -1.86296 4.61734 0
M  V30 1536 C 152.762 -1.27003 7.07999 0
M  V30 1537 C 154.788 -1.45452 5.73234 0
M  V30 1538 C 154.15 -1.16043 6.94776 0
M  V30 1539 H 150.249 -0.533896 0.571383 0
M  V30 1540 H 152.833 -0.816061 1.76773 0
M  V30 1541 H 151.004 -3.32473 2.00789 0
M  V30 1542 H 152.736 -3.36214 2.25261 0
M  V30 1543 H 149.491 -2.44913 4.05357 0
M  V30 1544 H 149.915 -1.67817 6.55871 0
M  V30 1545 H 154.557 -2.0769 3.68273 0
M  V30 1546 H 152.275 -1.04353 8.01334 0
M  V30 1547 H 155.861 -1.35748 5.65742 0
M  V30 1548 H 154.741 -0.84915 7.79589 0
M  V30 1549 N 152.244 -1.26651 -0.937939 0
M  V30 1550 C 153.207 -1.08546 -2.01867 0
M  V30 1551 C 154.207 -0.0327327 -1.60767 0
M  V30 1552 O 155.397 -0.276427 -1.71993 0
M  V30 1553 C 152.529 -0.651711 -3.34613 0
M  V30 1554 H 153.722 -2.04502 -2.1936 0
M  V30 1555 H 151.275 -1.09294 -1.11734 0
M  V30 1556 H 152.01 0.309696 -3.22818 0
M  V30 1557 H 151.795 -1.41189 -3.65798 0
M  V30 1558 H 153.285 -0.546973 -4.14002 0
M  V30 1559 N 153.722 1.14298 -1.08507 0
M  V30 1560 C 154.97 1.84993 -0.813763 0
M  V30 1561 C 155.291 1.83405 0.662393 0
M  V30 1562 O 154.561 1.28319 1.48024 0
M  V30 1563 H 153.141 0.684966 -0.298045 0
M  V30 1564 H 155.803 1.385 -1.37126 0
M  V30 1565 H 154.899 2.89788 -1.15884 0
M  V30 1566 N 155.201 0.870884 1.31352 0
M  V30 1567 C 156.426 0.495957 2.01383 0
M  V30 1568 C 156.851 -0.904324 1.64935 0
M  V30 1569 O 156.209 -1.59687 0.858466 0
M  V30 1570 C 156.257 0.661433 3.54482 0
M  V30 1571 O 155.361 -0.298851 4.11316 0
M  V30 1572 H 154.702 0.197158 0.634054 0
M  V30 1573 H 157.232 1.17455 1.67527 0
M  V30 1574 H 157.242 0.555072 4.04207 0
M  V30 1575 H 155.917 1.68246 3.8035 0
M  V30 1576 H 154.494 -0.147368 3.72609 0
M  V30 1577 N 156.679 -1.44442 0.630414 0
M  V30 1578 C 157.927 -2.01653 0.134351 0
M  V30 1579 C 158.248 -1.49836 -1.24796 0
M  V30 1580 O 157.518 -0.701684 -1.82902 0
M  V30 1581 H 156.098 -0.74554 0.0466769 0
M  V30 1582 H 158.76 -1.76952 0.816955 0
M  V30 1583 H 157.856 -3.11935 0.101498 0
M  V30 1584 N 158.157 -0.370918 -1.53173 0
M  V30 1585 C 159.12 0.460778 -2.24521 0
M  V30 1586 C 160.12 1.00536 -1.25496 0
M  V30 1587 O 161.31 0.890266 -1.49733 0
M  V30 1588 C 158.442 1.64457 -2.98608 0
M  V30 1589 H 159.635 -0.163613 -2.99453 0
M  V30 1590 H 157.188 -0.122699 -1.55818 0
M  V30 1591 H 157.923 2.30691 -2.2793 0
M  V30 1592 H 157.708 1.26099 -3.7127 0
M  V30 1593 H 159.198 2.23384 -3.5283 0
M  V30 1594 N 159.635 1.57281 -0.100228 0
M  V30 1595 C 160.883 1.94153 0.561157 0
M  V30 1596 C 161.204 0.983157 1.68401 0
M  V30 1597 O 160.474 0.0361132 1.95867 0
M  V30 1598 H 159.054 0.716791 0.210283 0
M  V30 1599 H 161.716 1.94202 -0.164765 0
M  V30 1600 H 160.812 2.96709 0.968008 0
M  V30 1601 N 161.113 -0.173488 1.56642 0
M  V30 1602 C 162.36 -0.890465 1.81871 0
M  V30 1603 C 162.688 -1.82339 0.67696 0
M  V30 1604 O 161.943 -1.92795 -0.335926 0
M  V30 1605 C 162.242 -1.72069 3.13252 0
M  V30 1606 C 161.908 -0.936878 4.41059 0
M  V30 1607 C 160.57 -0.720545 4.75775 0
M  V30 1608 C 162.922 -0.386919 5.19762 0
M  V30 1609 C 160.25 0.0568829 5.86672 0
M  V30 1610 C 162.602 0.37741 6.31473 0
M  V30 1611 C 161.266 0.604563 6.64757 0
M  V30 1612 H 160.536 -0.325844 0.665512 0
M  V30 1613 H 163.183 -0.155527 1.90867 0
M  V30 1614 H 161.488 -2.52496 2.99588 0
M  V30 1615 H 163.185 -2.27844 3.29982 0
M  V30 1616 H 159.775 -1.11553 4.13828 0
M  V30 1617 H 163.959 -0.541398 4.93338 0
M  V30 1618 H 159.215 0.242635 6.10918 0
M  V30 1619 H 163.389 0.810825 6.91664 0
M  V30 1620 H 161.016 1.20885 7.50527 0
M  V30 1621 N 162.591 -1.51276 -0.441967 0
M  V30 1622 C 163.501 -1.75092 -1.56141 0
M  V30 1623 C 164.517 -0.634963 -1.62001 0
M  V30 1624 O 165.693 -0.916686 -1.79329 0
M  V30 1625 C 162.758 -1.86666 -2.92158 0
M  V30 1626 C 161.819 -3.10506 -2.96453 0
M  V30 1627 C 161.052 -3.21519 -4.25982 0
M  V30 1628 O 161.275 -2.38586 -5.18105 0
M  V30 1629 O 160.209 -4.14465 -4.36466 0
M  V30 1630 H 164.035 -2.70044 -1.38961 0
M  V30 1631 H 161.62 -1.35722 -0.624499 0
M  V30 1632 H 163.502 -1.96292 -3.72891 0
M  V30 1633 H 162.177 -0.949014 -3.09476 0
M  V30 1634 H 161.084 -3.06363 -2.14692 0
M  V30 1635 H 162.417 -4.01945 -2.84079 0
M  V30 1636 N 164.069 0.697108 -1.41344 0
M  V30 1637 C 165.485 1.00751 -1.2378 0
M  V30 1638 C 165.685 2.01105 -0.126066 0
M  V30 1639 O 164.741 2.47295 0.51004 0
M  V30 1640 C 166.054 1.53359 -2.58653 0
M  V30 1641 C 167.602 1.6525 -2.65822 0
M  V30 1642 C 168.077 2.2126 -4.01009 0
M  V30 1643 N 169.568 2.28622 -4.02847 0
M  V30 1644 C 170.303 2.72984 -5.04249 0
M  V30 1645 N 169.799 3.16962 -6.16041 0
M  V30 1646 N 171.592 2.72534 -4.91611 0
M  V30 1647 H 163.743 0.0322662 -2.12375 0
M  V30 1648 H 166.006 0.0768853 -0.944877 0
M  V30 1649 H 165.712 0.870773 -3.4075 0
M  V30 1650 H 165.586 2.51597 -2.81032 0
M  V30 1651 H 167.973 2.30644 -1.84086 0
M  V30 1652 H 168.054 0.655614 -2.47256 0
M  V30 1653 H 167.698 1.56482 -4.83193 0
M  V30 1654 H 167.628 3.21698 -4.16915 0
M  V30 1655 H 170.119 1.97585 -3.22131 0
M  V30 1656 H 170.432 3.49434 -6.89287 0
M  V30 1657 H 168.777 3.14875 -6.1958 0
M  V30 1658 H 171.968 2.37525 -4.0336 0
M  V30 1659 H 172.141 3.06789 -5.70775 0
M  V30 1660 N 165.547 1.27147 0.931209 0
M  V30 1661 C 166.51 1.09615 2.01289 0
M  V30 1662 C 167.51 0.0412581 1.60747 0
M  V30 1663 O 168.7 0.285545 1.71844 0
M  V30 1664 C 165.832 0.669447 3.34262 0
M  V30 1665 H 167.025 2.05662 2.18273 0
M  V30 1666 H 164.578 1.09885 1.11153 0
M  V30 1667 H 165.313 -0.292572 3.22978 0
M  V30 1668 H 165.098 1.43127 3.65044 0
M  V30 1669 H 166.588 0.568921 4.13706 0
M  V30 1670 N 167.025 -1.13721 1.09112 0
M  V30 1671 C 167.935 -2.22638 0.73957 0
M  V30 1672 C 168.951 -1.72091 -0.257068 0
M  V30 1673 O 170.127 -2.01155 -0.0992154 0
M  V30 1674 C 167.192 -3.46322 0.16191 0
M  V30 1675 C 166.253 -4.11775 1.21408 0
M  V30 1676 C 165.486 -5.29555 0.663891 0
M  V30 1677 O 165.709 -5.68077 -0.514274 0
M  V30 1678 O 164.643 -5.84973 1.41738 0
M  V30 1679 H 168.469 -2.55074 1.64836 0
M  V30 1680 H 166.054 -1.21791 0.865289 0
M  V30 1681 H 167.936 -4.21107 -0.157073 0
M  V30 1682 H 166.611 -3.15593 -0.719932 0
M  V30 1683 H 165.518 -3.3883 1.58571 0
M  V30 1684 H 166.851 -4.46627 2.06845 0
M  V30 1685 N 168.503 -0.877838 -1.30888 0
M  V30 1686 C 169.751 -0.491723 -1.96027 0
M  V30 1687 C 170.072 0.960827 -1.69685 0
M  V30 1688 O 169.342 1.67462 -1.01654 0
M  V30 1689 H 167.922 -0.17885 -0.725273 0
M  V30 1690 H 170.584 -1.11935 -1.59551 0
M  V30 1691 H 169.68 -0.656016 -3.05128 0
M  V30 1692 N 169.982 1.44106 -0.638065 0
M  V30 1693 C 171.207 2.0685 -0.150916 0
M  V30 1694 C 171.632 1.47417 1.16833 0
M  V30 1695 O 170.99 0.578264 1.71831 0
M  V30 1696 C 171.038 3.60555 -0.05708 0
M  V30 1697 O 170.142 4.00465 0.984972 0
M  V30 1698 H 169.483 0.658151 -0.0879399 0
M  V30 1699 H 172.013 1.84865 -0.876707 0
M  V30 1700 H 172.023 4.07789 0.131232 0
M  V30 1701 H 170.698 4.03193 -1.02021 0
M  V30 1702 H 169.275 3.64849 0.770672 0
M  V30 1703 N 171.46 0.379036 1.52974 0
M  V30 1704 C 172.69 -0.20649 2.05566 0
M  V30 1705 C 173.098 -1.41906 1.25137 0
M  V30 1706 O 172.441 -1.81421 0.288464 0
M  V30 1707 C 172.503 -0.651086 3.53555 0
M  V30 1708 C 172.167 0.446626 4.54812 0
M  V30 1709 C 173.164 1.30079 5.03364 0
M  V30 1710 C 170.849 0.610719 4.98573 0
M  V30 1711 C 172.843 2.30426 5.94292 0
M  V30 1712 C 170.53 1.61754 5.89304 0
M  V30 1713 C 171.528 2.46274 6.37054 0
M  V30 1714 O 171.216 3.45237 7.25994 0
M  V30 1715 H 170.948 -0.0372381 0.674974 0
M  V30 1716 H 173.502 0.539718 1.98182 0
M  V30 1717 H 171.732 -1.44911 3.58522 0
M  V30 1718 H 173.421 -1.16112 3.88938 0
M  V30 1719 H 174.187 1.18527 4.70294 0
M  V30 1720 H 170.066 -0.0374044 4.60985 0
M  V30 1721 H 173.61 2.96432 6.31485 0
M  V30 1722 H 169.507 1.73348 6.21788 0
M  V30 1723 H 170.275 3.41124 7.44027 0
M  V30 1724 N 172.938 -1.57226 0.108567 0
M  V30 1725 C 174.187 -1.94008 -0.551703 0
M  V30 1726 C 174.5 -0.993442 -1.68494 0
M  V30 1727 O 175.706 -1.25551 -2.40726 0
M  V30 1728 C 174.162 -3.44763 -1.03279 0
M  V30 1729 C 173.77 -4.47943 0.0714193 0
M  V30 1730 C 175.514 -3.90483 -1.66503 0
M  V30 1731 C 173.421 -5.89865 -0.425779 0
M  V30 1732 H 172.351 -0.724206 -0.209863 0
M  V30 1733 H 175.002 -1.82547 0.186741 0
M  V30 1734 H 173.384 -3.51422 -1.82533 0
M  V30 1735 H 174.558 -4.52942 0.847365 0
M  V30 1736 H 172.873 -4.11913 0.609669 0
M  V30 1737 H 175.47 -4.93925 -2.04798 0
M  V30 1738 H 175.813 -3.29877 -2.53942 0
M  V30 1739 H 176.346 -3.86581 -0.938074 0
M  V30 1740 H 173.085 -6.54202 0.412316 0
M  V30 1741 H 172.605 -5.88309 -1.16843 0
M  V30 1742 H 174.284 -6.40844 -0.890397 0
M  V30 1743 N 174.416 0.165178 -1.56732 0
M  V30 1744 C 175.646 0.894919 -1.86212 0
M  V30 1745 C 176.054 1.76066 -0.692627 0
M  V30 1746 O 175.397 1.80387 0.347303 0
M  V30 1747 C 175.459 1.8174 -3.10179 0
M  V30 1748 C 175.123 1.13064 -4.42793 0
M  V30 1749 C 176.12 0.493169 -5.17556 0
M  V30 1750 C 173.805 1.12556 -4.89527 0
M  V30 1751 C 175.799 -0.140209 -6.37246 0
M  V30 1752 C 173.486 0.488366 -6.09145 0
M  V30 1753 C 174.484 -0.143411 -6.82849 0
M  V30 1754 O 174.172 -0.77055 -8.00199 0
M  V30 1755 H 173.904 0.265114 -0.621844 0
M  V30 1756 H 176.458 0.168242 -2.0471 0
M  V30 1757 H 174.688 2.58455 -2.87642 0
M  V30 1758 H 176.377 2.4175 -3.26055 0
M  V30 1759 H 177.143 0.489023 -4.82528 0
M  V30 1760 H 173.022 1.60672 -4.32094 0
M  V30 1761 H 176.566 -0.633932 -6.94714 0
M  V30 1762 H 172.463 0.490116 -6.43637 0
M  V30 1763 H 173.231 -0.670408 -8.1575 0
M  V30 1764 N 175.894 1.51508 0.433938 0
M  V30 1765 C 177.143 1.63578 1.18005 0
M  V30 1766 C 177.456 0.359514 1.92268 0
M  V30 1767 O 178.662 0.359632 2.69108 0
M  V30 1768 C 177.118 2.88901 2.14626 0
M  V30 1769 C 176.726 4.23544 1.45995 0
M  V30 1770 C 178.47 3.10328 2.89649 0
M  V30 1771 C 176.377 5.40014 2.4112 0
M  V30 1772 H 175.307 0.609277 0.444182 0
M  V30 1773 H 177.958 1.77978 0.446773 0
M  V30 1774 H 176.34 2.68142 2.91403 0
M  V30 1775 H 177.514 4.54696 0.747532 0
M  V30 1776 H 175.829 4.08021 0.831115 0
M  V30 1777 H 178.426 3.94518 3.60915 0
M  V30 1778 H 178.769 2.23544 3.51189 0
M  V30 1779 H 179.302 3.31443 2.19978 0
M  V30 1780 H 176.041 6.29068 1.84264 0
M  V30 1781 H 175.561 5.13233 3.10406 0
M  V30 1782 H 177.24 5.72099 3.02177 0
M  V30 1783 N 177.372 -0.689602 1.41712 0
M  V30 1784 C 178.335 -1.78521 1.43746 0
M  V30 1785 C 179.335 -1.57436 0.327191 0
M  V30 1786 O 180.525 -1.64 0.587348 0
M  V30 1787 C 177.657 -3.16971 1.25467 0
M  V30 1788 H 178.85 -1.78108 2.41283 0
M  V30 1789 H 176.403 -0.89781 1.27942 0
M  V30 1790 H 177.138 -3.23019 0.287948 0
M  V30 1791 H 176.923 -3.33678 2.05917 0
M  V30 1792 H 178.413 -3.96935 1.2974 0
M  V30 1793 N 178.85 -1.27639 -0.924453 0
M  V30 1794 C 180.261 -1.12834 -1.48746 0
M  V30 1795 C 180.612 0.285505 -1.94112 0
M  V30 1796 O 179.737 1.17874 -1.81479 0
M  V30 1797 C 180.332 -2.04217 -2.70334 0
M  V30 1798 C 178.891 -1.93509 -3.22848 0
M  V30 1799 C 178.038 -1.96583 -1.95577 0
M  V30 1800 H 180.989 -1.40484 -0.738233 0
M  V30 1801 H 181.01 -1.59989 -3.4523 0
M  V30 1802 H 180.522 -3.07111 -2.37285 0
M  V30 1803 H 178.623 -0.936131 -3.60649 0
M  V30 1804 H 178.736 -2.79917 -3.88823 0
M  V30 1805 H 177.1 -1.4085 -2.12211 0
M  V30 1806 H 177.883 -3.01137 -1.64837 0
M  V30 1807 N 180.328 1.1314 -1.09713 0
M  V30 1808 C 181.276 2.20717 -0.733934 0
M  V30 1809 C 182.27 1.6729 0.266506 0
M  V30 1810 O 183.476 1.79547 0.127656 0
M  V30 1811 H 179.851 0.719292 -0.21937 0
M  V30 1812 H 181.822 2.48611 -1.6503 0
M  V30 1813 C 180.571 3.47265 -0.173849 0
M  V30 1814 H 179.894 3.88716 -0.934873 0
M  V30 1815 H 181.334 4.23979 0.0423126 0
M  V30 1816 C 179.793 3.18724 1.09164 0
M  V30 1817 O 180.323 3.37762 2.17439 0
M  V30 1818 N 178.529 2.72583 1.00732 0
M  V30 1819 H 178.076 2.57291 0.126121 0
M  V30 1820 H 178.034 2.53862 1.85476 0
M  V30 1821 N 181.806 0.884767 1.30421 0
M  V30 1822 C 182.754 0.340869 2.30089 0
M  V30 1823 C 183.748 -0.55201 1.60154 0
M  V30 1824 O 184.954 -0.436467 1.74628 0
M  V30 1825 H 181.329 0.0915739 0.746404 0
M  V30 1826 H 183.3 1.19513 2.73421 0
M  V30 1827 C 182.049 -0.429779 3.45034 0
M  V30 1828 H 181.372 0.248024 3.9903 0
M  V30 1829 H 182.812 -0.775445 4.16849 0
M  V30 1830 C 181.271 -1.62677 2.95022 0
M  V30 1831 O 181.801 -2.72614 2.95033 0
M  V30 1832 N 180.007 -1.46387 2.51036 0
M  V30 1833 H 179.554 -0.569506 2.51226 0
M  V30 1834 H 179.512 -2.26612 2.17932 0
M  V30 1835 N 183.284 -1.43765 0.645699 0
M  V30 1836 C 184.532 -2.01499 0.155731 0
M  V30 1837 C 184.853 -1.51151 -1.232 0
M  V30 1838 O 184.123 -0.721044 -1.82148 0
M  V30 1839 H 182.703 -0.745003 0.0545817 0
M  V30 1840 H 185.365 -1.76075 0.835677 0
M  V30 1841 H 184.461 -3.1181 0.134577 0
M  V30 1842 N 184.763 -0.387143 -1.52771 0
M  V30 1843 C 185.693 0.440551 -2.29306 0
M  V30 1844 C 186.674 1.06535 -1.32606 0
M  V30 1845 O 187.859 1.07853 -1.61497 0
M  V30 1846 C 184.989 1.56919 -3.09829 0
M  V30 1847 C 183.943 1.07054 -4.14395 0
M  V30 1848 C 183.269 2.29109 -4.83129 0
M  V30 1849 C 184.569 0.140015 -5.22112 0
M  V30 1850 H 186.263 -0.198026 -2.98744 0
M  V30 1851 H 183.809 -0.09668 -1.43675 0
M  V30 1852 H 185.762 2.15503 -3.62128 0
M  V30 1853 H 184.486 2.23532 -2.3812 0
M  V30 1854 H 183.145 0.507247 -3.63074 0
M  V30 1855 H 182.793 2.94227 -4.0797 0
M  V30 1856 H 182.493 1.96406 -5.53804 0
M  V30 1857 H 184.017 2.88339 -5.38231 0
M  V30 1858 H 185.431 0.633978 -5.69784 0
M  V30 1859 H 183.828 -0.0971485 -6.00021 0
M  V30 1860 H 184.898 -0.811711 -4.78058 0
M  V30 1861 N 186.241 1.57166 -0.116904 0
M  V30 1862 C 187.171 2.18222 0.830759 0
M  V30 1863 C 188.152 1.12167 1.27877 0
M  V30 1864 O 189.337 1.40394 1.34176 0
M  V30 1865 C 186.467 2.77996 2.08172 0
M  V30 1866 C 185.421 3.89614 1.77157 0
M  V30 1867 C 184.747 4.36187 3.09265 0
M  V30 1868 C 186.047 5.1181 1.04151 0
M  V30 1869 H 187.741 2.97664 0.321992 0
M  V30 1870 H 185.287 1.4318 0.153434 0
M  V30 1871 H 187.24 3.19366 2.74924 0
M  V30 1872 H 185.964 1.9584 2.6137 0
M  V30 1873 H 184.623 3.48816 1.12796 0
M  V30 1874 H 184.271 3.50893 3.60393 0
M  V30 1875 H 183.971 5.11455 2.89288 0
M  V30 1876 H 185.495 4.80207 3.77139 0
M  V30 1877 H 186.909 5.50214 1.61052 0
M  V30 1878 H 185.306 5.92648 0.942762 0
M  V30 1879 H 186.376 4.84892 0.0279022 0
M  V30 1880 N 187.719 -0.156864 1.56817 0
M  V30 1881 C 188.947 -0.886316 1.86955 0
M  V30 1882 C 189.362 -1.75185 0.703975 0
M  V30 1883 O 188.719 -1.79555 -0.326552 0
M  V30 1884 C 188.77 -1.75117 3.16253 0
M  V30 1885 O 188.491 -0.920537 4.2832 0
M  V30 1886 C 189.992 -2.58905 3.59837 0
M  V30 1887 H 187.212 -0.25678 0.619923 0
M  V30 1888 H 189.756 -0.152615 2.0393 0
M  V30 1889 H 187.911 -2.43805 3.01062 0
M  V30 1890 H 188.325 -1.51337 5.02192 0
M  V30 1891 H 189.799 -3.1518 4.53172 0
M  V30 1892 H 190.276 -3.34472 2.84649 0
M  V30 1893 H 190.882 -1.95526 3.7769 0
M  V30 1894 N 189.197 -1.51736 -0.425897 0
M  V30 1895 C 190.425 -1.68794 -1.1965 0
M  V30 1896 C 190.84 -0.390164 -1.84725 0
M  V30 1897 O 190.197 0.632376 -1.71194 0
M  V30 1898 C 190.248 -2.81174 -2.27208 0
M  V30 1899 O 189.969 -4.05925 -1.64793 0
M  V30 1900 C 191.47 -3.09599 -3.17275 0
M  V30 1901 H 188.69 -0.566128 -0.360194 0
M  V30 1902 H 191.234 -1.98211 -0.503249 0
M  V30 1903 H 189.389 -2.54324 -2.9223 0
M  V30 1904 H 189.803 -4.68423 -2.35967 0
M  V30 1905 H 191.277 -3.91786 -3.88854 0
M  V30 1906 H 191.754 -2.22468 -3.78688 0
M  V30 1907 H 192.36 -3.38151 -2.57941 0
M  V30 1908 N 190.675 0.682077 -1.42076 0
M  V30 1909 C 191.921 1.44428 -1.42367 0
M  V30 1910 C 192.254 1.94164 -0.0373056 0
M  V30 1911 O 191.529 1.70429 0.937239 0
M  V30 1912 C 191.812 2.64654 -2.44194 0
M  V30 1913 C 191.665 2.20596 -3.91991 0
M  V30 1914 C 192.984 3.66865 -2.431 0
M  V30 1915 H 190.103 0.523834 -0.518428 0
M  V30 1916 H 192.745 0.77576 -1.73442 0
M  V30 1917 H 190.895 3.2169 -2.17826 0
M  V30 1918 H 192.567 1.68783 -4.29313 0
M  V30 1919 H 190.81 1.52242 -4.06208 0
M  V30 1920 H 191.481 3.06921 -4.58807 0
M  V30 1921 H 193.957 3.19531 -2.66532 0
M  V30 1922 H 192.833 4.48577 -3.16339 0
M  V30 1923 H 193.094 4.17493 -1.45437 0
M  V30 1924 N 192.153 1.28127 0.917671 0
M  V30 1925 C 193.083 1.14248 2.03641 0
M  V30 1926 C 194.064 0.0412748 1.7005 0
M  V30 1927 O 195.249 0.217566 1.92977 0
M  V30 1928 C 192.379 0.799431 3.37974 0
M  V30 1929 C 191.333 1.85497 3.85713 0
M  V30 1930 C 190.659 1.36565 5.16966 0
M  V30 1931 C 191.959 3.26085 4.08002 0
M  V30 1932 H 193.653 2.07835 2.15511 0
M  V30 1933 H 191.199 1.00064 1.03553 0
M  V30 1934 H 193.152 0.689114 4.15727 0
M  V30 1935 H 191.876 -0.172145 3.26146 0
M  V30 1936 H 190.535 1.95437 3.10161 0
M  V30 1937 H 190.183 0.383253 5.01538 0
M  V30 1938 H 189.883 2.07143 5.49878 0
M  V30 1939 H 191.407 1.26848 5.97279 0
M  V30 1940 H 192.821 3.19089 4.76293 0
M  V30 1941 H 191.218 3.94462 4.52238 0
M  V30 1942 H 192.288 3.70394 3.12948 0
M  V30 1943 N 193.631 -1.12557 1.10312 0
M  V30 1944 C 194.541 -2.21841 0.763142 0
M  V30 1945 C 195.557 -1.72354 -0.238801 0
M  V30 1946 O 196.733 -2.01249 -0.0778746 0
M  V30 1947 C 193.798 -3.46131 0.198632 0
M  V30 1948 C 192.859 -4.10464 1.25769 0
M  V30 1949 C 192.092 -5.28821 0.72002 0
M  V30 1950 O 192.315 -5.6859 -0.453993 0
M  V30 1951 O 191.249 -5.83437 1.47935 0
M  V30 1952 H 195.075 -2.53312 1.67532 0
M  V30 1953 H 192.66 -1.20867 0.878157 0
M  V30 1954 H 194.542 -4.2125 -0.112401 0
M  V30 1955 H 193.217 -3.16338 -0.686419 0
M  V30 1956 H 192.124 -3.3713 1.62156 0
M  V30 1957 H 193.457 -4.44408 2.11571 0
M  V30 1958 N 195.109 -0.891671 -1.2995 0
M  V30 1959 C 196.019 -0.367691 -2.31701 0
M  V30 1960 C 197.035 0.533486 -1.6562 0
M  V30 1961 O 198.211 0.424997 -1.96865 0
M  V30 1962 C 195.276 0.403406 -3.44345 0
M  V30 1963 C 194.337 -0.528328 -4.26037 0
M  V30 1964 C 193.57 0.206063 -5.33302 0
M  V30 1965 O 193.793 1.43119 -5.52153 0
M  V30 1966 O 192.727 -0.447281 -6.00236 0
M  V30 1967 H 196.553 -1.21163 -2.78484 0
M  V30 1968 H 194.138 -0.655725 -1.34241 0
M  V30 1969 H 196.02 0.839753 -4.12948 0
M  V30 1970 H 194.695 1.22354 -2.99685 0
M  V30 1971 H 193.602 -1.01362 -3.60106 0
M  V30 1972 H 194.935 -1.31465 -4.74318 0
M  V30 1973 N 196.587 1.43421 -0.653314 0
M  V30 1974 C 197.537 2.2792 0.060558 0
M  V30 1975 C 198.521 1.39906 0.794677 0
M  V30 1976 O 199.713 1.63536 0.677128 0
M  V30 1977 C 196.842 3.27603 1.0262 0
M  V30 1978 C 195.928 4.23104 0.290551 0
M  V30 1979 N 196.319 5.01031 -0.692967 0
M  V30 1980 C 194.617 4.42816 0.531984 0
M  V30 1981 C 195.318 5.70626 -1.12963 0
M  V30 1982 N 194.294 5.41617 -0.463867 0
M  V30 1983 H 198.096 2.85585 -0.694143 0
M  V30 1984 H 195.61 1.55126 -0.480602 0
M  V30 1985 H 197.607 3.86918 1.55242 0
M  V30 1986 H 196.267 2.71499 1.78096 0
M  V30 1987 H 197.278 5.0669 -1.07169 0
M  V30 1988 H 193.955 3.97782 1.26791 0
M  V30 1989 H 195.345 6.4318 -1.94343 0
M  V30 1990 N 198.065 0.39524 1.52563 0
M  V30 1991 C 199.313 -0.184678 2.01254 0
M  V30 1992 C 199.634 -1.46822 1.28329 0
M  V30 1993 O 198.904 -1.91666 0.405094 0
M  V30 1994 H 197.484 -0.0712355 0.743596 0
M  V30 1995 H 200.146 0.528293 1.87603 0
M  V30 1996 H 199.242 -0.390681 3.09645 0
M  V30 1997 N 199.544 -1.57102 0.125237 0
M  V30 1998 C 200.774 -1.99472 -0.538015 0
M  V30 1999 C 201.182 -1.00395 -1.60366 0
M  V30 2000 O 200.525 0.0103875 -1.83697 0
M  V30 2001 C 200.587 -3.38262 -1.21734 0
M  V30 2002 C 200.251 -4.56021 -0.298897 0
M  V30 2003 C 201.248 -5.17817 0.464943 0
M  V30 2004 C 198.933 -5.01869 -0.208149 0
M  V30 2005 C 200.927 -6.23852 1.3072 0
M  V30 2006 C 198.614 -6.07763 0.637736 0
M  V30 2007 C 199.612 -6.68622 1.39403 0
M  V30 2008 O 199.3 -7.7247 2.22586 0
M  V30 2009 H 199.032 -0.659934 -0.146501 0
M  V30 2010 H 201.586 -2.04321 0.210267 0
M  V30 2011 H 199.816 -3.30185 -2.01282 0
M  V30 2012 H 201.505 -3.6488 -1.77813 0
M  V30 2013 H 202.271 -4.83308 0.404741 0
M  V30 2014 H 198.15 -4.54241 -0.786522 0
M  V30 2015 H 201.694 -6.71284 1.898 0
M  V30 2016 H 197.591 -6.41701 0.699309 0
M  V30 2017 H 198.359 -7.89595 2.15596 0
M  V30 2018 N 201.022 0.148545 -1.56898 0
M  V30 2019 C 201.952 1.18524 -2.01182 0
M  V30 2020 C 202.933 1.4489 -0.891123 0
M  V30 2021 O 204.118 1.55836 -1.15882 0
M  V30 2022 C 201.248 2.51879 -2.39112 0
M  V30 2023 C 200.202 2.40038 -3.54353 0
M  V30 2024 C 199.528 3.78089 -3.78091 0
M  V30 2025 C 200.828 1.88577 -4.87069 0
M  V30 2026 H 202.522 0.817029 -2.88036 0
M  V30 2027 H 200.068 0.391575 -1.38574 0
M  V30 2028 H 202.021 3.24627 -2.68692 0
M  V30 2029 H 200.745 2.90532 -1.49193 0
M  V30 2030 H 199.404 1.69742 -3.24936 0
M  V30 2031 H 199.052 4.14175 -2.85426 0
M  V30 2032 H 198.752 3.71028 -4.55645 0
M  V30 2033 H 200.276 4.52387 -4.10095 0
M  V30 2034 H 201.69 2.51117 -5.15377 0
M  V30 2035 H 200.087 1.9241 -5.68417 0
M  V30 2036 H 201.157 0.84136 -4.77545 0
M  V30 2037 N 202.5 1.5196 0.417844 0
M  V30 2038 C 203.41 1.77554 1.53336 0
M  V30 2039 C 204.426 0.660655 1.6097 0
M  V30 2040 O 205.602 0.945099 1.77848 0
M  V30 2041 C 202.667 1.91291 2.89152 0
M  V30 2042 C 201.728 3.15183 2.91475 0
M  V30 2043 C 200.961 3.28256 4.20813 0
M  V30 2044 O 201.184 2.46798 5.14244 0
M  V30 2045 O 200.118 4.21356 4.29817 0
M  V30 2046 H 203.944 2.7222 1.34647 0
M  V30 2047 H 201.529 1.36698 0.602828 0
M  V30 2048 H 203.411 2.02199 3.69721 0
M  V30 2049 H 202.086 0.998129 3.07927 0
M  V30 2050 H 200.993 3.09739 2.09791 0
M  V30 2051 H 202.326 4.06414 2.77648 0
M  V30 2052 N 203.978 -0.674533 1.42435 0
M  V30 2053 C 204.941 -1.76986 1.45632 0
M  V30 2054 C 205.941 -1.5708 0.343871 0
M  V30 2055 O 207.131 -1.63367 0.604709 0
M  V30 2056 C 204.263 -3.15623 1.28822 0
M  V30 2057 H 205.456 -1.75539 2.43158 0
M  V30 2058 H 203.009 -0.884189 1.28887 0
M  V30 2059 H 203.744 -3.22696 0.322193 0
M  V30 2060 H 203.529 -3.31475 2.09444 0
M  V30 2061 H 205.019 -3.95537 1.33942 0
M  V30 2062 N 205.456 -1.28612 -0.910864 0
M  V30 2063 C 206.686 -1.1862 -1.69153 0
M  V30 2064 C 207.094 0.257324 -1.87442 0
M  V30 2065 O 206.437 1.18543 -1.40332 0
M  V30 2066 C 206.499 -1.81606 -3.10257 0
M  V30 2067 C 206.163 -3.30864 -3.15243 0
M  V30 2068 C 207.16 -4.27256 -2.96223 0
M  V30 2069 C 204.845 -3.71871 -3.37664 0
M  V30 2070 C 206.839 -5.62631 -2.99541 0
M  V30 2071 C 204.526 -5.07371 -3.40614 0
M  V30 2072 C 205.524 -6.02561 -3.21573 0
M  V30 2073 O 205.212 -7.35589 -3.2429 0
M  V30 2074 H 204.944 -0.412633 -0.535453 0
M  V30 2075 H 207.498 -1.70306 -1.14827 0
M  V30 2076 H 205.728 -1.24418 -3.66138 0
M  V30 2077 H 207.417 -1.66092 -3.70362 0
M  V30 2078 H 208.183 -3.9691 -2.78725 0
M  V30 2079 H 204.062 -2.98241 -3.5153 0
M  V30 2080 H 207.606 -6.36907 -2.84597 0
M  V30 2081 H 203.503 -5.37366 -3.57642 0
M  V30 2082 H 204.271 -7.44252 -3.40633 0
M  V30 2083 N 206.934 1.1197 -1.10907 0
M  V30 2084 C 207.844 2.21433 -0.774896 0
M  V30 2085 C 208.86 1.72478 0.229657 0
M  V30 2086 O 210.036 2.01288 0.0672008 0
M  V30 2087 C 207.101 3.4602 -0.216986 0
M  V30 2088 C 206.162 4.09791 -1.27944 0
M  V30 2089 C 205.395 5.28431 -0.748055 0
M  V30 2090 O 205.618 5.68823 0.423833 0
M  V30 2091 O 204.552 5.82644 -1.51027 0
M  V30 2092 H 208.378 2.5242 -1.68873 0
M  V30 2093 H 205.963 1.20399 -0.884555 0
M  V30 2094 H 207.845 4.21304 0.090059 0
M  V30 2095 H 206.52 3.16698 0.669633 0
M  V30 2096 H 205.427 3.36265 -1.63941 0
M  V30 2097 H 206.76 4.4328 -2.13925 0
M  V30 2098 N 208.412 0.89855 1.29475 0
M  V30 2099 C 209.658 0.524658 1.95896 0
M  V30 2100 C 209.991 -0.926468 1.70676 0
M  V30 2101 O 209.266 -1.65665 1.01908 0
M  V30 2102 C 209.549 0.81633 3.50725 0
M  V30 2103 C 209.402 2.31907 3.85408 0
M  V30 2104 C 210.721 0.302038 4.39062 0
M  V30 2105 H 207.84 0.19209 0.711527 0
M  V30 2106 H 210.482 1.12502 1.53112 0
M  V30 2107 H 208.632 0.305369 3.87298 0
M  V30 2108 H 210.304 2.89949 3.58786 0
M  V30 2109 H 208.547 2.78027 3.32992 0
M  V30 2110 H 209.218 2.47373 4.93468 0
M  V30 2111 H 211.694 0.739551 4.09475 0
M  V30 2112 H 210.57 0.535331 5.46283 0
M  V30 2113 H 210.831 -0.797216 4.34853 0
M  V30 2114 N 209.89 -1.43072 0.660911 0
M  V30 2115 C 211.118 -2.06067 0.185422 0
M  V30 2116 C 211.533 -1.49582 -1.15198 0
M  V30 2117 O 210.89 -0.630134 -1.71276 0
M  V30 2118 C 210.941 -3.61371 0.0966523 0
M  V30 2119 O 210.662 -4.15758 1.38119 0
M  V30 2120 C 212.163 -4.41455 -0.403996 0
M  V30 2121 H 209.383 -0.664459 0.0934604 0
M  V30 2122 H 211.927 -1.83447 0.90373 0
M  V30 2123 H 210.082 -3.8315 -0.572259 0
M  V30 2124 H 210.496 -5.09499 1.24542 0
M  V30 2125 H 211.97 -5.50437 -0.415045 0
M  V30 2126 H 212.447 -4.15036 -1.43674 0
M  V30 2127 H 213.053 -4.24663 0.232691 0
M  V30 2128 N 211.368 -0.403325 -1.52352 0
M  V30 2129 C 212.593 0.176499 -2.06648 0
M  V30 2130 C 213.018 1.38577 -1.27193 0
M  V30 2131 O 212.376 1.7879 -0.300637 0
M  V30 2132 C 212.424 0.511061 -3.5696 0
M  V30 2133 O 211.528 1.60294 -3.79973 0
M  V30 2134 H 210.869 0.0167337 -0.663789 0
M  V30 2135 H 213.399 -0.574848 -1.96359 0
M  V30 2136 H 213.409 0.771362 -4.00642 0
M  V30 2137 H 212.084 -0.37296 -4.14224 0
M  V30 2138 H 210.661 1.33526 -3.48174 0
M  V30 2139 N 212.846 1.57033 -0.133567 0
M  V30 2140 C 214.257 1.82593 0.389464 0
M  V30 2141 C 214.608 1.05156 1.6564 0
M  V30 2142 O 213.733 0.292644 2.14412 0
M  V30 2143 C 214.328 3.31204 0.713377 0
M  V30 2144 C 212.887 3.57393 1.18098 0
M  V30 2145 C 212.034 2.76598 0.197126 0
M  V30 2146 H 214.985 1.54598 -0.358481 0
M  V30 2147 H 215.006 3.46627 1.56939 0
M  V30 2148 H 214.518 3.87537 -0.2089 0
M  V30 2149 H 212.619 3.06433 2.11966 0
M  V30 2150 H 212.732 4.65915 1.11624 0
M  V30 2151 H 211.096 2.45257 0.687088 0
M  V30 2152 H 211.879 3.35697 -0.718504 0
M  V30 2153 N 214.325 -0.140222 1.56975 0
M  V30 2154 C 215.272 -1.17292 1.98774 0
M  V30 2155 C 216.242 -1.4232 0.856408 0
M  V30 2156 O 217.427 -1.54541 1.119 0
M  V30 2157 C 214.567 -2.49973 2.37923 0
M  V30 2158 C 213.68 -2.32062 3.64378 0
M  V30 2159 C 212.815 -3.57825 3.926 0
M  V30 2160 C 211.854 -3.3498 5.12303 0
M  V30 2161 N 210.991 -4.52891 5.36502 0
M  V30 2162 H 215.831 -0.809472 2.86795 0
M  V30 2163 H 213.368 -0.388237 1.41884 0
M  V30 2164 H 215.326 -3.27346 2.58652 0
M  V30 2165 H 213.956 -2.84252 1.52972 0
M  V30 2166 H 213.008 -1.45711 3.51387 0
M  V30 2167 H 214.32 -2.11145 4.51906 0
M  V30 2168 H 213.474 -4.43624 4.13863 0
M  V30 2169 H 212.213 -3.81753 3.03506 0
M  V30 2170 H 211.218 -2.4757 4.90906 0
M  V30 2171 H 212.443 -3.12444 6.02956 0
M  V30 2172 H 210.389 -4.76979 4.50363 0
M  V30 2173 H 210.306 -4.35001 6.18312 0
M  V30 2174 H 211.574 -5.39884 5.62268 0
M  V30 2175 N 215.803 -1.52179 -0.40978 0
M  V30 2176 C 217.049 -1.66453 -1.15851 0
M  V30 2177 C 217.382 -0.392972 -1.90182 0
M  V30 2178 O 216.657 0.608579 -1.84734 0
M  V30 2179 C 216.94 -2.88612 -2.15349 0
M  V30 2180 C 216.793 -4.25815 -1.44918 0
M  V30 2181 C 218.112 -3.06294 -3.16026 0
M  V30 2182 H 215.231 -0.60575 -0.419805 0
M  V30 2183 H 217.873 -1.84732 -0.444314 0
M  V30 2184 H 216.023 -2.73158 -2.76255 0
M  V30 2185 H 217.695 -4.52995 -0.871365 0
M  V30 2186 H 215.938 -4.27247 -0.751159 0
M  V30 2187 H 216.609 -5.07337 -2.17516 0
M  V30 2188 H 219.085 -3.20641 -2.65195 0
M  V30 2189 H 217.961 -3.93283 -3.8291 0
M  V30 2190 H 218.222 -2.19579 -3.83715 0
M  V30 2191 N 217.281 0.66697 -1.42791 0
M  V30 2192 C 218.53 1.42278 -1.42968 0
M  V30 2193 C 218.843 1.9553 -0.0524489 0
M  V30 2194 O 220.049 2.71414 0.068363 0
M  V30 2195 C 218.505 2.57418 -2.51524 0
M  V30 2196 C 218.113 2.10832 -3.9529 0
M  V30 2197 C 219.857 3.34878 -2.60877 0
M  V30 2198 C 217.764 3.23101 -4.95338 0
M  V30 2199 H 216.694 0.534533 -0.531781 0
M  V30 2200 H 219.345 0.721302 -1.68729 0
M  V30 2201 H 217.727 3.29971 -2.18941 0
M  V30 2202 H 218.901 1.4538 -4.37266 0
M  V30 2203 H 217.216 1.46289 -3.89857 0
M  V30 2204 H 219.813 4.18505 -3.32802 0
M  V30 2205 H 220.156 3.81993 -1.6549 0
M  V30 2206 H 220.689 2.69398 -2.92693 0
M  V30 2207 H 217.428 2.80969 -5.9223 0
M  V30 2208 H 216.948 3.87309 -4.57987 0
M  V30 2209 H 218.627 3.88447 -5.17415 0
M  V30 2210 N 218.759 1.29093 0.90403 0
M  V30 2211 C 220.17 1.15186 1.46932 0
M  V30 2212 C 220.521 -0.254587 1.94541 0
M  V30 2213 O 219.646 -1.14972 1.83332 0
M  V30 2214 C 220.241 2.08492 2.67051 0
M  V30 2215 C 218.8 1.98621 3.19729 0
M  V30 2216 C 217.947 1.9967 1.92425 0
M  V30 2217 H 220.898 1.41641 0.715789 0
M  V30 2218 H 220.919 1.65461 3.42641 0
M  V30 2219 H 220.431 3.10847 2.3237 0
M  V30 2220 H 218.532 0.993389 3.59114 0
M  V30 2221 H 218.645 2.86068 3.8432 0
M  V30 2222 H 217.009 1.44208 2.09943 0
M  V30 2223 H 217.792 3.03721 1.60026 0
M  V30 2224 N 220.237 -1.11381 1.11499 0
M  V30 2225 C 221.147 -2.21019 0.786628 0
M  V30 2226 C 222.163 -1.72597 -0.220507 0
M  V30 2227 O 223.339 -2.01321 -0.0565251 0
M  V30 2228 C 220.404 -3.459 0.235333 0
M  V30 2229 C 219.465 -4.09107 1.30115 0
M  V30 2230 C 218.698 -5.28027 0.776068 0
M  V30 2231 O 218.921 -5.6904 -0.393661 0
M  V30 2232 O 217.855 -5.81835 1.54114 0
M  V30 2233 H 221.681 -2.51521 1.70209 0
M  V30 2234 H 219.266 -1.19928 0.890928 0
M  V30 2235 H 221.148 -4.21346 -0.067715 0
M  V30 2236 H 219.823 -3.17049 -0.652828 0
M  V30 2237 H 218.73 -3.35391 1.65722 0
M  V30 2238 H 220.063 -4.42139 2.16273 0
M  V30 2239 N 221.715 -0.905404 -1.28997 0
M  V30 2240 C 222.647 -0.344748 -2.26592 0
M  V30 2241 C 223.66 0.512135 -1.54535 0
M  V30 2242 O 224.849 0.328368 -1.75454 0
M  V30 2243 C 221.949 0.526587 -3.34784 0
M  V30 2244 C 221.122 -0.305871 -4.36329 0
M  V30 2245 C 220.181 0.499209 -5.23827 0
M  V30 2246 O 219.207 -0.0853004 -5.69136 0
M  V30 2247 N 220.409 1.80408 -5.51755 0
M  V30 2248 H 223.174 -1.18359 -2.75338 0
M  V30 2249 H 220.735 -0.770481 -1.42391 0
M  V30 2250 H 222.727 1.07171 -3.90252 0
M  V30 2251 H 221.297 1.26613 -2.85811 0
M  V30 2252 H 220.517 -1.0324 -3.80441 0
M  V30 2253 H 221.805 -0.875773 -5.01206 0
M  V30 2254 H 221.203 2.3016 -5.16762 0
M  V30 2255 H 219.76 2.29621 -6.10014 0
M  V30 2256 N 223.193 1.4272 -0.668489 0
M  V30 2257 C 224.604 1.84793 -0.266151 0
M  V30 2258 C 224.955 1.55959 1.19043 0
M  V30 2259 O 224.08 1.01622 1.91055 0
M  V30 2260 C 224.675 3.35436 -0.476271 0
M  V30 2261 C 223.234 3.76182 -0.128113 0
M  V30 2262 C 222.381 2.66344 -0.771777 0
M  V30 2263 H 225.332 1.32656 -0.871098 0
M  V30 2264 H 225.353 3.79515 0.273561 0
M  V30 2265 H 224.865 3.5639 -1.53647 0
M  V30 2266 H 222.966 3.60836 0.928891 0
M  V30 2267 H 223.079 4.75766 -0.564231 0
M  V30 2268 H 221.443 2.53885 -0.203652 0
M  V30 2269 H 222.226 2.90123 -1.83531 0
M  V30 2270 N 224.671 0.411399 1.52136 0
M  V30 2271 C 225.581 -0.419774 2.30814 0
M  V30 2272 C 226.597 -1.0515 1.38634 0
M  V30 2273 O 227.773 -1.05252 1.71709 0
M  V30 2274 C 224.838 -1.52019 3.11594 0
M  V30 2275 C 223.899 -0.91129 4.19516 0
M  V30 2276 C 223.132 -1.95927 4.96436 0
M  V30 2277 O 223.355 -3.17775 4.73683 0
M  V30 2278 O 222.289 -1.56423 5.81219 0
M  V30 2279 H 226.115 0.221805 3.02889 0
M  V30 2280 H 223.7 0.174547 1.48377 0
M  V30 2281 H 225.582 -2.15898 3.61892 0
M  V30 2282 H 224.257 -2.14633 2.42311 0
M  V30 2283 H 223.164 -0.235157 3.7336 0
M  V30 2284 H 224.497 -0.32904 4.91099 0
M  V30 2285 N 226.149 -1.5696 0.141893 0
M  V30 2286 C 227.56 -1.82797 -0.379776 0
M  V30 2287 C 227.911 -1.06033 -1.6508 0
M  V30 2288 O 227.036 -0.304011 -2.14254 0
M  V30 2289 C 227.631 -3.31578 -0.695802 0
M  V30 2290 C 226.19 -3.58014 -1.16201 0
M  V30 2291 C 225.337 -2.76699 -0.182455 0
M  V30 2292 H 228.288 -1.54406 0.366675 0
M  V30 2293 H 228.309 -3.47454 -1.55099 0
M  V30 2294 H 227.821 -3.87421 0.229449 0
M  V30 2295 H 225.922 -3.07553 -2.10338 0
M  V30 2296 H 226.035 -4.66501 -1.09151 0
M  V30 2297 H 224.399 -2.45618 -0.674072 0
M  V30 2298 H 225.182 -3.35311 0.736297 0
M  V30 2299 N 227.627 0.131896 -1.57047 0
M  V30 2300 C 228.855 0.856461 -1.88341 0
M  V30 2301 C 229.27 1.74042 -0.731757 0
M  V30 2302 O 228.627 1.80051 0.297945 0
M  V30 2303 C 228.678 1.70064 -3.18999 0
M  V30 2304 O 228.399 0.852278 -4.2973 0
M  V30 2305 C 229.9 2.53148 -3.63911 0
M  V30 2306 H 227.12 0.246885 -0.62393 0
M  V30 2307 H 229.664 0.120152 -2.04147 0
M  V30 2308 H 227.819 2.38984 -3.04902 0
M  V30 2309 H 228.233 1.43329 -5.04537 0
M  V30 2310 H 229.707 3.07931 -4.58129 0
M  V30 2311 H 230.184 3.29901 -2.89935 0
M  V30 2312 H 230.79 1.89492 -3.80753 0
M  V30 2313 N 229.106 1.52395 0.401703 0
M  V30 2314 C 230.353 1.66817 1.14796 0
M  V30 2315 C 230.681 0.401772 1.90305 0
M  V30 2316 O 229.936 -0.615487 1.85769 0
M  V30 2317 C 230.235 2.84578 2.16217 0
M  V30 2318 C 229.901 4.22513 1.5746 0
M  V30 2319 C 228.563 4.60029 1.41161 0
M  V30 2320 C 230.915 5.0844 1.14622 0
M  V30 2321 C 228.243 5.81144 0.80552 0
M  V30 2322 C 230.595 6.30167 0.55428 0
M  V30 2323 C 229.259 6.66426 0.378482 0
M  V30 2324 H 228.529 0.610428 0.420069 0
M  V30 2325 H 231.176 1.86512 0.434212 0
M  V30 2326 H 229.481 2.59248 2.93764 0
M  V30 2327 H 231.178 2.92933 2.73845 0
M  V30 2328 H 227.768 3.92953 1.71132 0
M  V30 2329 H 231.952 4.80034 1.26021 0
M  V30 2330 H 227.208 6.07855 0.657399 0
M  V30 2331 H 231.382 6.96071 0.213983 0
M  V30 2332 H 229.009 7.60143 -0.0932606 0
M  V30 2333 N 230.584 -0.659388 1.43143 0
M  V30 2334 C 231.814 -1.44513 1.47646 0
M  V30 2335 C 232.222 -1.88981 0.0910095 0
M  V30 2336 O 231.565 -1.59702 -0.907789 0
M  V30 2337 C 231.627 -2.71663 2.35456 0
M  V30 2338 C 231.291 -2.49175 3.83094 0
M  V30 2339 C 232.288 -2.1279 4.74359 0
M  V30 2340 C 229.973 -2.63691 4.27519 0
M  V30 2341 C 231.967 -1.9121 6.08044 0
M  V30 2342 C 229.654 -2.41726 5.61259 0
M  V30 2343 C 230.652 -2.0554 6.51339 0
M  V30 2344 O 230.34 -1.838 7.82606 0
M  V30 2345 H 230.072 -0.45064 0.503884 0
M  V30 2346 H 232.626 -0.816248 1.88485 0
M  V30 2347 H 230.856 -3.37089 1.89493 0
M  V30 2348 H 232.545 -3.33595 2.31235 0
M  V30 2349 H 233.311 -2.01157 4.41317 0
M  V30 2350 H 229.19 -2.90832 3.57684 0
M  V30 2351 H 232.734 -1.62889 6.78316 0
M  V30 2352 H 228.631 -2.52959 5.9387 0
M  V30 2353 H 229.399 -1.98275 7.94122 0
M  V30 2354 N 232.062 -1.29571 -0.897171 0
M  V30 2355 C 233.287 -1.20705 -1.68656 0
M  V30 2356 C 233.712 0.228582 -1.86706 0
M  V30 2357 O 233.07 1.16494 -1.3892 0
M  V30 2358 C 233.118 -1.9282 -3.04717 0
M  V30 2359 O 232.222 -1.24697 -3.93096 0
M  V30 2360 H 231.563 -0.418126 -0.515816 0
M  V30 2361 H 234.093 -1.71183 -1.12061 0
M  V30 2362 H 234.103 -2.01372 -3.54843 0
M  V30 2363 H 232.778 -2.97239 -2.90899 0
M  V30 2364 H 231.355 -1.2442 -3.51531 0
M  V30 2365 N 233.54 1.10788 -1.12088 0
M  V30 2366 C 234.956 1.34691 -0.856186 0
M  V30 2367 C 235.156 1.94791 0.515615 0
M  V30 2368 O 234.212 2.18524 1.26505 0
M  V30 2369 C 235.525 2.27208 -1.9697 0
M  V30 2370 C 237.073 2.40755 -2.00016 0
M  V30 2371 C 237.548 3.36598 -3.1059 0
M  V30 2372 N 239.039 3.44164 -3.10008 0
M  V30 2373 C 239.774 4.18284 -3.92206 0
M  V30 2374 N 239.27 4.95322 -4.84384 0
M  V30 2375 N 241.063 4.13865 -3.80357 0
M  V30 2376 H 233.214 0.70144 -2.00483 0
M  V30 2377 H 235.477 0.371405 -0.872217 0
M  V30 2378 H 235.183 1.90251 -2.958 0
M  V30 2379 H 235.057 3.27485 -1.87172 0
M  V30 2380 H 237.444 2.76982 -1.01808 0
M  V30 2381 H 237.525 1.40305 -2.13888 0
M  V30 2382 H 237.169 3.01096 -4.09028 0
M  V30 2383 H 237.099 4.36918 -2.93956 0
M  V30 2384 H 239.59 2.8922 -2.43228 0
M  V30 2385 H 239.903 5.49267 -5.43623 0
M  V30 2386 H 238.248 4.94459 -4.884 0
M  V30 2387 H 241.439 3.52773 -3.07683 0
M  V30 2388 H 241.612 4.71372 -4.44649 0
M  V30 2389 N 235.018 0.912232 1.28515 0
M  V30 2390 C 235.928 0.404506 2.31086 0
M  V30 2391 C 236.944 -0.50707 1.66448 0
M  V30 2392 O 238.12 -0.393624 1.97516 0
M  V30 2393 C 235.185 -0.348572 3.44943 0
M  V30 2394 C 234.246 0.59604 4.25142 0
M  V30 2395 C 233.479 -0.121194 5.33562 0
M  V30 2396 O 233.702 -1.34317 5.5436 0
M  V30 2397 O 232.636 0.542716 5.99448 0
M  V30 2398 H 236.462 1.25579 2.76521 0
M  V30 2399 H 234.047 0.676998 1.33181 0
M  V30 2400 H 235.929 -0.77395 4.14232 0
M  V30 2401 H 234.604 -1.17571 3.01594 0
M  V30 2402 H 233.511 1.07079 3.58448 0
M  V30 2403 H 234.844 1.38995 4.72167 0
M  V30 2404 N 236.496 -1.42363 0.676048 0
M  V30 2405 C 237.429 -2.28141 -0.0516916 0
M  V30 2406 C 238.407 -1.41135 -0.807439 0
M  V30 2407 O 239.591 -1.70573 -0.802305 0
M  V30 2408 C 236.718 -3.21007 -1.08039 0
M  V30 2409 C 235.764 -4.24426 -0.420076 0
M  V30 2410 S 236.597 -5.29134 0.823246 0
M  V30 2411 C 237.753 -6.25566 -0.204344 0
M  V30 2412 H 237.986 -2.89515 0.675884 0
M  V30 2413 H 235.519 -1.47211 0.465635 0
M  V30 2414 H 237.477 -3.75048 -1.66881 0
M  V30 2415 H 236.138 -2.58766 -1.78042 0
M  V30 2416 H 235.331 -4.89596 -1.19633 0
M  V30 2417 H 234.933 -3.7388 0.0947845 0
M  V30 2418 H 237.225 -6.69098 -1.06369 0
M  V30 2419 H 238.168 -7.06895 0.412915 0
M  V30 2420 H 238.576 -5.61811 -0.55038 0
M  V30 2421 N 237.974 -0.419461 -1.51915 0
M  V30 2422 C 239.22 0.153166 -2.02221 0
M  V30 2423 C 239.553 1.43907 -1.30401 0
M  V30 2424 O 238.828 1.90055 -0.413438 0
M  V30 2425 C 239.111 0.390291 -3.57979 0
M  V30 2426 C 238.964 -0.913014 -4.40436 0
M  V30 2427 C 240.283 1.16794 -4.2432 0
M  V30 2428 H 237.402 0.0541924 -0.735005 0
M  V30 2429 H 240.044 -0.554955 -1.81715 0
M  V30 2430 H 238.194 0.993491 -3.75582 0
M  V30 2431 H 239.866 -1.54882 -4.34522 0
M  V30 2432 H 238.109 -1.52168 -4.06236 0
M  V30 2433 H 238.78 -0.701361 -5.47526 0
M  V30 2434 H 241.256 0.657161 -4.10878 0
M  V30 2435 H 240.132 1.3026 -5.3322 0
M  V30 2436 H 240.393 2.19132 -3.83971 0
M  V30 2437 N 239.452 1.56882 -0.150215 0
M  V30 2438 C 240.415 2.1573 0.774157 0
M  V30 2439 C 241.415 1.0999 1.17298 0
M  V30 2440 O 242.605 1.35613 1.09338 0
M  V30 2441 C 239.737 2.72302 2.05096 0
M  V30 2442 H 240.93 2.98752 0.262201 0
M  V30 2443 H 238.483 1.55985 0.099248 0
M  V30 2444 H 239.218 1.92956 2.6065 0
M  V30 2445 H 239.003 3.49665 1.77416 0
M  V30 2446 H 240.493 3.17632 2.71109 0
M  V30 2447 N 240.93 -0.123565 1.57115 0
M  V30 2448 C 242.179 -0.830704 1.83799 0
M  V30 2449 C 242.492 -1.81259 0.735158 0
M  V30 2450 O 243.698 -2.56558 0.888278 0
M  V30 2451 C 242.154 -1.52802 3.25852 0
M  V30 2452 C 241.762 -0.587356 4.44133 0
M  V30 2453 C 243.506 -2.22056 3.61789 0
M  V30 2454 C 241.413 -1.28764 5.77212 0
M  V30 2455 H 240.343 -0.313967 0.685522 0
M  V30 2456 H 242.994 -0.0834359 1.8331 0
M  V30 2457 H 241.376 -2.32175 3.20797 0
M  V30 2458 H 242.55 0.172829 4.60476 0
M  V30 2459 H 240.865 -0.00201892 4.164 0
M  V30 2460 H 243.462 -2.75131 4.58483 0
M  V30 2461 H 243.805 -2.99644 2.88997 0
M  V30 2462 H 244.338 -1.49576 3.68608 0
M  V30 2463 H 241.077 -0.55314 6.53162 0
M  V30 2464 H 240.597 -2.01995 5.64764 0
M  V30 2465 H 242.276 -1.8221 6.20813 0
M  V30 2466 N 242.408 -1.52605 -0.393616 0
M  V30 2467 C 243.819 -1.59417 -0.971761 0
M  V30 2468 C 244.17 -0.444173 -1.91106 0
M  V30 2469 O 243.295 0.433382 -2.12016 0
M  V30 2470 C 243.89 -2.88936 -1.76921 0
M  V30 2471 C 242.449 -2.98175 -2.29714 0
M  V30 2472 C 241.596 -2.54491 -1.10135 0
M  V30 2473 H 244.547 -1.57751 -0.173317 0
M  V30 2474 H 244.568 -2.75163 -2.62804 0
M  V30 2475 H 244.08 -3.72616 -1.08532 0
M  V30 2476 H 242.181 -2.19024 -3.01429 0
M  V30 2477 H 242.294 -4.02726 -2.59517 0
M  V30 2478 H 240.658 -2.08702 -1.45999 0
M  V30 2479 H 241.441 -3.4056 -0.432874 0
M  V30 2480 N 243.887 0.651787 -1.4349 0
M  V30 2481 C 245.112 1.44434 -1.48841 0
M  V30 2482 C 245.537 1.8779 -0.107955 0
M  V30 2483 O 244.895 1.57464 0.898602 0
M  V30 2484 C 244.943 2.65458 -2.44059 0
M  V30 2485 O 244.047 3.64566 -1.92784 0
M  V30 2486 H 243.388 0.433005 -0.503391 0
M  V30 2487 H 245.918 0.797451 -1.88419 0
M  V30 2488 H 245.928 3.13255 -2.6141 0
M  V30 2489 H 244.603 2.33244 -3.4434 0
M  V30 2490 H 243.18 3.23716 -1.851 0
M  V30 2491 N 245.365 1.30045 0.890287 0
M  V30 2492 C 246.328 1.15963 1.977 0
M  V30 2493 C 247.328 0.0923777 1.60534 0
M  V30 2494 O 248.518 0.340071 1.70848 0
M  V30 2495 C 245.65 0.775451 3.31963 0
M  V30 2496 H 246.843 2.12502 2.11619 0
M  V30 2497 H 244.396 1.13366 1.07601 0
M  V30 2498 H 245.131 -0.189671 3.23745 0
M  V30 2499 H 244.916 1.54668 3.60306 0
M  V30 2500 H 246.406 0.700251 4.11687 0
M  V30 2501 N 246.843 -1.10192 1.12674 0
M  V30 2502 C 247.793 -2.14754 0.765801 0
M  V30 2503 C 248.777 -1.59154 -0.236409 0
M  V30 2504 O 249.969 -1.76951 -0.0415261 0
M  V30 2505 C 247.098 -3.42563 0.224827 0
M  V30 2506 C 246.184 -4.05091 1.25548 0
M  V30 2507 N 246.575 -4.42287 2.4539 0
M  V30 2508 C 244.873 -4.32186 1.10142 0
M  V30 2509 C 245.574 -4.91441 3.11224 0
M  V30 2510 N 244.55 -4.88405 2.38666 0
M  V30 2511 H 248.352 -2.41309 1.67772 0
M  V30 2512 H 245.866 -1.27339 1.00789 0
M  V30 2513 H 247.863 -4.16868 -0.0519578 0
M  V30 2514 H 246.523 -3.17467 -0.681515 0
M  V30 2515 H 247.534 -4.33902 2.82754 0
M  V30 2516 H 244.211 -4.16735 0.252587 0
M  V30 2517 H 245.601 -5.29749 4.13298 0
M  V30 2518 N 248.321 -0.919034 -1.28029 0
M  V30 2519 C 249.251 -0.428581 -2.29533 0
M  V30 2520 C 250.232 0.50659 -1.62381 0
M  V30 2521 O 251.417 0.413195 -1.89753 0
M  V30 2522 C 248.547 0.327388 -3.45753 0
M  V30 2523 C 247.501 -0.519137 -4.2484 0
M  V30 2524 C 246.827 0.365486 -5.33449 0
M  V30 2525 C 248.127 -1.77914 -4.91064 0
M  V30 2526 H 249.821 -1.27687 -2.70807 0
M  V30 2527 H 247.367 -0.615428 -1.30186 0
M  V30 2528 H 249.32 0.681378 -4.15855 0
M  V30 2529 H 248.044 1.20963 -3.03374 0
M  V30 2530 H 246.703 -0.855717 -3.56473 0
M  V30 2531 H 246.351 1.24642 -4.87312 0
M  V30 2532 H 246.051 -0.197356 -5.87268 0
M  V30 2533 H 247.575 0.715241 -6.06396 0
M  V30 2534 H 248.989 -1.49374 -5.53498 0
M  V30 2535 H 247.386 -2.2848 -5.54903 0
M  V30 2536 H 248.456 -2.50382 -4.15255 0
M  V30 2537 N 249.799 1.42003 -0.683588 0
M  V30 2538 C 250.762 2.29191 -0.0198243 0
M  V30 2539 C 251.762 1.43773 0.72013 0
M  V30 2540 O 252.952 1.65061 0.556815 0
M  V30 2541 C 250.084 3.26435 0.982487 0
M  V30 2542 H 251.277 2.8938 -0.787345 0
M  V30 2543 H 248.83 1.49789 -0.446418 0
M  V30 2544 H 249.565 2.71203 1.77819 0
M  V30 2545 H 249.35 3.89449 0.455182 0
M  V30 2546 H 250.84 3.918 1.44508 0
M  V30 2547 N 251.277 0.427512 1.51691 0
M  V30 2548 C 252.24 -0.377132 2.26076 0
M  V30 2549 C 253.24 -0.958089 1.29141 0
M  V30 2550 O 254.43 -0.83408 1.52934 0
M  V30 2551 C 251.562 -1.53262 3.04506 0
M  V30 2552 H 252.755 0.27464 2.9864 0
M  V30 2553 H 250.308 0.180445 1.55255 0
M  V30 2554 H 251.043 -2.22072 2.36335 0
M  V30 2555 H 250.828 -1.12232 3.75694 0
M  V30 2556 H 252.318 -2.10135 3.60878 0
M  V30 2557 N 252.755 -1.56801 0.158532 0
M  V30 2558 C 254.003 -1.96102 -0.488712 0
M  V30 2559 C 254.324 -1.04498 -1.64636 0
M  V30 2560 O 253.594 -0.108783 -1.95598 0
M  V30 2561 H 252.174 -0.724102 -0.183535 0
M  V30 2562 H 254.836 -1.93457 0.236728 0
M  V30 2563 H 253.932 -3.00097 -0.857219 0
M  V30 2564 N 254.233 0.115231 -1.57178 0
M  V30 2565 C 255.48 0.822351 -1.8505 0
M  V30 2566 C 255.808 1.79701 -0.744168 0
M  V30 2567 O 255.063 1.93909 0.26414 0
M  V30 2568 C 255.362 1.60324 -3.19423 0
M  V30 2569 C 255.028 0.772536 -4.44233 0
M  V30 2570 C 253.69 0.543468 -4.78121 0
M  V30 2571 C 256.042 0.193746 -5.2084 0
M  V30 2572 C 253.37 -0.274583 -5.86057 0
M  V30 2573 C 255.722 -0.611517 -6.29637 0
M  V30 2574 C 254.386 -0.850867 -6.62055 0
M  V30 2575 H 253.656 0.30092 -0.677147 0
M  V30 2576 H 256.303 0.0845802 -1.91313 0
M  V30 2577 H 254.608 2.41203 -3.08753 0
M  V30 2578 H 256.305 2.1544 -3.38211 0
M  V30 2579 H 252.895 0.96117 -4.17683 0
M  V30 2580 H 257.079 0.357926 -4.95008 0
M  V30 2581 H 252.335 -0.469206 -6.09597 0
M  V30 2582 H 256.509 -1.06697 -6.88178 0
M  V30 2583 H 254.136 -1.48657 -7.45523 0
M  V30 2584 N 255.711 1.52812 0.385517 0
M  V30 2585 C 257.122 1.5993 0.963293 0
M  V30 2586 C 257.473 0.454302 1.90868 0
M  V30 2587 O 256.598 -0.422132 2.12243 0
M  V30 2588 C 257.193 2.89871 1.75387 0
M  V30 2589 C 255.752 2.99389 2.28129 0
M  V30 2590 C 254.899 2.55071 1.08783 0
M  V30 2591 H 257.85 1.5784 0.164948 0
M  V30 2592 H 257.871 2.76553 2.61341 0
M  V30 2593 H 257.383 3.73186 1.06554 0
M  V30 2594 H 255.484 2.20619 3.00263 0
M  V30 2595 H 255.597 4.04096 2.57377 0
M  V30 2596 H 253.961 2.09473 1.4489 0
M  V30 2597 H 254.744 3.40785 0.414807 0
M  V30 2598 N 257.189 -0.644168 1.43834 0
M  V30 2599 C 258.119 -1.76814 1.52509 0
M  V30 2600 C 259.1 -1.65823 0.379052 0
M  V30 2601 O 260.285 -1.84781 0.597466 0
M  V30 2602 C 257.415 -3.15288 1.4564 0
M  V30 2603 C 256.369 -3.41053 2.58586 0
M  V30 2604 C 255.695 -4.79421 2.36769 0
M  V30 2605 C 256.995 -3.34902 4.00797 0
M  V30 2606 H 258.689 -1.69812 2.46586 0
M  V30 2607 H 256.235 -0.815542 1.1868 0
M  V30 2608 H 258.188 -3.93681 1.50311 0
M  V30 2609 H 256.912 -3.23043 0.480725 0
M  V30 2610 H 255.571 -2.65035 2.53282 0
M  V30 2611 H 255.219 -4.83863 1.37424 0
M  V30 2612 H 254.919 -4.9762 3.12487 0
M  V30 2613 H 256.443 -5.6006 2.43238 0
M  V30 2614 H 257.857 -4.03218 4.07539 0
M  V30 2615 H 256.254 -3.64637 4.76613 0
M  V30 2616 H 257.324 -2.32928 4.25291 0
M  V30 2617 N 258.668 -1.30515 -0.883378 0
M  V30 2618 C 259.893 -1.22487 -1.67367 0
M  V30 2619 C 260.318 0.208767 -1.86938 0
M  V30 2620 O 259.676 1.15015 -1.40148 0
M  V30 2621 C 259.724 -1.96041 -3.02655 0
M  V30 2622 O 258.828 -1.28859 -3.91751 0
M  V30 2623 H 258.169 -0.423573 -0.511353 0
M  V30 2624 H 260.699 -1.72362 -1.10239 0
M  V30 2625 H 260.709 -2.05124 -3.52687 0
M  V30 2626 H 259.384 -3.00307 -2.8773 0
M  V30 2627 H 257.961 -1.28141 -3.50192 0
M  V30 2628 N 260.146 1.09593 -1.13257 0
M  V30 2629 C 261.056 2.19739 -0.821691 0
M  V30 2630 C 262.072 1.72926 0.19302 0
M  V30 2631 O 263.248 2.01385 0.0244895 0
M  V30 2632 C 260.313 3.45482 -0.290333 0
M  V30 2633 C 259.374 4.06985 -1.36607 0
M  V30 2634 C 258.607 5.26726 -0.859975 0
M  V30 2635 O 258.83 5.69594 0.303082 0
M  V30 2636 O 257.764 5.7931 -1.63351 0
M  V30 2637 H 261.59 2.48781 -1.74189 0
M  V30 2638 H 259.175 1.18496 -0.909894 0
M  V30 2639 H 261.057 4.214 0.000674022 0
M  V30 2640 H 259.732 3.18047 0.602306 0
M  V30 2641 H 258.639 3.32712 -1.71037 0
M  V30 2642 H 259.972 4.38643 -2.23279 0
M  V30 2643 N 261.624 0.925811 1.2754 0
M  V30 2644 C 262.87 0.566092 1.94739 0
M  V30 2645 C 263.203 -0.890057 1.72603 0
M  V30 2646 O 262.478 -1.63467 1.05399 0
M  V30 2647 C 262.761 0.89054 3.48915 0
M  V30 2648 C 262.614 2.4003 3.80402 0
M  V30 2649 C 263.933 0.395101 4.38323 0
M  V30 2650 H 261.052 0.20714 0.707292 0
M  V30 2651 H 263.694 1.15725 1.50691 0
M  V30 2652 H 261.844 0.387452 3.86563 0
M  V30 2653 H 263.516 2.97494 3.52555 0
M  V30 2654 H 261.759 2.85028 3.2702 0
M  V30 2655 H 262.43 2.57785 4.8811 0
M  V30 2656 H 264.906 0.826241 4.07814 0
M  V30 2657 H 263.782 0.651086 5.45025 0
M  V30 2658 H 264.043 -0.704798 4.36446 0
M  V30 2659 N 263.102 -1.41638 0.69111 0
M  V30 2660 C 264.35 -2.00902 0.219758 0
M  V30 2661 C 264.671 -1.54994 -1.18329 0
M  V30 2662 O 263.941 -0.778628 -1.79762 0
M  V30 2663 H 262.521 -0.74289 0.0782558 0
M  V30 2664 H 265.183 -1.73327 0.891271 0
M  V30 2665 H 264.279 -3.11224 0.233708 0
M  V30 2666 N 264.58 -0.43555 -1.51462 0
M  V30 2667 C 265.996 -0.0877501 -1.59359 0
M  V30 2668 C 266.196 1.4027 -1.4466 0
M  V30 2669 O 265.252 2.17243 -1.28693 0
M  V30 2670 C 266.565 -0.606264 -2.94525 0
M  V30 2671 C 268.113 -0.566548 -3.0783 0
M  V30 2672 C 268.588 -1.06201 -4.45517 0
M  V30 2673 N 270.079 -1.01992 -4.51832 0
M  V30 2674 C 270.814 -1.37417 -5.5669 0
M  V30 2675 N 270.31 -1.80119 -6.68976 0
M  V30 2676 N 272.103 -1.29245 -5.47039 0
M  V30 2677 H 264.254 -1.40533 -1.59261 0
M  V30 2678 H 266.517 -0.578992 -0.750648 0
M  V30 2679 H 266.223 -1.64901 -3.10645 0
M  V30 2680 H 266.097 -0.0302097 -3.77188 0
M  V30 2681 H 268.484 0.467208 -2.91378 0
M  V30 2682 H 268.565 -1.17898 -2.2701 0
M  V30 2683 H 268.209 -2.09422 -4.62715 0
M  V30 2684 H 268.139 -0.426127 -5.24873 0
M  V30 2685 H 270.63 -0.706308 -3.71241 0
M  V30 2686 H 270.943 -2.05392 -7.45006 0
M  V30 2687 H 269.288 -1.84044 -6.70189 0
M  V30 2688 H 272.479 -0.957522 -4.58202 0
M  V30 2689 H 272.652 -1.57182 -6.28648 0
M  V30 2690 N 266.058 1.56714 -0.166846 0
M  V30 2691 C 267.469 1.83378 0.350646 0
M  V30 2692 C 267.82 1.08646 1.63372 0
M  V30 2693 O 266.945 0.338058 2.13743 0
M  V30 2694 C 267.54 3.32643 0.642963 0
M  V30 2695 C 266.099 3.59818 1.10491 0
M  V30 2696 C 265.246 2.76954 0.138411 0
M  V30 2697 H 268.197 1.53803 -0.391193 0
M  V30 2698 H 268.218 3.49878 1.49551 0
M  V30 2699 H 267.73 3.87007 -0.291055 0
M  V30 2700 H 265.831 3.1086 2.05418 0
M  V30 2701 H 265.944 4.68178 1.01716 0
M  V30 2702 H 264.308 2.4666 0.634911 0
M  V30 2703 H 265.091 3.34097 -0.789549 0
M  V30 2704 N 267.536 -0.106894 1.57237 0
M  V30 2705 C 268.466 -1.13148 2.04254 0
M  V30 2706 C 269.447 -1.42476 0.929224 0
M  V30 2707 O 270.632 -1.52709 1.19973 0
M  V30 2708 C 267.762 -2.4545 2.45706 0
M  V30 2709 C 266.716 -2.30558 3.60592 0
M  V30 2710 C 266.042 -3.67931 3.87983 0
M  V30 2711 C 267.342 -1.75597 4.91897 0
M  V30 2712 H 269.036 -0.740374 2.90101 0
M  V30 2713 H 266.582 -0.354696 1.39563 0
M  V30 2714 H 268.535 -3.17389 2.77205 0
M  V30 2715 H 267.259 -2.86475 1.56843 0
M  V30 2716 H 265.918 -1.61067 3.29322 0
M  V30 2717 H 265.566 -4.06462 2.96306 0
M  V30 2718 H 265.266 -3.58817 4.65322 0
M  V30 2719 H 266.79 -4.41356 4.21945 0
M  V30 2720 H 268.204 -2.37364 5.21854 0
M  V30 2721 H 266.601 -1.77272 5.73319 0
M  V30 2722 H 267.671 -0.714451 4.79608 0
M  V30 2723 N 269.014 -1.53014 -0.377408 0
M  V30 2724 C 269.924 -1.81557 -1.48574 0
M  V30 2725 C 270.94 -0.703102 -1.59162 0
M  V30 2726 O 272.116 -0.99192 -1.75279 0
M  V30 2727 C 269.181 -1.9889 -2.83978 0
M  V30 2728 C 268.242 -3.22801 -2.83016 0
M  V30 2729 C 267.475 -3.39298 -4.11962 0
M  V30 2730 O 267.698 -2.60345 -5.0752 0
M  V30 2731 O 266.632 -4.32604 -4.18494 0
M  V30 2732 H 270.458 -2.75695 -1.27382 0
M  V30 2733 H 268.043 -1.38248 -0.566373 0
M  V30 2734 H 269.925 -2.11931 -3.6423 0
M  V30 2735 H 268.6 -1.07942 -3.05172 0
M  V30 2736 H 267.507 -3.15193 -2.01505 0
M  V30 2737 H 268.84 -4.13632 -2.66775 0
M  V30 2738 N 270.492 0.636531 -1.44174 0
M  V30 2739 C 271.769 1.39463 -1.37148 0
M  V30 2740 C 272.149 2.11082 -0.027507 0
M  V30 2741 O 271.497 2.05954 0.989716 0
M  V30 2742 C 271.707 2.36552 -2.56601 0
M  V30 2743 C 273.055 3.00048 -3.00427 0
M  V30 2744 O 274.079 2.46878 -2.56767 0
M  V30 2745 O 272.938 3.96488 -3.76111 0
M  V30 2746 H 270.032 0.623903 -0.542839 0
M  V30 2747 H 272.578 0.662039 -1.56253 0
M  V30 2748 H 271.35 1.82692 -3.46034 0
M  V30 2749 H 270.973 3.17236 -2.39681 0
M  V30 2750 N 271.97 1.30982 0.876444 0
M  V30 2751 C 272.92 1.14688 1.97055 0
M  V30 2752 C 273.904 0.0596593 1.60789 0
M  V30 2753 O 275.096 0.283892 1.74708 0
M  V30 2754 C 272.225 0.849627 3.3262 0
M  V30 2755 C 271.311 1.97752 3.75173 0
M  V30 2756 N 271.702 3.22384 3.89746 0
M  V30 2757 C 270 1.8758 4.04635 0
M  V30 2758 C 270.701 3.96121 4.25985 0
M  V30 2759 N 269.677 3.24237 4.36315 0
M  V30 2760 H 273.479 2.09204 2.06424 0
M  V30 2761 H 270.993 1.22445 1.06682 0
M  V30 2762 H 272.99 0.713895 4.10742 0
M  V30 2763 H 271.65 -0.087376 3.24582 0
M  V30 2764 H 272.661 3.57575 3.74647 0
M  V30 2765 H 269.338 1.01303 4.05024 0
M  V30 2766 H 270.728 5.03491 4.44911 0
M  V30 2767 N 273.449 -1.08991 1.13837 0
M  V30 2768 C 274.359 -2.19301 0.833333 0
M  V30 2769 C 275.375 -1.73026 -0.183847 0
M  V30 2770 O 276.551 -2.01395 -0.0138092 0
M  V30 2771 C 273.616 -3.45323 0.308651 0
M  V30 2772 C 272.677 -4.06255 1.38764 0
M  V30 2773 C 271.91 -5.26262 0.887896 0
M  V30 2774 O 272.133 -5.69747 -0.27287 0
M  V30 2775 O 271.067 -5.78435 1.66421 0
M  V30 2776 H 274.893 -2.47854 1.75506 0
M  V30 2777 H 272.478 -1.18012 0.916166 0
M  V30 2778 H 274.36 -4.21394 0.0216739 0
M  V30 2779 H 273.035 -3.18362 -0.585431 0
M  V30 2780 H 271.942 -3.318 1.72799 0
M  V30 2781 H 273.275 -4.37452 2.25602 0
M  V30 2782 N 274.927 -0.932562 -1.27047 0
M  V30 2783 C 276.176 -0.571351 -1.93439 0
M  V30 2784 C 276.489 0.892467 -1.74053 0
M  V30 2785 O 277.695 1.36267 -2.34826 0
M  V30 2786 C 276.151 -0.97106 -3.46552 0
M  V30 2787 C 275.759 -2.4559 -3.74686 0
M  V30 2788 C 277.503 -0.681333 -4.18997 0
M  V30 2789 C 275.41 -2.79475 -5.21198 0
M  V30 2790 H 274.34 -0.209966 -0.724176 0
M  V30 2791 H 276.991 -1.13403 -1.44263 0
M  V30 2792 H 275.373 -0.336983 -3.94564 0
M  V30 2793 H 276.547 -3.13829 -3.37414 0
M  V30 2794 H 274.862 -2.71802 -3.15456 0
M  V30 2795 H 277.459 -0.910939 -5.26883 0
M  V30 2796 H 277.802 0.381628 -4.14547 0
M  V30 2797 H 278.335 -1.27473 -3.76823 0
M  V30 2798 H 275.074 -3.847 -5.30741 0
M  V30 2799 H 274.594 -2.1589 -5.596 0
M  V30 2800 H 276.273 -2.67478 -5.89122 0
M  V30 2801 N 276.405 1.4127 -0.698611 0
M  V30 2802 C 277.651 2.01478 -0.231207 0
M  V30 2803 C 277.984 1.55215 1.16713 0
M  V30 2804 O 277.259 0.764672 1.78838 0
M  V30 2805 C 277.542 3.58912 -0.292281 0
M  V30 2806 C 277.395 4.15293 -1.72778 0
M  V30 2807 C 278.714 4.38736 0.346194 0
M  V30 2808 H 275.833 0.732025 -0.0854878 0
M  V30 2809 H 278.475 1.67977 -0.887906 0
M  V30 2810 H 276.625 3.87582 0.26686 0
M  V30 2811 H 278.297 3.97486 -2.341 0
M  V30 2812 H 276.54 3.7022 -2.26096 0
M  V30 2813 H 277.211 5.24452 -1.72202 0
M  V30 2814 H 279.687 4.15897 -0.130035 0
M  V30 2815 H 278.563 5.48221 0.272932 0
M  V30 2816 H 278.824 4.18425 1.42734 0
M  V30 2817 N 277.883 0.443576 1.51229 0
M  V30 2818 C 279.299 0.0962001 1.5931 0
M  V30 2819 C 279.499 -1.39501 1.45402 0
M  V30 2820 O 278.555 -2.16557 1.29843 0
M  V30 2821 C 279.868 0.621875 2.94199 0
M  V30 2822 C 281.416 0.582865 3.07525 0
M  V30 2823 C 281.891 1.08562 4.44948 0
M  V30 2824 N 283.382 1.04387 4.51284 0
M  V30 2825 C 284.117 1.40368 5.55954 0
M  V30 2826 N 283.613 1.83664 6.68011 0
M  V30 2827 N 285.406 1.32145 5.46346 0
M  V30 2828 H 277.557 1.41376 1.58514 0
M  V30 2829 H 279.82 0.582965 0.747567 0
M  V30 2830 H 279.526 1.66546 3.09767 0
M  V30 2831 H 279.4 0.0502125 3.77167 0
M  V30 2832 H 281.787 -0.451749 2.91622 0
M  V30 2833 H 281.868 1.191 2.26382 0
M  V30 2834 H 281.512 2.11873 4.61598 0
M  V30 2835 H 281.442 0.453956 5.2464 0
M  V30 2836 H 283.933 0.725986 3.70861 0
M  V30 2837 H 284.246 2.0934 7.43906 0
M  V30 2838 H 282.591 1.87596 6.69203 0
M  V30 2839 H 285.782 0.981808 4.57688 0
M  V30 2840 H 285.955 1.60514 6.27805 0
M  V30 2841 N 279.361 -1.56624 0.175154 0
M  V30 2842 C 280.608 -1.96999 -0.468811 0
M  V30 2843 C 280.936 -1.06129 -1.62994 0
M  V30 2844 O 280.191 -0.0961771 -1.95464 0
M  V30 2845 C 280.49 -3.43419 -0.989864 0
M  V30 2846 C 280.156 -4.50866 0.0557687 0
M  V30 2847 C 278.818 -4.79975 0.343134 0
M  V30 2848 C 281.17 -5.15551 0.765308 0
M  V30 2849 C 278.498 -5.71066 1.34536 0
M  V30 2850 C 280.85 -6.07724 1.75654 0
M  V30 2851 C 279.514 -6.35199 2.05132 0
M  V30 2852 H 278.784 -0.720869 -0.17155 0
M  V30 2853 H 281.431 -1.89616 0.267924 0
M  V30 2854 H 279.736 -3.47772 -1.80449 0
M  V30 2855 H 281.433 -3.72002 -1.49719 0
M  V30 2856 H 278.023 -4.28229 -0.178381 0
M  V30 2857 H 282.207 -4.9317 0.556513 0
M  V30 2858 H 277.463 -5.90635 1.57988 0
M  V30 2859 H 281.637 -6.56912 2.31169 0
M  V30 2860 H 279.264 -7.05584 2.8294 0
M  V30 2861 N 280.839 0.0985539 -1.57292 0
M  V30 2862 C 281.787 1.1387 -2.02821 0
M  V30 2863 C 282.781 1.41676 -0.928666 0
M  V30 2864 O 283.987 1.41398 -1.11385 0
M  V30 2865 H 280.362 0.384419 -0.646317 0
M  V30 2866 H 282.333 0.728347 -2.89375 0
M  V30 2867 C 281.082 2.45166 -2.46554 0
M  V30 2868 H 280.405 2.24613 -3.3074 0
M  V30 2869 H 281.845 3.16456 -2.8219 0
M  V30 2870 C 280.304 3.09216 -1.33742 0
M  V30 2871 O 280.834 3.96163 -0.66464 0
M  V30 2872 N 279.04 2.69413 -1.08928 0
M  V30 2873 H 278.587 1.98801 -1.63817 0
M  V30 2874 H 278.545 3.12594 -0.336458 0
M  V30 2875 N 282.317 1.53212 0.369288 0
M  V30 2876 C 283.733 1.42902 0.710712 0
M  V30 2877 C 283.933 0.565135 1.93413 0
M  V30 2878 O 282.989 0.0461484 2.52458 0
M  V30 2879 C 284.302 2.86042 0.927382 0
M  V30 2880 C 285.85 2.9565 1.02762 0
M  V30 2881 C 286.325 4.39843 1.27679 0
M  V30 2882 N 287.816 4.43256 1.34457 0
M  V30 2883 C 288.551 5.51929 1.55439 0
M  V30 2884 N 288.047 6.70655 1.73762 0
M  V30 2885 N 289.84 5.39502 1.57779 0
M  V30 2886 H 281.991 2.07888 -0.435457 0
M  V30 2887 H 284.254 0.938661 -0.132739 0
M  V30 2888 H 283.96 3.51557 0.100287 0
M  V30 2889 H 283.834 3.29472 1.83653 0
M  V30 2890 H 286.221 2.30291 1.84527 0
M  V30 2891 H 286.302 2.5562 0.0959504 0
M  V30 2892 H 285.946 5.05774 0.464175 0
M  V30 2893 H 285.876 4.77443 2.22162 0
M  V30 2894 H 288.367 3.5769 1.21926 0
M  V30 2895 H 288.68 7.49248 1.89335 0
M  V30 2896 H 287.025 6.73648 1.70948 0
M  V30 2897 H 290.216 4.45713 1.43029 0
M  V30 2898 H 290.389 6.2426 1.7379 0
M  V30 2899 N 283.795 -0.628877 1.44509 0
M  V30 2900 C 285.206 -1.21054 1.42137 0
M  V30 2901 C 285.557 -1.95715 0.137881 0
M  V30 2902 O 284.682 -2.02554 -0.761645 0
M  V30 2903 C 285.277 -2.20189 2.57493 0
M  V30 2904 C 283.836 -2.73777 2.58308 0
M  V30 2905 C 282.983 -1.48813 2.33987 0
M  V30 2906 H 285.934 -0.41942 1.53057 0
M  V30 2907 H 285.955 -3.02833 2.30375 0
M  V30 2908 H 285.467 -1.6582 3.50892 0
M  V30 2909 H 283.568 -3.32142 1.68856 0
M  V30 2910 H 283.681 -3.19662 3.56865 0
M  V30 2911 H 282.045 -1.77024 1.83124 0
M  V30 2912 H 282.828 -0.963442 3.29504 0
M  V30 2913 N 285.273 -1.31445 -0.869486 0
M  V30 2914 C 286.236 -1.19094 -1.9583 0
M  V30 2915 C 287.236 -0.117906 -1.60367 0
M  V30 2916 O 288.426 -0.367208 -1.70286 0
M  V30 2917 C 285.558 -0.828165 -3.30688 0
M  V30 2918 H 286.751 -2.15842 -2.08212 0
M  V30 2919 H 284.304 -1.15063 -1.05784 0
M  V30 2920 H 285.039 0.138142 -3.24006 0
M  V30 2921 H 284.824 -1.6038 -3.578 0
M  V30 2922 H 286.314 -0.765658 -4.10521 0
M  V30 2923 N 286.751 1.08385 -1.14413 0
M  V30 2924 C 287.997 1.81044 -0.913834 0
M  V30 2925 C 288.33 1.86004 0.558209 0
M  V30 2926 O 287.605 1.33606 1.4135 0
M  V30 2927 C 287.888 3.26648 -1.51569 0
M  V30 2928 C 287.741 3.29895 -3.0576 0
M  V30 2929 C 289.06 4.23629 -1.19273 0
M  V30 2930 H 286.179 0.65727 -0.333414 0
M  V30 2931 H 288.821 1.26896 -1.41412 0
M  V30 2932 H 286.971 3.72889 -1.09023 0
M  V30 2933 H 288.643 2.91977 -3.57137 0
M  V30 2934 H 286.886 2.69163 -3.40197 0
M  V30 2935 H 287.557 4.32516 -3.42977 0
M  V30 2936 H 290.033 3.85727 -1.56057 0
M  V30 2937 H 288.909 5.23822 -1.64017 0
M  V30 2938 H 289.17 4.41968 -0.108068 0
M  V30 2939 N 288.23 0.939286 1.26551 0
M  V30 2940 C 289.14 0.453432 2.30176 0
M  V30 2941 C 290.156 -0.471649 1.67486 0
M  V30 2942 O 291.332 -0.35164 1.98306 0
M  V30 2943 C 288.397 -0.275326 3.45605 0
M  V30 2944 C 287.458 0.686084 4.23782 0
M  V30 2945 C 286.691 -0.00798994 5.33699 0
M  V30 2946 O 286.914 -1.22528 5.57085 0
M  V30 2947 O 285.848 0.669746 5.98162 0
M  V30 2948 H 289.674 1.31416 2.73795 0
M  V30 2949 H 287.259 0.705095 1.31715 0
M  V30 2950 H 289.141 -0.685911 4.1578 0
M  V30 2951 H 287.816 -1.11147 3.0402 0
M  V30 2952 H 286.723 1.14658 3.56096 0
M  V30 2953 H 288.056 1.48979 4.69112 0
M  V30 2954 N 289.708 -1.40897 0.706093 0
M  V30 2955 C 290.64 -2.29199 0.00815776 0
M  V30 2956 C 291.653 -1.45336 -0.733582 0
M  V30 2957 O 292.842 -1.68727 -0.582537 0
M  V30 2958 C 289.942 -3.23417 -1.01265 0
M  V30 2959 C 289.115 -4.36089 -0.338387 0
M  V30 2960 C 288.174 -5.10811 -1.26326 0
M  V30 2961 O 287.2 -5.64215 -0.751651 0
M  V30 2962 N 288.402 -5.19269 -2.595 0
M  V30 2963 H 291.167 -2.89738 0.766297 0
M  V30 2964 H 288.728 -1.52164 0.55296 0
M  V30 2965 H 290.72 -3.70276 -1.63334 0
M  V30 2966 H 289.29 -2.64112 -1.67223 0
M  V30 2967 H 288.51 -3.91479 0.462352 0
M  V30 2968 H 289.798 -5.08634 0.130031 0
M  V30 2969 H 289.196 -4.77347 -3.03573 0
M  V30 2970 H 287.753 -5.69667 -3.16737 0
M  V30 2971 N 291.186 -0.45159 -1.50991 0
M  V30 2972 C 292.463 0.170707 -1.94854 0
M  V30 2973 C 292.843 1.58788 -1.39103 0
M  V30 2974 O 292.191 2.20913 -0.583921 0
M  V30 2975 C 292.401 0.133929 -3.48743 0
M  V30 2976 C 293.749 0.33248 -4.23296 0
M  V30 2977 O 294.773 0.211403 -3.55572 0
M  V30 2978 O 293.632 0.57486 -5.43468 0
M  V30 2979 H 290.726 0.122264 -0.817912 0
M  V30 2980 H 293.272 -0.510594 -1.61836 0
M  V30 2981 H 292.044 -0.856283 -3.81816 0
M  V30 2982 H 291.667 0.857529 -3.88242 0
M  V30 2983 N 292.664 1.56529 -0.183458 0
M  V30 2984 C 293.912 1.96855 0.457452 0
M  V30 2985 C 294.233 1.07104 1.62953 0
M  V30 2986 O 293.503 0.139887 1.954 0
M  V30 2987 H 292.083 0.72693 0.171992 0
M  V30 2988 H 294.745 1.93056 -0.267476 0
M  V30 2989 H 293.841 3.01423 0.809368 0
M  V30 2990 N 294.142 -0.090211 1.57342 0
M  V30 2991 C 295.052 -1.12735 2.05738 0
M  V30 2992 C 296.068 -1.43557 0.983231 0
M  V30 2993 O 297.244 -1.54101 1.29672 0
M  V30 2994 C 294.309 -2.42659 2.47624 0
M  V30 2995 C 293.37 -2.18975 3.69254 0
M  V30 2996 C 292.603 -3.42704 4.09133 0
M  V30 2997 O 292.826 -4.51127 3.49057 0
M  V30 2998 O 291.76 -3.32003 5.02053 0
M  V30 2999 H 295.586 -0.746279 2.94388 0
M  V30 3000 H 293.171 -0.303064 1.46294 0
M  V30 3001 H 295.053 -3.19155 2.7517 0
M  V30 3002 H 293.728 -2.80182 1.62109 0
M  V30 3003 H 292.635 -1.40244 3.46818 0
M  V30 3004 H 293.968 -1.86342 4.55563 0
M  V30 3005 N 295.62 -1.53406 -0.361157 0
M  V30 3006 C 296.583 -1.79479 -1.42548 0
M  V30 3007 C 297.583 -0.665327 -1.4639 0
M  V30 3008 O 298.773 -0.933549 -1.47073 0
M  V30 3009 C 295.905 -1.92087 -2.8163 0
M  V30 3010 H 297.098 -2.74538 -1.20701 0
M  V30 3011 H 294.651 -1.4455 -0.594546 0
M  V30 3012 H 295.386 -0.991099 -3.08784 0
M  V30 3013 H 295.171 -2.74241 -2.80239 0
M  V30 3014 H 296.661 -2.13836 -3.58697 0
M  V30 3015 N 297.098 0.621204 -1.44841 0
M  V30 3016 C 298.028 1.74366 -1.55303 0
M  V30 3017 C 299.009 1.65199 -0.405385 0
M  V30 3018 O 300.194 1.83807 -0.626787 0
M  V30 3019 C 297.324 3.12931 -1.50637 0
M  V30 3020 C 296.278 3.36896 -2.63979 0
M  V30 3021 C 295.604 4.75594 -2.44366 0
M  V30 3022 C 296.904 3.28483 -4.06074 0
M  V30 3023 H 298.598 1.65867 -2.49256 0
M  V30 3024 H 296.144 0.796558 -1.19962 0
M  V30 3025 H 298.097 3.9124 -1.56555 0
M  V30 3026 H 296.821 3.22237 -0.532057 0
M  V30 3027 H 295.48 2.60972 -2.57467 0
M  V30 3028 H 295.128 4.81616 -1.45105 0
M  V30 3029 H 294.828 4.92586 -3.20364 0
M  V30 3030 H 296.352 5.5612 -2.52117 0
M  V30 3031 H 297.766 3.96684 -4.13902 0
M  V30 3032 H 296.163 3.57008 -4.82354 0
M  V30 3033 H 297.233 2.26133 -4.28943 0
M  V30 3034 N 298.576 1.31904 0.862503 0
M  V30 3035 C 299.822 1.22197 1.61851 0
M  V30 3036 C 300.155 -0.217641 1.92977 0
M  V30 3037 O 299.43 -1.15264 1.56666 0
M  V30 3038 C 299.713 2.07378 2.94391 0
M  V30 3039 C 299.566 3.59678 2.70096 0
M  V30 3040 C 300.885 1.92891 3.95577 0
M  V30 3041 H 298.004 0.445255 0.587296 0
M  V30 3042 H 300.646 1.6177 0.99651 0
M  V30 3043 H 298.796 1.73758 3.47477 0
M  V30 3044 H 300.468 4.03472 2.23625 0
M  V30 3045 H 298.711 3.82735 2.04197 0
M  V30 3046 H 299.382 4.14595 3.64438 0
M  V30 3047 H 301.858 2.22327 3.51724 0
M  V30 3048 H 300.734 2.54781 4.86187 0
M  V30 3049 H 300.995 0.894315 4.3296 0
M  V30 3050 N 300.054 -1.07777 1.14986 0
M  V30 3051 C 301.302 -1.79934 0.920235 0
M  V30 3052 C 301.623 -1.86955 -0.554336 0
M  V30 3053 O 300.893 -1.36731 -1.40291 0
M  V30 3054 H 299.473 -0.666424 0.337473 0
M  V30 3055 H 302.135 -1.3027 1.44968 0
M  V30 3056 H 301.231 -2.82539 1.32583 0
M  V30 3057 N 301.532 -0.945985 -1.26051 0
M  V30 3058 C 302.778 -0.597002 -1.93814 0
M  V30 3059 C 303.111 0.862484 -1.73997 0
M  V30 3060 O 302.386 1.61769 -1.07986 0
M  V30 3061 C 302.669 -0.945937 -3.47454 0
M  V30 3062 C 302.522 -2.46052 -3.76535 0
M  V30 3063 C 303.841 -0.464785 -4.37639 0
M  V30 3064 H 300.96 -0.218366 -0.703907 0
M  V30 3065 H 303.602 -1.18107 -1.48831 0
M  V30 3066 H 301.752 -0.448902 -3.85898 0
M  V30 3067 H 303.424 -3.03065 -3.47778 0
M  V30 3068 H 301.667 -2.90194 -3.22444 0
M  V30 3069 H 302.338 -2.65517 -4.83947 0
M  V30 3070 H 304.814 -0.891016 -4.06448 0
M  V30 3071 H 303.69 -0.737712 -5.4392 0
M  V30 3072 H 303.951 0.635274 -4.37512 0
M  V30 3073 N 303.011 1.40521 -0.713556 0
M  V30 3074 C 304.257 2.01221 -0.252564 0
M  V30 3075 C 304.59 1.56444 1.1506 0
M  V30 3076 O 303.865 0.783597 1.78017 0
M  V30 3077 C 304.148 3.58582 -0.330332 0
M  V30 3078 C 304.001 4.13437 -1.77173 0
M  V30 3079 C 305.32 4.39079 0.299641 0
M  V30 3080 H 302.439 0.731077 -0.0932471 0
M  V30 3081 H 305.081 1.67026 -0.905673 0
M  V30 3082 H 303.231 3.87844 0.225737 0
M  V30 3083 H 304.903 3.9498 -2.38303 0
M  V30 3084 H 303.146 3.67801 -2.3001 0
M  V30 3085 H 303.817 5.22597 -1.77755 0
M  V30 3086 H 306.293 4.15735 -0.174139 0
M  V30 3087 H 305.169 5.4848 0.214771 0
M  V30 3088 H 305.43 4.19915 1.38288 0
M  V30 3089 N 304.489 0.459591 1.5075 0
M  V30 3090 C 305.714 -0.0996819 2.0716 0
M  V30 3091 C 306.139 -1.33761 1.32249 0
M  V30 3092 O 305.497 -1.77551 0.366786 0
M  V30 3093 C 305.545 -0.378226 3.58611 0
M  V30 3094 O 304.649 -1.46081 3.85661 0
M  V30 3095 H 303.99 0.00791392 0.663953 0
M  V30 3096 H 306.52 0.647329 1.9409 0
M  V30 3097 H 306.53 -0.622135 4.03229 0
M  V30 3098 H 305.205 0.526439 4.12555 0
M  V30 3099 H 303.782 -1.20511 3.5289 0
M  V30 3100 N 305.967 -1.56429 0.191757 0
M  V30 3101 C 306.93 -2.17707 -0.716688 0
M  V30 3102 C 307.93 -1.13061 -1.14341 0
M  V30 3103 O 309.12 -1.38464 -1.05704 0
M  V30 3104 C 306.252 -2.77644 -1.97804 0
M  V30 3105 H 307.445 -2.99342 -0.1829 0
M  V30 3106 H 304.998 -1.56193 -0.0578566 0
M  V30 3107 H 305.733 -1.99799 -2.55443 0
M  V30 3108 H 305.518 -3.54246 -1.68083 0
M  V30 3109 H 307.008 -3.24708 -2.62592 0
M  V30 3110 N 307.445 0.0818655 -1.57387 0
M  V30 3111 C 308.694 0.781681 -1.85937 0
M  V30 3112 C 309.007 1.79246 -0.782957 0
M  V30 3113 O 310.213 2.54112 -0.955987 0
M  V30 3114 C 308.669 1.44109 -3.29789 0
M  V30 3115 C 308.277 0.469396 -4.45534 0
M  V30 3116 C 310.021 2.12386 -3.67549 0
M  V30 3117 C 307.928 1.13415 -5.80423 0
M  V30 3118 H 306.858 0.295682 -0.693605 0
M  V30 3119 H 309.509 0.0348051 -1.83467 0
M  V30 3120 H 307.891 2.23588 -3.2684 0
M  V30 3121 H 309.065 -0.294856 -4.59856 0
M  V30 3122 H 307.38 -0.108383 -4.16259 0
M  V30 3123 H 309.977 2.62878 -4.65617 0
M  V30 3124 H 310.32 2.91877 -2.96839 0
M  V30 3125 H 310.853 1.39751 -3.72444 0
M  V30 3126 H 307.592 0.379771 -6.54399 0
M  V30 3127 H 307.112 1.8695 -5.69921 0
M  V30 3128 H 308.791 1.65686 -6.25426 0
M  V30 3129 N 308.923 1.53595 0.353017 0
M  V30 3130 C 310.2 1.61002 1.11075 0
M  V30 3131 C 310.58 0.425356 2.0677 0
M  V30 3132 O 309.928 -0.583267 2.2093 0
M  V30 3133 C 310.138 2.96631 1.83877 0
M  V30 3134 C 311.486 3.51653 2.37961 0
M  V30 3135 O 312.51 2.98743 1.93987 0
M  V30 3136 O 311.369 4.44177 3.18386 0
M  V30 3137 H 308.463 0.650825 0.510251 0
M  V30 3138 H 311.009 1.6594 0.35527 0
M  V30 3139 H 309.781 3.74293 1.14108 0
M  V30 3140 H 309.404 2.95242 2.66304 0
M  V30 3141 N 310.401 -0.613514 1.45168 0
M  V30 3142 C 311.351 -1.71871 1.49815 0
M  V30 3143 C 312.335 -1.56774 0.362021 0
M  V30 3144 O 313.527 -1.66212 0.608493 0
M  V30 3145 C 310.656 -3.1061 1.46207 0
M  V30 3146 C 309.742 -3.31114 2.64999 0
M  V30 3147 N 310.133 -3.21904 3.90143 0
M  V30 3148 C 308.431 -3.61966 2.6057 0
M  V30 3149 C 309.132 -3.43577 4.69393 0
M  V30 3150 N 308.108 -3.67287 4.00751 0
M  V30 3151 H 311.91 -1.63235 2.444 0
M  V30 3152 H 309.424 -0.816577 1.40377 0
M  V30 3153 H 311.421 -3.8989 1.4762 0
M  V30 3154 H 310.081 -3.20399 0.52673 0
M  V30 3155 H 311.092 -3.00436 4.21852 0
M  V30 3156 H 307.769 -3.78629 1.75916 0
M  V30 3157 H 309.159 -3.41901 5.78406 0
M  V30 3158 N 311.879 -1.3236 -0.855495 0
M  V30 3159 C 313.29 -1.2056 -1.42556 0
M  V30 3160 C 313.641 0.182209 -1.95352 0
M  V30 3161 O 312.766 1.08088 -1.87472 0
M  V30 3162 C 313.361 -2.1826 -2.59129 0
M  V30 3163 C 311.92 -2.10351 -3.12137 0
M  V30 3164 C 311.067 -2.06674 -1.84882 0
M  V30 3165 H 314.018 -1.442 -0.662727 0
M  V30 3166 H 314.039 -1.78064 -3.36264 0
M  V30 3167 H 313.551 -3.19257 -2.20673 0
M  V30 3168 H 311.652 -1.12599 -3.55179 0
M  V30 3169 H 311.765 -3.00135 -3.73438 0
M  V30 3170 H 310.129 -1.51901 -2.04446 0
M  V30 3171 H 310.912 -3.09451 -1.48643 0
M  V30 3172 N 313.357 1.07166 -1.15556 0
M  V30 3173 C 314.604 1.79798 -0.931604 0
M  V30 3174 C 314.932 1.8682 0.54115 0
M  V30 3175 O 314.187 1.34942 1.41736 0
M  V30 3176 C 314.486 3.24707 -1.49332 0
M  V30 3177 C 314.152 3.37781 -2.98688 0
M  V30 3178 C 312.814 3.41057 -3.39461 0
M  V30 3179 C 315.166 3.40424 -3.94665 0
M  V30 3180 C 312.494 3.4458 -4.74849 0
M  V30 3181 C 314.846 3.45485 -5.29927 0
M  V30 3182 C 313.51 3.47039 -5.70193 0
M  V30 3183 H 312.78 0.657928 -0.340898 0
M  V30 3184 H 315.427 1.26091 -1.44129 0
M  V30 3185 H 313.732 3.81208 -0.904859 0
M  V30 3186 H 315.429 3.79486 -1.29582 0
M  V30 3187 H 312.019 3.35932 -2.66172 0
M  V30 3188 H 316.203 3.37113 -3.64237 0
M  V30 3189 H 311.459 3.44083 -5.05388 0
M  V30 3190 H 315.633 3.46476 -6.04092 0
M  V30 3191 H 313.26 3.49522 -6.75084 0
M  V30 3192 N 314.835 0.952656 1.25548 0
M  V30 3193 C 316.083 0.605176 1.92826 0
M  V30 3194 C 316.404 -0.860261 1.74999 0
M  V30 3195 O 315.674 -1.6125 1.11244 0
M  V30 3196 H 314.254 0.220832 0.713612 0
M  V30 3197 H 316.916 1.21047 1.52754 0
M  V30 3198 H 316.012 0.832798 3.00784 0
M  V30 3199 N 316.313 -1.40141 0.720998 0
M  V30 3200 C 317.261 -2.3252 0.0608547 0
M  V30 3201 C 318.255 -1.52326 -0.741152 0
M  V30 3202 O 319.461 -1.68089 -0.643911 0
M  V30 3203 H 315.836 -0.751999 0.000876664 0
M  V30 3204 H 317.807 -2.8584 0.856614 0
M  V30 3205 C 316.556 -3.37331 -0.842809 0
M  V30 3206 H 315.879 -3.99108 -0.235084 0
M  V30 3207 H 317.319 -4.04452 -1.27257 0
M  V30 3208 C 315.778 -2.73246 -1.97074 0
M  V30 3209 O 316.308 -2.59998 -3.06209 0
M  V30 3210 N 314.514 -2.31547 -1.75597 0
M  V30 3211 H 314.061 -2.42522 -0.868368 0
M  V30 3212 H 314.019 -1.89007 -2.51244 0
M  V30 3213 N 317.792 -0.46758 -1.50504 0
M  V30 3214 C 319.038 0.0887532 -2.02606 0
M  V30 3215 C 319.371 1.39686 -1.34913 0
M  V30 3216 O 318.646 1.88644 -0.473694 0
M  V30 3217 C 318.929 0.276206 -3.59039 0
M  V30 3218 C 318.782 -1.05267 -4.37309 0
M  V30 3219 C 320.101 1.03235 -4.27821 0
M  V30 3220 H 317.22 0.0307814 -0.736357 0
M  V30 3221 H 319.862 -0.612485 -1.79857 0
M  V30 3222 H 318.012 0.8735 -3.78553 0
M  V30 3223 H 319.684 -1.68628 -4.29374 0
M  V30 3224 H 317.927 -1.65015 -4.01189 0
M  V30 3225 H 318.598 -0.875197 -5.45018 0
M  V30 3226 H 321.074 0.526111 -4.12761 0
M  V30 3227 H 319.95 1.1323 -5.37094 0
M  V30 3228 H 320.211 2.06806 -3.90748 0
M  V30 3229 N 319.27 1.56325 -0.20005 0
M  V30 3230 C 320.516 1.98772 0.431408 0
M  V30 3231 C 320.871 1.0849 1.58895 0
M  V30 3232 O 320.164 0.130331 1.91156 0
M  V30 3233 C 320.358 3.4495 0.935103 0
M  V30 3234 C 320.187 4.49371 -0.172096 0
M  V30 3235 C 318.957 5.0134 -0.631377 0
M  V30 3236 C 321.155 5.04822 -0.982806 0
M  V30 3237 N 319.137 5.89433 -1.71588 0
M  V30 3238 C 320.508 5.89632 -1.91661 0
M  V30 3239 C 322.563 4.87242 -1.02467 0
M  V30 3240 C 321.266 6.58741 -2.88881 0
M  V30 3241 C 323.292 5.57094 -1.98494 0
M  V30 3242 C 322.654 6.41655 -2.90617 0
M  V30 3243 H 318.753 0.771922 0.125144 0
M  V30 3244 H 321.337 1.92266 -0.306883 0
M  V30 3245 H 319.508 3.51946 1.64282 0
M  V30 3246 H 321.24 3.74354 1.53758 0
M  V30 3247 H 317.995 4.73071 -0.223827 0
M  V30 3248 H 318.419 6.38182 -2.25948 0
M  V30 3249 H 323.061 4.21538 -0.326408 0
M  V30 3250 H 320.779 7.23641 -3.5968 0
M  V30 3251 H 324.365 5.45466 -2.0238 0
M  V30 3252 H 323.245 6.94755 -3.63711 0
M  V30 3253 N 320.748 -0.0735177 1.57428 0
M  V30 3254 C 321.976 -0.785969 1.9139 0
M  V30 3255 C 322.391 -1.71207 0.795847 0
M  V30 3256 O 321.748 -1.81033 -0.230915 0
M  V30 3257 C 321.799 -1.58107 3.25091 0
M  V30 3258 O 321.52 -0.6922 4.32597 0
M  V30 3259 C 323.021 -2.39467 3.73055 0
M  V30 3260 H 320.241 -0.223558 0.632663 0
M  V30 3261 H 322.785 -0.044302 2.04452 0
M  V30 3262 H 320.94 -2.27503 3.13562 0
M  V30 3263 H 321.354 -1.24504 5.09508 0
M  V30 3264 H 322.828 -2.90716 4.69242 0
M  V30 3265 H 323.305 -3.18913 3.01979 0
M  V30 3266 H 323.911 -1.7523 3.87523 0
M  V30 3267 N 322.226 -1.5378 -0.344866 0
M  V30 3268 C 323.174 -1.82373 -1.4437 0
M  V30 3269 C 324.168 -0.694128 -1.54526 0
M  V30 3270 O 325.374 -0.877442 -1.57165 0
M  V30 3271 H 321.749 -0.577765 -0.481344 0
M  V30 3272 H 323.72 -2.74306 -1.17468 0
M  V30 3273 C 322.469 -2.04898 -2.80913 0
M  V30 3274 H 321.792 -2.9127 -2.73865 0
M  V30 3275 H 323.232 -2.28871 -3.56923 0
M  V30 3276 C 321.691 -0.834116 -3.26411 0
M  V30 3277 O 322.221 -0.0328885 -4.01687 0
M  V30 3278 N 320.427 -0.65171 -2.83198 0
M  V30 3279 H 319.974 -1.30489 -2.22104 0
M  V30 3280 H 319.932 0.159686 -3.13994 0
M  V30 3281 N 323.704 0.605807 -1.45491 0
M  V30 3282 C 324.953 1.36086 -1.48874 0
M  V30 3283 C 325.266 1.95131 -0.135333 0
M  V30 3284 O 326.472 2.7146 -0.0468144 0
M  V30 3285 C 324.928 2.46518 -2.62215 0
M  V30 3286 C 324.536 1.93877 -4.03876 0
M  V30 3287 C 326.28 3.23512 -2.74846 0
M  V30 3288 C 324.187 3.01801 -5.08596 0
M  V30 3289 H 323.117 0.511497 -0.553974 0
M  V30 3290 H 325.768 0.649089 -1.71636 0
M  V30 3291 H 324.15 3.20388 -2.32739 0
M  V30 3292 H 325.324 1.26704 -4.43038 0
M  V30 3293 H 323.639 1.29622 -3.95711 0
M  V30 3294 H 326.236 4.04013 -3.50253 0
M  V30 3295 H 326.579 3.74631 -1.81542 0
M  V30 3296 H 327.112 2.56742 -3.03856 0
M  V30 3297 H 323.851 2.55597 -6.03614 0
M  V30 3298 H 323.371 3.67535 -4.74002 0
M  V30 3299 H 325.05 3.66152 -5.33424 0
M  V30 3300 N 325.182 1.32811 0.848464 0
M  V30 3301 C 326.132 1.18842 1.94578 0
M  V30 3302 C 327.116 0.0937517 1.60627 0
M  V30 3303 O 328.308 0.320887 1.74067 0
M  V30 3304 C 325.437 0.91999 3.30743 0
M  V30 3305 C 324.523 2.05665 3.70894 0
M  V30 3306 N 324.914 3.30579 3.8282 0
M  V30 3307 C 323.212 1.9612 4.00566 0
M  V30 3308 C 323.913 4.05067 4.17487 0
M  V30 3309 N 322.889 3.33419 4.2934 0
M  V30 3310 H 326.691 2.13536 2.0194 0
M  V30 3311 H 324.205 1.2468 1.0406 0
M  V30 3312 H 326.202 0.800859 4.09136 0
M  V30 3313 H 324.862 -0.0185076 3.24695 0
M  V30 3314 H 325.873 3.65441 3.66978 0
M  V30 3315 H 322.55 1.09871 4.02784 0
M  V30 3316 H 323.94 5.12815 4.34131 0
M  V30 3317 N 326.66 -1.06551 1.16123 0
M  V30 3318 C 328.076 -1.3142 0.905585 0
M  V30 3319 C 328.276 -1.96571 -0.442964 0
M  V30 3320 O 327.332 -2.23068 -1.18308 0
M  V30 3321 C 328.645 -2.19741 2.05267 0
M  V30 3322 C 330.193 -2.33165 2.08813 0
M  V30 3323 C 330.668 -3.24838 3.22868 0
M  V30 3324 N 332.159 -3.32421 3.22568 0
M  V30 3325 C 332.894 -4.0344 4.0746 0
M  V30 3326 N 332.39 -4.77003 5.02434 0
M  V30 3327 N 334.183 -3.99464 3.95456 0
M  V30 3328 H 326.334 -0.626548 2.02949 0
M  V30 3329 H 328.597 -0.338777 0.8854 0
M  V30 3330 H 328.303 -1.79142 3.02657 0
M  V30 3331 H 328.177 -3.20313 1.99198 0
M  V30 3332 H 330.564 -2.73013 1.12018 0
M  V30 3333 H 330.645 -1.3227 2.18948 0
M  V30 3334 H 330.289 -2.85708 4.19921 0
M  V30 3335 H 330.219 -4.25707 3.0997 0
M  V30 3336 H 332.71 -2.79994 2.53795 0
M  V30 3337 H 333.023 -5.28712 5.63634 0
M  V30 3338 H 331.368 -4.75992 5.06415 0
M  V30 3339 H 334.559 -3.4111 3.20564 0
M  V30 3340 H 334.732 -4.54544 4.61837 0
M  V30 3341 N 328.138 -0.959301 -1.25041 0
M  V30 3342 C 329.366 -0.633949 -1.96948 0
M  V30 3343 C 329.781 0.794916 -1.7125 0
M  V30 3344 O 329.138 1.53231 -0.991287 0
M  V30 3345 C 329.189 -0.888805 -3.50403 0
M  V30 3346 O 328.91 -2.26149 -3.75218 0
M  V30 3347 C 330.411 -0.576482 -4.39536 0
M  V30 3348 H 327.631 -0.237263 -0.627652 0
M  V30 3349 H 330.175 -1.28495 -1.59089 0
M  V30 3350 H 328.33 -0.284145 -3.86357 0
M  V30 3351 H 328.744 -2.33514 -4.6965 0
M  V30 3352 H 330.218 -0.805314 -5.46094 0
M  V30 3353 H 330.695 0.489075 -4.36468 0
M  V30 3354 H 331.301 -1.16067 -4.09156 0
M  V30 3355 N 329.616 1.39756 -0.72842 0
M  V30 3356 C 330.893 1.94574 -0.200079 0
M  V30 3357 C 331.273 1.66569 1.29684 0
M  V30 3358 O 330.621 0.990326 2.05924 0
M  V30 3359 C 330.831 3.45004 -0.526608 0
M  V30 3360 C 332.179 4.21965 -0.472318 0
M  V30 3361 O 333.203 3.53173 -0.463413 0
M  V30 3362 O 332.062 5.44552 -0.461075 0
M  V30 3363 H 329.156 0.826289 -0.0342851 0
M  V30 3364 H 331.702 1.49293 -0.806829 0
M  V30 3365 H 330.474 3.58796 -1.56144 0
M  V30 3366 H 330.097 3.97449 0.109449 0
M  V30 3367 N 331.094 0.475555 1.50254 0
M  V30 3368 C 332.024 -0.30611 2.31485 0
M  V30 3369 C 333.005 -0.986228 1.38591 0
M  V30 3370 O 334.19 -0.982541 1.67511 0
M  V30 3371 C 331.32 -1.38588 3.1845 0
M  V30 3372 C 330.274 -0.827115 4.19932 0
M  V30 3373 C 329.6 -2.00551 4.95665 0
M  V30 3374 C 330.9 0.16463 5.2204 0
M  V30 3375 H 332.594 0.371866 2.97082 0
M  V30 3376 H 330.14 0.180282 1.42867 0
M  V30 3377 H 332.093 -1.94023 3.74076 0
M  V30 3378 H 330.817 -2.09269 2.50747 0
M  V30 3379 H 329.476 -0.294702 3.65414 0
M  V30 3380 H 329.124 -2.6994 4.2443 0
M  V30 3381 H 328.824 -1.63784 5.64313 0
M  V30 3382 H 330.348 -2.56468 5.54127 0
M  V30 3383 H 331.762 -0.300699 5.72511 0
M  V30 3384 H 330.159 0.446813 5.98434 0
M  V30 3385 H 331.229 1.08905 4.72512 0
M  V30 3386 N 332.573 -1.56217 0.208337 0
M  V30 3387 C 333.483 -2.23316 -0.718836 0
M  V30 3388 C 334.499 -1.23648 -1.22422 0
M  V30 3389 O 335.675 -1.56423 -1.26861 0
M  V30 3390 C 332.74 -2.88968 -1.91568 0
M  V30 3391 C 331.801 -4.03943 -1.45357 0
M  V30 3392 C 331.034 -4.66455 -2.59337 0
M  V30 3393 O 331.257 -4.27919 -3.77149 0
M  V30 3394 O 330.191 -5.55686 -2.31293 0
M  V30 3395 H 334.017 -3.03182 -0.177315 0
M  V30 3396 H 331.602 -1.49384 -0.0215402 0
M  V30 3397 H 333.484 -3.30455 -2.61491 0
M  V30 3398 H 332.159 -2.12071 -2.44556 0
M  V30 3399 H 331.066 -3.67052 -0.722746 0
M  V30 3400 H 332.399 -4.82543 -0.970219 0
M  V30 3401 N 334.051 0.0651679 -1.57465 0
M  V30 3402 C 334.998 1.07675 -2.04144 0
M  V30 3403 C 335.968 1.38071 -0.923335 0
M  V30 3404 O 337.153 1.49026 -1.19146 0
M  V30 3405 C 334.293 2.38337 -2.49579 0
M  V30 3406 C 333.406 2.14413 -3.75035 0
M  V30 3407 C 332.541 3.38686 -4.09225 0
M  V30 3408 C 331.58 3.10156 -5.27702 0
M  V30 3409 N 330.717 4.26778 -5.57499 0
M  V30 3410 H 335.557 0.671716 -2.90331 0
M  V30 3411 H 333.094 0.3201 -1.43575 0
M  V30 3412 H 335.052 3.14632 -2.73975 0
M  V30 3413 H 333.682 2.7663 -1.6636 0
M  V30 3414 H 332.734 1.2878 -3.57939 0
M  V30 3415 H 334.046 1.89344 -4.61466 0
M  V30 3416 H 333.2 4.23373 -4.34558 0
M  V30 3417 H 331.939 3.66837 -3.21374 0
M  V30 3418 H 330.944 2.23866 -5.02159 0
M  V30 3419 H 332.169 2.8332 -6.17176 0
M  V30 3420 H 330.115 4.54948 -4.72608 0
M  V30 3421 H 330.032 4.05005 -6.38362 0
M  V30 3422 H 331.3 5.12443 -5.87386 0
M  V30 3423 N 335.529 1.53961 0.336706 0
M  V30 3424 C 336.492 1.81724 1.39675 0
M  V30 3425 C 337.492 0.688532 1.45313 0
M  V30 3426 O 338.682 0.956829 1.45569 0
M  V30 3427 C 335.814 1.96543 2.78538 0
M  V30 3428 H 337.007 2.76424 1.16318 0
M  V30 3429 H 334.56 1.45478 0.571474 0
M  V30 3430 H 335.295 1.0401 3.07168 0
M  V30 3431 H 335.08 2.78665 2.75841 0
M  V30 3432 H 336.57 2.19516 3.5525 0
M  V30 3433 N 337.007 -0.598083 1.45811 0
M  V30 3434 C 338.255 -1.35413 1.50026 0
M  V30 3435 C 338.576 -1.94444 0.147177 0
M  V30 3436 O 337.846 -1.77701 -0.824571 0
M  V30 3437 H 336.426 -0.502727 0.552517 0
M  V30 3438 H 339.088 -0.701606 1.81834 0
M  V30 3439 H 338.184 -2.16871 2.2444 0
M  V30 3440 N 338.485 -1.33259 -0.841409 0
M  V30 3441 C 339.734 -1.23921 -1.59143 0
M  V30 3442 C 340.047 0.1941 -1.94635 0
M  V30 3443 O 341.253 0.409474 -2.68394 0
M  V30 3444 C 339.709 -2.17119 -2.87032 0
M  V30 3445 C 339.317 -3.65606 -2.58914 0
M  V30 3446 C 341.061 -2.16648 -3.65053 0
M  V30 3447 C 338.968 -4.50726 -3.82884 0
M  V30 3448 H 337.898 -0.460264 -0.597221 0
M  V30 3449 H 340.549 -1.58307 -0.927959 0
M  V30 3450 H 338.931 -1.75663 -3.54906 0
M  V30 3451 H 340.105 -4.15487 -1.99267 0
M  V30 3452 H 338.42 -3.68341 -1.942 0
M  V30 3453 H 341.017 -2.77474 -4.57069 0
M  V30 3454 H 341.36 -1.16088 -3.99787 0
M  V30 3455 H 341.893 -2.56453 -3.041 0
M  V30 3456 H 338.632 -5.52151 -3.53283 0
M  V30 3457 H 338.152 -4.0559 -4.41879 0
M  V30 3458 H 339.831 -4.64401 -4.50489 0
M  V30 3459 N 339.963 1.05934 -1.16686 0
M  V30 3460 C 341.211 1.78447 -0.948744 0
M  V30 3461 C 341.532 1.87813 0.524523 0
M  V30 3462 O 340.802 1.38945 1.38098 0
M  V30 3463 H 339.382 0.660971 -0.348033 0
M  V30 3464 H 342.044 1.27947 -1.47022 0
M  V30 3465 H 341.14 2.80394 -1.37061 0
M  V30 3466 N 341.441 0.965919 1.2453 0
M  V30 3467 C 342.671 0.643451 1.96324 0
M  V30 3468 C 343.079 -0.790927 1.71875 0
M  V30 3469 O 342.422 -1.54208 0.998273 0
M  V30 3470 C 342.484 0.836078 3.49643 0
M  V30 3471 C 342.148 2.24975 3.97788 0
M  V30 3472 C 343.145 3.22735 4.07601 0
M  V30 3473 C 340.83 2.57697 4.31158 0
M  V30 3474 C 342.824 4.51303 4.50116 0
M  V30 3475 C 340.511 3.86492 4.73357 0
M  V30 3476 C 341.509 4.83107 4.828 0
M  V30 3477 O 341.197 6.09605 5.24058 0
M  V30 3478 H 340.929 0.239223 0.632257 0
M  V30 3479 H 343.483 1.29587 1.59362 0
M  V30 3480 H 341.713 0.12649 3.86493 0
M  V30 3481 H 343.402 0.512965 4.02646 0
M  V30 3482 H 344.168 2.98783 3.82039 0
M  V30 3483 H 340.047 1.83216 4.23028 0
M  V30 3484 H 343.591 5.26716 4.57401 0
M  V30 3485 H 339.488 4.10245 4.98366 0
M  V30 3486 H 340.256 6.13146 5.42213 0
M  V30 3487 N 342.919 -1.39368 0.735821 0
M  V30 3488 C 344.167 -2.00101 0.283562 0
M  V30 3489 C 344.488 -1.5868 -1.13338 0
M  V30 3490 O 343.758 -0.835423 -1.77193 0
M  V30 3491 H 342.338 -0.740024 0.101851 0
M  V30 3492 H 345 -1.70404 0.945962 0
M  V30 3493 H 344.096 -3.10323 0.332604 0
M  V30 3494 N 344.397 -0.483516 -1.5 0
M  V30 3495 C 345.36 0.292965 -2.2732 0
M  V30 3496 C 346.36 0.909499 -1.32608 0
M  V30 3497 O 347.55 0.776745 -1.55924 0
M  V30 3498 C 344.682 1.41854 -3.09984 0
M  V30 3499 H 345.875 -0.385289 -2.97415 0
M  V30 3500 H 343.428 -0.237942 -1.54478 0
M  V30 3501 H 344.163 2.13148 -2.44414 0
M  V30 3502 H 343.948 0.982114 -3.79601 0
M  V30 3503 H 345.438 1.96597 -3.68429 0
M  V30 3504 N 345.875 1.56104 -0.216619 0
M  V30 3505 C 347.291 1.58995 0.13886 0
M  V30 3506 C 347.491 1.23333 1.59346 0
M  V30 3507 O 346.547 0.966234 2.33281 0
M  V30 3508 C 347.86 3.00143 -0.182968 0
M  V30 3509 C 349.408 3.12751 -0.124807 0
M  V30 3510 C 349.883 4.56068 -0.420241 0
M  V30 3511 N 351.374 4.61723 -0.369634 0
M  V30 3512 C 352.109 5.70542 -0.571789 0
M  V30 3513 N 351.605 6.87744 -0.835453 0
M  V30 3514 N 353.398 5.59831 -0.504563 0
M  V30 3515 H 345.549 1.77562 -1.16557 0
M  V30 3516 H 347.812 0.825091 -0.466828 0
M  V30 3517 H 347.518 3.30871 -1.19237 0
M  V30 3518 H 347.392 3.73813 0.504367 0
M  V30 3519 H 349.779 2.81822 0.875223 0
M  V30 3520 H 349.86 2.41421 -0.845544 0
M  V30 3521 H 349.504 4.87713 -1.41769 0
M  V30 3522 H 349.434 5.25617 0.321631 0
M  V30 3523 H 351.925 3.77502 -0.173338 0
M  V30 3524 H 352.238 7.66587 -0.977938 0
M  V30 3525 H 350.583 6.895 -0.872592 0
M  V30 3526 H 353.774 4.67145 -0.298842 0
M  V30 3527 H 353.947 6.44573 -0.665519 0
M  V30 3528 N 347.353 -0.0568162 1.57498 0
M  V30 3529 C 348.283 -1.06593 2.0775 0
M  V30 3530 C 349.264 -1.39448 0.974082 0
M  V30 3531 O 350.449 -1.48815 1.24771 0
M  V30 3532 C 347.579 -2.37509 2.5339 0
M  V30 3533 C 346.533 -2.1897 3.67745 0
M  V30 3534 C 345.859 -3.55402 3.99492 0
M  V30 3535 C 347.159 -1.59859 4.97235 0
M  V30 3536 H 348.853 -0.647706 2.9231 0
M  V30 3537 H 346.399 -0.310116 1.40621 0
M  V30 3538 H 348.352 -3.08409 2.87162 0
M  V30 3539 H 347.076 -2.8134 1.65878 0
M  V30 3540 H 345.735 -1.50508 3.3428 0
M  V30 3541 H 345.383 -3.9683 3.09088 0
M  V30 3542 H 345.083 -3.43831 4.76502 0
M  V30 3543 H 346.607 -4.27708 4.35773 0
M  V30 3544 H 348.021 -2.20642 5.29141 0
M  V30 3545 H 346.418 -1.58942 5.78669 0
M  V30 3546 H 347.488 -0.561506 4.81638 0
M  V30 3547 N 348.832 -1.54138 -0.328536 0
M  V30 3548 C 350.248 -1.44736 -0.672574 0
M  V30 3549 C 350.448 -0.616217 -1.91846 0
M  V30 3550 O 349.504 -0.113067 -2.52247 0
M  V30 3551 C 350.817 -2.884 -0.851217 0
M  V30 3552 C 352.365 -2.98271 -0.948877 0
M  V30 3553 C 352.84 -4.43074 -1.15973 0
M  V30 3554 N 354.331 -4.46665 -1.22658 0
M  V30 3555 C 355.066 -5.55857 -1.40751 0
M  V30 3556 N 354.562 -6.75026 -1.5592 0
M  V30 3557 N 356.355 -5.43495 -1.4342 0
M  V30 3558 H 348.506 -2.06661 0.490421 0
M  V30 3559 H 350.769 -0.934812 0.157579 0
M  V30 3560 H 350.475 -3.51699 -0.00704236 0
M  V30 3561 H 350.349 -3.34225 -1.74853 0
M  V30 3562 H 352.736 -2.35102 -1.78356 0
M  V30 3563 H 352.817 -2.55785 -0.0281435 0
M  V30 3564 H 352.461 -5.06827 -0.329915 0
M  V30 3565 H 352.391 -4.83165 -2.09426 0
M  V30 3566 H 354.882 -3.60797 -1.124 0
M  V30 3567 H 355.195 -7.54004 -1.69404 0
M  V30 3568 H 353.54 -6.77944 -1.53027 0
M  V30 3569 H 356.731 -4.49349 -1.31162 0
M  V30 3570 H 356.904 -6.28649 -1.57178 0
M  V30 3571 N 350.31 0.590341 -1.46126 0
M  V30 3572 C 351.24 1.71032 -1.58966 0
M  V30 3573 C 352.221 1.64302 -0.440335 0
M  V30 3574 O 353.406 1.82436 -0.665634 0
M  V30 3575 C 350.536 3.09665 -1.57241 0
M  V30 3576 C 349.49 3.31221 -2.71066 0
M  V30 3577 C 348.816 4.70303 -2.54399 0
M  V30 3578 C 350.116 3.19796 -4.1295 0
M  V30 3579 H 351.81 1.60543 -2.52718 0
M  V30 3580 H 349.356 0.770933 -1.21625 0
M  V30 3581 H 351.309 3.87831 -1.64819 0
M  V30 3582 H 350.033 3.21036 -0.600289 0
M  V30 3583 H 348.692 2.55452 -2.62944 0
M  V30 3584 H 348.34 4.78429 -1.55288 0
M  V30 3585 H 348.04 4.85679 -3.30741 0
M  V30 3586 H 349.564 5.50647 -2.63857 0
M  V30 3587 H 350.978 3.87815 -4.22223 0
M  V30 3588 H 349.375 3.46696 -4.89818 0
M  V30 3589 H 350.445 2.16983 -4.33643 0
M  V30 3590 N 351.788 1.33704 0.83433 0
M  V30 3591 C 353.016 1.28467 1.62185 0
M  V30 3592 C 353.431 -0.143526 1.88254 0
M  V30 3593 O 352.788 -1.08709 1.4659 0
M  V30 3594 C 352.839 2.06174 2.96942 0
M  V30 3595 O 352.56 3.43422 2.72016 0
M  V30 3596 C 354.061 2.08201 3.91366 0
M  V30 3597 H 351.281 0.4424 0.504503 0
M  V30 3598 H 353.825 1.76145 1.03891 0
M  V30 3599 H 351.98 1.62167 3.51825 0
M  V30 3600 H 352.394 3.83453 3.57861 0
M  V30 3601 H 353.868 2.67017 4.83121 0
M  V30 3602 H 354.345 1.07343 4.2588 0
M  V30 3603 H 354.951 2.52246 3.42421 0
M  V30 3604 N 353.266 -1.05314 1.17247 0
M  V30 3605 C 354.196 -2.1498 0.911362 0
M  V30 3606 C 355.177 -1.69471 -0.146169 0
M  V30 3607 O 356.362 -1.942 0.003812 0
M  V30 3608 C 353.492 -3.4472 0.422528 0
M  V30 3609 C 352.446 -4.03789 1.4191 0
M  V30 3610 C 351.772 -5.28858 0.788274 0
M  V30 3611 C 353.072 -4.41418 2.7919 0
M  V30 3612 H 354.766 -2.3708 1.82848 0
M  V30 3613 H 352.312 -1.13938 0.880569 0
M  V30 3614 H 354.265 -4.20787 0.227289 0
M  V30 3615 H 352.989 -3.22269 -0.530123 0
M  V30 3616 H 351.648 -3.2979 1.60106 0
M  V30 3617 H 351.296 -5.02709 -0.171173 0
M  V30 3618 H 350.996 -5.69338 1.45353 0
M  V30 3619 H 352.52 -6.07612 0.603282 0
M  V30 3620 H 353.934 -5.08524 2.64719 0
M  V30 3621 H 352.331 -4.92913 3.42282 0
M  V30 3622 H 353.401 -3.51819 3.33693 0
M  V30 3623 N 354.744 -0.972509 -1.24016 0
M  V30 3624 C 356.021 -0.553733 -1.87598 0
M  V30 3625 C 356.401 0.969158 -1.87538 0
M  V30 3626 O 355.749 1.84255 -1.35139 0
M  V30 3627 C 355.959 -1.15076 -3.29482 0
M  V30 3628 C 357.307 -1.23862 -4.06132 0
M  V30 3629 O 358.331 -1.10363 -3.38672 0
M  V30 3630 O 357.19 -1.45252 -5.26844 0
M  V30 3631 H 354.284 -0.185331 -0.805966 0
M  V30 3632 H 356.83 -1.06709 -1.31952 0
M  V30 3633 H 355.602 -2.19333 -3.2405 0
M  V30 3634 H 355.225 -0.621746 -3.92709 0
M  V30 3635 N 356.222 1.38976 -0.743202 0
M  V30 3636 C 357.47 1.99948 -0.29417 0
M  V30 3637 C 357.791 1.59279 1.12495 0
M  V30 3638 O 357.061 0.844808 1.76748 0
M  V30 3639 H 355.641 0.739473 -0.105774 0
M  V30 3640 H 358.303 1.699 -0.954986 0
M  V30 3641 H 357.399 3.10142 -0.349056 0
M  V30 3642 N 357.7 0.491464 1.49741 0
M  V30 3643 C 358.946 -0.0565092 2.02721 0
M  V30 3644 C 359.279 -1.37522 1.37118 0
M  V30 3645 O 358.554 -1.87866 0.503645 0
M  V30 3646 C 358.837 -0.219051 3.59433 0
M  V30 3647 C 358.69 1.12211 4.35579 0
M  V30 3648 C 360.009 -0.964157 4.29409 0
M  V30 3649 H 357.128 -0.0190627 0.736753 0
M  V30 3650 H 359.77 0.641021 1.7886 0
M  V30 3651 H 357.92 -0.813165 3.79895 0
M  V30 3652 H 359.592 1.75437 4.26637 0
M  V30 3653 H 357.835 1.71377 3.98513 0
M  V30 3654 H 358.506 0.961794 5.43556 0
M  V30 3655 H 360.982 -0.460378 4.13545 0
M  V30 3656 H 359.858 -1.04671 5.38828 0
M  V30 3657 H 360.119 -2.00563 3.93988 0
M  V30 3658 N 359.178 -1.55987 0.224894 0
M  V30 3659 C 360.108 -2.23426 -0.678457 0
M  V30 3660 C 361.089 -1.20709 -1.19847 0
M  V30 3661 O 362.274 -1.49304 -1.24186 0
M  V30 3662 C 359.404 -2.91676 -1.88527 0
M  V30 3663 C 358.358 -4.00893 -1.49896 0
M  V30 3664 C 357.684 -4.56455 -2.78483 0
M  V30 3665 C 358.984 -5.17769 -0.686461 0
M  V30 3666 H 360.678 -2.99175 -0.116173 0
M  V30 3667 H 358.224 -1.43897 -0.054436 0
M  V30 3668 H 360.177 -3.37547 -2.5227 0
M  V30 3669 H 358.901 -2.1338 -2.47258 0
M  V30 3670 H 357.56 -3.55758 -0.884985 0
M  V30 3671 H 357.208 -3.74886 -3.35365 0
M  V30 3672 H 356.908 -5.30169 -2.53368 0
M  V30 3673 H 358.432 -5.05047 -3.43162 0
M  V30 3674 H 359.846 -5.60001 -1.22767 0
M  V30 3675 H 358.243 -5.97735 -0.532259 0
M  V30 3676 H 359.313 -4.83932 0.306196 0
M  V30 3677 N 360.656 0.0484629 -1.57525 0
M  V30 3678 C 362.067 0.597486 -1.76881 0
M  V30 3679 C 362.418 1.76664 -0.853475 0
M  V30 3680 O 361.543 2.16357 -0.0433656 0
M  V30 3681 C 362.138 1.09066 -3.20765 0
M  V30 3682 C 360.697 1.58535 -3.41385 0
M  V30 3683 C 359.844 0.514868 -2.72478 0
M  V30 3684 H 362.795 -0.177758 -1.57701 0
M  V30 3685 H 362.816 1.95875 -3.2621 0
M  V30 3686 H 362.328 0.239521 -3.8736 0
M  V30 3687 H 360.429 2.45898 -2.79937 0
M  V30 3688 H 360.542 1.64622 -4.49929 0
M  V30 3689 H 358.906 0.965407 -2.35695 0
M  V30 3690 H 359.689 -0.32648 -3.41744 0
M  V30 3691 N 362.134 1.5431 0.320358 0
M  V30 3692 C 363.381 1.72668 1.05792 0
M  V30 3693 C 363.709 0.502084 1.87908 0
M  V30 3694 O 362.964 -0.516149 1.88771 0
M  V30 3695 C 363.263 2.95639 2.00828 0
M  V30 3696 C 362.929 4.30265 1.34843 0
M  V30 3697 C 361.591 4.66865 1.16578 0
M  V30 3698 C 363.943 5.13801 0.875095 0
M  V30 3699 C 361.271 5.84597 0.496336 0
M  V30 3700 C 363.623 6.32219 0.219463 0
M  V30 3701 C 362.287 6.67495 0.0246915 0
M  V30 3702 H 361.557 0.631837 0.387121 0
M  V30 3703 H 364.204 1.88552 0.334735 0
M  V30 3704 H 362.509 2.74456 2.79609 0
M  V30 3705 H 364.206 3.07038 2.57932 0
M  V30 3706 H 360.796 4.01472 1.50061 0
M  V30 3707 H 364.98 4.86039 1.00398 0
M  V30 3708 H 360.236 6.10486 0.334264 0
M  V30 3709 H 364.41 6.96227 -0.155291 0
M  V30 3710 H 362.037 7.5858 -0.496065 0
M  V30 3711 N 363.613 -0.582584 1.46437 0
M  V30 3712 C 364.523 -1.71949 1.59595 0
M  V30 3713 C 365.539 -1.67264 0.479443 0
M  V30 3714 O 366.715 -1.87171 0.743579 0
M  V30 3715 C 363.78 -3.08452 1.58298 0
M  V30 3716 C 362.841 -3.244 2.81182 0
M  V30 3717 C 362.074 -4.54391 2.79937 0
M  V30 3718 O 362.297 -5.38287 1.8869 0
M  V30 3719 O 361.231 -4.73588 3.71481 0
M  V30 3720 H 365.057 -1.63795 2.55744 0
M  V30 3721 H 362.642 -0.749643 1.29231 0
M  V30 3722 H 364.524 -3.89732 1.60271 0
M  V30 3723 H 363.199 -3.17043 0.653094 0
M  V30 3724 H 362.106 -2.42613 2.84763 0
M  V30 3725 H 363.439 -3.20699 3.7338 0
M  V30 3726 N 365.091 -1.34144 -0.827227 0
M  V30 3727 C 366.054 -1.25264 -1.91942 0
M  V30 3728 C 367.054 -0.168866 -1.59911 0
M  V30 3729 O 368.244 -0.421198 -1.69031 0
M  V30 3730 C 365.376 -0.932952 -3.27885 0
M  V30 3731 H 366.569 -2.22357 -2.0124 0
M  V30 3732 H 364.122 -1.1837 -1.0207 0
M  V30 3733 H 364.857 0.0349917 -3.24281 0
M  V30 3734 H 364.642 -1.71682 -3.52516 0
M  V30 3735 H 366.132 -0.895874 -4.07877 0
M  V30 3736 N 366.569 1.04691 -1.17803 0
M  V30 3737 C 367.98 1.59238 -0.974689 0
M  V30 3738 C 368.331 1.90306 0.477292 0
M  V30 3739 O 367.456 1.68846 1.35352 0
M  V30 3740 C 368.051 2.89318 -1.76296 0
M  V30 3741 C 366.61 3.40506 -1.60414 0
M  V30 3742 C 365.757 2.14172 -1.76141 0
M  V30 3743 H 368.708 0.874395 -1.32439 0
M  V30 3744 H 368.729 3.5944 -1.24833 0
M  V30 3745 H 368.241 2.66675 -2.81968 0
M  V30 3746 H 366.342 3.68175 -0.572519 0
M  V30 3747 H 366.455 4.14753 -2.39827 0
M  V30 3748 H 364.819 2.25176 -1.19028 0
M  V30 3749 H 365.602 1.93992 -2.83235 0
M  V30 3750 N 368.047 0.979072 1.23499 0
M  V30 3751 C 368.977 0.537606 2.27227 0
M  V30 3752 C 369.958 -0.428539 1.64613 0
M  V30 3753 O 371.143 -0.322191 1.91509 0
M  V30 3754 C 368.273 -0.162052 3.46922 0
M  V30 3755 C 367.227 0.721242 4.21879 0
M  V30 3756 C 366.553 -0.110555 5.34586 0
M  V30 3757 C 367.853 2.01141 4.82016 0
M  V30 3758 H 369.547 1.40462 2.64406 0
M  V30 3759 H 367.093 0.67684 1.27102 0
M  V30 3760 H 369.046 -0.482192 4.18632 0
M  V30 3761 H 367.77 -1.06351 3.08799 0
M  V30 3762 H 366.429 1.02482 3.51984 0
M  V30 3763 H 366.077 -1.0125 4.92704 0
M  V30 3764 H 365.777 0.477325 5.85658 0
M  V30 3765 H 367.301 -0.425107 6.09118 0
M  V30 3766 H 368.715 1.75612 5.45741 0
M  V30 3767 H 367.112 2.54695 5.43369 0
M  V30 3768 H 368.182 2.69909 4.02836 0
M  V30 3769 N 369.525 -1.3858 0.750561 0
M  V30 3770 C 370.753 -2.04471 0.316098 0
M  V30 3771 C 371.168 -1.56606 -1.05452 0
M  V30 3772 O 370.525 -0.737784 -1.66922 0
M  V30 3773 C 370.576 -3.60025 0.326275 0
M  V30 3774 O 370.297 -4.06133 1.6428 0
M  V30 3775 C 371.798 -4.43131 -0.122429 0
M  V30 3776 H 369.018 -0.65717 0.135528 0
M  V30 3777 H 371.562 -1.77329 1.01857 0
M  V30 3778 H 369.717 -3.86014 -0.327431 0
M  V30 3779 H 370.131 -5.00547 1.56693 0
M  V30 3780 H 371.605 -5.51963 -0.0641473 0
M  V30 3781 H 372.082 -4.23333 -1.16988 0
M  V30 3782 H 372.688 -4.22323 0.50229 0
M  V30 3783 N 371.003 -0.499398 -1.49478 0
M  V30 3784 C 372.414 -0.051215 -1.8663 0
M  V30 3785 C 372.765 1.36238 -1.41186 0
M  V30 3786 O 371.89 2.01502 -0.789051 0
M  V30 3787 C 372.485 -0.0861651 -3.3869 0
M  V30 3788 C 371.044 0.30667 -3.75149 0
M  V30 3789 C 370.191 -0.459397 -2.73468 0
M  V30 3790 H 373.142 -0.712264 -1.41818 0
M  V30 3791 H 373.163 0.709507 -3.73826 0
M  V30 3792 H 372.675 -1.11512 -3.71735 0
M  V30 3793 H 370.776 1.33892 -3.47712 0
M  V30 3794 H 370.889 -0.0116669 -4.79099 0
M  V30 3795 H 369.253 0.0905645 -2.54539 0
M  V30 3796 H 370.036 -1.4884 -3.09357 0
M  V30 3797 N 372.481 1.55866 -0.233164 0
M  V30 3798 C 373.709 2.02998 0.399905 0
M  V30 3799 C 374.124 1.11274 1.52524 0
M  V30 3800 O 373.481 0.124528 1.82075 0
M  V30 3801 C 373.532 3.4958 0.920639 0
M  V30 3802 O 373.253 4.37808 -0.159834 0
M  V30 3803 C 374.754 4.12411 1.62578 0
M  V30 3804 H 371.974 0.664006 0.0966281 0
M  V30 3805 H 374.518 2.0143 -0.353013 0
M  V30 3806 H 372.673 3.51727 1.62379 0
M  V30 3807 H 373.087 5.23981 0.23337 0
M  V30 3808 H 374.561 5.16711 1.94201 0
M  V30 3809 H 375.038 3.5809 2.54299 0
M  V30 3810 H 375.644 4.14148 0.967553 0
M  V30 3811 N 373.959 -0.0401083 1.57549 0
M  V30 3812 C 375.206 -0.733125 1.88763 0
M  V30 3813 C 375.534 -1.75946 0.829058 0
M  V30 3814 O 374.789 -1.94949 -0.171323 0
M  V30 3815 C 375.088 -1.44902 3.26708 0
M  V30 3816 C 374.754 -0.559707 4.47413 0
M  V30 3817 C 373.416 -0.314731 4.8017 0
M  V30 3818 C 375.768 0.0549743 5.21171 0
M  V30 3819 C 373.096 0.553886 5.8408 0
M  V30 3820 C 375.448 0.911229 6.26003 0
M  V30 3821 C 374.112 1.16577 6.57241 0
M  V30 3822 H 373.382 -0.268269 0.690733 0
M  V30 3823 H 376.029 0.00679408 1.91499 0
M  V30 3824 H 374.334 -2.26197 3.1991 0
M  V30 3825 H 376.031 -1.99058 3.48105 0
M  V30 3826 H 372.621 -0.760793 4.21794 0
M  V30 3827 H 376.805 -0.121344 4.96152 0
M  V30 3828 H 372.061 0.759518 6.06664 0
M  V30 3829 H 376.235 1.3941 6.82303 0
M  V30 3830 H 373.862 1.84058 7.37582 0
M  V30 3831 N 375.437 -1.54477 -0.31217 0
M  V30 3832 C 376.4 -1.83923 -1.36766 0
M  V30 3833 C 377.4 -0.711563 -1.44199 0
M  V30 3834 O 378.59 -0.979866 -1.44029 0
M  V30 3835 C 375.722 -2.0095 -2.75376 0
M  V30 3836 H 376.915 -2.78239 -1.11906 0
M  V30 3837 H 374.468 -1.46369 -0.548257 0
M  V30 3838 H 375.203 -1.08883 -3.05475 0
M  V30 3839 H 374.988 -2.83018 -2.71373 0
M  V30 3840 H 376.478 -2.2514 -3.51713 0
M  V30 3841 N 376.915 0.57481 -1.46744 0
M  V30 3842 C 378.192 1.3352 -1.4294 0
M  V30 3843 C 378.572 2.10775 -0.117009 0
M  V30 3844 O 377.92 2.09966 0.901474 0
M  V30 3845 C 378.13 2.25456 -2.66403 0
M  V30 3846 C 379.478 2.87035 -3.12883 0
M  V30 3847 O 380.502 2.35766 -2.67007 0
M  V30 3848 O 379.361 3.80179 -3.92589 0
M  V30 3849 H 376.455 0.600318 -0.568812 0
M  V30 3850 H 379.001 0.595171 -1.58921 0
M  V30 3851 H 377.773 1.67851 -3.53471 0
M  V30 3852 H 377.396 3.06785 -2.52921 0
M  V30 3853 N 378.394 1.34581 0.820102 0
M  V30 3854 C 379.357 1.2628 1.91275 0
M  V30 3855 C 380.357 0.177344 1.59819 0
M  V30 3856 O 381.547 0.430156 1.68806 0
M  V30 3857 C 378.679 0.950327 3.27386 0
M  V30 3858 H 379.872 2.23421 2.00057 0
M  V30 3859 H 377.425 1.1891 1.0144 0
M  V30 3860 H 378.16 -0.0177938 3.24295 0
M  V30 3861 H 377.945 1.73549 3.51601 0
M  V30 3862 H 379.435 0.917492 4.07396 0
M  V30 3863 N 379.872 -1.04064 1.18357 0
M  V30 3864 C 381.12 -1.76915 0.977013 0
M  V30 3865 C 381.441 -1.88624 -0.494577 0
M  V30 3866 O 380.711 -1.41125 -1.3587 0
M  V30 3867 H 379.291 -0.65535 0.358504 0
M  V30 3868 H 381.953 -1.25592 1.49039 0
M  V30 3869 H 381.049 -2.78178 1.41504 0
M  V30 3870 N 381.35 -0.985608 -1.22978 0
M  V30 3871 C 382.26 -0.538548 -2.28335 0
M  V30 3872 C 383.276 0.409163 -1.69121 0
M  V30 3873 O 384.452 0.277797 -1.99475 0
M  V30 3874 C 381.517 0.146867 -3.46389 0
M  V30 3875 C 380.578 -0.842896 -4.20944 0
M  V30 3876 C 379.811 -0.190095 -5.33361 0
M  V30 3877 O 380.034 1.01767 -5.61248 0
M  V30 3878 O 378.968 -0.891289 -5.95264 0
M  V30 3879 H 382.794 -1.41487 -2.68729 0
M  V30 3880 H 380.379 -0.753495 -1.29007 0
M  V30 3881 H 382.261 0.531125 -4.1804 0
M  V30 3882 H 380.936 0.997871 -3.07935 0
M  V30 3883 H 379.843 -1.27795 -3.51595 0
M  V30 3884 H 381.176 -1.66287 -4.6326 0
M  V30 3885 N 382.828 1.3818 -0.7579 0
M  V30 3886 C 384.077 1.99261 -0.312744 0
M  V30 3887 C 384.39 1.60846 1.11301 0
M  V30 3888 O 385.596 2.14929 1.65885 0
M  V30 3889 C 384.052 3.56294 -0.50821 0
M  V30 3890 C 383.66 4.03657 -1.94333 0
M  V30 3891 C 385.404 4.24313 -0.125982 0
M  V30 3892 C 383.311 5.53347 -2.08712 0
M  V30 3893 H 382.241 0.745456 -0.113185 0
M  V30 3894 H 384.892 1.57889 -0.935056 0
M  V30 3895 H 383.274 3.95575 0.183353 0
M  V30 3896 H 384.448 3.75655 -2.66871 0
M  V30 3897 H 382.763 3.48376 -2.28086 0
M  V30 3898 H 385.36 5.34279 -0.212125 0
M  V30 3899 H 385.703 4.05962 0.921964 0
M  V30 3900 H 386.236 3.90285 -0.769563 0
M  V30 3901 H 382.975 5.76607 -3.11777 0
M  V30 3902 H 382.495 5.83078 -1.4064 0
M  V30 3903 H 384.174 6.19111 -1.87912 0
M  V30 3904 N 384.306 0.507319 1.49211 0
M  V30 3905 C 385.554 -0.0348839 2.0207 0
M  V30 3906 C 385.875 -1.36898 1.38866 0
M  V30 3907 O 385.145 -1.88133 0.546151 0
M  V30 3908 H 383.725 -0.0158812 0.746831 0
M  V30 3909 H 386.387 0.665998 1.83168 0
M  V30 3910 H 385.483 -0.159917 3.1169 0
M  V30 3911 N 385.784 -1.5574 0.241426 0
M  V30 3912 C 386.732 -2.22538 -0.676718 0
M  V30 3913 C 387.726 -1.21117 -1.18436 0
M  V30 3914 O 388.932 -1.39144 -1.14188 0
M  V30 3915 H 385.307 -0.713776 -0.236701 0
M  V30 3916 H 387.278 -2.98264 -0.0901187 0
M  V30 3917 C 386.027 -2.93439 -1.86518 0
M  V30 3918 H 385.35 -3.7125 -1.4837 0
M  V30 3919 H 386.79 -3.43549 -2.48495 0
M  V30 3920 C 385.249 -1.97008 -2.73294 0
M  V30 3921 O 385.779 -1.49965 -3.72657 0
M  V30 3922 N 383.985 -1.64227 -2.39745 0
M  V30 3923 H 383.532 -2.02677 -1.58996 0
M  V30 3924 H 383.49 -0.999708 -2.98083 0
M  V30 3925 N 387.262 0.0317525 -1.57568 0
M  V30 3926 C 388.511 0.722131 -1.8833 0
M  V30 3927 C 388.824 1.76664 -0.839587 0
M  V30 3928 O 390.03 2.50942 -1.03635 0
M  V30 3929 C 388.486 1.33544 -3.34207 0
M  V30 3930 C 388.094 0.327415 -4.46802 0
M  V30 3931 C 389.838 2.00585 -3.7412 0
M  V30 3932 C 387.745 0.948915 -5.83738 0
M  V30 3933 H 386.675 0.273466 -0.702661 0
M  V30 3934 H 389.326 -0.0235811 -1.83485 0
M  V30 3935 H 387.708 2.13077 -3.33788 0
M  V30 3936 H 388.882 -0.441006 -4.58685 0
M  V30 3937 H 387.197 -0.240758 -4.15703 0
M  V30 3938 H 389.794 2.47932 -4.73744 0
M  V30 3939 H 390.137 2.82285 -3.05975 0
M  V30 3940 H 390.67 1.27831 -3.76702 0
M  V30 3941 H 387.409 0.171387 -6.55276 0
M  V30 3942 H 386.929 1.68724 -5.7558 0
M  V30 3943 H 388.608 1.45705 -6.3038 0
M  V30 3944 N 388.74 1.54641 0.303973 0
M  V30 3945 C 389.703 1.84646 1.35789 0
M  V30 3946 C 390.703 0.7192 1.4382 0
M  V30 3947 O 391.893 0.987491 1.43507 0
M  V30 3948 C 389.025 2.02407 2.74307 0
M  V30 3949 H 390.218 2.78829 1.10429 0
M  V30 3950 H 387.771 1.46658 0.540487 0
M  V30 3951 H 388.506 1.10502 3.04893 0
M  V30 3952 H 388.291 2.84453 2.69868 0
M  V30 3953 H 389.781 2.27002 3.50514 0
M  V30 3954 N 390.218 -0.567019 1.47046 0
M  V30 3955 C 391.467 -1.32091 1.5243 0
M  V30 3956 C 391.78 -1.94704 0.187021 0
M  V30 3957 O 392.986 -2.7124 0.118771 0
M  V30 3958 C 391.442 -2.39479 2.68659 0
M  V30 3959 C 391.05 -1.831 4.08874 0
M  V30 3960 C 392.794 -3.16111 2.83327 0
M  V30 3961 C 390.701 -2.8821 5.16419 0
M  V30 3962 H 389.631 -0.496629 0.56734 0
M  V30 3963 H 392.282 -0.603354 1.73297 0
M  V30 3964 H 390.664 -3.14105 2.41152 0
M  V30 3965 H 391.838 -1.14913 4.46242 0
M  V30 3966 H 390.153 -1.19085 3.99008 0
M  V30 3967 H 392.75 -3.94585 3.60842 0
M  V30 3968 H 393.093 -3.69686 1.91411 0
M  V30 3969 H 393.626 -2.48595 3.10556 0
M  V30 3970 H 390.365 -2.39504 6.10179 0
M  V30 3971 H 389.885 -3.54839 4.8358 0
M  V30 3972 H 391.564 -3.51881 5.42945 0
M  V30 3973 N 391.696 -1.35014 -0.812953 0
M  V30 3974 C 392.926 -1.30841 -1.59888 0
M  V30 3975 C 393.334 0.117576 -1.88834 0
M  V30 3976 O 392.677 1.07807 -1.48739 0
M  V30 3977 C 392.739 -2.0412 -2.95931 0
M  V30 3978 C 392.403 -3.53336 -2.89832 0
M  V30 3979 C 393.4 -4.48052 -2.63714 0
M  V30 3980 C 391.085 -3.95894 -3.0915 0
M  V30 3981 C 393.079 -5.833 -2.56982 0
M  V30 3982 C 390.766 -5.31239 -3.0204 0
M  V30 3983 C 391.764 -6.24754 -2.75991 0
M  V30 3984 O 391.452 -7.57617 -2.68833 0
M  V30 3985 H 391.184 -0.451215 -0.50337 0
M  V30 3986 H 393.738 -1.78354 -1.01877 0
M  V30 3987 H 391.968 -1.51235 -3.559 0
M  V30 3988 H 393.657 -1.93107 -3.57022 0
M  V30 3989 H 394.423 -4.16492 -2.48515 0
M  V30 3990 H 390.302 -3.23495 -3.28438 0
M  V30 3991 H 393.846 -6.56263 -2.36569 0
M  V30 3992 H 389.743 -5.62415 -3.16796 0
M  V30 3993 H 390.511 -7.67469 -2.84487 0
M  V30 3994 N 393.175 1.03435 -1.18907 0
M  V30 3995 C 394.105 2.13503 -0.945448 0
M  V30 3996 C 395.086 1.69682 0.119189 0
M  V30 3997 O 396.271 1.94169 -0.034707 0
M  V30 3998 C 393.401 3.44004 -0.477316 0
M  V30 3999 C 392.355 4.0148 -1.48316 0
M  V30 4000 C 391.681 5.27537 -0.872311 0
M  V30 4001 C 392.981 4.36921 -2.86177 0
M  V30 4002 H 394.675 2.34141 -1.86597 0
M  V30 4003 H 392.221 1.12523 -0.898584 0
M  V30 4004 H 394.174 4.20372 -0.294204 0
M  V30 4005 H 392.898 3.23072 0.478786 0
M  V30 4006 H 391.557 3.27201 -1.65332 0
M  V30 4007 H 391.205 5.02917 0.0911752 0
M  V30 4008 H 390.905 5.66954 -1.54393 0
M  V30 4009 H 392.429 6.06576 -0.699871 0
M  V30 4010 H 393.843 5.04248 -2.72776 0
M  V30 4011 H 392.24 4.87405 -3.50081 0
M  V30 4012 H 393.31 3.46466 -3.39248 0
M  V30 4013 N 394.653 0.992116 1.22453 0
M  V30 4014 C 395.601 0.534644 2.26372 0
M  V30 4015 C 396.595 -0.414293 1.64256 0
M  V30 4016 O 397.801 -0.286899 1.77699 0
M  V30 4017 H 394.176 0.154502 0.735957 0
M  V30 4018 H 396.147 1.42256 2.62309 0
M  V30 4019 C 394.896 -0.135815 3.47435 0
M  V30 4020 H 394.219 0.585311 3.95492 0
M  V30 4021 H 395.659 -0.419374 4.21921 0
M  V30 4022 C 394.118 -1.37089 3.07747 0
M  V30 4023 O 394.648 -2.46629 3.17076 0
M  V30 4024 N 392.854 -1.24585 2.62539 0
M  V30 4025 H 392.401 -0.354542 2.55149 0
M  V30 4026 H 392.359 -2.07327 2.36353 0
M  V30 4027 N 396.131 -1.37776 0.765217 0
M  V30 4028 C 397.356 -2.04651 0.336537 0
M  V30 4029 C 397.781 -1.57337 -1.03086 0
M  V30 4030 O 397.139 -0.730621 -1.65927 0
M  V30 4031 C 397.187 -3.58577 0.381468 0
M  V30 4032 O 396.291 -4.07706 -0.62042 0
M  V30 4033 H 395.632 -0.64756 0.146838 0
M  V30 4034 H 398.162 -1.76221 1.03959 0
M  V30 4035 H 398.172 -4.07314 0.236448 0
M  V30 4036 H 396.847 -3.9237 1.37907 0
M  V30 4037 H 395.424 -3.70306 -0.439056 0
M  V30 4038 N 397.609 -0.515225 -1.4894 0
M  V30 4039 C 399.025 -0.172099 -1.58669 0
M  V30 4040 C 399.225 1.32405 -1.51892 0
M  V30 4041 O 398.281 2.10116 -1.40027 0
M  V30 4042 C 399.594 -0.761533 -2.90897 0
M  V30 4043 C 401.142 -0.728926 -3.04394 0
M  V30 4044 C 401.617 -1.29667 -4.39261 0
M  V30 4045 N 403.108 -1.25799 -4.4579 0
M  V30 4046 C 403.843 -1.66733 -5.48623 0
M  V30 4047 N 403.339 -2.15327 -6.58488 0
M  V30 4048 N 405.132 -1.58061 -5.39419 0
M  V30 4049 H 397.283 -1.48778 -1.51588 0
M  V30 4050 H 399.546 -0.617968 -0.718901 0
M  V30 4051 H 399.252 -1.81136 -3.01468 0
M  V30 4052 H 399.126 -0.230106 -3.76497 0
M  V30 4053 H 401.513 0.312098 -2.93445 0
M  V30 4054 H 401.594 -1.29766 -2.20442 0
M  V30 4055 H 401.238 -2.33655 -4.50963 0
M  V30 4056 H 401.168 -0.703752 -5.21876 0
M  V30 4057 H 403.659 -0.902102 -3.66975 0
M  V30 4058 H 403.972 -2.44594 -7.33071 0
M  V30 4059 H 402.317 -2.19311 -6.59491 0
M  V30 4060 H 405.508 -1.19906 -4.52482 0
M  V30 4061 H 405.681 -1.90284 -6.19432 0
M  V30 4062 N 399.087 1.5561 -0.249682 0
M  V30 4063 C 400.335 1.98618 0.373548 0
M  V30 4064 C 400.656 1.13919 1.58264 0
M  V30 4065 O 399.926 0.222637 1.94631 0
M  V30 4066 H 398.506 0.733571 0.141006 0
M  V30 4067 H 401.168 1.91748 -0.349117 0
M  V30 4068 H 400.264 3.04584 0.680796 0
M  V30 4069 N 400.565 -0.0233959 1.57583 0
M  V30 4070 C 401.795 -0.723631 1.93513 0
M  V30 4071 C 402.203 -1.69115 0.848333 0
M  V30 4072 O 401.546 -1.82781 -0.183484 0
M  V30 4073 C 401.608 -1.53075 3.25282 0
M  V30 4074 C 401.272 -0.727388 4.51174 0
M  V30 4075 C 402.269 -0.0251924 5.19894 0
M  V30 4076 C 399.954 -0.680256 4.97672 0
M  V30 4077 C 401.948 0.713374 6.33395 0
M  V30 4078 C 399.635 0.0620523 6.11068 0
M  V30 4079 C 400.633 0.757622 6.78785 0
M  V30 4080 O 400.321 1.48787 7.90011 0
M  V30 4081 H 400.053 -0.208051 0.643188 0
M  V30 4082 H 402.607 0.0167489 2.05393 0
M  V30 4083 H 400.837 -2.31508 3.09744 0
M  V30 4084 H 402.526 -2.11413 3.46496 0
M  V30 4085 H 403.292 -0.0526003 4.84971 0
M  V30 4086 H 399.171 -1.21116 4.44805 0
M  V30 4087 H 402.715 1.25683 6.86185 0
M  V30 4088 H 398.612 0.0913634 6.45435 0
M  V30 4089 H 399.38 1.40213 8.06401 0
M  V30 4090 N 402.043 -1.548 -0.295768 0
M  V30 4091 C 402.973 -1.89115 -1.36959 0
M  V30 4092 C 403.954 -0.75059 -1.52644 0
M  V30 4093 O 405.139 -1.00678 -1.66065 0
M  V30 4094 C 402.269 -2.14307 -2.73295 0
M  V30 4095 C 401.223 -3.30151 -2.72368 0
M  V30 4096 C 400.549 -3.40772 -4.12042 0
M  V30 4097 C 401.849 -4.67126 -2.33646 0
M  V30 4098 H 403.543 -2.79053 -1.08488 0
M  V30 4099 H 401.089 -1.34266 -0.520443 0
M  V30 4100 H 403.042 -2.36898 -3.48507 0
M  V30 4101 H 401.766 -1.21145 -3.03301 0
M  V30 4102 H 400.425 -3.0749 -1.99613 0
M  V30 4103 H 400.073 -2.45117 -4.39234 0
M  V30 4104 H 399.773 -4.18645 -4.12322 0
M  V30 4105 H 401.297 -3.6563 -4.89027 0
M  V30 4106 H 402.711 -4.89414 -2.98575 0
M  V30 4107 H 401.108 -5.47751 -2.45129 0
M  V30 4108 H 402.178 -4.67489 -1.28772 0
M  V30 4109 N 403.521 0.559213 -1.47345 0
M  V30 4110 C 404.746 1.34676 -1.57725 0
M  V30 4111 C 405.171 1.86723 -0.227164 0
M  V30 4112 O 404.529 1.6286 0.796642 0
M  V30 4113 C 404.577 2.49399 -2.60447 0
M  V30 4114 O 403.681 3.51567 -2.15578 0
M  V30 4115 H 403.022 0.400115 -0.52991 0
M  V30 4116 H 405.552 0.676009 -1.93109 0
M  V30 4117 H 405.562 2.95996 -2.80803 0
M  V30 4118 H 404.237 2.10873 -3.58477 0
M  V30 4119 H 402.814 3.11289 -2.05313 0
M  V30 4120 N 404.999 1.35443 0.805782 0
M  V30 4121 C 406.248 1.28097 1.55801 0
M  V30 4122 C 406.561 -0.142428 1.95081 0
M  V30 4123 O 407.767 -0.33817 2.69386 0
M  V30 4124 C 406.223 2.24653 2.81174 0
M  V30 4125 C 405.831 3.72342 2.49129 0
M  V30 4126 C 407.575 2.2625 3.59181 0
M  V30 4127 C 405.482 4.60719 3.70799 0
M  V30 4128 H 404.412 0.475937 0.584808 0
M  V30 4129 H 407.063 1.60712 0.885661 0
M  V30 4130 H 405.445 1.85011 3.50124 0
M  V30 4131 H 406.619 4.20624 1.88181 0
M  V30 4132 H 404.934 3.73361 1.84366 0
M  V30 4133 H 407.531 2.89495 4.49552 0
M  V30 4134 H 407.874 1.26647 3.96568 0
M  V30 4135 H 408.407 2.64426 2.97193 0
M  V30 4136 H 405.146 5.61324 3.3852 0
M  V30 4137 H 404.666 4.17163 4.3097 0
M  V30 4138 H 406.345 4.76182 4.38018 0
M  V30 4139 N 406.477 -1.02803 1.19454 0
M  V30 4140 C 407.44 -2.09264 0.934955 0
M  V30 4141 C 408.44 -1.60576 -0.0849015 0
M  V30 4142 O 409.63 -1.73554 0.149933 0
M  V30 4143 C 406.762 -3.38482 0.40531 0
M  V30 4144 H 407.955 -2.33726 1.87916 0
M  V30 4145 H 405.508 -1.19426 1.00832 0
M  V30 4146 H 406.243 -3.19689 -0.544899 0
M  V30 4147 H 406.028 -3.75142 1.14065 0
M  V30 4148 H 407.518 -4.16894 0.242806 0
M  V30 4149 N 407.956 -0.998596 -1.21925 0
M  V30 4150 C 409.372 -0.710303 -1.42923 0
M  V30 4151 C 409.572 0.716933 -1.88314 0
M  V30 4152 O 408.628 1.48712 -2.04062 0
M  V30 4153 C 409.941 -1.72072 -2.466 0
M  V30 4154 C 411.489 -1.73681 -2.60392 0
M  V30 4155 C 411.964 -2.73601 -3.67296 0
M  V30 4156 N 413.455 -2.7223 -3.7476 0
M  V30 4157 C 414.19 -3.46206 -4.57087 0
M  V30 4158 N 413.686 -4.29802 -5.43362 0
M  V30 4159 N 415.479 -3.34886 -4.51451 0
M  V30 4160 H 407.63 -1.92028 -0.9077 0
M  V30 4161 H 409.893 -0.828487 -0.460775 0
M  V30 4162 H 409.599 -2.74231 -2.20206 0
M  V30 4163 H 409.473 -1.51818 -3.45299 0
M  V30 4164 H 411.86 -0.722173 -2.86127 0
M  V30 4165 H 411.941 -1.98005 -1.61949 0
M  V30 4166 H 411.585 -3.75217 -3.42307 0
M  V30 4167 H 411.515 -2.46545 -4.65321 0
M  V30 4168 H 414.006 -2.11576 -3.1312 0
M  V30 4169 H 414.319 -4.83061 -6.03218 0
M  V30 4170 H 412.664 -4.33887 -5.42925 0
M  V30 4171 H 415.855 -2.69015 -3.83078 0
M  V30 4172 H 416.028 -3.92796 -5.15379 0
M  V30 4173 N 409.434 1.37368 -0.772513 0
M  V30 4174 C 410.382 2.32134 -0.147111 0
M  V30 4175 C 411.376 1.54972 0.684106 0
M  V30 4176 O 412.582 1.70363 0.581083 0
M  V30 4177 H 408.957 0.751449 -0.028786 0
M  V30 4178 H 410.928 2.82464 -0.962112 0
M  V30 4179 C 409.677 3.40226 0.71703 0
M  V30 4180 H 409 3.99706 0.0867951 0
M  V30 4181 H 410.44 4.08897 1.12159 0
M  V30 4182 C 408.899 2.80372 1.86797 0
M  V30 4183 O 409.429 2.71183 2.96349 0
M  V30 4184 N 407.635 2.37904 1.66883 0
M  V30 4185 H 407.182 2.45578 0.777759 0
M  V30 4186 H 407.14 1.98202 2.44056 0
M  V30 4187 N 410.912 0.523116 1.48665 0
M  V30 4188 C 411.875 -0.232592 2.28017 0
M  V30 4189 C 412.875 -0.874021 1.34972 0
M  V30 4190 O 414.065 -0.735132 1.57929 0
M  V30 4191 C 411.197 -1.33586 3.13636 0
M  V30 4192 H 412.39 0.464008 2.96289 0
M  V30 4193 H 409.943 0.278816 1.53793 0
M  V30 4194 H 410.678 -2.06593 2.4998 0
M  V30 4195 H 410.463 -0.881125 3.82071 0
M  V30 4196 H 411.953 -1.86759 3.73511 0
M  V30 4197 N 412.39 -1.55475 0.257931 0
M  V30 4198 C 413.353 -2.20551 -0.623706 0
M  V30 4199 C 414.353 -1.17809 -1.09443 0
M  V30 4200 O 415.543 -1.42823 -0.997362 0
M  V30 4201 C 412.675 -2.85784 -1.8585 0
M  V30 4202 H 413.868 -2.99848 -0.0557743 0
M  V30 4203 H 411.421 -1.56298 0.0084422 0
M  V30 4204 H 412.156 -2.10453 -2.46739 0
M  V30 4205 H 411.941 -3.61057 -1.52907 0
M  V30 4206 H 413.431 -3.35553 -2.48584 0
M  V30 4207 N 413.868 0.0150385 -1.57593 0
M  V30 4208 C 415.093 0.718067 -1.94573 0
M  V30 4209 C 415.518 1.6734 -0.859005 0
M  V30 4210 O 414.876 1.80362 0.184147 0
M  V30 4211 C 414.924 1.43918 -3.30636 0
M  V30 4212 O 414.028 2.55299 -3.23876 0
M  V30 4213 H 413.369 0.192125 -0.635597 0
M  V30 4214 H 415.899 -0.0336708 -2.04572 0
M  V30 4215 H 415.909 1.80598 -3.65853 0
M  V30 4216 H 414.584 0.738619 -4.09289 0
M  V30 4217 H 413.161 2.21058 -3.00312 0
M  V30 4218 N 415.346 1.54954 0.287554 0
M  V30 4219 C 416.276 1.89839 1.35954 0
M  V30 4220 C 417.257 0.758675 1.52244 0
M  V30 4221 O 418.442 1.01557 1.65529 0
M  V30 4222 C 415.572 2.15753 2.72154 0
M  V30 4223 C 414.526 3.3159 2.70614 0
M  V30 4224 C 413.852 3.42952 4.10229 0
M  V30 4225 C 415.152 4.68359 2.31165 0
M  V30 4226 H 416.846 2.79625 1.07007 0
M  V30 4227 H 414.392 1.3454 0.513316 0
M  V30 4228 H 416.345 2.38743 3.47246 0
M  V30 4229 H 415.069 1.22752 3.02654 0
M  V30 4230 H 413.728 3.08545 1.97979 0
M  V30 4231 H 413.376 2.47443 4.37928 0
M  V30 4232 H 413.076 4.20826 4.10097 0
M  V30 4233 H 414.6 3.68218 4.87081 0
M  V30 4234 H 416.014 4.9099 2.95976 0
M  V30 4235 H 414.411 5.49044 2.42221 0
M  V30 4236 H 415.481 4.68165 1.26291 0
M  V30 4237 N 416.824 -0.551391 1.4764 0
M  V30 4238 C 417.787 -1.64007 1.60107 0
M  V30 4239 C 418.787 -1.53601 0.47576 0
M  V30 4240 O 419.977 -1.57655 0.740988 0
M  V30 4241 C 417.109 -3.03569 1.55108 0
M  V30 4242 H 418.302 -1.543 2.57161 0
M  V30 4243 H 415.855 -0.771776 1.35917 0
M  V30 4244 H 416.59 -3.18804 0.594519 0
M  V30 4245 H 416.375 -3.12532 2.36783 0
M  V30 4246 H 417.865 -3.82762 1.66982 0
M  V30 4247 N 418.302 -1.35869 -0.798587 0
M  V30 4248 C 419.532 -1.32529 -1.58491 0
M  V30 4249 C 419.94 0.0975405 -1.88948 0
M  V30 4250 O 419.283 1.06224 -1.49874 0
M  V30 4251 C 419.345 -2.07247 -2.9375 0
M  V30 4252 C 419.009 -3.56391 -2.86068 0
M  V30 4253 C 420.006 -4.50824 -2.58947 0
M  V30 4254 C 417.691 -3.9915 -3.04933 0
M  V30 4255 C 419.685 -5.85993 -2.5078 0
M  V30 4256 C 417.372 -5.34413 -2.96389 0
M  V30 4257 C 418.37 -6.27646 -2.69349 0
M  V30 4258 O 418.058 -7.60426 -2.60782 0
M  V30 4259 H 417.79 -0.456529 -0.498556 0
M  V30 4260 H 420.344 -1.79425 -0.999799 0
M  V30 4261 H 418.574 -1.55001 -3.54276 0
M  V30 4262 H 420.263 -1.96883 -3.54954 0
M  V30 4263 H 421.029 -4.19104 -2.44084 0
M  V30 4264 H 416.908 -3.26961 -3.24989 0
M  V30 4265 H 420.452 -6.58735 -2.29595 0
M  V30 4266 H 416.349 -5.65743 -3.10813 0
M  V30 4267 H 417.117 -7.70444 -2.76331 0
M  V30 4268 N 419.78 1.02168 -1.19998 0
M  V30 4269 C 421.191 1.57135 -1.00825 0
M  V30 4270 C 421.542 1.91276 0.436818 0
M  V30 4271 O 420.667 1.71679 1.3174 0
M  V30 4272 C 421.262 2.85514 -1.82393 0
M  V30 4273 C 419.821 3.37027 -1.67601 0
M  V30 4274 C 418.968 2.10388 -1.80644 0
M  V30 4275 H 421.919 0.846106 -1.34264 0
M  V30 4276 H 421.94 3.56711 -1.32429 0
M  V30 4277 H 421.452 2.60634 -2.87561 0
M  V30 4278 H 419.553 3.66878 -0.650485 0
M  V30 4279 H 419.666 4.09572 -2.4857 0
M  V30 4280 H 418.03 2.22601 -1.23778 0
M  V30 4281 H 418.813 1.8794 -2.87286 0
M  V30 4282 N 421.258 1.00505 1.21394 0
M  V30 4283 C 422.488 0.705584 1.94178 0
M  V30 4284 C 422.896 -0.735846 1.74304 0
M  V30 4285 O 422.239 -1.50954 1.04683 0
M  V30 4286 C 422.301 0.94689 3.46806 0
M  V30 4287 C 421.965 2.37517 3.90429 0
M  V30 4288 C 422.962 3.35539 3.97127 0
M  V30 4289 C 420.647 2.71284 4.22742 0
M  V30 4290 C 422.641 4.65395 4.3553 0
M  V30 4291 C 420.328 4.01356 4.60822 0
M  V30 4292 C 421.326 4.98223 4.67186 0
M  V30 4293 O 421.014 6.25969 5.04399 0
M  V30 4294 H 420.746 0.259216 0.624326 0
M  V30 4295 H 423.3 1.34592 1.55159 0
M  V30 4296 H 421.53 0.249386 3.85895 0
M  V30 4297 H 423.219 0.640804 4.0081 0
M  V30 4298 H 423.985 3.10786 3.7234 0
M  V30 4299 H 419.864 1.96581 4.16985 0
M  V30 4300 H 423.408 5.41002 4.40412 0
M  V30 4301 H 419.305 4.25893 4.85063 0
M  V30 4302 H 420.073 6.30085 5.22431 0
M  V30 4303 N 422.737 -1.36956 0.779787 0
M  V30 4304 C 423.687 -2.27539 0.144892 0
M  V30 4305 C 424.671 -1.46493 -0.665488 0
M  V30 4306 O 425.863 -1.68968 -0.527141 0
M  V30 4307 C 422.992 -3.35512 -0.727082 0
M  V30 4308 C 422.078 -4.24001 0.0915642 0
M  V30 4309 N 422.469 -4.92757 1.14125 0
M  V30 4310 C 420.767 -4.45807 -0.131141 0
M  V30 4311 C 421.468 -5.58138 1.6388 0
M  V30 4312 N 420.444 -5.35241 0.94962 0
M  V30 4313 H 424.246 -2.78176 0.948446 0
M  V30 4314 H 421.76 -1.50169 0.618315 0
M  V30 4315 H 423.757 -3.99324 -1.19776 0
M  V30 4316 H 422.417 -2.86431 -1.52929 0
M  V30 4317 H 423.428 -4.94984 1.52353 0
M  V30 4318 H 420.105 -4.07582 -0.904621 0
M  V30 4319 H 421.495 -6.23071 2.51461 0
M  V30 4320 N 424.215 -0.530993 -1.48385 0
M  V30 4321 C 425.145 0.219985 -2.32461 0
M  V30 4322 C 426.126 0.934111 -1.42156 0
M  V30 4323 O 427.311 0.919694 -1.71042 0
M  V30 4324 C 424.441 1.26674 -3.23375 0
M  V30 4325 C 423.395 0.67069 -4.22712 0
M  V30 4326 C 422.721 1.82017 -5.02766 0
M  V30 4327 C 424.021 -0.358268 -5.2107 0
M  V30 4328 H 425.715 -0.48187 -2.95497 0
M  V30 4329 H 423.261 -0.233182 -1.42099 0
M  V30 4330 H 425.214 1.80006 -3.81019 0
M  V30 4331 H 423.938 1.99818 -2.58341 0
M  V30 4332 H 422.597 0.158878 -3.66256 0
M  V30 4333 H 422.245 2.54002 -4.34157 0
M  V30 4334 H 421.945 1.42727 -5.70003 0
M  V30 4335 H 423.469 2.35725 -5.63264 0
M  V30 4336 H 424.883 0.0880081 -5.73232 0
M  V30 4337 H 423.28 -0.66861 -5.96364 0
M  V30 4338 H 424.35 -1.26367 -4.68145 0
M  V30 4339 N 425.693 1.55336 -0.266172 0
M  V30 4340 C 426.64 2.22172 0.625165 0
M  V30 4341 C 427.61 1.19211 1.15663 0
M  V30 4342 O 428.795 1.47723 1.20758 0
M  V30 4343 C 425.935 2.93972 1.8076 0
M  V30 4344 C 425.048 4.11632 1.31084 0
M  V30 4345 C 424.183 4.71099 2.45436 0
M  V30 4346 C 423.222 5.8097 1.92718 0
M  V30 4347 N 422.359 6.34538 3.00509 0
M  V30 4348 H 427.199 2.9796 0.0485582 0
M  V30 4349 H 424.736 1.47095 0.0122024 0
M  V30 4350 H 426.694 3.33811 2.50251 0
M  V30 4351 H 425.324 2.20623 2.35638 0
M  V30 4352 H 424.376 3.76975 0.509326 0
M  V30 4353 H 425.688 4.90893 0.884633 0
M  V30 4354 H 424.842 5.13612 3.22936 0
M  V30 4355 H 423.581 3.91096 2.91368 0
M  V30 4356 H 422.586 5.37916 1.13695 0
M  V30 4357 H 423.811 6.62836 1.47733 0
M  V30 4358 H 421.757 5.57433 3.45839 0
M  V30 4359 H 421.674 7.09046 2.62279 0
M  V30 4360 H 422.942 6.81709 3.78011 0
M  V30 4361 N 427.171 -0.0066808 1.57599 0
M  V30 4362 C 428.081 -1.01671 2.11424 0
M  V30 4363 C 429.097 -1.38143 1.05795 0
M  V30 4364 O 430.273 -1.47011 1.37658 0
M  V30 4365 C 427.338 -2.29192 2.60139 0
M  V30 4366 C 426.399 -1.99094 3.80342 0
M  V30 4367 C 425.632 -3.20535 4.26724 0
M  V30 4368 O 425.855 -4.3199 3.72479 0
M  V30 4369 O 424.789 -3.04924 5.18946 0
M  V30 4370 H 428.615 -0.589181 2.9793 0
M  V30 4371 H 426.2 -0.225091 1.47695 0
M  V30 4372 H 428.082 -3.0412 2.917 0
M  V30 4373 H 426.757 -2.71195 1.76733 0
M  V30 4374 H 425.664 -1.21663 3.53764 0
M  V30 4375 H 426.997 -1.61931 4.648 0
M  V30 4376 N 428.649 -1.55105 -0.279332 0
M  V30 4377 C 429.897 -1.75066 -1.00977 0
M  V30 4378 C 430.218 -0.551276 -1.87045 0
M  V30 4379 O 429.488 0.433984 -1.91032 0
M  V30 4380 H 428.068 -0.645578 -0.375816 0
M  V30 4381 H 430.73 -1.92497 -0.305089 0
M  V30 4382 H 429.826 -2.64894 -1.65038 0
M  V30 4383 N 430.127 0.543554 -1.4793 0
M  V30 4384 C 431.06 1.66556 -1.55995 0
M  V30 4385 C 432.038 1.57315 -0.411205 0
M  V30 4386 O 433.222 1.7798 -0.620922 0
M  V30 4387 C 430.349 3.04883 -1.47527 0
M  V30 4388 C 429.395 3.32526 -2.67074 0
M  V30 4389 S 430.228 3.20282 -4.29162 0
M  V30 4390 C 431.384 4.61079 -4.23269 0
M  V30 4391 H 431.617 1.59462 -2.50917 0
M  V30 4392 H 429.15 0.725456 -1.36296 0
M  V30 4393 H 431.108 3.84665 -1.43328 0
M  V30 4394 H 429.769 3.09429 -0.539665 0
M  V30 4395 H 428.962 4.33403 -2.5725 0
M  V30 4396 H 428.564 2.60389 -2.68466 0
M  V30 4397 H 430.856 5.52318 -3.92365 0
M  V30 4398 H 431.799 4.75959 -5.24279 0
M  V30 4399 H 432.207 4.39766 -3.5393 0
M  V30 4400 N 431.605 1.3629 0.791371 0
M  V30 4401 C 432.83 1.33726 1.58531 0
M  V30 4402 C 433.255 -0.0794933 1.87932 0
M  V30 4403 O 432.613 -1.05087 1.47738 0
M  V30 4404 C 432.661 2.16425 2.88431 0
M  V30 4405 O 431.765 1.5554 3.81944 0
M  V30 4406 H 431.106 0.457793 0.480959 0
M  V30 4407 H 433.636 1.79547 0.981031 0
M  V30 4408 H 433.646 2.28933 3.37718 0
M  V30 4409 H 432.321 3.19415 2.66359 0
M  V30 4410 H 430.898 1.51961 3.40532 0
M  V30 4411 N 433.083 -1.0153 1.20538 0
M  V30 4412 C 434.046 -2.0826 0.957098 0
M  V30 4413 C 435.046 -1.60657 -0.0678655 0
M  V30 4414 O 436.236 -1.73385 0.168332 0
M  V30 4415 C 433.368 -3.38033 0.441188 0
M  V30 4416 H 434.561 -2.31719 1.90384 0
M  V30 4417 H 432.114 -1.1835 1.02093 0
M  V30 4418 H 432.849 -3.20249 -0.510961 0
M  V30 4419 H 432.634 -3.73911 1.18038 0
M  V30 4420 H 434.124 -4.16613 0.287009 0
M  V30 4421 N 434.561 -1.01147 -1.20859 0
M  V30 4422 C 435.977 -0.725422 -1.42161 0
M  V30 4423 C 436.177 0.696919 -1.89064 0
M  V30 4424 O 435.233 1.46539 -2.05627 0
M  V30 4425 C 436.546 -1.74678 -2.44761 0
M  V30 4426 C 438.094 -1.76433 -2.58535 0
M  V30 4427 C 438.569 -2.77481 -3.64374 0
M  V30 4428 N 440.06 -2.76189 -3.71852 0
M  V30 4429 C 440.795 -3.51035 -4.53389 0
M  V30 4430 N 440.291 -4.35541 -5.38773 0
M  V30 4431 N 442.084 -3.39655 -4.47873 0
M  V30 4432 H 434.235 -1.92979 -0.887282 0
M  V30 4433 H 436.498 -0.833327 -0.451962 0
M  V30 4434 H 436.204 -2.76551 -2.17285 0
M  V30 4435 H 436.078 -1.55472 -3.43669 0
M  V30 4436 H 438.465 -0.75248 -2.85345 0
M  V30 4437 H 438.546 -1.99712 -1.5984 0
M  V30 4438 H 438.19 -3.78827 -3.38308 0
M  V30 4439 H 438.12 -2.51466 -4.6268 0
M  V30 4440 H 440.611 -2.14885 -3.10858 0
M  V30 4441 H 440.924 -4.89432 -5.98061 0
M  V30 4442 H 439.269 -4.39621 -5.38292 0
M  V30 4443 H 442.46 -2.73063 -3.80203 0
M  V30 4444 H 442.633 -3.9824 -5.11184 0
M  V30 4445 N 436.039 1.36541 -0.78704 0
M  V30 4446 C 437.285 1.99599 -0.358872 0
M  V30 4447 C 437.618 1.62323 1.06606 0
M  V30 4448 O 436.893 0.876858 1.73613 0
M  V30 4449 C 437.176 3.56327 -0.519944 0
M  V30 4450 C 437.029 4.03464 -1.98839 0
M  V30 4451 C 438.348 4.4005 0.0664737 0
M  V30 4452 H 435.467 0.725107 -0.131869 0
M  V30 4453 H 438.109 1.6199 -0.992936 0
M  V30 4454 H 436.259 3.88495 0.0198321 0
M  V30 4455 H 437.931 3.81793 -2.58905 0
M  V30 4456 H 436.174 3.55092 -2.49183 0
M  V30 4457 H 436.845 5.12439 -2.05207 0
M  V30 4458 H 439.321 4.14228 -0.394267 0
M  V30 4459 H 438.197 5.48847 -0.0762682 0
M  V30 4460 H 438.458 4.26655 1.15835 0
M  V30 4461 N 437.518 0.538854 1.48102 0
M  V30 4462 C 438.428 -0.222648 2.33541 0
M  V30 4463 C 439.444 -0.930225 1.47047 0
M  V30 4464 O 440.62 -0.903211 1.80011 0
M  V30 4465 C 437.685 -1.25064 3.23357 0
M  V30 4466 C 436.746 -0.552469 4.2573 0
M  V30 4467 C 435.979 -1.53149 5.11254 0
M  V30 4468 O 436.202 -2.76487 4.9891 0
M  V30 4469 O 435.136 -1.06602 5.92385 0
M  V30 4470 H 438.962 0.477707 2.99919 0
M  V30 4471 H 436.547 0.299669 1.46364 0
M  V30 4472 H 438.429 -1.8445 3.78888 0
M  V30 4473 H 437.104 -1.93325 2.59629 0
M  V30 4474 H 436.011 0.082114 3.7401 0
M  V30 4475 H 437.344 0.0883526 4.92121 0
M  V30 4476 N 438.996 -1.55193 0.274407 0
M  V30 4477 C 439.959 -2.212 -0.600279 0
M  V30 4478 C 440.959 -1.18963 -1.08187 0
M  V30 4479 O 442.149 -1.43873 -0.982158 0
M  V30 4480 C 439.281 -2.87739 -1.82809 0
M  V30 4481 H 440.474 -2.9989 -0.0239682 0
M  V30 4482 H 438.027 -1.5628 0.0250192 0
M  V30 4483 H 438.762 -2.13058 -2.44493 0
M  V30 4484 H 438.547 -3.62658 -1.49069 0
M  V30 4485 H 440.037 -3.38171 -2.45011 0
M  V30 4486 N 440.474 -0.00167713 -1.576 0
M  V30 4487 C 441.89 0.354422 -1.55615 0
M  V30 4488 C 442.09 1.74679 -1.00447 0
M  V30 4489 O 441.146 2.4428 -0.639022 0
M  V30 4490 C 442.459 0.22812 -2.99833 0
M  V30 4491 C 444.007 0.302934 -3.11531 0
M  V30 4492 C 444.482 0.205737 -4.57538 0
M  V30 4493 N 445.973 0.263584 -4.62449 0
M  V30 4494 C 446.708 0.211742 -5.73009 0
M  V30 4495 N 446.204 0.110399 -6.92712 0
M  V30 4496 N 447.997 0.263729 -5.61481 0
M  V30 4497 H 440.148 -0.912498 -1.918 0
M  V30 4498 H 442.411 -0.349928 -0.881053 0
M  V30 4499 H 442.117 -0.729934 -3.44042 0
M  V30 4500 H 441.991 1.00951 -3.6344 0
M  V30 4501 H 444.378 1.25143 -2.67251 0
M  V30 4502 H 444.459 -0.508357 -2.50698 0
M  V30 4503 H 444.103 -0.739225 -5.02492 0
M  V30 4504 H 444.033 1.03554 -5.16318 0
M  V30 4505 H 446.524 0.343173 -3.76339 0
M  V30 4506 H 446.837 0.0767828 -7.72762 0
M  V30 4507 H 445.182 0.0760025 -6.94958 0
M  V30 4508 H 448.373 0.34111 -4.66855 0
M  V30 4509 H 448.546 0.219862 -6.47627 0
M  V30 4510 O 441.991 1.60887 0.140552 0
M  V30 4511 H 442.682 1.77558 0.77413 0
M  V30 END ATOM
M  V30 BEGIN BOND
M  V30 END BOND
M  V30 END CTAB
M  END
$$$$
