drugbank_target|Q70KI2 Penicillin-binding protein 2 (DB00923; DB01326)
 OpenBabel12092120363D

  0  0  0     0  0            999 V3000
M  V30 BEGIN CTAB
M  V30 COUNTS 9760 9864 0 0 0
M  V30 BEGIN ATOM
M  V30 1 H -0.908 1.98254 -0.117106 0
M  V30 2 N 0 1.576 0 0
M  V30 3 C 0.933 2.03868 1.02534 0
M  V30 4 C 1.911 0.928543 1.3348 0
M  V30 5 O 3.095 1.19667 1.45644 0
M  V30 6 C 0.222 2.43627 2.35294 0
M  V30 7 C -0.732 3.65373 2.2001 0
M  V30 8 S 0.101 5.13292 1.52614 0
M  V30 9 C 1.257 5.56322 2.86805 0
M  V30 10 H 1.49 2.90518 0.631377 0
M  V30 11 H -0.977 1.52953 0.210867 0
M  V30 12 H 0.981 2.67203 3.11629 0
M  V30 13 H -0.358 1.57376 2.7183 0
M  V30 14 H -1.165 3.90944 3.18086 0
M  V30 15 H -1.563 3.418 1.51819 0
M  V30 16 H 0.729 5.58782 3.83104 0
M  V30 17 H 1.672 6.56266 2.65933 0
M  V30 18 H 2.08 4.83886 2.90714 0
M  V30 19 N 1.4781 -0.272755 1.55222 0
M  V30 20 C 2.4411 -1.32041 1.87344 0
M  V30 21 C 3.4411 -1.42342 0.74803 0
M  V30 22 O 4.6311 -1.41488 1.0162 0
M  V30 23 C 1.7631 -2.70173 2.07893 0
M  V30 24 H 2.9561 -1.04789 2.80997 0
M  V30 25 H 0.5091 -0.51083 1.47717 0
M  V30 26 H 1.2441 -3.02605 1.16622 0
M  V30 27 H 1.0291 -2.64082 2.89833 0
M  V30 28 H 2.5191 -3.45869 2.34017 0
M  V30 29 N 2.9562 -1.48159 -0.537278 0
M  V30 30 C 3.9032 -1.62138 -1.64256 0
M  V30 31 C 4.8732 -0.463668 -1.59497 0
M  V30 32 O 6.0582 -0.686241 -1.78032 0
M  V30 33 C 3.1982 -1.66028 -3.02537 0
M  V30 34 C 2.3112 -2.92855 -3.17585 0
M  V30 35 C 1.4462 -2.87952 -4.46382 0
M  V30 36 C 0.4852 -4.09516 -4.54932 0
M  V30 37 N -0.3778 -4.02733 -5.75109 0
M  V30 38 H 4.4622 -2.56529 -1.51647 0
M  V30 39 H 1.9992 -1.27224 -0.738414 0
M  V30 40 H 3.9572 -1.66265 -3.82638 0
M  V30 41 H 2.5872 -0.751331 -3.13934 0
M  V30 42 H 1.6392 -3.02395 -2.30784 0
M  V30 43 H 2.9512 -3.82822 -3.19764 0
M  V30 44 H 2.1052 -2.8655 -5.34765 0
M  V30 45 H 0.8442 -1.95702 -4.46712 0
M  V30 46 H -0.1508 -4.11201 -3.64957 0
M  V30 47 H 1.0742 -5.02917 -4.56346 0
M  V30 48 H -0.9798 -3.13299 -5.76351 0
M  V30 49 H -1.0628 -4.86397 -5.78752 0
M  V30 50 H 0.2052 -4.05379 -6.65799 0
M  V30 51 N 4.4343 0.785586 -1.36625 0
M  V30 52 C 5.7113 1.53198 -1.21613 0
M  V30 53 C 6.0913 2.10187 0.196113 0
M  V30 54 O 5.4393 1.94318 1.20219 0
M  V30 55 C 5.6493 2.62388 -2.30116 0
M  V30 56 C 6.9973 3.30167 -2.66974 0
M  V30 57 O 8.0213 2.72674 -2.29188 0
M  V30 58 O 6.8803 4.34077 -3.32023 0
M  V30 59 H 3.9743 0.677865 -0.473738 0
M  V30 60 H 6.5203 0.823739 -1.48367 0
M  V30 61 H 5.2923 2.18299 -3.24748 0
M  V30 62 H 4.9153 3.40827 -2.0475 0
M  V30 63 N 5.9124 1.20967 1.01018 0
M  V30 64 C 7.1424 1.04803 1.78044 0
M  V30 65 C 7.5504 -0.405462 1.84804 0
M  V30 66 O 6.8934 -1.2932 1.30468 0
M  V30 67 C 6.9554 1.56377 3.23707 0
M  V30 68 C 6.6194 3.04767 3.40538 0
M  V30 69 C 7.6164 4.02366 3.29239 0
M  V30 70 C 5.3014 3.43862 3.66147 0
M  V30 71 C 7.2954 5.37049 3.43304 0
M  V30 72 C 4.9824 4.78699 3.79855 0
M  V30 73 C 5.9804 5.75101 3.68439 0
M  V30 74 O 5.6684 7.07493 3.81719 0
M  V30 75 H 5.4004 0.368778 0.56655 0
M  V30 76 H 7.9544 1.60642 1.27997 0
M  V30 77 H 6.1844 0.949297 3.74867 0
M  V30 78 H 7.8734 1.36136 3.8239 0
M  V30 79 H 8.6394 3.73506 3.09384 0
M  V30 80 H 4.5184 2.69364 3.74118 0
M  V30 81 H 8.0624 6.12277 3.34309 0
M  V30 82 H 3.9594 5.07247 3.99213 0
M  V30 83 H 4.7274 7.1483 3.98697 0
M  V30 84 N 7.3905 -1.2043 1.01659 0
M  V30 85 C 8.6365 -1.90079 0.706963 0
M  V30 86 C 8.9695 -1.78648 -0.761474 0
M  V30 87 O 8.2445 -1.17069 -1.55323 0
M  V30 88 C 8.5275 -3.41469 1.14327 0
M  V30 89 C 8.3805 -3.61833 2.67201 0
M  V30 90 C 9.6995 -4.34261 0.714529 0
M  V30 91 H 6.8185 -0.690254 0.2583 0
M  V30 92 H 9.4605 -1.41826 1.26433 0
M  V30 93 H 7.6105 -3.82696 0.669056 0
M  V30 94 H 9.2825 -3.2986 3.22475 0
M  V30 95 H 7.5255 -3.05304 3.08175 0
M  V30 96 H 8.1965 -4.67955 2.92783 0
M  V30 97 H 10.6725 -4.00682 1.12221 0
M  V30 98 H 9.5485 -5.38806 1.04784 0
M  V30 99 H 9.8095 -4.40431 -0.383799 0
M  V30 100 N 8.8686 -0.792821 -1.36206 0
M  V30 101 C 9.7986 -0.207853 -2.32573 0
M  V30 102 C 10.7796 0.659055 -1.56813 0
M  V30 103 O 11.9646 0.592176 -1.84951 0
M  V30 104 C 9.0946 0.655449 -3.41059 0
M  V30 105 C 8.0486 -0.111842 -4.27854 0
M  V30 106 C 7.3746 0.872274 -5.27537 0
M  V30 107 C 8.6746 -1.30299 -5.05786 0
M  V30 108 H 10.3686 -1.01294 -2.81744 0
M  V30 109 H 7.9146 -0.48854 -1.3546 0
M  V30 110 H 9.8676 1.07464 -4.07467 0
M  V30 111 H 8.5916 1.49328 -2.90463 0
M  V30 112 H 7.2506 -0.512053 -3.63006 0
M  V30 113 H 6.8986 1.70523 -4.73214 0
M  V30 114 H 6.5986 0.363291 -5.86476 0
M  V30 115 H 8.1226 1.28996 -5.96818 0
M  V30 116 H 9.5366 -0.959379 -5.65216 0
M  V30 117 H 7.9336 -1.7455 -5.74154 0
M  V30 118 H 9.0036 -2.09663 -4.37229 0
M  V30 119 N 10.3467 1.47872 -0.545128 0
M  V30 120 C 11.2567 2.33633 0.212746 0
M  V30 121 C 12.2727 1.4744 0.923983 0
M  V30 122 O 13.4487 1.80393 0.895572 0
M  V30 123 C 10.5137 3.23884 1.23693 0
M  V30 124 C 9.5747 4.25961 0.534417 0
M  V30 125 C 8.8077 5.11899 1.5098 0
M  V30 126 O 9.0307 5.00077 2.7437 0
M  V30 127 O 7.9647 5.92831 1.0409 0
M  V30 128 H 11.7907 2.99714 -0.490416 0
M  V30 129 H 9.3757 1.46235 -0.305871 0
M  V30 130 H 11.2577 3.79666 1.82843 0
M  V30 131 H 9.9327 2.60446 1.92222 0
M  V30 132 H 8.8397 3.73972 -0.0979679 0
M  V30 133 H 10.1727 4.92079 -0.109213 0
M  V30 134 N 11.8248 0.280983 1.55075 0
M  V30 135 C 12.7718 -0.603937 2.22758 0
M  V30 136 C 13.7418 -1.1452 1.20309 0
M  V30 137 O 14.9268 -1.19343 1.48869 0
M  V30 138 C 12.0668 -1.77947 2.95684 0
M  V30 139 C 11.1798 -1.2715 4.12864 0
M  V30 140 C 10.3148 -2.4093 4.7342 0
M  V30 141 C 9.3538 -1.87165 5.82783 0
M  V30 142 N 8.4908 -2.94441 6.37377 0
M  V30 143 H 13.3308 -0.020124 2.97993 0
M  V30 144 H 10.8678 0.00183425 1.471 0
M  V30 145 H 12.8258 -2.47055 3.36184 0
M  V30 146 H 11.4558 -2.33522 2.22861 0
M  V30 147 H 10.5078 -0.473331 3.77444 0
M  V30 148 H 11.8198 -0.837751 4.91715 0
M  V30 149 H 10.9738 -3.18021 5.1667 0
M  V30 150 H 9.7128 -2.87623 3.93859 0
M  V30 151 H 8.7178 -1.08556 5.38976 0
M  V30 152 H 9.9428 -1.41401 6.64216 0
M  V30 153 H 7.8888 -3.40505 5.60707 0
M  V30 154 H 7.8058 -2.55501 7.11516 0
M  V30 155 H 9.0738 -3.71489 6.85285 0
M  V30 156 N 13.3029 -1.57598 0.00835791 0
M  V30 157 C 14.7189 -1.55764 -0.347822 0
M  V30 158 C 14.9189 -1.01186 -1.74252 0
M  V30 159 O 13.9749 -0.649371 -2.44007 0
M  V30 160 C 15.2879 -2.99927 -0.215407 0
M  V30 161 C 16.8359 -3.11656 -0.289725 0
M  V30 162 C 17.3109 -4.57621 -0.18634 0
M  V30 163 N 18.8019 -4.62557 -0.243978 0
M  V30 164 C 19.5369 -5.73094 -0.18745 0
M  V30 165 N 19.0329 -6.92753 -0.0810331 0
M  V30 166 N 20.8259 -5.61588 -0.239925 0
M  V30 167 H 12.9769 -1.91411 0.92062 0
M  V30 168 H 15.2399 -0.879562 0.353659 0
M  V30 169 H 14.9459 -3.43729 0.744512 0
M  V30 170 H 14.8199 -3.63865 -0.994097 0
M  V30 171 H 17.2069 -2.67779 -1.24009 0
M  V30 172 H 17.2879 -2.5048 0.51898 0
M  V30 173 H 16.9319 -5.02174 0.760519 0
M  V30 174 H 16.8619 -5.16752 -1.01364 0
M  V30 175 H 19.3529 -3.76481 -0.327217 0
M  V30 176 H 19.6659 -7.72787 -0.0440241 0
M  V30 177 H 18.0109 -6.94984 -0.0465419 0
M  V30 178 H 21.2019 -4.66996 -0.321317 0
M  V30 179 H 21.3749 -6.47714 -0.192407 0
M  V30 180 N 14.781 0.264519 -1.55364 0
M  V30 181 C 15.728 1.32717 -1.88825 0
M  V30 182 C 16.698 1.48675 -0.740605 0
M  V30 183 O 17.883 1.62945 -0.992657 0
M  V30 184 C 15.023 2.68089 -2.17307 0
M  V30 185 C 14.136 2.60284 -3.44785 0
M  V30 186 C 13.271 3.87892 -3.62924 0
M  V30 187 C 12.31 3.74631 -4.84064 0
M  V30 188 N 11.447 4.94092 -4.98816 0
M  V30 189 H 16.287 1.03481 -2.79456 0
M  V30 190 H 13.824 0.499757 -1.3835 0
M  V30 191 H 15.782 3.46864 -2.31821 0
M  V30 192 H 14.412 2.95509 -1.299 0
M  V30 193 H 13.464 1.73173 -3.38697 0
M  V30 194 H 14.776 2.46388 -4.33698 0
M  V30 195 H 13.93 4.75109 -3.77302 0
M  V30 196 H 12.669 4.04664 -2.7221 0
M  V30 197 H 11.674 2.85797 -4.69681 0
M  V30 198 H 12.899 3.5937 -5.76221 0
M  V30 199 H 10.845 5.11259 -4.11036 0
M  V30 200 H 10.762 4.8276 -5.81789 0
M  V30 201 H 12.03 5.82857 -5.17588 0
M  V30 202 N 16.2591 1.48442 0.529413 0
M  V30 203 C 17.4891 1.59919 1.30804 0
M  V30 204 C 17.8971 0.258792 1.87422 0
M  V30 205 O 17.2401 -0.762096 1.67146 0
M  V30 206 C 17.3021 2.58693 2.49636 0
M  V30 207 C 16.9661 4.03745 2.14101 0
M  V30 208 C 17.9631 4.9141 1.6974 0
M  V30 209 C 15.6481 4.49285 2.24607 0
M  V30 210 C 17.6421 6.22645 1.36351 0
M  V30 211 C 15.3291 5.8054 1.9083 0
M  V30 212 C 16.3271 6.67043 1.46773 0
M  V30 213 O 16.0151 7.95856 1.1344 0
M  V30 214 H 15.7471 0.541981 0.404021 0
M  V30 215 H 18.3011 1.95 0.645309 0
M  V30 216 H 16.5311 2.18734 3.18892 0
M  V30 217 H 18.2201 2.59999 3.11698 0
M  V30 218 H 18.9861 4.57465 1.61094 0
M  V30 219 H 14.8651 3.82142 2.57854 0
M  V30 220 H 18.4091 6.90119 1.01891 0
M  V30 221 H 14.3061 6.14022 1.99117 0
M  V30 222 H 15.0741 8.08613 1.26832 0
M  V30 223 N 17.7372 -0.778329 1.37039 0
M  V30 224 C 18.9832 -1.53892 1.32079 0
M  V30 225 C 19.3162 -1.9396 -0.0965386 0
M  V30 226 O 18.5912 -1.63568 -1.05242 0
M  V30 227 C 18.8742 -2.80847 2.25382 0
M  V30 228 C 18.7272 -2.47076 3.75864 0
M  V30 229 C 20.0462 -3.82741 2.1725 0
M  V30 230 H 17.1652 -0.558303 0.48111 0
M  V30 231 H 19.8072 -0.893397 1.67685 0
M  V30 232 H 17.9572 -3.35931 1.95148 0
M  V30 233 H 19.6292 -1.97957 4.16666 0
M  V30 234 H 17.8722 -1.79863 3.94755 0
M  V30 235 H 18.5432 -3.37798 4.36574 0
M  V30 236 H 21.0192 -3.37133 2.43887 0
M  V30 237 H 19.8952 -4.69303 2.84686 0
M  V30 238 H 20.1562 -4.2652 1.16331 0
M  V30 239 N 19.2153 -1.21501 -1.00376 0
M  V30 240 C 20.4643 -1.02718 -1.73586 0
M  V30 241 C 20.7773 0.439589 -1.90596 0
M  V30 242 O 21.9833 0.746848 -2.61026 0
M  V30 243 C 20.4393 -1.78929 -3.1227 0
M  V30 244 C 20.0473 -3.29783 -3.03228 0
M  V30 245 C 21.7913 -1.68557 -3.89601 0
M  V30 246 C 19.6983 -3.98479 -4.36999 0
M  V30 247 H 18.6283 -0.380733 -0.650814 0
M  V30 248 H 21.2793 -1.45248 -1.1214 0
M  V30 249 H 19.6613 -1.29192 -3.74333 0
M  V30 250 H 20.8353 -3.86832 -2.50395 0
M  V30 251 H 19.1503 -3.40711 -2.39385 0
M  V30 252 H 21.7473 -2.17211 -4.88593 0
M  V30 253 H 22.0903 -0.644021 -4.11288 0
M  V30 254 H 22.6233 -2.15778 -3.34193 0
M  V30 255 H 19.3623 -5.02841 -4.20513 0
M  V30 256 H 18.8823 -3.46219 -4.89788 0
M  V30 257 H 20.5613 -4.03462 -5.05794 0
M  V30 258 N 20.6934 1.19889 -1.02296 0
M  V30 259 C 21.9414 1.89046 -0.714558 0
M  V30 260 C 22.2624 1.79636 0.758681 0
M  V30 261 O 21.5324 1.20292 1.54618 0
M  V30 262 H 20.1124 0.699802 -0.261317 0
M  V30 263 H 22.7744 1.45574 -1.29592 0
M  V30 264 H 21.8704 2.95524 -1.0036 0
M  V30 265 N 22.1715 0.800033 1.35784 0
M  V30 266 C 23.4195 0.376597 1.9856 0
M  V30 267 C 23.7405 -1.05812 1.63795 0
M  V30 268 O 23.0105 -1.73103 0.917171 0
M  V30 269 H 21.5905 0.136261 0.734467 0
M  V30 270 H 24.2525 1.02442 1.65806 0
M  V30 271 H 23.3485 0.477002 3.08433 0
M  V30 272 N 23.6496 -1.47581 0.552962 0
M  V30 273 C 24.8956 -2.02782 0.0273648 0
M  V30 274 C 25.2286 -1.42687 -1.31734 0
M  V30 275 O 24.5036 -0.580897 -1.85623 0
M  V30 276 C 24.7866 -3.60031 -0.0702371 0
M  V30 277 C 24.6396 -4.30566 1.30126 0
M  V30 278 C 25.9586 -4.33028 -0.785771 0
M  V30 279 H 23.0776 -0.736912 0.0114185 0
M  V30 280 H 25.7196 -1.76056 0.714432 0
M  V30 281 H 23.8696 -3.82932 -0.655382 0
M  V30 282 H 25.5416 -4.19018 1.92929 0
M  V30 283 H 23.7846 -3.91086 1.87709 0
M  V30 284 H 24.4556 -5.39114 1.18573 0
M  V30 285 H 26.9316 -4.15095 -0.288982 0
M  V30 286 H 25.8076 -5.42695 -0.823013 0
M  V30 287 H 26.0686 -4.01945 -1.841 0
M  V30 288 N 25.1277 -0.289203 -1.54924 0
M  V30 289 C 26.0907 0.579144 -2.21762 0
M  V30 290 C 27.0907 1.07047 -1.1999 0
M  V30 291 O 28.2807 0.968384 -1.44803 0
M  V30 292 C 25.4127 1.80055 -2.8947 0
M  V30 293 H 26.6057 -0.00464908 -2.999 0
M  V30 294 H 24.1587 -0.0399306 -1.56249 0
M  V30 295 H 24.8937 2.42449 -2.15381 0
M  V30 296 H 24.6787 1.45602 -3.64064 0
M  V30 297 H 26.1687 2.41773 -3.40493 0
M  V30 298 N 26.6058 1.57591 -0.0167156 0
M  V30 299 C 27.5358 2.12496 0.967858 0
M  V30 300 C 28.5168 1.03807 1.34752 0
M  V30 301 O 29.7018 1.31577 1.42833 0
M  V30 302 C 26.8318 2.64194 2.25431 0
M  V30 303 C 25.7858 3.77559 2.01576 0
M  V30 304 C 25.1118 4.15636 3.36379 0
M  V30 305 C 26.4118 5.04151 1.36489 0
M  V30 306 H 28.1058 2.95013 0.510643 0
M  V30 307 H 25.6518 1.41915 0.244181 0
M  V30 308 H 27.6048 3.01236 2.94678 0
M  V30 309 H 26.3288 1.78821 2.73296 0
M  V30 310 H 24.9878 3.40937 1.34751 0
M  V30 311 H 24.6358 3.27263 3.81979 0
M  V30 312 H 24.3358 4.92022 3.21229 0
M  V30 313 H 25.8598 4.5525 4.06915 0
M  V30 314 H 27.2738 5.38857 1.95718 0
M  V30 315 H 25.6708 5.85453 1.31776 0
M  V30 316 H 26.7408 4.83733 0.336219 0
M  V30 317 N 28.0839 -0.256276 1.55502 0
M  V30 318 C 29.0469 -1.30047 1.88734 0
M  V30 319 C 30.0469 -1.4154 0.763086 0
M  V30 320 O 31.2369 -1.40403 1.03115 0
M  V30 321 C 28.3689 -2.67953 2.10747 0
M  V30 322 H 29.5619 -1.01802 2.82093 0
M  V30 323 H 27.1149 -0.495134 1.4825 0
M  V30 324 H 27.8499 -3.01351 1.19825 0
M  V30 325 H 27.6349 -2.60993 2.92617 0
M  V30 326 H 29.1249 -3.43368 2.37673 0
M  V30 327 N 29.562 -1.4872 -0.521534 0
M  V30 328 C 30.811 -1.56419 -1.27341 0
M  V30 329 C 31.124 -0.246805 -1.94037 0
M  V30 330 O 32.33 -0.202122 -2.70747 0
M  V30 331 C 30.786 -2.75896 -2.31105 0
M  V30 332 C 30.394 -4.14311 -1.70441 0
M  V30 333 C 32.138 -2.92913 -3.07249 0
M  V30 334 C 30.045 -5.25038 -2.72194 0
M  V30 335 H 28.975 -0.582344 -0.478949 0
M  V30 336 H 31.626 -1.75071 -0.549779 0
M  V30 337 H 30.008 -2.50697 -3.06541 0
M  V30 338 H 31.182 -4.49564 -1.01136 0
M  V30 339 H 29.497 -4.02482 -1.06759 0
M  V30 340 H 32.094 -3.72805 -3.83302 0
M  V30 341 H 32.437 -2.02689 -3.63625 0
M  V30 342 H 32.97 -3.18054 -2.38928 0
M  V30 343 H 29.709 -6.17255 -2.20627 0
M  V30 344 H 29.229 -4.94263 -3.39801 0
M  V30 345 H 30.908 -5.53508 -3.35019 0
M  V30 346 N 31.0401 0.771051 -1.3745 0
M  V30 347 C 32.2861 1.5319 -1.32894 0
M  V30 348 C 32.6191 1.94008 0.0862511 0
M  V30 349 O 31.8941 1.64124 1.04373 0
M  V30 350 C 32.1771 2.79648 -2.26868 0
M  V30 351 C 32.0301 2.45079 -3.77169 0
M  V30 352 C 33.3491 3.81583 -2.19277 0
M  V30 353 H 30.4681 0.555744 -0.484064 0
M  V30 354 H 33.1101 0.884492 -1.68157 0
M  V30 355 H 31.2601 3.34891 -1.96926 0
M  V30 356 H 32.9321 1.95745 -4.1771 0
M  V30 357 H 31.1751 1.77767 -3.95704 0
M  V30 358 H 31.8461 3.35478 -4.38359 0
M  V30 359 H 34.3221 3.35835 -2.45671 0
M  V30 360 H 33.1981 4.67787 -2.87171 0
M  V30 361 H 33.4591 4.25897 -1.18592 0
M  V30 362 N 32.5182 1.22032 0.997298 0
M  V30 363 C 33.4482 1.01065 2.10495 0
M  V30 364 C 34.4292 -0.0669542 1.69968 0
M  V30 365 O 35.6142 0.0943987 1.9397 0
M  V30 366 C 32.7442 0.582874 3.42374 0
M  V30 367 C 31.6982 1.60592 3.96729 0
M  V30 368 C 31.0242 1.03412 5.24605 0
M  V30 369 C 32.3242 2.99478 4.27914 0
M  V30 370 H 34.0182 1.93708 2.28292 0
M  V30 371 H 31.5642 0.932761 1.09707 0
M  V30 372 H 33.5172 0.423332 4.19268 0
M  V30 373 H 32.2412 -0.379213 3.24391 0
M  V30 374 H 30.9002 1.75316 3.21963 0
M  V30 375 H 30.5482 0.063518 5.0296 0
M  V30 376 H 30.2482 1.71754 5.61938 0
M  V30 377 H 31.7722 0.886066 6.04137 0
M  V30 378 H 33.1862 2.88153 4.95622 0
M  V30 379 H 31.5832 3.64903 4.76409 0
M  V30 380 H 32.6532 3.49742 3.3587 0
M  V30 381 N 33.9963 -1.19345 1.0293 0
M  V30 382 C 35.2453 -1.88363 0.721256 0
M  V30 383 C 35.5583 -1.80514 -0.753254 0
M  V30 384 O 36.7643 -2.44788 -1.17436 0
M  V30 385 C 35.2203 -3.37872 1.23978 0
M  V30 386 C 34.8283 -3.54278 2.74211 0
M  V30 387 C 36.5723 -4.12365 1.00775 0
M  V30 388 C 34.4793 -4.97682 3.19479 0
M  V30 389 H 33.4093 -0.705484 0.266098 0
M  V30 390 H 36.0603 -1.34928 1.24365 0
M  V30 391 H 34.4423 -3.90707 0.6453 0
M  V30 392 H 35.6163 -3.11769 3.39318 0
M  V30 393 H 33.9313 -2.93174 2.95699 0
M  V30 394 H 36.5283 -5.18119 1.32123 0
M  V30 395 H 36.8713 -4.16263 -0.0554308 0
M  V30 396 H 37.4043 -3.65668 1.56625 0
M  V30 397 H 34.1433 -4.98945 4.25128 0
M  V30 398 H 33.6633 -5.4095 2.591 0
M  V30 399 H 35.3423 -5.66337 3.12845 0
M  V30 400 N 35.4744 -0.807222 -1.35358 0
M  V30 401 C 36.7044 -0.399796 -2.02695 0
M  V30 402 C 37.1124 0.994176 -1.60974 0
M  V30 403 O 36.4554 1.65209 -0.803226 0
M  V30 404 C 36.5174 -0.404445 -3.57218 0
M  V30 405 C 36.1814 -1.74904 -4.22206 0
M  V30 406 C 37.1784 -2.70743 -4.4384 0
M  V30 407 C 34.8634 -2.03322 -4.5931 0
M  V30 408 C 36.8574 -3.93183 -5.01683 0
M  V30 409 C 34.5444 -3.26026 -5.16866 0
M  V30 410 C 35.5424 -4.20774 -5.37994 0
M  V30 411 O 35.2304 -5.41312 -5.94337 0
M  V30 412 H 34.9624 -0.160517 -0.656666 0
M  V30 413 H 37.5164 -1.09235 -1.73945 0
M  V30 414 H 35.7464 0.344707 -3.85161 0
M  V30 415 H 37.4354 -0.0192429 -4.05895 0
M  V30 416 H 38.2014 -2.5008 -4.15554 0
M  V30 417 H 34.0804 -1.30384 -4.42178 0
M  V30 418 H 37.6244 -4.6715 -5.1809 0
M  V30 419 H 33.5214 -3.46559 -5.44579 0
M  V30 420 H 34.2894 -5.42618 -6.12787 0
M  V30 421 N 36.9525 1.47285 -0.560781 0
M  V30 422 C 37.8825 2.32857 0.173105 0
M  V30 423 C 38.8635 1.44009 0.905281 0
M  V30 424 O 40.0485 1.7286 0.885046 0
M  V30 425 C 37.1785 3.25861 1.20133 0
M  V30 426 C 36.1325 4.23978 0.585388 0
M  V30 427 C 35.4585 5.06332 1.7185 0
M  V30 428 C 36.7585 5.20242 -0.463178 0
M  V30 429 H 38.4525 2.94466 -0.541307 0
M  V30 430 H 35.9985 1.41601 -0.261764 0
M  V30 431 H 37.9515 3.84569 1.72293 0
M  V30 432 H 36.6755 2.62315 1.94573 0
M  V30 433 H 35.3345 3.66501 0.085054 0
M  V30 434 H 34.9825 4.39186 2.45203 0
M  V30 435 H 34.6825 5.72762 1.31213 0
M  V30 436 H 36.2065 5.67899 2.24329 0
M  V30 437 H 37.6205 5.73293 -0.027502 0
M  V30 438 H 36.0175 5.94896 -0.788627 0
M  V30 439 H 37.0875 4.65504 -1.35773 0
M  V30 440 N 38.4306 0.297415 1.54768 0
M  V30 441 C 39.3606 -0.573494 2.26348 0
M  V30 442 C 40.3416 -1.14085 1.26169 0
M  V30 443 O 41.5266 -1.17086 1.54934 0
M  V30 444 C 38.6566 -1.74716 3.00153 0
M  V30 445 C 37.6106 -1.31032 4.07449 0
M  V30 446 C 36.9366 -2.56887 4.68949 0
M  V30 447 C 38.2366 -0.444183 5.20408 0
M  V30 448 H 39.9306 0.0235131 2.99391 0
M  V30 449 H 37.4766 0.0127488 1.43994 0
M  V30 450 H 39.4296 -2.3625 3.48947 0
M  V30 451 H 38.1536 -2.37035 2.24682 0
M  V30 452 H 36.8126 -0.718066 3.59499 0
M  V30 453 H 36.4606 -3.17512 3.90122 0
M  V30 454 H 36.1606 -2.2836 5.41411 0
M  V30 455 H 37.6846 -3.19229 5.20505 0
M  V30 456 H 39.0986 -0.9651 5.65118 0
M  V30 457 H 37.4956 -0.252846 5.99567 0
M  V30 458 H 38.5656 0.531609 4.81977 0
M  V30 459 N 39.9087 -1.5758 0.0250728 0
M  V30 460 C 41.3247 -1.56124 -0.331282 0
M  V30 461 C 41.5247 -1.03029 -1.73169 0
M  V30 462 O 40.5807 -0.675215 -2.43305 0
M  V30 463 C 41.8937 -3.00139 -0.183584 0
M  V30 464 C 43.4417 -3.11946 -0.256654 0
M  V30 465 C 43.9167 -4.57793 -0.137792 0
M  V30 466 N 45.4077 -4.6279 -0.194904 0
M  V30 467 C 46.1427 -5.7326 -0.126655 0
M  V30 468 N 45.6387 -6.928 -0.00755288 0
M  V30 469 N 47.4317 -5.61811 -0.180348 0
M  V30 470 H 39.5827 -1.90424 0.94087 0
M  V30 471 H 41.8457 -0.875761 0.362968 0
M  V30 472 H 41.5517 -3.4292 0.780927 0
M  V30 473 H 41.4257 -3.64899 -0.955448 0
M  V30 474 H 43.8127 -2.69079 -1.21162 0
M  V30 475 H 43.8937 -2.49915 0.545517 0
M  V30 476 H 43.5377 -5.01339 0.813739 0
M  V30 477 H 43.4677 -5.17798 -0.958775 0
M  V30 478 H 45.9587 -3.76807 -0.287267 0
M  V30 479 H 46.2717 -7.72791 0.0379428 0
M  V30 480 H 44.6167 -6.94995 0.0271731 0
M  V30 481 H 47.8077 -4.6731 -0.271767 0
M  V30 482 H 47.9807 -6.47882 -0.123697 0
M  V30 483 N 41.3868 0.248026 -1.55636 0
M  V30 484 C 42.3168 1.31079 -1.93237 0
M  V30 485 C 43.2978 1.50264 -0.797174 0
M  V30 486 O 44.4828 1.62891 -1.05737 0
M  V30 487 C 41.6128 2.66575 -2.22609 0
M  V30 488 C 40.5668 2.62087 -3.3837 0
M  V30 489 C 39.8928 4.01369 -3.53281 0
M  V30 490 C 41.1928 2.19171 -4.7409 0
M  V30 491 H 42.8868 0.998556 -2.82257 0
M  V30 492 H 40.4328 0.47891 -1.35803 0
M  V30 493 H 42.3858 3.41057 -2.47503 0
M  V30 494 H 41.1098 2.99432 -1.30414 0
M  V30 495 H 39.7688 1.90063 -3.13483 0
M  V30 496 H 39.4168 4.31489 -2.58508 0
M  V30 497 H 39.1168 3.99254 -4.31127 0
M  V30 498 H 40.6408 4.77552 -3.80495 0
M  V30 499 H 42.0548 2.83384 -4.98363 0
M  V30 500 H 40.4518 2.2817 -5.5503 0
M  V30 501 H 41.5218 1.14336 -4.71227 0
M  V30 502 N 42.8649 1.48995 0.513639 0
M  V30 503 C 44.1119 1.57843 1.26854 0
M  V30 504 C 44.4399 0.259501 1.92761 0
M  V30 505 O 43.6949 -0.75159 1.80692 0
M  V30 506 C 43.9939 2.67756 2.36731 0
M  V30 507 C 43.6599 4.09669 1.88368 0
M  V30 508 C 42.3219 4.48291 1.74896 0
M  V30 509 C 44.6739 4.98537 1.52021 0
M  V30 510 C 42.0019 5.73568 1.23438 0
M  V30 511 C 44.3539 6.24319 1.0202 0
M  V30 512 C 43.0179 6.61783 0.871778 0
M  V30 513 H 42.2879 0.577587 0.464192 0
M  V30 514 H 44.9349 1.82778 0.571366 0
M  V30 515 H 43.2399 2.36743 3.12185 0
M  V30 516 H 44.9369 2.71813 2.9482 0
M  V30 517 H 41.5269 3.79176 1.99808 0
M  V30 518 H 45.7109 4.69363 1.61281 0
M  V30 519 H 40.9669 6.01304 1.10648 0
M  V30 520 H 45.1409 6.92566 0.729722 0
M  V30 521 H 42.7679 7.5874 0.470852 0
M  V30 522 N 44.343 -0.763751 1.37857 0
M  V30 523 C 45.568 -1.55805 1.36893 0
M  V30 524 C 45.993 -1.88054 -0.0416135 0
M  V30 525 O 45.351 -1.49825 -1.02089 0
M  V30 526 C 45.399 -2.84012 2.22192 0
M  V30 527 O 44.503 -3.78732 1.63204 0
M  V30 528 H 43.844 -0.471638 0.46739 0
M  V30 529 H 46.374 -0.944657 1.81487 0
M  V30 530 H 46.384 -3.33037 2.35691 0
M  V30 531 H 45.059 -2.59869 3.24716 0
M  V30 532 H 43.636 -3.37402 1.58791 0
M  V30 533 N 45.8211 -1.22559 -0.990812 0
M  V30 534 C 46.7511 -1.0218 -2.09956 0
M  V30 535 C 47.7321 0.0579394 -1.70001 0
M  V30 536 O 48.9171 -0.104684 -1.93918 0
M  V30 537 C 46.0471 -0.601023 -3.4206 0
M  V30 538 C 45.0011 -1.62694 -3.95872 0
M  V30 539 C 44.3271 -1.06193 -5.24049 0
M  V30 540 C 45.6271 -3.01743 -4.2632 0
M  V30 541 H 47.3211 -1.94916 -2.27262 0
M  V30 542 H 44.8671 -0.938566 -1.09211 0
M  V30 543 H 46.8201 -0.445561 -4.19038 0
M  V30 544 H 45.5441 0.362005 -3.24588 0
M  V30 545 H 44.2031 -1.77021 -3.21028 0
M  V30 546 H 43.8511 -0.0901903 -5.02919 0
M  V30 547 H 43.5511 -1.74732 -5.61019 0
M  V30 548 H 45.0751 -0.918092 -6.03658 0
M  V30 549 H 46.4891 -2.90777 -4.94087 0
M  V30 550 H 44.8861 -3.67425 -4.74467 0
M  V30 551 H 45.9561 -3.51518 -3.34011 0
M  V30 552 N 47.2992 1.18797 -1.03562 0
M  V30 553 C 48.2312 2.21731 -0.580337 0
M  V30 554 C 49.2442 1.59051 0.347349 0
M  V30 555 O 50.4332 1.77929 0.142669 0
M  V30 556 C 47.5332 3.38459 0.172805 0
M  V30 557 C 46.7062 4.3072 -0.761496 0
M  V30 558 C 45.7652 5.26174 -0.0525547 0
M  V30 559 O 44.7912 5.65108 -0.681333 0
M  V30 560 N 45.9932 5.67624 1.21586 0
M  V30 561 H 48.7582 2.61417 -1.46565 0
M  V30 562 H 46.3192 1.33531 -0.915476 0
M  V30 563 H 48.3112 3.99335 0.656793 0
M  V30 564 H 46.8812 2.97507 0.959602 0
M  V30 565 H 46.1012 3.67525 -1.42544 0
M  V30 566 H 47.3892 4.89267 -1.39626 0
M  V30 567 H 46.7872 5.38038 1.74732 0
M  V30 568 H 45.3442 6.30721 1.64421 0
M  V30 569 N 48.7773 0.814389 1.34928 0
M  V30 570 C 50.0263 0.394871 1.97797 0
M  V30 571 C 50.3393 -1.04555 1.65311 0
M  V30 572 O 51.5453 -1.56856 2.21604 0
M  V30 573 C 50.0013 0.655103 3.53888 0
M  V30 574 C 49.6093 2.10858 3.95276 0
M  V30 575 C 51.3533 0.301329 4.23429 0
M  V30 576 C 49.2603 2.31415 5.44244 0
M  V30 577 H 48.1903 0.143913 0.740139 0
M  V30 578 H 50.8413 0.999544 1.53888 0
M  V30 579 H 49.2233 -0.0196253 3.95995 0
M  V30 580 H 50.3973 2.82176 3.64298 0
M  V30 581 H 48.7123 2.42297 3.38646 0
M  V30 582 H 51.3093 0.432869 5.32945 0
M  V30 583 H 51.6523 -0.75331 4.09428 0
M  V30 584 H 52.1853 0.930288 3.86769 0
M  V30 585 H 48.9243 3.35353 5.63222 0
M  V30 586 H 48.4443 1.6463 5.76764 0
M  V30 587 H 50.1233 2.13352 6.10811 0
M  V30 588 N 50.2554 -1.46986 0.568584 0
M  V30 589 C 51.2184 -2.28624 -0.162366 0
M  V30 590 C 52.2184 -1.37596 -0.832103 0
M  V30 591 O 53.4084 -1.60115 -0.68622 0
M  V30 592 C 50.5404 -3.17596 -1.23878 0
M  V30 593 H 51.7334 -2.94722 0.554899 0
M  V30 594 H 49.2864 -1.52863 0.325976 0
M  V30 595 H 50.0214 -2.56214 -1.98808 0
M  V30 596 H 49.8064 -3.846 -0.763219 0
M  V30 597 H 51.2964 -3.79078 -1.75185 0
M  V30 598 N 51.7335 -0.305618 -1.54608 0
M  V30 599 C 52.9615 0.304775 -2.04643 0
M  V30 600 C 53.3765 1.47167 -1.18268 0
M  V30 601 O 52.7335 1.81296 -0.209328 0
M  V30 602 C 52.7845 0.756564 -3.53495 0
M  V30 603 O 52.5055 -0.36389 -4.36586 0
M  V30 604 C 54.0065 1.43163 -4.19546 0
M  V30 605 H 51.2265 0.0655481 -0.667791 0
M  V30 606 H 53.7705 -0.446592 -1.99564 0
M  V30 607 H 51.9255 1.45794 -3.58919 0
M  V30 608 H 52.3395 -0.0113121 -5.24499 0
M  V30 609 H 53.8135 1.69886 -5.25207 0
M  V30 610 H 54.2905 2.37318 -3.69563 0
M  V30 611 H 54.8965 0.773307 -4.18211 0
M  V30 612 N 53.2116 1.57565 -0.0334293 0
M  V30 613 C 54.4886 1.83282 0.683163 0
M  V30 614 C 54.8686 0.91823 1.90084 0
M  V30 615 O 54.2166 -0.025113 2.28486 0
M  V30 616 C 54.4266 3.32599 1.0573 0
M  V30 617 C 55.7746 3.99179 1.44711 0
M  V30 618 O 56.7986 3.3712 1.15015 0
M  V30 619 O 55.6576 5.08565 2.0006 0
M  V30 620 H 52.7516 0.755869 0.335546 0
M  V30 621 H 55.2976 1.69589 -0.0614402 0
M  V30 622 H 54.0696 3.90834 0.190828 0
M  V30 623 H 53.6926 3.51415 1.85993 0
M  V30 624 N 54.6897 -0.239769 1.55765 0
M  V30 625 C 55.9667 -0.990056 1.68693 0
M  V30 626 C 56.3467 -2.03107 0.5754 0
M  V30 627 O 55.6947 -2.24604 -0.42017 0
M  V30 628 C 55.9047 -1.61696 3.09282 0
M  V30 629 C 57.2527 -2.11613 3.6811 0
M  V30 630 O 58.2767 -1.71624 3.12127 0
M  V30 631 O 57.1357 -2.85057 4.66267 0
M  V30 632 H 54.2297 -0.461299 0.686391 0
M  V30 633 H 56.7757 -0.232991 1.68093 0
M  V30 634 H 55.5477 -0.864357 3.81634 0
M  V30 635 H 55.1707 -2.44005 3.13923 0
M  V30 636 N 56.1678 -1.49265 -0.50573 0
M  V30 637 C 57.3978 -1.61979 -1.28243 0
M  V30 638 C 57.8058 -0.288576 -1.86986 0
M  V30 639 O 57.1488 0.735408 -1.68337 0
M  V30 640 C 57.2108 -2.62632 -2.45489 0
M  V30 641 C 56.8748 -4.071 -2.07651 0
M  V30 642 C 57.8718 -4.94049 -1.61901 0
M  V30 643 C 55.5568 -4.52801 -2.17431 0
M  V30 644 C 57.5508 -6.24736 -1.26428 0
M  V30 645 C 55.2378 -5.83503 -1.8157 0
M  V30 646 C 56.2358 -6.69294 -1.36142 0
M  V30 647 O 55.9238 -7.9756 -1.00764 0
M  V30 648 H 55.6558 -0.54834 -0.395347 0
M  V30 649 H 58.2098 -1.96002 -0.614204 0
M  V30 650 H 56.4398 -2.2378 -3.15372 0
M  V30 651 H 58.1288 -2.64925 -3.07522 0
M  V30 652 H 58.8948 -4.5997 -1.53795 0
M  V30 653 H 54.7738 -3.86196 -2.51742 0
M  V30 654 H 58.3178 -6.91652 -0.908992 0
M  V30 655 H 54.2148 -6.17112 -1.89324 0
M  V30 656 H 54.9828 -8.10529 -1.13952 0
M  V30 657 N 57.6459 0.756429 -1.3826 0
M  V30 658 C 58.5929 1.87011 -1.35261 0
M  V30 659 C 59.5629 1.64695 -0.215616 0
M  V30 660 O 60.7479 1.864 -0.407399 0
M  V30 661 C 57.8879 3.24275 -1.18068 0
M  V30 662 C 57.0009 3.58442 -2.41129 0
M  V30 663 C 56.1359 4.84994 -2.16689 0
M  V30 664 C 55.1749 5.11939 -3.35537 0
M  V30 665 N 54.3119 6.29685 -3.10549 0
M  V30 666 H 59.1519 1.8891 -2.30472 0
M  V30 667 H 56.6889 0.923373 -1.14509 0
M  V30 668 H 58.6469 4.03479 -1.06116 0
M  V30 669 H 57.2769 3.21711 -0.264973 0
M  V30 670 H 56.3289 2.74103 -2.63764 0
M  V30 671 H 57.6409 3.74283 -3.29717 0
M  V30 672 H 56.7949 5.72135 -2.01857 0
M  V30 673 H 55.5339 4.71286 -1.25462 0
M  V30 674 H 54.5389 4.23268 -3.50891 0
M  V30 675 H 55.7639 5.27546 -4.27635 0
M  V30 676 H 53.7099 6.17306 -2.21967 0
M  V30 677 H 53.6269 6.46014 -3.92686 0
M  V30 678 H 54.8949 7.19722 -2.99367 0
M  V30 679 N 59.124 1.23083 0.984299 0
M  V30 680 C 60.071 1.00854 2.07598 0
M  V30 681 C 61.041 -0.0726709 1.65941 0
M  V30 682 O 62.226 0.0786535 1.90638 0
M  V30 683 C 59.366 0.601645 3.39815 0
M  V30 684 C 58.479 1.75456 3.94765 0
M  V30 685 C 57.614 1.29482 5.15177 0
M  V30 686 C 56.653 2.41873 5.62284 0
M  V30 687 N 55.79 1.96885 6.73929 0
M  V30 688 H 60.63 1.943 2.25946 0
M  V30 689 H 58.167 0.968001 1.10762 0
M  V30 690 H 60.125 0.346854 4.15756 0
M  V30 691 H 58.755 -0.295803 3.21442 0
M  V30 692 H 57.807 2.12346 3.15616 0
M  V30 693 H 59.119 2.59965 4.25699 0
M  V30 694 H 58.273 0.997923 5.98437 0
M  V30 695 H 57.012 0.420046 4.85888 0
M  V30 696 H 56.017 2.72342 4.77608 0
M  V30 697 H 57.242 3.29881 5.93595 0
M  V30 698 H 55.188 1.11782 6.46406 0
M  V30 699 H 55.105 2.74956 7.04227 0
M  V30 700 H 56.373 1.70289 7.60672 0
M  V30 701 N 60.6021 -1.18246 1.0419 0
M  V30 702 C 61.5501 -2.23968 0.627792 0
M  V30 703 C 62.5441 -1.65828 -0.346019 0
M  V30 704 O 63.7501 -1.78733 -0.213175 0
M  V30 705 H 60.1251 -0.728939 0.184802 0
M  V30 706 H 62.0961 -2.56202 1.52981 0
M  V30 707 C 60.8451 -3.47699 0.00796591 0
M  V30 708 H 60.1681 -3.92734 0.748347 0
M  V30 709 H 61.6081 -4.23294 -0.24455 0
M  V30 710 C 60.0671 -3.13153 -1.24246 0
M  V30 711 O 60.5971 -3.27003 -2.33307 0
M  V30 712 N 58.8031 -2.67467 -1.13622 0
M  V30 713 H 58.3501 -2.56396 -0.248734 0
M  V30 714 H 58.3081 -2.44724 -1.97377 0
M  V30 715 N 62.0802 -0.821533 -1.34494 0
M  V30 716 C 63.0432 -0.247847 -2.27856 0
M  V30 717 C 64.0432 0.573453 -1.50227 0
M  V30 718 O 65.2332 0.389759 -1.69784 0
M  V30 719 C 62.3652 0.652698 -3.34593 0
M  V30 720 H 63.5582 -1.07146 -2.80107 0
M  V30 721 H 61.1112 -0.593291 -1.44602 0
M  V30 722 H 61.8462 1.49943 -2.87555 0
M  V30 723 H 61.6312 0.065292 -3.92046 0
M  V30 724 H 63.1212 1.04793 -4.04238 0
M  V30 725 N 63.5583 1.46682 -0.576371 0
M  V30 726 C 64.8353 1.95599 0.00703437 0
M  V30 727 C 65.2153 1.51904 1.46589 0
M  V30 728 O 64.5633 0.766755 2.15251 0
M  V30 729 C 64.7733 3.4864 -0.158404 0
M  V30 730 C 66.1213 4.24594 -0.0229439 0
M  V30 731 O 67.1453 3.56094 -0.0869173 0
M  V30 732 O 66.0043 5.46373 0.118015 0
M  V30 733 H 63.0983 0.825275 0.053384 0
M  V30 734 H 65.6443 1.56996 -0.644244 0
M  V30 735 H 64.4163 3.7331 -1.17282 0
M  V30 736 H 64.0393 3.94057 0.5296 0
M  V30 737 N 65.0364 0.313813 1.54444 0
M  V30 738 C 66.2614 -0.296681 2.05267 0
M  V30 739 C 66.6864 -1.45757 1.18897 0
M  V30 740 O 66.0444 -1.80239 0.195886 0
M  V30 741 C 66.0924 -0.71831 3.53373 0
M  V30 742 O 65.1964 -1.82175 3.69981 0
M  V30 743 H 64.5374 -0.0554061 0.661684 0
M  V30 744 H 67.0674 0.459387 1.99376 0
M  V30 745 H 67.0774 -1.00364 3.95463 0
M  V30 746 H 65.7524 0.130821 4.15694 0
M  V30 747 H 64.3294 -1.53598 3.39797 0
M  V30 748 N 66.5145 -1.57545 0.0417849 0
M  V30 749 C 67.4625 -2.12148 -0.953723 0
M  V30 750 C 68.4565 -1.05104 -1.32852 0
M  V30 751 O 69.6625 -1.23524 -1.30927 0
M  V30 752 H 66.0375 -0.677957 -0.325389 0
M  V30 753 H 68.0085 -2.94707 -0.467991 0
M  V30 754 C 66.7575 -2.6739 -2.22257 0
M  V30 755 H 66.0805 -3.49413 -1.94295 0
M  V30 756 H 67.5205 -3.09227 -2.90094 0
M  V30 757 C 65.9795 -1.60723 -2.96091 0
M  V30 758 O 66.5095 -1.01449 -3.88679 0
M  V30 759 N 64.7155 -1.32466 -2.58652 0
M  V30 760 H 64.2625 -1.80856 -1.83437 0
M  V30 761 H 64.2205 -0.61325 -3.08361 0
M  V30 762 N 67.9926 0.231505 -1.5589 0
M  V30 763 C 68.9556 1.27028 -1.90779 0
M  V30 764 C 69.9556 1.40308 -0.785507 0
M  V30 765 O 71.1456 1.38744 -1.05336 0
M  V30 766 C 68.2776 2.64566 -2.14983 0
M  V30 767 H 69.4706 0.973017 -2.83677 0
M  V30 768 H 67.0236 0.471486 -1.49019 0
M  V30 769 H 67.7586 2.99406 -1.24604 0
M  V30 770 H 67.5436 2.56305 -2.96732 0
M  V30 771 H 69.0336 3.39543 -2.43105 0
M  V30 772 N 69.4707 1.49531 0.497807 0
M  V30 773 C 70.7177 1.59179 1.25173 0
M  V30 774 C 71.0457 0.279932 1.92475 0
M  V30 775 O 70.3007 -0.732383 1.81479 0
M  V30 776 C 70.5997 2.70252 2.33878 0
M  V30 777 C 70.2657 4.11644 1.84012 0
M  V30 778 C 68.9277 4.50121 1.70132 0
M  V30 779 C 71.2797 5.00121 1.46725 0
M  V30 780 C 68.6077 5.74845 1.17348 0
M  V30 781 C 70.9597 6.25366 0.95392 0
M  V30 782 C 69.6237 6.6267 0.801538 0
M  V30 783 H 68.8937 0.582478 0.45804 0
M  V30 784 H 71.5407 1.83373 0.551948 0
M  V30 785 H 69.8457 2.40041 3.09657 0
M  V30 786 H 71.5427 2.74925 2.9192 0
M  V30 787 H 68.1327 3.81274 1.95775 0
M  V30 788 H 72.3167 4.71048 1.56294 0
M  V30 789 H 67.5727 6.02444 1.04264 0
M  V30 790 H 71.7467 6.93301 0.656225 0
M  V30 791 H 69.3737 7.59197 0.390351 0
M  V30 792 N 70.9488 -0.749086 1.3866 0
M  V30 793 C 71.8788 -1.8764 1.38973 0
M  V30 794 C 72.8598 -1.68178 0.255004 0
M  V30 795 O 74.0448 -1.88704 0.458754 0
M  V30 796 C 71.1748 -3.25222 1.21851 0
M  V30 797 C 70.1288 -3.59295 2.32575 0
M  V30 798 C 69.4548 -4.95663 2.00555 0
M  V30 799 C 70.7548 -3.63709 3.7485 0
M  V30 800 H 72.4488 -1.87635 2.3331 0
M  V30 801 H 69.9948 -0.901329 1.12303 0
M  V30 802 H 71.9478 -4.03746 1.20695 0
M  V30 803 H 70.6718 -3.25719 0.239775 0
M  V30 804 H 69.3308 -2.83093 2.32925 0
M  V30 805 H 68.9788 -4.92724 1.01154 0
M  V30 806 H 68.6788 -5.19429 2.74714 0
M  V30 807 H 70.2028 -5.7656 2.01024 0
M  V30 808 H 71.6168 -4.32338 3.76506 0
M  V30 809 H 70.0138 -3.98986 4.48252 0
M  V30 810 H 71.0838 -2.63834 4.06841 0
M  V30 811 N 72.4269 -1.23603 -0.977757 0
M  V30 812 C 73.3749 -1.01704 -2.09187 0
M  V30 813 C 74.3689 0.0448214 -1.69341 0
M  V30 814 O 75.5749 -0.108902 -1.7967 0
M  V30 815 H 71.9499 -0.311803 -0.684312 0
M  V30 816 H 73.9209 -1.96207 -2.24823 0
M  V30 817 C 72.6699 -0.627746 -3.41986 0
M  V30 818 H 71.9929 -1.43656 -3.73099 0
M  V30 819 H 73.4329 -0.514053 -4.20872 0
M  V30 820 C 71.8919 0.664238 -3.30287 0
M  V30 821 O 72.4219 1.71268 -3.6336 0
M  V30 822 N 70.6279 0.641156 -2.83439 0
M  V30 823 H 70.1749 -0.212376 -2.56723 0
M  V30 824 H 70.1329 1.50583 -2.75993 0
M  V30 825 N 73.905 1.17692 -1.04816 0
M  V30 826 C 74.852 2.21581 -0.645797 0
M  V30 827 C 75.822 1.62367 0.350159 0
M  V30 828 O 77.007 1.89254 0.242433 0
M  V30 829 C 74.147 3.45092 -0.0227568 0
M  V30 830 C 73.26 4.18613 -1.06709 0
M  V30 831 C 72.395 5.29602 -0.411767 0
M  V30 832 C 71.434 5.94904 -1.44067 0
M  V30 833 N 70.571 6.97414 -0.809781 0
M  V30 834 H 75.411 2.55353 -1.5362 0
M  V30 835 H 72.948 1.25438 -0.768364 0
M  V30 836 H 74.906 4.15679 0.35588 0
M  V30 837 H 73.536 3.11917 0.831122 0
M  V30 838 H 72.588 3.46779 -1.5636 0
M  V30 839 H 73.9 4.63293 -1.84827 0
M  V30 840 H 73.054 6.06696 0.0206623 0
M  V30 841 H 71.793 4.86045 0.401438 0
M  V30 842 H 70.798 5.16544 -1.88316 0
M  V30 843 H 72.023 6.40542 -2.25571 0
M  V30 844 H 69.969 6.55998 -0.0170186 0
M  V30 845 H 69.886 7.40386 -1.52856 0
M  V30 846 H 71.154 7.78463 -0.401999 0
M  V30 847 N 75.3831 0.828654 1.34056 0
M  V30 848 C 76.6321 0.415828 1.97367 0
M  V30 849 C 76.9451 -1.02796 1.6641 0
M  V30 850 O 78.1511 -1.54497 2.23255 0
M  V30 851 C 76.6071 0.692601 3.53173 0
M  V30 852 C 76.2151 2.15038 3.93017 0
M  V30 853 C 77.9591 0.346222 4.23086 0
M  V30 854 C 75.8661 2.37174 5.41758 0
M  V30 855 H 74.7961 0.151755 0.738571 0
M  V30 856 H 77.4471 1.01581 1.52819 0
M  V30 857 H 75.8291 0.0223764 3.95994 0
M  V30 858 H 77.0031 2.86024 3.61285 0
M  V30 859 H 75.3181 2.45875 3.36057 0
M  V30 860 H 77.9151 0.48937 5.32456 0
M  V30 861 H 78.2581 -0.709842 4.10204 0
M  V30 862 H 78.7911 0.971258 3.85761 0
M  V30 863 H 75.5301 3.41308 5.59633 0
M  V30 864 H 75.0501 1.70738 5.74986 0
M  V30 865 H 76.7291 2.19818 6.08514 0
M  V30 866 N 76.8612 -1.46375 0.584142 0
M  V30 867 C 77.7932 -2.28443 -0.186119 0
M  V30 868 C 78.8062 -1.38596 -0.854115 0
M  V30 869 O 79.9952 -1.63183 -0.723438 0
M  V30 870 C 77.0952 -3.13671 -1.28311 0
M  V30 871 C 76.2682 -4.31652 -0.706758 0
M  V30 872 C 75.3272 -4.98267 -1.69163 0
M  V30 873 O 74.3532 -5.55815 -1.22712 0
M  V30 874 N 75.5552 -4.95408 -3.02575 0
M  V30 875 H 78.3202 -2.9519 0.517986 0
M  V30 876 H 75.8812 -1.56303 0.42201 0
M  V30 877 H 77.8732 -3.55101 -1.94128 0
M  V30 878 H 76.4432 -2.48989 -1.89005 0
M  V30 879 H 75.6632 -3.93989 0.128908 0
M  V30 880 H 76.9512 -5.07906 -0.301506 0
M  V30 881 H 76.3492 -4.49902 -3.42936 0
M  V30 882 H 74.9062 -5.40774 -3.63877 0
M  V30 883 N 78.3393 -0.321999 -1.54275 0
M  V30 884 C 79.5693 0.282642 -2.04658 0
M  V30 885 C 79.9773 1.46453 -1.19784 0
M  V30 886 O 79.3203 1.82367 -0.220932 0
M  V30 887 C 79.3823 0.781857 -3.50895 0
M  V30 888 C 79.0463 -0.277517 -4.56157 0
M  V30 889 C 80.0433 -1.11307 -5.07845 0
M  V30 890 C 77.7283 -0.425256 -5.00497 0
M  V30 891 C 79.7223 -2.08211 -6.02434 0
M  V30 892 C 77.4093 -1.39771 -5.94901 0
M  V30 893 C 78.4073 -2.2246 -6.45756 0
M  V30 894 O 78.0953 -3.18054 -7.38307 0
M  V30 895 H 77.8273 0.0622636 -0.673126 0
M  V30 896 H 80.3813 -0.465792 -2.00049 0
M  V30 897 H 78.6113 1.58118 -3.52896 0
M  V30 898 H 80.3003 1.30467 -3.84361 0
M  V30 899 H 81.0663 -1.00991 -4.74369 0
M  V30 900 H 76.9453 0.20847 -4.60528 0
M  V30 901 H 80.4893 -2.72791 -6.42052 0
M  V30 902 H 76.3863 -1.50152 -6.27794 0
M  V30 903 H 77.1543 -3.13275 -7.56175 0
M  V30 904 N 79.8174 1.5752 -0.0501392 0
M  V30 905 C 81.2284 1.80271 0.485705 0
M  V30 906 C 81.5794 0.96228 1.70981 0
M  V30 907 O 80.7044 0.178578 2.15662 0
M  V30 908 C 81.2994 3.26957 0.887938 0
M  V30 909 C 79.8584 3.5063 1.36877 0
M  V30 910 C 79.0054 2.75165 0.343468 0
M  V30 911 H 81.9564 1.56281 -0.276028 0
M  V30 912 H 81.9774 3.37821 1.75093 0
M  V30 913 H 81.4894 3.881 -0.0031809 0
M  V30 914 H 79.5904 2.94766 2.27911 0
M  V30 915 H 79.7034 4.59343 1.36164 0
M  V30 916 H 78.0674 2.4127 0.816128 0
M  V30 917 H 78.8504 3.39034 -0.539548 0
M  V30 918 N 81.2955 -0.223234 1.56011 0
M  V30 919 C 82.5205 -0.968978 1.83373 0
M  V30 920 C 82.9455 -1.77227 0.630254 0
M  V30 921 O 82.3035 -1.76345 -0.420959 0
M  V30 922 C 82.3515 -1.86363 3.08709 0
M  V30 923 O 81.4555 -2.95873 2.87285 0
M  V30 924 H 80.7965 -0.274461 0.604622 0
M  V30 925 H 83.3265 -0.237056 2.03222 0
M  V30 926 H 83.3365 -2.27376 3.38768 0
M  V30 927 H 82.0115 -1.27319 3.95933 0
M  V30 928 H 80.5885 -2.58818 2.68454 0
M  V30 929 N 82.7736 -1.49793 -0.48987 0
M  V30 930 C 84.1896 -1.36803 -0.822022 0
M  V30 931 C 84.3896 -0.409652 -1.97292 0
M  V30 932 O 83.4456 0.154614 -2.52026 0
M  V30 933 C 84.7586 -2.77768 -1.15175 0
M  V30 934 C 86.3066 -2.86549 -1.25931 0
M  V30 935 C 86.7816 -4.28306 -1.62228 0
M  V30 936 N 88.2726 -4.31169 -1.69256 0
M  V30 937 C 89.0076 -5.37832 -1.98807 0
M  V30 938 N 88.5036 -6.54726 -2.26507 0
M  V30 939 N 90.2966 -5.25258 -2.00152 0
M  V30 940 H 82.4476 -2.10691 0.268881 0
M  V30 941 H 84.7106 -0.946241 0.057728 0
M  V30 942 H 84.4166 -3.49648 -0.379335 0
M  V30 943 H 84.2906 -3.13836 -2.09253 0
M  V30 944 H 86.6776 -2.14899 -2.02243 0
M  V30 945 H 86.7586 -2.54049 -0.298776 0
M  V30 946 H 86.4026 -5.00486 -0.864622 0
M  V30 947 H 86.3326 -4.58279 -2.594 0
M  V30 948 H 88.8236 -3.4687 -1.49965 0
M  V30 949 H 89.1366 -7.31833 -2.48276 0
M  V30 950 H 87.4816 -6.57933 -2.23939 0
M  V30 951 H 90.6726 -4.32938 -1.77996 0
M  V30 952 H 90.8456 -6.08476 -2.22848 0
M  V30 953 N 84.2517 0.741722 -1.39055 0
M  V30 954 C 85.4997 1.49818 -1.35643 0
M  V30 955 C 85.8207 1.94938 0.0491642 0
M  V30 956 O 85.0907 1.68505 0.999141 0
M  V30 957 H 83.6707 0.555755 -0.499144 0
M  V30 958 H 86.3327 0.880957 -1.73854 0
M  V30 959 H 85.4287 2.38348 -2.01486 0
M  V30 960 N 85.7298 1.2412 0.971189 0
M  V30 961 C 86.6928 1.03156 2.04674 0
M  V30 962 C 87.6928 -0.00990322 1.60797 0
M  V30 963 O 88.8828 0.230729 1.72665 0
M  V30 964 C 86.0148 0.562765 3.36223 0
M  V30 965 H 87.2078 1.98614 2.24705 0
M  V30 966 H 84.7608 1.06293 1.14593 0
M  V30 967 H 85.4958 -0.395176 3.21883 0
M  V30 968 H 85.2808 1.31441 3.69413 0
M  V30 969 H 86.7708 0.437015 4.15307 0
M  V30 970 N 87.2079 -1.17134 1.05439 0
M  V30 971 C 88.1409 -2.2012 0.601855 0
M  V30 972 C 89.1189 -1.58314 -0.370854 0
M  V30 973 O 90.3029 -1.8638 -0.281882 0
M  V30 974 C 87.4299 -3.38491 -0.118868 0
M  V30 975 C 86.4759 -4.18752 0.809242 0
M  V30 976 S 87.3089 -4.83602 2.29977 0
M  V30 977 C 88.4649 -6.0536 1.59029 0
M  V30 978 H 88.6979 -2.58165 1.47438 0
M  V30 979 H 86.2309 -1.27788 0.866573 0
M  V30 980 H 88.1889 -4.07084 -0.528495 0
M  V30 981 H 86.8499 -2.98829 -0.967465 0
M  V30 982 H 86.0429 -5.03373 0.251379 0
M  V30 983 H 85.6449 -3.5561 1.15835 0
M  V30 984 H 87.9369 -6.71615 0.891017 0
M  V30 985 H 88.8799 -6.65679 2.41407 0
M  V30 986 H 89.2879 -5.54138 1.07663 0
M  V30 987 N 88.686 -0.835752 -1.33615 0
M  V30 988 C 89.916 -0.442701 -2.01801 0
M  V30 989 C 90.324 0.959807 -1.63047 0
M  V30 990 O 89.667 1.63468 -0.838088 0
M  V30 991 C 89.729 -0.480125 -3.56279 0
M  V30 992 C 89.393 -1.8382 -4.18401 0
M  V30 993 C 90.39 -2.80097 -4.37998 0
M  V30 994 C 88.075 -2.13019 -4.54894 0
M  V30 995 C 90.069 -4.03736 -4.9323 0
M  V30 996 C 87.756 -3.36916 -5.09834 0
M  V30 997 C 88.754 -4.32091 -5.28948 0
M  V30 998 O 88.442 -5.53797 -5.82721 0
M  V30 999 H 88.174 -0.17441 -0.653114 0
M  V30 1000 H 90.728 -1.129 -1.71589 0
M  V30 1001 H 88.958 0.262931 -3.85805 0
M  V30 1002 H 90.647 -0.105335 -4.05763 0
M  V30 1003 H 91.413 -2.58838 -4.10156 0
M  V30 1004 H 87.292 -1.39733 -4.39313 0
M  V30 1005 H 90.836 -4.78034 -5.08064 0
M  V30 1006 H 86.733 -3.58033 -5.37106 0
M  V30 1007 H 87.501 -5.55494 -6.0114 0
M  V30 1008 N 90.1641 1.46063 -0.591896 0
M  V30 1009 C 91.4411 1.95595 -0.0137119 0
M  V30 1010 C 91.8211 1.5345 1.4497 0
M  V30 1011 O 91.1691 0.789543 2.14426 0
M  V30 1012 C 91.3791 3.48453 -0.195373 0
M  V30 1013 C 92.7271 4.24546 -0.0679765 0
M  V30 1014 O 93.7511 3.55982 -0.124681 0
M  V30 1015 O 92.6101 5.46467 0.0600579 0
M  V30 1016 H 89.7041 0.825795 0.0446279 0
M  V30 1017 H 92.2501 1.56303 -0.660859 0
M  V30 1018 H 91.0221 3.72045 -1.21235 0
M  V30 1019 H 90.6451 3.94597 0.487775 0
M  V30 1020 N 91.6422 0.330177 1.54103 0
M  V30 1021 C 93.0582 -0.0222371 1.59585 0
M  V30 1022 C 93.2582 -1.49902 1.34654 0
M  V30 1023 O 92.3142 -2.25592 1.13421 0
M  V30 1024 C 93.6272 0.401932 2.98002 0
M  V30 1025 C 95.1752 0.353145 3.11001 0
M  V30 1026 C 95.6502 0.752576 4.51775 0
M  V30 1027 N 97.1412 0.706239 4.57784 0
M  V30 1028 C 97.8762 0.987417 5.64834 0
M  V30 1029 N 97.3722 1.33607 6.79795 0
M  V30 1030 N 99.1652 0.91254 5.54643 0
M  V30 1031 H 91.3162 1.29228 1.68564 0
M  V30 1032 H 93.5792 0.525906 0.78875 0
M  V30 1033 H 93.2852 1.4311 3.21267 0
M  V30 1034 H 93.1592 -0.229699 3.765 0
M  V30 1035 H 95.5462 -0.666822 2.87467 0
M  V30 1036 H 95.6272 1.0198 2.34593 0
M  V30 1037 H 95.2712 1.77049 4.76042 0
M  V30 1038 H 95.2012 0.0635409 5.26562 0
M  V30 1039 H 97.6922 0.44889 3.75224 0
M  V30 1040 H 98.0052 1.53582 7.57385 0
M  V30 1041 H 96.3502 1.37439 6.81275 0
M  V30 1042 H 99.5412 0.639601 4.6371 0
M  V30 1043 H 99.7142 1.13503 6.37982 0
M  V30 1044 N 93.1203 -1.57491 0.0584922 0
M  V30 1045 C 94.0683 -2.13148 -0.931168 0
M  V30 1046 C 95.0623 -1.06507 -1.31729 0
M  V30 1047 O 96.2683 -1.24906 -1.29609 0
M  V30 1048 H 92.6433 -0.68137 -0.31818 0
M  V30 1049 H 94.6143 -2.95187 -0.436707 0
M  V30 1050 C 93.3633 -2.69732 -2.19408 0
M  V30 1051 H 92.6863 -3.51454 -1.90578 0
M  V30 1052 H 94.1263 -3.12287 -2.86798 0
M  V30 1053 C 92.5853 -1.63855 -2.94369 0
M  V30 1054 O 93.1153 -1.05565 -3.87581 0
M  V30 1055 N 91.3213 -1.35202 -2.57233 0
M  V30 1056 H 90.8683 -1.82791 -1.81508 0
M  V30 1057 H 90.8263 -0.645922 -3.07693 0
M  V30 1058 N 94.5984 0.214957 -1.56127 0
M  V30 1059 C 95.8754 0.963093 -1.70247 0
M  V30 1060 C 96.2554 2.02166 -0.60764 0
M  V30 1061 O 95.6034 2.25244 0.384385 0
M  V30 1062 C 95.8134 1.56756 -3.11815 0
M  V30 1063 C 97.1614 2.0573 -3.7143 0
M  V30 1064 O 98.1854 1.66637 -3.14818 0
M  V30 1065 O 97.0444 2.77603 -4.70743 0
M  V30 1066 H 94.1384 0.450321 -0.693643 0
M  V30 1067 H 96.6844 0.206219 -1.68442 0
M  V30 1068 H 95.4564 0.803533 -3.82961 0
M  V30 1069 H 95.0794 2.3898 -3.17765 0
M  V30 1070 N 96.0765 1.50051 0.48192 0
M  V30 1071 C 97.0235 1.68122 1.58125 0
M  V30 1072 C 97.9935 0.522545 1.57666 0
M  V30 1073 O 99.1785 0.751844 1.75362 0
M  V30 1074 C 96.3185 1.77142 2.96167 0
M  V30 1075 C 95.4315 3.0444 3.06497 0
M  V30 1076 C 94.5665 3.04321 4.35387 0
M  V30 1077 C 93.6055 4.26118 4.3942 0
M  V30 1078 N 92.7425 4.238 5.59766 0
M  V30 1079 H 97.5825 2.6198 1.42022 0
M  V30 1080 H 95.1195 1.29877 0.690687 0
M  V30 1081 H 97.0775 1.80352 3.76203 0
M  V30 1082 H 95.7075 0.867329 3.1093 0
M  V30 1083 H 94.7595 3.10752 2.19402 0
M  V30 1084 H 96.0715 3.94426 3.05336 0
M  V30 1085 H 95.2255 3.062 5.23762 0
M  V30 1086 H 93.9645 2.12147 4.39141 0
M  V30 1087 H 92.9695 4.24463 3.49444 0
M  V30 1088 H 94.1945 5.19507 4.37366 0
M  V30 1089 H 92.1405 3.34474 5.64326 0
M  V30 1090 H 92.0575 5.07542 5.60301 0
M  V30 1091 H 93.3255 4.2981 6.50295 0
M  V30 1092 N 97.5546 -0.734337 1.39446 0
M  V30 1093 C 98.4846 -1.86155 1.40955 0
M  V30 1094 C 99.4656 -1.67898 0.272827 0
M  V30 1095 O 100.651 -1.88207 0.478743 0
M  V30 1096 C 97.7806 -3.23912 1.25294 0
M  V30 1097 C 96.7346 -3.56808 2.36373 0
M  V30 1098 C 96.0606 -4.93508 2.058 0
M  V30 1099 C 97.3606 -3.59713 3.78687 0
M  V30 1100 H 99.0546 -1.8515 2.35287 0
M  V30 1101 H 96.6006 -0.889367 1.13253 0
M  V30 1102 H 98.5536 -4.02443 1.2497 0
M  V30 1103 H 97.2776 -3.25446 0.274308 0
M  V30 1104 H 95.9366 -2.80606 2.35914 0
M  V30 1105 H 95.5846 -4.91623 1.06374 0
M  V30 1106 H 95.2846 -5.16486 2.80208 0
M  V30 1107 H 96.8086 -5.74396 2.07128 0
M  V30 1108 H 98.2226 -4.2832 3.81071 0
M  V30 1109 H 96.6196 -3.94209 4.52459 0
M  V30 1110 H 97.6896 -2.59504 4.09617 0
M  V30 1111 N 99.0327 -1.24633 -0.964593 0
M  V30 1112 C 99.9627 -1.06611 -2.07741 0
M  V30 1113 C 100.944 0.0218666 -1.70086 0
M  V30 1114 O 102.129 -0.145793 -1.93652 0
M  V30 1115 C 99.2587 -0.673444 -3.40708 0
M  V30 1116 C 98.2127 -1.71054 -3.92332 0
M  V30 1117 C 97.5387 -1.17285 -5.21678 0
M  V30 1118 C 98.8387 -3.10718 -4.19824 0
M  V30 1119 H 100.533 -1.99693 -2.23076 0
M  V30 1120 H 98.0787 -0.96152 -1.07195 0
M  V30 1121 H 100.032 -0.534345 -4.17998 0
M  V30 1122 H 98.7557 0.293073 -3.25282 0
M  V30 1123 H 97.4147 -1.83791 -3.17201 0
M  V30 1124 H 97.0627 -0.196847 -5.02615 0
M  V30 1125 H 96.7627 -1.86592 -5.57187 0
M  V30 1126 H 98.2867 -1.04593 -6.01575 0
M  V30 1127 H 99.7007 -3.01192 -4.87808 0
M  V30 1128 H 98.0977 -3.77406 -4.66567 0
M  V30 1129 H 99.1677 -3.58524 -3.26479 0
M  V30 1130 N 100.511 1.16574 -1.06058 0
M  V30 1131 C 101.757 1.87324 -0.777022 0
M  V30 1132 C 102.09 1.81351 0.694645 0
M  V30 1133 O 101.365 1.22753 1.50871 0
M  V30 1134 C 101.648 3.36991 -1.26922 0
M  V30 1135 C 101.501 3.51667 -2.80447 0
M  V30 1136 C 102.82 4.3131 -0.87521 0
M  V30 1137 H 99.9388 0.680191 -0.28374 0
M  V30 1138 H 102.581 1.37036 -1.3161 0
M  V30 1139 H 100.731 3.79949 -0.81063 0
M  V30 1140 H 102.403 3.17664 -3.34495 0
M  V30 1141 H 100.646 2.93656 -3.19294 0
M  V30 1142 H 101.317 4.56766 -3.0995 0
M  V30 1143 H 103.793 3.9624 -1.27014 0
M  V30 1144 H 102.669 5.34545 -1.2471 0
M  V30 1145 H 102.93 4.41552 0.220071 0
M  V30 1146 N 101.989 0.842826 1.3317 0
M  V30 1147 C 103.236 0.440447 1.97652 0
M  V30 1148 C 103.564 -1.00123 1.6675 0
M  V30 1149 O 102.819 -1.7155 0.941761 0
M  V30 1150 C 103.118 0.612607 3.52111 0
M  V30 1151 C 102.784 2.02297 4.02972 0
M  V30 1152 C 101.446 2.40874 4.16573 0
M  V30 1153 C 103.798 2.94402 4.30089 0
M  V30 1154 C 101.126 3.70852 4.54627 0
M  V30 1155 C 103.478 4.23865 4.69597 0
M  V30 1156 C 102.142 4.62392 4.81404 0
M  V30 1157 H 101.412 0.161171 0.72326 0
M  V30 1158 H 104.059 1.07061 1.58777 0
M  V30 1159 H 102.364 -0.100849 3.9167 0
M  V30 1160 H 104.061 0.2815 4.00011 0
M  V30 1161 H 100.651 1.71338 3.92863 0
M  V30 1162 H 104.835 2.65835 4.19101 0
M  V30 1163 H 100.091 4.00501 4.61962 0
M  V30 1164 H 104.265 4.95306 4.89536 0
M  V30 1165 H 101.892 5.63154 5.10648 0
M  V30 1166 N 103.467 -1.45747 0.599634 0
M  V30 1167 C 104.415 -2.322 -0.136426 0
M  V30 1168 C 105.409 -1.45497 -0.867583 0
M  V30 1169 O 106.615 -1.62027 -0.78405 0
M  V30 1170 H 102.99 -0.749368 -0.0628588 0
M  V30 1171 H 104.961 -2.92072 0.611281 0
M  V30 1172 C 103.71 -3.28974 -1.12567 0
M  V30 1173 H 103.033 -3.9568 -0.572484 0
M  V30 1174 H 104.473 -3.92212 -1.61077 0
M  V30 1175 C 102.932 -2.55561 -2.19523 0
M  V30 1176 O 103.462 -2.33111 -3.27143 0
M  V30 1177 N 101.668 -2.15832 -1.94589 0
M  V30 1178 H 101.215 -2.3429 -1.07078 0
M  V30 1179 H 101.173 -1.67034 -2.66359 0
M  V30 1180 N 104.945 -0.338344 -1.53925 0
M  V30 1181 C 105.877 0.555117 -2.22376 0
M  V30 1182 C 106.89 1.06812 -1.22862 0
M  V30 1183 O 108.079 0.979163 -1.49247 0
M  V30 1184 C 105.179 1.77609 -2.88631 0
M  V30 1185 C 104.352 1.39927 -4.14414 0
M  V30 1186 C 103.411 2.47936 -4.64127 0
M  V30 1187 O 102.437 2.11461 -5.28463 0
M  V30 1188 N 103.639 3.79107 -4.39612 0
M  V30 1189 H 106.404 -0.0310778 -2.99684 0
M  V30 1190 H 103.965 -0.162226 -1.61085 0
M  V30 1191 H 105.957 2.49287 -3.18807 0
M  V30 1192 H 104.527 2.26978 -2.14941 0
M  V30 1193 H 103.747 0.513481 -3.90841 0
M  V30 1194 H 105.035 1.12341 -4.96243 0
M  V30 1195 H 104.433 4.11531 -3.88148 0
M  V30 1196 H 102.99 4.4697 -4.74406 0
M  V30 1197 N 106.423 1.57458 -0.0668435 0
M  V30 1198 C 107.834 1.80776 0.466558 0
M  V30 1199 C 108.185 0.980361 1.69951 0
M  V30 1200 O 107.31 0.201441 2.1546 0
M  V30 1201 C 107.905 3.27881 0.85321 0
M  V30 1202 C 106.464 3.52062 1.3315 0
M  V30 1203 C 105.611 2.75513 0.314264 0
M  V30 1204 H 108.562 1.5598 -0.292588 0
M  V30 1205 H 108.583 3.39659 1.715 0
M  V30 1206 H 108.095 3.88075 -0.0443439 0
M  V30 1207 H 106.196 2.97167 2.24772 0
M  V30 1208 H 106.309 4.60762 1.31285 0
M  V30 1209 H 104.673 2.42123 0.790492 0
M  V30 1210 H 105.456 3.38442 -0.575477 0
M  V30 1211 N 107.901 -0.206675 1.56239 0
M  V30 1212 C 108.864 -1.23976 1.92776 0
M  V30 1213 C 109.864 -1.39041 0.807729 0
M  V30 1214 O 111.054 -1.37051 1.0753 0
M  V30 1215 C 108.186 -2.61112 2.19165 0
M  V30 1216 H 109.379 -0.927764 2.85189 0
M  V30 1217 H 106.932 -0.447718 1.4975 0
M  V30 1218 H 107.667 -2.97386 1.29352 0
M  V30 1219 H 107.452 -2.51552 3.00772 0
M  V30 1220 H 108.942 -3.35633 2.48476 0
M  V30 1221 N 109.379 -1.50304 -0.473955 0
M  V30 1222 C 110.609 -1.64663 -1.24778 0
M  V30 1223 C 111.017 -0.328174 -1.86332 0
M  V30 1224 O 110.36 0.699536 -1.69859 0
M  V30 1225 C 110.422 -2.6778 -2.39863 0
M  V30 1226 C 110.086 -4.11413 -1.98969 0
M  V30 1227 C 111.083 -4.97372 -1.51385 0
M  V30 1228 C 108.768 -4.57312 -2.07777 0
M  V30 1229 C 110.762 -6.27277 -1.13148 0
M  V30 1230 C 108.449 -5.87223 -1.69152 0
M  V30 1231 C 109.447 -6.72031 -1.21915 0
M  V30 1232 O 109.135 -7.99518 -0.838237 0
M  V30 1233 H 108.867 -0.556602 -0.383627 0
M  V30 1234 H 111.421 -1.9726 -0.572491 0
M  V30 1235 H 109.651 -2.30419 -3.10554 0
M  V30 1236 H 111.34 -2.71388 -3.01833 0
M  V30 1237 H 112.106 -4.63128 -1.44004 0
M  V30 1238 H 107.985 -3.91449 -2.43493 0
M  V30 1239 H 111.529 -6.93425 -0.762077 0
M  V30 1240 H 107.426 -6.20989 -1.76191 0
M  V30 1241 H 108.194 -8.12764 -0.967339 0
M  V30 1242 N 110.857 0.726932 -1.39834 0
M  V30 1243 C 112.134 1.47902 -1.28001 0
M  V30 1244 C 112.514 2.1083 0.106789 0
M  V30 1245 O 111.862 1.99242 1.11869 0
M  V30 1246 C 112.072 2.52392 -2.41038 0
M  V30 1247 C 113.42 3.18546 -2.80737 0
M  V30 1248 O 114.444 2.62708 -2.40547 0
M  V30 1249 O 113.303 4.19604 -3.50135 0
M  V30 1250 H 110.397 0.657163 -0.502062 0
M  V30 1251 H 112.943 0.760071 -1.51727 0
M  V30 1252 H 111.715 2.04329 -3.33715 0
M  V30 1253 H 111.338 3.31837 -2.19021 0
M  V30 1254 N 112.336 1.25143 0.95797 0
M  V30 1255 C 113.585 1.0909 1.69654 0
M  V30 1256 C 113.898 -0.368548 1.92097 0
M  V30 1257 O 115.104 -0.649455 2.63618 0
M  V30 1258 C 113.56 1.90395 3.05414 0
M  V30 1259 C 113.168 3.4081 2.90779 0
M  V30 1260 C 114.912 1.82901 3.83076 0
M  V30 1261 C 112.819 4.14423 4.21909 0
M  V30 1262 H 111.749 0.404625 0.636235 0
M  V30 1263 H 114.4 1.4931 1.06672 0
M  V30 1264 H 112.782 1.42996 3.69281 0
M  V30 1265 H 113.956 3.95859 2.35865 0
M  V30 1266 H 112.271 3.49361 2.26575 0
M  V30 1267 H 114.868 2.35196 4.80195 0
M  V30 1268 H 115.211 0.796224 4.08615 0
M  V30 1269 H 115.744 2.28033 3.25954 0
M  V30 1270 H 112.483 5.18102 4.01561 0
M  V30 1271 H 112.003 3.64159 4.76601 0
M  V30 1272 H 113.682 4.21956 4.90471 0
M  V30 1273 N 113.814 -1.1601 1.06675 0
M  V30 1274 C 115.042 -1.90527 0.806667 0
M  V30 1275 C 115.457 -1.77643 -0.639396 0
M  V30 1276 O 114.814 -1.12369 -1.43803 0
M  V30 1277 C 114.865 -3.41106 1.19705 0
M  V30 1278 O 114.586 -3.53608 2.58636 0
M  V30 1279 C 116.087 -4.32663 0.965266 0
M  V30 1280 H 113.307 -0.604053 0.292166 0
M  V30 1281 H 115.851 -1.47026 1.4214 0
M  V30 1282 H 114.006 -3.82296 0.626774 0
M  V30 1283 H 114.42 -4.47011 2.74375 0
M  V30 1284 H 115.894 -5.36763 1.288 0
M  V30 1285 H 116.371 -4.39089 -0.0987936 0
M  V30 1286 H 116.977 -3.97206 1.52011 0
M  V30 1287 N 115.292 -0.849877 -1.32721 0
M  V30 1288 C 116.225 -0.235903 -2.26977 0
M  V30 1289 C 117.203 0.623355 -1.50177 0
M  V30 1290 O 118.387 0.581207 -1.79316 0
M  V30 1291 C 115.514 0.667712 -3.32053 0
M  V30 1292 C 114.56 -0.11753 -4.26338 0
M  V30 1293 S 115.393 -1.48277 -5.14562 0
M  V30 1294 C 116.549 -0.584741 -6.23163 0
M  V30 1295 H 116.782 -1.03495 -2.78704 0
M  V30 1296 H 114.315 -0.64724 -1.40179 0
M  V30 1297 H 116.273 1.18343 -3.93072 0
M  V30 1298 H 114.934 1.44052 -2.7912 0
M  V30 1299 H 114.127 0.57051 -5.00761 0
M  V30 1300 H 113.729 -0.564668 -3.69713 0
M  V30 1301 H 116.021 0.212968 -6.77165 0
M  V30 1302 H 116.964 -1.29947 -6.96074 0
M  V30 1303 H 117.372 -0.161202 -5.6427 0
M  V30 1304 N 116.77 1.45427 -0.607355 0
M  V30 1305 C 118.016 2.0254 -0.102607 0
M  V30 1306 C 118.349 1.47478 1.26348 0
M  V30 1307 O 117.624 0.64939 1.83339 0
M  V30 1308 C 117.907 3.60044 -0.0634347 0
M  V30 1309 C 117.76 4.2544 -1.46017 0
M  V30 1310 C 119.079 4.35646 0.624514 0
M  V30 1311 H 116.198 0.73598 -0.0387607 0
M  V30 1312 H 118.84 1.73284 -0.779282 0
M  V30 1313 H 116.99 3.85101 0.512808 0
M  V30 1314 H 118.662 4.11569 -2.08347 0
M  V30 1315 H 116.905 3.83849 -2.02094 0
M  V30 1316 H 117.576 5.34342 -1.385 0
M  V30 1317 H 120.052 4.15882 0.134723 0
M  V30 1318 H 118.928 5.45376 0.621028 0
M  V30 1319 H 119.189 4.08501 1.69055 0
M  V30 1320 N 118.248 0.346503 1.53744 0
M  V30 1321 C 119.659 -0.136779 1.86198 0
M  V30 1322 C 120.01 -1.49749 1.26766 0
M  V30 1323 O 119.135 -2.08417 0.582355 0
M  V30 1324 C 119.73 -0.254966 3.37839 0
M  V30 1325 C 118.289 -0.682482 3.70161 0
M  V30 1326 C 117.436 0.181981 2.76702 0
M  V30 1327 H 120.387 0.565994 1.48264 0
M  V30 1328 H 120.408 -1.08195 3.64793 0
M  V30 1329 H 119.92 0.735526 3.81066 0
M  V30 1330 H 118.021 -1.68189 3.3248 0
M  V30 1331 H 118.134 -0.470326 4.76786 0
M  V30 1332 H 116.498 -0.34615 2.52337 0
M  V30 1333 H 117.281 1.16966 3.2276 0
M  V30 1334 N 119.726 -1.57421 0.075193 0
M  V30 1335 C 120.673 -2.12915 -0.890843 0
M  V30 1336 C 121.643 -1.04252 -1.29309 0
M  V30 1337 O 122.828 -1.31933 -1.37834 0
M  V30 1338 C 119.968 -2.69795 -2.15186 0
M  V30 1339 C 119.081 -3.92624 -1.80194 0
M  V30 1340 C 118.216 -4.37736 -3.00933 0
M  V30 1341 C 117.255 -5.53205 -2.61974 0
M  V30 1342 N 116.392 -5.9326 -3.75483 0
M  V30 1343 H 121.232 -2.95156 -0.410735 0
M  V30 1344 H 118.769 -1.45854 -0.191086 0
M  V30 1345 H 120.727 -3.00883 -2.89008 0
M  V30 1346 H 119.357 -1.90313 -2.60731 0
M  V30 1347 H 118.409 -3.67977 -0.964218 0
M  V30 1348 H 119.721 -4.76482 -1.47534 0
M  V30 1349 H 118.875 -4.70503 -3.8303 0
M  V30 1350 H 117.614 -3.52739 -3.36789 0
M  V30 1351 H 116.619 -5.20086 -1.783 0
M  V30 1352 H 117.844 -6.39936 -2.27284 0
M  V30 1353 H 115.79 -5.11212 -4.11094 0
M  V30 1354 H 115.707 -6.71865 -3.46602 0
M  V30 1355 H 116.975 -6.30651 -4.58148 0
M  V30 1356 N 121.204 0.198386 -1.56346 0
M  V30 1357 C 122.114 1.2664 -1.97483 0
M  V30 1358 C 123.13 1.49989 -0.882002 0
M  V30 1359 O 124.306 1.62668 -1.18748 0
M  V30 1360 C 121.371 2.59141 -2.30319 0
M  V30 1361 C 120.432 2.43892 -3.53292 0
M  V30 1362 C 119.665 3.70074 -3.84553 0
M  V30 1363 O 119.888 4.74101 -3.1715 0
M  V30 1364 O 118.822 3.658 -4.7799 0
M  V30 1365 H 122.648 0.947304 -2.88548 0
M  V30 1366 H 120.233 0.403123 -1.43859 0
M  V30 1367 H 122.115 3.37352 -2.5253 0
M  V30 1368 H 120.79 2.90684 -1.42423 0
M  V30 1369 H 119.697 1.63803 -3.36332 0
M  V30 1370 H 121.03 2.17282 -4.41644 0
M  V30 1371 N 122.682 1.50554 0.465978 0
M  V30 1372 C 123.928 1.62038 1.21949 0
M  V30 1373 C 124.261 0.322116 1.9151 0
M  V30 1374 O 123.536 -0.676723 1.82348 0
M  V30 1375 C 123.819 2.80421 2.25912 0
M  V30 1376 C 123.672 4.20144 1.60622 0
M  V30 1377 C 124.991 2.94354 3.27176 0
M  V30 1378 H 122.11 0.589752 0.441998 0
M  V30 1379 H 124.752 1.82956 0.51257 0
M  V30 1380 H 122.902 2.62717 2.86203 0
M  V30 1381 H 124.574 4.49449 1.03889 0
M  V30 1382 H 122.817 4.24165 0.909211 0
M  V30 1383 H 123.488 4.98914 2.36196 0
M  V30 1384 H 125.964 3.10578 2.76913 0
M  V30 1385 H 124.84 3.788 3.97242 0
M  V30 1386 H 125.101 2.05186 3.916 0
M  V30 1387 N 124.16 -0.719506 1.40217 0
M  V30 1388 C 125.07 -1.86378 1.42479 0
M  V30 1389 C 126.086 -1.71073 0.317834 0
M  V30 1390 O 127.262 -1.93406 0.561794 0
M  V30 1391 C 124.327 -3.22136 1.28178 0
M  V30 1392 C 123.388 -3.49723 2.48982 0
M  V30 1393 C 122.621 -4.79004 2.35353 0
M  V30 1394 O 122.844 -5.53821 1.36524 0
M  V30 1395 O 121.778 -5.06839 3.2465 0
M  V30 1396 H 125.604 -1.87425 2.38968 0
M  V30 1397 H 123.189 -0.869405 1.21498 0
M  V30 1398 H 125.071 -4.03234 1.22395 0
M  V30 1399 H 123.746 -3.21825 0.347934 0
M  V30 1400 H 122.653 -2.6865 2.60342 0
M  V30 1401 H 123.986 -3.54828 3.41113 0
M  V30 1402 N 125.638 -1.25649 -0.95132 0
M  V30 1403 C 126.586 -1.06118 -2.06982 0
M  V30 1404 C 127.58 0.00889169 -1.69398 0
M  V30 1405 O 128.786 -0.146988 -1.79399 0
M  V30 1406 H 125.161 -0.326248 -0.677544 0
M  V30 1407 H 127.132 -2.00932 -2.2061 0
M  V30 1408 C 125.881 -0.700145 -3.40578 0
M  V30 1409 H 125.204 -1.51537 -3.69968 0
M  V30 1410 H 126.644 -0.603211 -4.19687 0
M  V30 1411 C 125.103 0.59403 -3.31622 0
M  V30 1412 O 125.633 1.63522 -3.66911 0
M  V30 1413 N 123.839 0.58089 -2.84735 0
M  V30 1414 H 123.386 -0.266783 -2.56215 0
M  V30 1415 H 123.344 1.44695 -2.79125 0
M  V30 1416 N 127.117 1.15442 -1.07289 0
M  V30 1417 C 128.047 2.22312 -0.714107 0
M  V30 1418 C 129.028 1.67467 0.298155 0
M  V30 1419 O 130.213 1.93445 0.171048 0
M  V30 1420 C 127.343 3.47124 -0.110448 0
M  V30 1421 C 126.297 4.14926 -1.04979 0
M  V30 1422 C 125.623 5.33807 -0.308924 0
M  V30 1423 C 126.923 4.64762 -2.38314 0
M  V30 1424 H 128.617 2.5258 -1.6076 0
M  V30 1425 H 126.163 1.21404 -0.77441 0
M  V30 1426 H 128.116 4.21124 0.152482 0
M  V30 1427 H 126.84 3.16187 0.81812 0
M  V30 1428 H 125.499 3.42866 -1.29764 0
M  V30 1429 H 125.147 4.99126 0.623084 0
M  V30 1430 H 124.847 5.80113 -0.935036 0
M  V30 1431 H 126.371 6.10576 -0.0537771 0
M  V30 1432 H 127.785 5.30292 -2.1786 0
M  V30 1433 H 126.182 5.21728 -2.96514 0
M  V30 1434 H 127.252 3.80434 -3.00663 0
M  V30 1435 N 128.595 0.856903 1.32268 0
M  V30 1436 C 129.872 0.382583 1.91822 0
M  V30 1437 C 130.252 -1.13407 1.78051 0
M  V30 1438 O 129.6 -1.95673 1.18001 0
M  V30 1439 C 129.81 0.849446 3.38505 0
M  V30 1440 C 131.158 0.867936 4.15634 0
M  V30 1441 O 132.182 0.794232 3.47232 0
M  V30 1442 O 131.041 0.972286 5.37781 0
M  V30 1443 H 128.135 0.112014 0.819379 0
M  V30 1444 H 130.681 0.943952 1.41024 0
M  V30 1445 H 129.453 1.89267 3.42482 0
M  V30 1446 H 129.076 0.265652 3.96712 0
M  V30 1447 N 130.073 -1.45103 0.615059 0
M  V30 1448 C 131.301 -2.06553 0.11977 0
M  V30 1449 C 131.716 -1.45842 -1.19898 0
M  V30 1450 O 131.073 -0.575325 -1.73194 0
M  V30 1451 C 131.124 -3.61495 -0.018364 0
M  V30 1452 O 130.845 -4.19942 1.24822 0
M  V30 1453 C 132.346 -4.39947 -0.544237 0
M  V30 1454 H 129.566 -0.667096 0.0722739 0
M  V30 1455 H 132.11 -1.8623 0.84491 0
M  V30 1456 H 130.265 -3.81135 -0.693865 0
M  V30 1457 H 130.679 -5.13204 1.0827 0
M  V30 1458 H 132.153 -5.48838 -0.589953 0
M  V30 1459 H 132.63 -4.10255 -1.56805 0
M  V30 1460 H 133.236 -4.25188 0.0974703 0
M  V30 1461 N 131.551 -0.354651 -1.53558 0
M  V30 1462 C 132.481 0.489091 -2.2832 0
M  V30 1463 C 133.462 1.09324 -1.30316 0
M  V30 1464 O 134.647 1.11255 -1.59173 0
M  V30 1465 C 131.777 1.63456 -3.0643 0
M  V30 1466 C 130.731 1.1582 -4.12031 0
M  V30 1467 C 130.057 2.39305 -4.7816 0
M  V30 1468 C 131.357 0.250731 -5.21698 0
M  V30 1469 H 133.051 -0.134614 -2.99097 0
M  V30 1470 H 130.597 -0.0661826 -1.43848 0
M  V30 1471 H 132.55 2.23136 -3.57475 0
M  V30 1472 H 131.274 2.28533 -2.33325 0
M  V30 1473 H 129.933 0.584146 -3.61916 0
M  V30 1474 H 129.581 3.02814 -4.01637 0
M  V30 1475 H 129.281 2.08109 -5.49513 0
M  V30 1476 H 130.805 2.99691 -5.31994 0
M  V30 1477 H 132.219 0.754695 -5.68311 0
M  V30 1478 H 130.616 0.0301468 -6.00092 0
M  V30 1479 H 131.686 -0.710125 -4.79672 0
M  V30 1480 N 133.029 1.57378 -0.0835403 0
M  V30 1481 C 134.306 1.85363 0.624507 0
M  V30 1482 C 134.686 0.978239 1.87066 0
M  V30 1483 O 134.034 0.0475908 2.2845 0
M  V30 1484 C 134.244 3.35795 0.950947 0
M  V30 1485 C 135.592 4.03581 1.31939 0
M  V30 1486 O 136.616 3.40609 1.04232 0
M  V30 1487 O 135.475 5.14672 1.83779 0
M  V30 1488 H 132.569 0.766162 0.311329 0
M  V30 1489 H 135.115 1.69307 -0.115362 0
M  V30 1490 H 133.887 3.91244 0.0663899 0
M  V30 1491 H 133.51 3.57154 1.74719 0
M  V30 1492 N 134.507 -0.190092 1.56449 0
M  V30 1493 C 135.437 -1.23816 1.97969 0
M  V30 1494 C 136.418 -1.47201 0.852395 0
M  V30 1495 O 137.603 -1.58854 1.1171 0
M  V30 1496 C 134.733 -2.5813 2.3235 0
M  V30 1497 C 133.687 -2.49348 3.47864 0
M  V30 1498 C 133.013 -3.8798 3.67934 0
M  V30 1499 C 134.313 -2.01424 4.81898 0
M  V30 1500 H 136.007 -0.89311 2.85769 0
M  V30 1501 H 133.553 -0.428177 1.37487 0
M  V30 1502 H 135.506 -3.31637 2.59991 0
M  V30 1503 H 134.23 -2.94386 1.41438 0
M  V30 1504 H 132.889 -1.78297 3.20321 0
M  V30 1505 H 132.537 -4.21597 2.74344 0
M  V30 1506 H 132.237 -3.82978 4.45648 0
M  V30 1507 H 133.761 -4.63101 3.97957 0
M  V30 1508 H 135.175 -2.64693 5.08538 0
M  V30 1509 H 133.572 -2.07413 5.63116 0
M  V30 1510 H 134.642 -0.967677 4.75146 0
M  V30 1511 N 135.985 -1.50799 -0.457987 0
M  V30 1512 C 137.225 -1.64088 -1.21879 0
M  V30 1513 C 137.589 -0.339848 -1.88968 0
M  V30 1514 O 138.79 -0.348301 -2.66534 0
M  V30 1515 C 137.061 -2.79726 -2.2246 0
M  V30 1516 S 138.62 -3.13225 -3.07303 0
M  V30 1517 H 135.438 -0.578314 -0.41361 0
M  V30 1518 H 138.04 -1.88632 -0.513645 0
M  V30 1519 H 136.744 -3.72722 -1.71775 0
M  V30 1520 H 136.275 -2.57308 -2.97584 0
M  V30 1521 H 138.29 -2.58062 -4.23814 0
M  V30 1522 N 137.463 0.71206 -1.40597 0
M  V30 1523 C 138.395 1.83704 -1.37061 0
M  V30 1524 C 139.408 1.60453 -0.275426 0
M  V30 1525 O 140.597 1.70262 -0.53602 0
M  V30 1526 C 137.697 3.20172 -1.11099 0
M  V30 1527 C 136.87 3.7059 -2.3234 0
M  V30 1528 C 135.929 4.85681 -2.02485 0
M  V30 1529 O 134.955 4.9815 -2.75382 0
M  V30 1530 N 136.157 5.71735 -1.00497 0
M  V30 1531 H 138.922 1.87235 -2.34016 0
M  V30 1532 H 136.483 0.893739 -1.34996 0
M  V30 1533 H 138.475 3.94768 -0.891064 0
M  V30 1534 H 137.045 3.11767 -0.227989 0
M  V30 1535 H 136.265 2.87085 -2.7014 0
M  V30 1536 H 137.553 4.01011 -3.13157 0
M  V30 1537 H 136.951 5.64275 -0.401298 0
M  V30 1538 H 135.508 6.463 -0.844942 0
M  V30 1539 N 138.941 1.26152 0.944643 0
M  V30 1540 C 140.169 1.14259 1.72489 0
M  V30 1541 C 140.584 -0.302555 1.8636 0
M  V30 1542 O 139.941 -1.20741 1.36849 0
M  V30 1543 C 139.992 1.80266 3.13347 0
M  V30 1544 O 139.713 3.19133 3.00143 0
M  V30 1545 C 141.214 1.74283 4.07603 0
M  V30 1546 H 138.434 0.398051 0.540181 0
M  V30 1547 H 140.978 1.66706 1.18446 0
M  V30 1548 H 139.133 1.31766 3.64303 0
M  V30 1549 H 139.547 3.51744 3.89071 0
M  V30 1550 H 141.021 2.25111 5.04013 0
M  V30 1551 H 141.498 0.708631 4.33446 0
M  V30 1552 H 142.104 2.22319 3.62567 0
M  V30 1553 N 140.419 -1.14872 1.07899 0
M  V30 1554 C 141.349 -2.2193 0.725887 0
M  V30 1555 C 142.33 -1.67622 -0.28927 0
M  V30 1556 O 143.515 -1.93533 -0.160787 0
M  V30 1557 C 140.645 -3.47061 0.128856 0
M  V30 1558 C 139.599 -4.14363 1.07178 0
M  V30 1559 C 138.925 -5.33636 0.337229 0
M  V30 1560 C 140.225 -4.63492 2.40775 0
M  V30 1561 H 141.919 -2.51724 1.62097 0
M  V30 1562 H 139.465 -1.20991 0.780838 0
M  V30 1563 H 141.418 -4.21199 -0.130147 0
M  V30 1564 H 140.142 -3.16617 -0.80134 0
M  V30 1565 H 138.801 -3.42173 1.3158 0
M  V30 1566 H 138.449 -4.99449 -0.596606 0
M  V30 1567 H 138.149 -5.79609 0.965788 0
M  V30 1568 H 139.673 -6.10539 0.0861567 0
M  V30 1569 H 141.087 -5.2913 2.20669 0
M  V30 1570 H 139.484 -5.20148 2.99276 0
M  V30 1571 H 140.554 -3.78834 3.02676 0
M  V30 1572 N 141.898 -0.863906 -1.31812 0
M  V30 1573 C 142.846 -0.30422 -2.30602 0
M  V30 1574 C 143.84 0.577419 -1.59255 0
M  V30 1575 O 145.046 0.464194 -1.73912 0
M  V30 1576 H 141.421 -0.0796877 -0.747766 0
M  V30 1577 H 143.392 -1.15148 -2.75288 0
M  V30 1578 C 142.141 0.484617 -3.44306 0
M  V30 1579 H 141.464 -0.18451 -3.99374 0
M  V30 1580 H 142.904 0.841664 -4.15562 0
M  V30 1581 C 141.363 1.6735 -2.92396 0
M  V30 1582 O 141.893 2.77273 -2.90659 0
M  V30 1583 N 140.099 1.50362 -2.48676 0
M  V30 1584 H 139.646 0.609402 -2.50288 0
M  V30 1585 H 139.604 2.30051 -2.14299 0
M  V30 1586 N 143.376 1.44774 -0.622745 0
M  V30 1587 C 144.625 2.01334 -0.121397 0
M  V30 1588 C 144.938 1.49505 1.26125 0
M  V30 1589 O 146.144 1.98139 1.85616 0
M  V30 1590 C 144.6 3.59516 -0.166298 0
M  V30 1591 C 144.208 4.20342 -1.54974 0
M  V30 1592 C 145.952 4.23582 0.279021 0
M  V30 1593 C 143.859 5.70721 -1.55021 0
M  V30 1594 H 142.789 0.752851 -0.0416172 0
M  V30 1595 H 145.44 1.66083 -0.780309 0
M  V30 1596 H 143.822 3.92027 0.559557 0
M  V30 1597 H 144.996 3.99381 -2.29851 0
M  V30 1598 H 143.311 3.68529 -1.93843 0
M  V30 1599 H 145.908 5.33868 0.298083 0
M  V30 1600 H 146.251 3.95327 1.30471 0
M  V30 1601 H 146.784 3.95843 -0.394063 0
M  V30 1602 H 143.523 6.03698 -2.55399 0
M  V30 1603 H 143.043 5.93829 -0.844245 0
M  V30 1604 H 144.722 6.34203 -1.28047 0
M  V30 1605 N 144.854 0.36279 1.53368 0
M  V30 1606 C 146.082 -0.228613 2.05633 0
M  V30 1607 C 146.497 -1.42676 1.23649 0
M  V30 1608 O 145.854 -1.80394 0.27647 0
M  V30 1609 C 145.905 -0.624845 3.56059 0
M  V30 1610 O 145.626 0.525675 4.34935 0
M  V30 1611 C 147.127 -1.27493 4.24571 0
M  V30 1612 H 144.347 -0.0407183 0.669763 0
M  V30 1613 H 146.891 0.520352 1.97769 0
M  V30 1614 H 145.046 -1.32373 3.64083 0
M  V30 1615 H 145.46 0.205969 5.24095 0
M  V30 1616 H 146.934 -1.50277 5.31151 0
M  V30 1617 H 147.411 -2.23439 3.78116 0
M  V30 1618 H 148.017 -0.617558 4.20792 0
M  V30 1619 N 146.332 -1.57332 0.0918853 0
M  V30 1620 C 147.748 -1.57389 -0.264766 0
M  V30 1621 C 147.948 -1.10281 -1.68643 0
M  V30 1622 O 147.004 -0.777801 -2.40222 0
M  V30 1623 C 148.317 -3.00648 -0.0561195 0
M  V30 1624 C 149.865 -3.12754 -0.124116 0
M  V30 1625 C 150.34 -4.57965 0.0564972 0
M  V30 1626 N 151.831 -4.632 0.00155611 0
M  V30 1627 C 152.566 -5.73281 0.116598 0
M  V30 1628 N 152.062 -6.92208 0.286294 0
M  V30 1629 N 153.855 -5.6207 0.0580973 0
M  V30 1630 H 146.006 -1.86262 1.02079 0
M  V30 1631 H 148.269 -0.859579 0.399786 0
M  V30 1632 H 147.975 -3.393 0.925669 0
M  V30 1633 H 147.849 -3.68623 -0.799823 0
M  V30 1634 H 150.236 -2.73976 -1.09641 0
M  V30 1635 H 150.317 -2.47377 0.651024 0
M  V30 1636 H 149.961 -4.97436 1.02564 0
M  V30 1637 H 149.891 -5.21399 -0.738297 0
M  V30 1638 H 152.382 -3.77686 -0.127192 0
M  V30 1639 H 152.695 -7.71934 0.365676 0
M  V30 1640 H 151.04 -6.94254 0.32192 0
M  V30 1641 H 154.231 -4.68043 -0.0733204 0
M  V30 1642 H 154.404 -6.47824 0.151203 0
M  V30 1643 N 147.81 0.181792 -1.56548 0
M  V30 1644 C 148.773 1.20894 -1.94724 0
M  V30 1645 C 149.773 1.37738 -0.829747 0
M  V30 1646 O 150.963 1.35323 -1.09697 0
M  V30 1647 C 148.095 2.57593 -2.23291 0
M  V30 1648 H 149.288 0.882275 -2.86629 0
M  V30 1649 H 146.841 0.423838 -1.50444 0
M  V30 1650 H 147.576 2.95291 -1.34067 0
M  V30 1651 H 147.361 2.46735 -3.04736 0
M  V30 1652 H 148.851 3.31637 -2.53785 0
M  V30 1653 N 149.288 1.51039 0.449983 0
M  V30 1654 C 150.22 1.67617 1.56324 0
M  V30 1655 C 151.233 0.557083 1.52972 0
M  V30 1656 O 152.422 0.830989 1.57977 0
M  V30 1657 C 149.522 1.66402 2.95235 0
M  V30 1658 C 148.695 2.9469 3.23229 0
M  V30 1659 C 147.754 2.85832 4.41799 0
M  V30 1660 O 146.78 3.59785 4.41071 0
M  V30 1661 N 147.982 2.00821 5.44657 0
M  V30 1662 H 150.747 2.63648 1.42512 0
M  V30 1663 H 148.308 1.48767 0.638737 0
M  V30 1664 H 150.3 1.58062 3.72557 0
M  V30 1665 H 148.87 0.780182 3.02708 0
M  V30 1666 H 148.09 3.16996 2.34323 0
M  V30 1667 H 149.378 3.79636 3.38754 0
M  V30 1668 H 148.776 1.40091 5.48079 0
M  V30 1669 H 147.333 1.98368 6.20881 0
M  V30 1670 N 150.766 -0.704594 1.40972 0
M  V30 1671 C 152.013 -1.46458 1.39844 0
M  V30 1672 C 152.341 -1.94499 0.00447594 0
M  V30 1673 O 151.596 -1.69275 -0.982057 0
M  V30 1674 C 151.895 -2.698 2.34399 0
M  V30 1675 C 151.561 -2.40464 3.81429 0
M  V30 1676 C 150.223 -2.32174 4.21484 0
M  V30 1677 C 152.575 -2.16086 4.74296 0
M  V30 1678 C 149.903 -1.97589 5.52427 0
M  V30 1679 C 152.255 -1.83011 6.05549 0
M  V30 1680 C 150.919 -1.7321 6.44635 0
M  V30 1681 H 150.189 -0.535927 0.511725 0
M  V30 1682 H 152.836 -0.806124 1.73706 0
M  V30 1683 H 151.141 -3.40536 1.93759 0
M  V30 1684 H 152.838 -3.27919 2.30804 0
M  V30 1685 H 149.428 -2.47808 3.49699 0
M  V30 1686 H 153.612 -2.2144 4.4416 0
M  V30 1687 H 148.868 -1.88547 5.81601 0
M  V30 1688 H 153.042 -1.63164 6.77016 0
M  V30 1689 H 150.669 -1.46179 7.46013 0
M  V30 1690 N 152.244 -1.26651 -0.937939 0
M  V30 1691 C 153.174 -1.10993 -2.05433 0
M  V30 1692 C 154.155 -0.0142161 -1.70094 0
M  V30 1693 O 155.34 -0.186837 -1.93299 0
M  V30 1694 C 152.47 -0.745561 -3.39203 0
M  V30 1695 C 151.424 -1.79337 -3.88616 0
M  V30 1696 C 150.75 -1.28324 -5.19073 0
M  V30 1697 C 152.05 -3.19553 -4.13138 0
M  V30 1698 H 153.744 -2.0438 -2.1879 0
M  V30 1699 H 151.29 -0.984041 -1.05131 0
M  V30 1700 H 153.243 -0.622888 -4.16771 0
M  V30 1701 H 151.967 0.22401 -3.25831 0
M  V30 1702 H 150.626 -1.90477 -3.13231 0
M  V30 1703 H 150.274 -0.303414 -5.02084 0
M  V30 1704 H 149.974 -1.98369 -5.53103 0
M  V30 1705 H 151.498 -1.1733 -5.99221 0
M  V30 1706 H 152.912 -3.11471 -4.81309 0
M  V30 1707 H 151.309 -3.87218 -4.58457 0
M  V30 1708 H 152.379 -3.65368 -3.18801 0
M  V30 1709 N 153.722 1.14298 -1.08507 0
M  V30 1710 C 154.669 2.19414 -0.715965 0
M  V30 1711 C 155.639 1.63399 0.298326 0
M  V30 1712 O 156.824 1.89929 0.182101 0
M  V30 1713 C 153.964 3.44845 -0.132534 0
M  V30 1714 C 153.077 4.15007 -1.19973 0
M  V30 1715 C 152.212 5.28024 -0.580048 0
M  V30 1716 C 151.251 5.9002 -1.62921 0
M  V30 1717 N 150.388 6.94485 -1.03125 0
M  V30 1718 H 155.228 2.50336 -1.61666 0
M  V30 1719 H 152.765 1.2293 -0.807882 0
M  V30 1720 H 154.723 4.16601 0.223454 0
M  V30 1721 H 153.353 3.14403 0.731467 0
M  V30 1722 H 152.405 3.41629 -1.67313 0
M  V30 1723 H 153.717 4.57178 -1.99473 0
M  V30 1724 H 152.871 6.06455 -0.172364 0
M  V30 1725 H 151.61 4.87076 0.246603 0
M  V30 1726 H 150.615 5.10291 -2.04654 0
M  V30 1727 H 151.84 6.33042 -2.45835 0
M  V30 1728 H 149.786 6.55612 -0.225711 0
M  V30 1729 H 149.703 7.35148 -1.76334 0
M  V30 1730 H 150.971 7.7679 -0.649458 0
M  V30 1731 N 155.201 0.870884 1.31352 0
M  V30 1732 C 156.45 0.478408 1.95944 0
M  V30 1733 C 156.763 -0.974493 1.69597 0
M  V30 1734 O 157.969 -1.47316 2.28058 0
M  V30 1735 C 156.425 0.804609 3.50791 0
M  V30 1736 C 156.033 2.27433 3.85977 0
M  V30 1737 C 157.777 0.480648 4.2177 0
M  V30 1738 C 155.684 2.5429 5.33939 0
M  V30 1739 H 154.614 0.175175 0.733369 0
M  V30 1740 H 157.265 1.06391 1.4951 0
M  V30 1741 H 155.647 0.148347 3.95722 0
M  V30 1742 H 156.821 2.97373 3.52002 0
M  V30 1743 H 155.136 2.56442 3.28065 0
M  V30 1744 H 157.733 0.658519 5.30629 0
M  V30 1745 H 158.076 -0.578979 4.12254 0
M  V30 1746 H 158.609 1.09349 3.82476 0
M  V30 1747 H 155.348 3.58939 5.48491 0
M  V30 1748 H 154.868 1.88945 5.69263 0
M  V30 1749 H 156.547 2.39066 6.01212 0
M  V30 1750 N 156.679 -1.44442 0.630414 0
M  V30 1751 C 157.612 -2.27862 -0.124247 0
M  V30 1752 C 158.59 -1.38495 -0.851931 0
M  V30 1753 O 159.774 -1.67935 -0.856166 0
M  V30 1754 C 156.901 -3.17407 -1.18197 0
M  V30 1755 C 155.947 -4.22875 -0.554892 0
M  V30 1756 S 156.78 -5.31485 0.654489 0
M  V30 1757 C 157.936 -6.246 -0.40326 0
M  V30 1758 H 158.169 -2.91519 0.583435 0
M  V30 1759 H 155.702 -1.48618 0.418565 0
M  V30 1760 H 157.66 -3.69549 -1.78728 0
M  V30 1761 H 156.321 -2.52971 -1.86184 0
M  V30 1762 H 155.514 -4.85542 -1.35148 0
M  V30 1763 H 155.116 -3.73992 -0.0242105 0
M  V30 1764 H 157.408 -6.65375 -1.27602 0
M  V30 1765 H 158.351 -7.07851 0.187813 0
M  V30 1766 H 158.759 -5.59775 -0.728837 0
M  V30 1767 N 158.157 -0.370918 -1.53173 0
M  V30 1768 C 159.382 0.220293 -2.06227 0
M  V30 1769 C 159.807 1.41243 -1.24225 0
M  V30 1770 O 159.165 1.79387 -0.262645 0
M  V30 1771 C 159.213 0.586663 -3.55796 0
M  V30 1772 O 158.317 1.68317 -3.76488 0
M  V30 1773 H 157.658 0.0308099 -0.663285 0
M  V30 1774 H 160.188 -0.533068 -1.97534 0
M  V30 1775 H 160.198 0.85617 -3.98916 0
M  V30 1776 H 158.873 -0.285013 -4.14922 0
M  V30 1777 H 157.45 1.40881 -3.45264 0
M  V30 1778 N 159.635 1.57281 -0.100228 0
M  V30 1779 C 160.912 1.86014 0.604812 0
M  V30 1780 C 161.292 0.998025 1.86018 0
M  V30 1781 O 160.64 0.0718184 2.28387 0
M  V30 1782 C 160.85 3.36784 0.915278 0
M  V30 1783 C 162.198 4.04957 1.27651 0
M  V30 1784 O 163.222 3.41695 1.00613 0
M  V30 1785 O 162.081 5.16593 1.7831 0
M  V30 1786 H 159.175 0.76942 0.303185 0
M  V30 1787 H 161.721 1.69176 -0.133313 0
M  V30 1788 H 160.493 3.91292 0.0248896 0
M  V30 1789 H 160.116 3.58987 1.70921 0
M  V30 1790 N 161.113 -0.173488 1.56642 0
M  V30 1791 C 162.046 -1.24353 1.91342 0
M  V30 1792 C 163.024 -1.4289 0.775965 0
M  V30 1793 O 164.208 -1.57932 1.02907 0
M  V30 1794 C 161.335 -2.60683 2.16245 0
M  V30 1795 C 160.381 -2.58894 3.38934 0
M  V30 1796 S 161.214 -2.0819 4.93373 0
M  V30 1797 C 162.37 -3.46302 5.21369 0
M  V30 1798 H 162.603 -0.947345 2.81803 0
M  V30 1799 H 160.136 -0.377958 1.49703 0
M  V30 1800 H 162.094 -3.39149 2.31275 0
M  V30 1801 H 160.755 -2.87502 1.26496 0
M  V30 1802 H 159.948 -3.59188 3.53553 0
M  V30 1803 H 159.55 -1.88522 3.2301 0
M  V30 1804 H 161.842 -4.42287 5.13214 0
M  V30 1805 H 162.785 -3.3656 6.23003 0
M  V30 1806 H 163.193 -3.42214 4.48943 0
M  V30 1807 N 162.591 -1.51276 -0.441967 0
M  V30 1808 C 163.538 -1.72256 -1.53612 0
M  V30 1809 C 164.508 -0.564164 -1.56225 0
M  V30 1810 O 165.693 -0.798074 -1.73307 0
M  V30 1811 C 162.833 -1.84932 -2.91366 0
M  V30 1812 C 161.946 -3.12459 -2.98317 0
M  V30 1813 C 161.081 -3.15758 -4.27166 0
M  V30 1814 C 160.12 -4.37619 -4.27967 0
M  V30 1815 N 159.257 -4.38493 -5.48333 0
M  V30 1816 H 164.097 -2.65654 -1.35026 0
M  V30 1817 H 161.634 -1.31662 -0.656009 0
M  V30 1818 H 163.592 -1.90263 -3.7129 0
M  V30 1819 H 162.222 -0.949461 -3.08521 0
M  V30 1820 H 161.274 -3.1646 -2.11086 0
M  V30 1821 H 162.586 -4.02382 -2.94771 0
M  V30 1822 H 161.74 -3.19979 -5.15459 0
M  V30 1823 H 160.479 -2.23715 -4.33362 0
M  V30 1824 H 159.484 -4.33579 -3.38067 0
M  V30 1825 H 160.709 -5.30921 -4.23438 0
M  V30 1826 H 158.655 -3.49318 -5.55259 0
M  V30 1827 H 158.572 -5.22219 -5.46647 0
M  V30 1828 H 159.84 -4.469 -6.38671 0
M  V30 1829 N 164.069 0.697108 -1.41344 0
M  V30 1830 C 165.346 1.45154 -1.31109 0
M  V30 1831 C 165.726 2.11009 0.0620449 0
M  V30 1832 O 165.074 2.01571 1.07618 0
M  V30 1833 C 165.284 2.47223 -2.46337 0
M  V30 1834 C 166.632 3.1252 -2.87431 0
M  V30 1835 O 167.656 2.57547 -2.46065 0
M  V30 1836 O 166.515 4.12083 -3.58957 0
M  V30 1837 H 163.609 0.646365 -0.515889 0
M  V30 1838 H 166.155 0.727716 -1.53305 0
M  V30 1839 H 164.927 1.97204 -3.37974 0
M  V30 1840 H 164.55 3.27116 -2.2601 0
M  V30 1841 N 165.547 1.27147 0.931209 0
M  V30 1842 C 166.963 1.04475 1.20653 0
M  V30 1843 C 167.163 -0.223885 2.00252 0
M  V30 1844 O 166.219 -0.930332 2.34736 0
M  V30 1845 C 167.532 2.28209 1.95809 0
M  V30 1846 C 169.08 2.33211 2.08762 0
M  V30 1847 C 169.555 3.56665 2.87323 0
M  V30 1848 N 171.046 3.57201 2.94892 0
M  V30 1849 C 171.781 4.49395 3.56134 0
M  V30 1850 N 171.277 5.51889 4.18796 0
M  V30 1851 N 173.07 4.37026 3.53504 0
M  V30 1852 H 165.221 2.08612 0.399333 0
M  V30 1853 H 167.484 0.917312 0.239253 0
M  V30 1854 H 167.19 3.20538 1.44736 0
M  V30 1855 H 167.064 2.33247 2.96438 0
M  V30 1856 H 169.451 1.41391 2.59023 0
M  V30 1857 H 169.532 2.32178 1.07364 0
M  V30 1858 H 169.176 4.4882 2.37746 0
M  V30 1859 H 169.106 3.54948 3.88998 0
M  V30 1860 H 171.597 2.83074 2.50354 0
M  V30 1861 H 171.91 6.18409 4.63454 0
M  V30 1862 H 170.255 5.55735 4.17353 0
M  V30 1863 H 173.446 3.56166 3.03749 0
M  V30 1864 H 173.619 5.09067 4.00942 0
M  V30 1865 N 167.025 -1.13721 1.09112 0
M  V30 1866 C 168.441 -1.36914 0.820174 0
M  V30 1867 C 168.641 -1.93356 -0.567079 0
M  V30 1868 O 167.697 -2.15093 -1.32255 0
M  V30 1869 C 169.01 -2.3235 1.90877 0
M  V30 1870 C 170.558 -2.45973 1.93562 0
M  V30 1871 C 171.033 -3.44714 3.01556 0
M  V30 1872 N 172.524 -3.52263 3.00775 0
M  V30 1873 C 173.259 -4.28536 3.80978 0
M  V30 1874 N 172.755 -5.07991 4.71081 0
M  V30 1875 N 174.548 -4.23804 3.69251 0
M  V30 1876 H 166.699 -0.754348 1.98553 0
M  V30 1877 H 168.962 -0.3944 0.862063 0
M  V30 1878 H 168.668 -1.98027 2.90651 0
M  V30 1879 H 168.542 -3.32332 1.78424 0
M  V30 1880 H 170.929 -2.79584 0.944286 0
M  V30 1881 H 171.01 -1.45926 2.10093 0
M  V30 1882 H 170.654 -3.11835 4.00901 0
M  V30 1883 H 170.584 -4.44558 2.82269 0
M  V30 1884 H 173.075 -2.95567 2.35475 0
M  V30 1885 H 173.388 -5.63487 5.28869 0
M  V30 1886 H 171.733 -5.07235 4.75119 0
M  V30 1887 H 174.924 -3.60806 2.98222 0
M  V30 1888 H 175.097 -4.82995 4.31995 0
M  V30 1889 N 168.503 -0.877838 -1.30888 0
M  V30 1890 C 169.919 -0.570844 -1.49042 0
M  V30 1891 C 170.119 0.893159 -1.80624 0
M  V30 1892 O 169.175 1.67485 -1.88958 0
M  V30 1893 C 170.488 -1.47784 -2.61878 0
M  V30 1894 C 172.036 -1.48071 -2.75761 0
M  V30 1895 C 172.511 -2.37347 -3.91702 0
M  V30 1896 N 174.002 -2.35271 -3.99001 0
M  V30 1897 C 174.737 -3.01063 -4.88004 0
M  V30 1898 N 174.233 -3.76055 -5.81854 0
M  V30 1899 N 176.026 -2.90332 -4.81315 0
M  V30 1900 H 168.177 -1.82502 -1.0866 0
M  V30 1901 H 170.44 -0.780797 -0.537644 0
M  V30 1902 H 170.146 -2.51993 -2.45341 0
M  V30 1903 H 170.02 -1.18215 -3.58197 0
M  V30 1904 H 172.407 -0.446166 -2.91708 0
M  V30 1905 H 172.488 -1.81668 -1.80085 0
M  V30 1906 H 172.132 -3.40883 -3.76512 0
M  V30 1907 H 172.062 -2.01071 -4.86701 0
M  V30 1908 H 174.553 -1.80768 -3.3186 0
M  V30 1909 H 174.866 -4.23366 -6.46514 0
M  V30 1910 H 173.211 -3.80163 -5.81808 0
M  V30 1911 H 176.402 -2.31278 -4.06974 0
M  V30 1912 H 176.575 -3.41885 -5.50471 0
M  V30 1913 N 169.982 1.44106 -0.638065 0
M  V30 1914 C 170.93 2.3248 0.0748149 0
M  V30 1915 C 171.924 1.47746 0.828702 0
M  V30 1916 O 173.13 1.64049 0.740816 0
M  V30 1917 H 169.505 0.750771 0.0429686 0
M  V30 1918 H 171.476 2.90348 -0.688504 0
M  V30 1919 C 170.225 3.31843 1.03805 0
M  V30 1920 H 169.548 3.97059 0.467375 0
M  V30 1921 H 170.988 3.96345 1.50622 0
M  V30 1922 C 169.447 2.61291 2.1267 0
M  V30 1923 O 169.977 2.41702 3.20847 0
M  V30 1924 N 168.183 2.20915 1.88798 0
M  V30 1925 H 167.73 2.37047 1.00829 0
M  V30 1926 H 167.688 1.74038 2.61836 0
M  V30 1927 N 171.46 0.379036 1.52974 0
M  V30 1928 C 172.871 -0.0972525 1.86447 0
M  V30 1929 C 173.222 -1.47027 1.29914 0
M  V30 1930 O 172.347 -2.07135 0.626433 0
M  V30 1931 C 172.942 -0.183248 3.38304 0
M  V30 1932 C 171.501 -0.603812 3.71525 0
M  V30 1933 C 170.648 0.240632 2.76254 0
M  V30 1934 H 173.599 0.597316 1.4703 0
M  V30 1935 H 173.62 -1.00432 3.67006 0
M  V30 1936 H 173.132 0.816191 3.79421 0
M  V30 1937 H 171.233 -1.61099 3.35973 0
M  V30 1938 H 171.346 -0.369086 4.77676 0
M  V30 1939 H 169.71 -0.292548 2.53014 0
M  V30 1940 H 170.493 1.23786 3.20206 0
M  V30 1941 N 172.938 -1.57226 0.108567 0
M  V30 1942 C 174.186 -1.94448 -0.550853 0
M  V30 1943 C 174.507 -0.992074 -1.67878 0
M  V30 1944 O 173.777 -0.0465 -1.95845 0
M  V30 1945 H 172.357 -0.717897 -0.206479 0
M  V30 1946 H 175.019 -1.94112 0.175062 0
M  V30 1947 H 174.115 -2.97218 -0.952259 0
M  V30 1948 N 174.416 0.165178 -1.56732 0
M  V30 1949 C 175.646 0.894919 -1.86212 0
M  V30 1950 C 176.054 1.76066 -0.692627 0
M  V30 1951 O 175.397 1.80387 0.347303 0
M  V30 1952 C 175.459 1.8174 -3.10179 0
M  V30 1953 C 175.123 1.13064 -4.42793 0
M  V30 1954 C 176.12 0.493169 -5.17556 0
M  V30 1955 C 173.805 1.12556 -4.89527 0
M  V30 1956 C 175.799 -0.140209 -6.37246 0
M  V30 1957 C 173.486 0.488366 -6.09145 0
M  V30 1958 C 174.484 -0.143411 -6.82849 0
M  V30 1959 O 174.172 -0.77055 -8.00199 0
M  V30 1960 H 173.904 0.265114 -0.621844 0
M  V30 1961 H 176.458 0.168242 -2.0471 0
M  V30 1962 H 174.688 2.58455 -2.87642 0
M  V30 1963 H 176.377 2.4175 -3.26055 0
M  V30 1964 H 177.143 0.489023 -4.82528 0
M  V30 1965 H 173.022 1.60672 -4.32094 0
M  V30 1966 H 176.566 -0.633932 -6.94714 0
M  V30 1967 H 172.463 0.490116 -6.43637 0
M  V30 1968 H 173.231 -0.670408 -8.1575 0
M  V30 1969 N 175.894 1.51508 0.433938 0
M  V30 1970 C 177.119 1.68443 1.21003 0
M  V30 1971 C 177.544 0.382636 1.84167 0
M  V30 1972 O 176.902 -0.65755 1.68956 0
M  V30 1973 C 176.95 2.80405 2.26727 0
M  V30 1974 O 176.054 2.44245 3.32292 0
M  V30 1975 H 175.395 0.561536 0.354363 0
M  V30 1976 H 177.925 1.9809 0.512024 0
M  V30 1977 H 177.935 3.0459 2.71457 0
M  V30 1978 H 176.61 3.74867 1.80132 0
M  V30 1979 H 175.187 2.30644 2.93015 0
M  V30 1980 N 177.372 -0.689602 1.41712 0
M  V30 1981 C 178.788 -1.00093 1.24312 0
M  V30 1982 C 178.988 -2.01036 0.136729 0
M  V30 1983 O 178.044 -2.47562 -0.496918 0
M  V30 1984 C 179.357 -1.51985 2.59463 0
M  V30 1985 C 180.905 -1.63838 2.66695 0
M  V30 1986 C 181.38 -2.1913 4.02177 0
M  V30 1987 N 182.871 -2.26483 4.04054 0
M  V30 1988 C 183.606 -2.70306 5.0569 0
M  V30 1989 N 183.102 -3.13691 6.17713 0
M  V30 1990 N 184.895 -2.69923 4.9305 0
M  V30 1991 H 177.046 -0.0210029 2.1239 0
M  V30 1992 H 179.309 -0.0718733 0.945272 0
M  V30 1993 H 179.015 -0.85269 3.41207 0
M  V30 1994 H 178.889 -2.50103 2.82362 0
M  V30 1995 H 181.276 -2.29664 1.85306 0
M  V30 1996 H 181.357 -0.642492 2.476 0
M  V30 1997 H 181.001 -1.53918 4.84016 0
M  V30 1998 H 180.931 -3.19482 4.18615 0
M  V30 1999 H 183.422 -1.95874 3.23174 0
M  V30 2000 H 183.735 -3.45773 6.9113 0
M  V30 2001 H 182.08 -3.11585 6.21241 0
M  V30 2002 H 185.271 -2.35382 4.04614 0
M  V30 2003 H 185.444 -3.03758 5.72394 0
M  V30 2004 N 178.85 -1.27639 -0.924453 0
M  V30 2005 C 180.08 -1.16819 -1.70402 0
M  V30 2006 C 180.488 0.277191 -1.87158 0
M  V30 2007 O 179.831 1.20025 -1.39067 0
M  V30 2008 C 179.893 -1.78305 -3.12166 0
M  V30 2009 C 179.557 -3.27502 -3.18734 0
M  V30 2010 C 180.554 -4.2409 -3.00738 0
M  V30 2011 C 178.239 -3.68269 -3.4159 0
M  V30 2012 C 180.233 -5.59422 -3.05492 0
M  V30 2013 C 177.92 -5.0373 -3.45977 0
M  V30 2014 C 178.918 -5.99116 -3.27946 0
M  V30 2015 O 178.606 -7.32108 -3.32074 0
M  V30 2016 H 178.338 -0.406931 -0.539799 0
M  V30 2017 H 180.892 -1.69078 -1.16626 0
M  V30 2018 H 179.122 -1.20528 -3.67437 0
M  V30 2019 H 180.811 -1.62154 -3.72103 0
M  V30 2020 H 181.577 -3.93931 -2.82919 0
M  V30 2021 H 177.456 -2.94496 -3.54673 0
M  V30 2022 H 181 -6.33852 -2.91337 0
M  V30 2023 H 176.897 -5.33543 -3.63321 0
M  V30 2024 H 177.665 -7.40598 -3.48507 0
M  V30 2025 N 180.328 1.1314 -1.09713 0
M  V30 2026 C 181.556 1.88321 -0.856898 0
M  V30 2027 C 181.971 1.79276 0.592073 0
M  V30 2028 O 181.328 1.16142 1.40774 0
M  V30 2029 C 181.379 3.37812 -1.28706 0
M  V30 2030 O 181.1 3.46627 -2.67921 0
M  V30 2031 C 182.601 4.29952 -1.07964 0
M  V30 2032 H 179.821 0.596094 -0.308079 0
M  V30 2033 H 182.365 1.43205 -1.45988 0
M  V30 2034 H 180.52 3.805 -0.727912 0
M  V30 2035 H 180.934 4.39579 -2.8613 0
M  V30 2036 H 182.408 5.33159 -1.42986 0
M  V30 2037 H 182.885 4.39196 -0.0176577 0
M  V30 2038 H 183.491 3.93036 -1.62489 0
M  V30 2039 N 181.806 0.884767 1.30421 0
M  V30 2040 C 182.754 0.340869 2.30089 0
M  V30 2041 C 183.748 -0.55201 1.60154 0
M  V30 2042 O 184.954 -0.436467 1.74628 0
M  V30 2043 H 181.329 0.0915739 0.746404 0
M  V30 2044 H 183.3 1.19513 2.73421 0
M  V30 2045 C 182.049 -0.429779 3.45034 0
M  V30 2046 H 181.372 0.248024 3.9903 0
M  V30 2047 H 182.812 -0.775445 4.16849 0
M  V30 2048 C 181.271 -1.62677 2.95022 0
M  V30 2049 O 181.801 -2.72614 2.95033 0
M  V30 2050 N 180.007 -1.46387 2.51036 0
M  V30 2051 H 179.554 -0.569506 2.51226 0
M  V30 2052 H 179.512 -2.26612 2.17932 0
M  V30 2053 N 183.284 -1.43765 0.645699 0
M  V30 2054 C 184.216 -2.29027 -0.0890605 0
M  V30 2055 C 185.229 -1.42093 -0.794563 0
M  V30 2056 O 186.418 -1.66104 -0.653575 0
M  V30 2057 C 183.518 -3.18831 -1.14891 0
M  V30 2058 C 182.691 -4.34261 -0.523043 0
M  V30 2059 C 181.75 -5.04994 -1.47878 0
M  V30 2060 O 180.776 -5.6052 -0.990277 0
M  V30 2061 N 181.978 -5.07795 -2.81291 0
M  V30 2062 H 184.743 -2.92727 0.64272 0
M  V30 2063 H 182.304 -1.54373 0.487924 0
M  V30 2064 H 184.296 -3.63015 -1.78892 0
M  V30 2065 H 182.866 -2.56782 -1.78275 0
M  V30 2066 H 182.086 -3.93088 0.295896 0
M  V30 2067 H 183.374 -5.08728 -0.0858147 0
M  V30 2068 H 182.772 -4.64042 -3.23546 0
M  V30 2069 H 181.329 -5.55721 -3.40614 0
M  V30 2070 N 184.763 -0.387143 -1.52771 0
M  V30 2071 C 186.009 0.196025 -2.0185 0
M  V30 2072 C 186.342 1.46641 -1.27319 0
M  V30 2073 O 185.617 1.90889 -0.373032 0
M  V30 2074 C 185.9 0.466136 -3.5707 0
M  V30 2075 C 185.753 -0.819385 -4.42274 0
M  V30 2076 C 187.072 1.25768 -4.21747 0
M  V30 2077 H 184.191 0.0697708 -0.73369 0
M  V30 2078 H 186.833 -0.516286 -1.82851 0
M  V30 2079 H 184.983 1.07293 -3.7339 0
M  V30 2080 H 186.655 -1.4563 -4.37709 0
M  V30 2081 H 184.898 -1.43517 -4.09372 0
M  V30 2082 H 185.569 -0.585065 -5.48891 0
M  V30 2083 H 188.045 0.744167 -4.09391 0
M  V30 2084 H 186.921 1.41541 -5.30337 0
M  V30 2085 H 187.182 2.27228 -3.79236 0
M  V30 2086 N 186.241 1.57166 -0.116904 0
M  V30 2087 C 187.488 1.95123 0.541603 0
M  V30 2088 C 187.816 1.00006 1.6682 0
M  V30 2089 O 187.071 0.0235658 1.95686 0
M  V30 2090 C 187.37 3.39508 1.11664 0
M  V30 2091 C 187.036 4.50762 0.111606 0
M  V30 2092 C 185.698 4.80918 -0.164758 0
M  V30 2093 C 188.05 5.18036 -0.573438 0
M  V30 2094 C 185.378 5.75666 -1.13249 0
M  V30 2095 C 187.73 6.13824 -1.52978 0
M  V30 2096 C 186.394 6.42374 -1.81415 0
M  V30 2097 H 185.664 0.714005 0.198187 0
M  V30 2098 H 188.311 1.9048 -0.197365 0
M  V30 2099 H 186.616 3.40835 1.93232 0
M  V30 2100 H 188.313 3.66189 1.63422 0
M  V30 2101 H 184.903 4.27272 0.337192 0
M  V30 2102 H 189.087 4.94896 -0.373092 0
M  V30 2103 H 184.343 5.96092 -1.35958 0
M  V30 2104 H 188.517 6.65039 -2.06629 0
M  V30 2105 H 186.144 7.15599 -2.56557 0
M  V30 2106 N 187.719 -0.156864 1.56817 0
M  V30 2107 C 188.652 -1.22316 1.9265 0
M  V30 2108 C 189.63 -1.42059 0.791076 0
M  V30 2109 O 190.814 -1.56831 1.04576 0
M  V30 2110 C 187.941 -2.58375 2.18998 0
M  V30 2111 C 186.987 -2.55284 3.41661 0
M  V30 2112 S 187.82 -2.02946 4.95553 0
M  V30 2113 C 188.976 -3.40753 5.25013 0
M  V30 2114 H 189.209 -0.917403 2.82791 0
M  V30 2115 H 186.742 -0.362059 1.50095 0
M  V30 2116 H 188.7 -3.36677 2.34859 0
M  V30 2117 H 187.361 -2.86145 1.29538 0
M  V30 2118 H 186.554 -3.55418 3.57343 0
M  V30 2119 H 186.156 -1.85086 3.24991 0
M  V30 2120 H 188.448 -4.36819 5.17876 0
M  V30 2121 H 189.391 -3.29933 6.26538 0
M  V30 2122 H 189.799 -3.37433 4.52548 0
M  V30 2123 N 189.197 -1.51736 -0.425897 0
M  V30 2124 C 190.422 -1.69082 -1.20108 0
M  V30 2125 C 190.847 -0.392398 -1.83962 0
M  V30 2126 O 190.205 0.64858 -1.69302 0
M  V30 2127 C 190.253 -2.81604 -2.25237 0
M  V30 2128 O 189.357 -2.46004 -3.30992 0
M  V30 2129 H 188.698 -0.563408 -0.35138 0
M  V30 2130 H 191.228 -1.98358 -0.501512 0
M  V30 2131 H 191.238 -3.06025 -2.69838 0
M  V30 2132 H 189.913 -3.75817 -1.78142 0
M  V30 2133 H 188.49 -2.32195 -2.91787 0
M  V30 2134 N 190.675 0.682077 -1.42076 0
M  V30 2135 C 191.607 1.80755 -1.40926 0
M  V30 2136 C 192.62 1.59833 -0.309398 0
M  V30 2137 O 193.809 1.69087 -0.572014 0
M  V30 2138 C 190.909 3.17744 -1.17865 0
M  V30 2139 C 190.082 3.65578 -2.40149 0
M  V30 2140 C 189.141 4.81277 -2.12742 0
M  V30 2141 O 188.167 4.92197 -2.85887 0
M  V30 2142 N 189.369 5.69474 -1.12602 0
M  V30 2143 H 192.134 1.82229 -2.37935 0
M  V30 2144 H 189.695 0.864903 -1.36861 0
M  V30 2145 H 191.687 3.9279 -0.9746 0
M  V30 2146 H 190.257 3.11214 -0.294068 0
M  V30 2147 H 189.477 2.81291 -2.76169 0
M  V30 2148 H 190.765 3.94278 -3.21593 0
M  V30 2149 H 190.163 5.63297 -0.520899 0
M  V30 2150 H 188.72 6.44363 -0.981842 0
M  V30 2151 N 192.153 1.28127 0.917671 0
M  V30 2152 C 193.083 1.14248 2.03641 0
M  V30 2153 C 194.064 0.0412748 1.7005 0
M  V30 2154 O 195.249 0.217566 1.92977 0
M  V30 2155 C 192.379 0.799431 3.37974 0
M  V30 2156 C 191.333 1.85497 3.85713 0
M  V30 2157 C 190.659 1.36565 5.16966 0
M  V30 2158 C 191.959 3.26085 4.08002 0
M  V30 2159 H 193.653 2.07835 2.15511 0
M  V30 2160 H 191.199 1.00064 1.03553 0
M  V30 2161 H 193.152 0.689114 4.15727 0
M  V30 2162 H 191.876 -0.172145 3.26146 0
M  V30 2163 H 190.535 1.95437 3.10161 0
M  V30 2164 H 190.183 0.383253 5.01538 0
M  V30 2165 H 189.883 2.07143 5.49878 0
M  V30 2166 H 191.407 1.26848 5.97279 0
M  V30 2167 H 192.821 3.19089 4.76293 0
M  V30 2168 H 191.218 3.94462 4.52238 0
M  V30 2169 H 192.288 3.70394 3.12948 0
M  V30 2170 N 193.631 -1.12557 1.10312 0
M  V30 2171 C 194.856 -1.88405 0.867085 0
M  V30 2172 C 195.281 -1.79038 -0.576817 0
M  V30 2173 O 194.639 -1.14439 -1.40618 0
M  V30 2174 C 194.687 -3.3563 1.31851 0
M  V30 2175 O 193.791 -4.09565 0.482734 0
M  V30 2176 H 193.132 -0.585455 0.313271 0
M  V30 2177 H 195.662 -1.42352 1.4696 0
M  V30 2178 H 195.672 -3.86469 1.3079 0
M  V30 2179 H 194.347 -3.41765 2.37001 0
M  V30 2180 H 192.924 -3.68695 0.558448 0
M  V30 2181 N 195.109 -0.891671 -1.2995 0
M  V30 2182 C 196.072 -0.36828 -2.26222 0
M  V30 2183 C 197.072 0.493014 -1.53056 0
M  V30 2184 O 198.262 0.299213 -1.71611 0
M  V30 2185 C 195.394 0.47442 -3.37583 0
M  V30 2186 H 196.587 -1.21844 -2.74033 0
M  V30 2187 H 194.14 -0.669107 -1.41254 0
M  V30 2188 H 194.875 1.34489 -2.95099 0
M  V30 2189 H 194.66 -0.142615 -3.91841 0
M  V30 2190 H 196.15 0.83218 -4.09224 0
M  V30 2191 N 196.587 1.43421 -0.653314 0
M  V30 2192 C 197.497 2.34568 0.0388565 0
M  V30 2193 C 198.513 1.53888 0.81207 0
M  V30 2194 O 199.689 1.86539 0.759294 0
M  V30 2195 C 196.754 3.32167 0.993269 0
M  V30 2196 C 195.815 4.28751 0.216977 0
M  V30 2197 C 195.048 5.21688 1.12593 0
M  V30 2198 O 195.271 5.19052 2.36519 0
M  V30 2199 O 194.205 5.98919 0.598284 0
M  V30 2200 H 198.031 2.95251 -0.711386 0
M  V30 2201 H 195.616 1.43564 -0.413502 0
M  V30 2202 H 197.498 3.92183 1.54176 0
M  V30 2203 H 196.173 2.73987 1.72374 0
M  V30 2204 H 195.08 3.72215 -0.375101 0
M  V30 2205 H 196.413 4.89913 -0.473924 0
M  V30 2206 N 198.065 0.39524 1.52563 0
M  V30 2207 C 198.975 -0.444232 2.30356 0
M  V30 2208 C 199.991 -1.06615 1.37511 0
M  V30 2209 O 201.167 -1.07067 1.70583 0
M  V30 2210 C 198.232 -1.55315 3.09964 0
M  V30 2211 C 197.293 -0.955734 4.18526 0
M  V30 2212 C 196.526 -2.01181 4.9433 0
M  V30 2213 O 196.749 -3.22781 4.70285 0
M  V30 2214 O 195.683 -1.62579 5.79527 0
M  V30 2215 H 199.509 0.189667 3.03107 0
M  V30 2216 H 197.094 0.1588 1.48554 0
M  V30 2217 H 198.976 -2.19724 3.59582 0
M  V30 2218 H 197.651 -2.17191 2.4002 0
M  V30 2219 H 196.558 -0.274743 3.7309 0
M  V30 2220 H 197.891 -0.381109 4.90722 0
M  V30 2221 N 199.544 -1.57102 0.125237 0
M  V30 2222 C 200.784 -1.97294 -0.534259 0
M  V30 2223 C 201.148 -1.0074 -1.63449 0
M  V30 2224 O 202.349 -1.29893 -2.35332 0
M  V30 2225 C 200.62 -3.41705 -1.04748 0
M  V30 2226 S 202.179 -4.03913 -1.71463 0
M  V30 2227 H 198.997 -0.689517 -0.173458 0
M  V30 2228 H 201.599 -1.94349 0.211797 0
M  V30 2229 H 200.303 -4.09723 -0.235649 0
M  V30 2230 H 199.834 -3.48315 -1.82867 0
M  V30 2231 H 201.849 -3.95182 -3.00077 0
M  V30 2232 N 201.022 0.148545 -1.56898 0
M  V30 2233 C 202.27 0.859717 -1.82902 0
M  V30 2234 C 202.591 1.81775 -0.70588 0
M  V30 2235 O 201.861 1.93994 0.272586 0
M  V30 2236 H 200.441 0.320469 -0.674766 0
M  V30 2237 H 203.103 0.142918 -1.94375 0
M  V30 2238 H 202.199 1.4229 -2.77777 0
M  V30 2239 N 202.5 1.5196 0.417844 0
M  V30 2240 C 203.746 1.65836 1.16732 0
M  V30 2241 C 204.079 0.382881 1.90388 0
M  V30 2242 O 203.354 -0.618368 1.84408 0
M  V30 2243 C 203.637 2.87466 2.16876 0
M  V30 2244 C 203.49 4.25041 1.47174 0
M  V30 2245 C 204.809 3.04613 3.17646 0
M  V30 2246 H 201.928 0.603515 0.423011 0
M  V30 2247 H 204.57 1.84494 0.454105 0
M  V30 2248 H 202.72 2.71689 2.777 0
M  V30 2249 H 204.392 4.52527 0.895376 0
M  V30 2250 H 202.635 4.26843 0.773806 0
M  V30 2251 H 203.306 5.06176 2.20204 0
M  V30 2252 H 205.782 3.1923 2.66892 0
M  V30 2253 H 204.658 3.91247 3.8499 0
M  V30 2254 H 204.919 2.17541 3.84874 0
M  V30 2255 N 203.978 -0.674533 1.42435 0
M  V30 2256 C 205.225 -1.43459 1.42919 0
M  V30 2257 C 205.553 -1.94446 0.0457312 0
M  V30 2258 O 204.808 -1.7132 -0.94593 0
M  V30 2259 C 205.107 -2.64767 2.40069 0
M  V30 2260 C 204.773 -2.3232 3.86443 0
M  V30 2261 C 203.435 -2.23182 4.26314 0
M  V30 2262 C 205.787 -2.05977 4.78773 0
M  V30 2263 C 203.115 -1.85827 5.56494 0
M  V30 2264 C 205.467 -1.70125 6.09295 0
M  V30 2265 C 204.131 -1.59498 6.48164 0
M  V30 2266 H 203.401 -0.524952 0.522978 0
M  V30 2267 H 206.048 -0.769097 1.75377 0
M  V30 2268 H 204.353 -3.36349 2.00939 0
M  V30 2269 H 206.05 -3.22949 2.37707 0
M  V30 2270 H 202.64 -2.40334 3.54877 0
M  V30 2271 H 206.824 -2.11969 4.48757 0
M  V30 2272 H 202.08 -1.76168 5.8547 0
M  V30 2273 H 206.254 -1.48767 6.80324 0
M  V30 2274 H 203.881 -1.30322 7.48946 0
M  V30 2275 N 205.456 -1.28612 -0.910864 0
M  V30 2276 C 206.388 -1.08589 -2.01844 0
M  V30 2277 C 207.401 -0.0367419 -1.62759 0
M  V30 2278 O 208.59 -0.280101 -1.76289 0
M  V30 2279 C 205.69 -0.628626 -3.33019 0
M  V30 2280 C 204.863 -1.75382 -4.00699 0
M  V30 2281 C 203.922 -1.28945 -5.10156 0
M  V30 2282 O 202.948 -1.9922 -5.33198 0
M  V30 2283 N 204.15 -0.154224 -5.80295 0
M  V30 2284 H 206.915 -2.03973 -2.19579 0
M  V30 2285 H 204.476 -1.20403 -1.08234 0
M  V30 2286 H 206.468 -0.301508 -4.03575 0
M  V30 2287 H 205.038 0.232451 -3.11735 0
M  V30 2288 H 204.258 -2.25039 -3.23653 0
M  V30 2289 H 205.546 -2.50854 -4.42662 0
M  V30 2290 H 204.944 0.43194 -5.64049 0
M  V30 2291 H 203.501 0.113599 -6.51701 0
M  V30 2292 N 206.934 1.1197 -1.10907 0
M  V30 2293 C 207.844 2.21433 -0.774896 0
M  V30 2294 C 208.86 1.72478 0.229657 0
M  V30 2295 O 210.036 2.01288 0.0672008 0
M  V30 2296 C 207.101 3.4602 -0.216986 0
M  V30 2297 C 206.162 4.09791 -1.27944 0
M  V30 2298 C 205.395 5.28431 -0.748055 0
M  V30 2299 O 205.618 5.68823 0.423833 0
M  V30 2300 O 204.552 5.82644 -1.51027 0
M  V30 2301 H 208.378 2.5242 -1.68873 0
M  V30 2302 H 205.963 1.20399 -0.884555 0
M  V30 2303 H 207.845 4.21304 0.090059 0
M  V30 2304 H 206.52 3.16698 0.669633 0
M  V30 2305 H 205.427 3.36265 -1.63941 0
M  V30 2306 H 206.76 4.4328 -2.13925 0
M  V30 2307 N 208.412 0.89855 1.29475 0
M  V30 2308 C 209.359 0.373819 2.27753 0
M  V30 2309 C 210.329 -0.543444 1.56958 0
M  V30 2310 O 211.514 -0.468934 1.84948 0
M  V30 2311 C 208.654 -0.393648 3.42848 0
M  V30 2312 C 207.767 0.554379 4.28428 0
M  V30 2313 C 206.902 -0.230026 5.30702 0
M  V30 2314 C 205.941 0.712599 6.07938 0
M  V30 2315 N 205.078 -0.0373283 7.0209 0
M  V30 2316 H 209.918 1.21699 2.72017 0
M  V30 2317 H 207.455 0.611456 1.33789 0
M  V30 2318 H 209.413 -0.85466 4.08352 0
M  V30 2319 H 208.043 -1.20128 2.99615 0
M  V30 2320 H 207.095 1.13391 3.63107 0
M  V30 2321 H 208.407 1.27597 4.82204 0
M  V30 2322 H 207.561 -0.752288 6.02018 0
M  V30 2323 H 206.3 -0.984758 4.77654 0
M  V30 2324 H 205.305 1.24637 5.35486 0
M  V30 2325 H 206.53 1.46664 6.63074 0
M  V30 2326 H 204.476 -0.774348 6.51414 0
M  V30 2327 H 204.393 0.624374 7.53417 0
M  V30 2328 H 205.661 -0.539891 7.77628 0
M  V30 2329 N 209.89 -1.43072 0.660911 0
M  V30 2330 C 210.82 -2.33497 -0.0122829 0
M  V30 2331 C 211.801 -1.49903 -0.803925 0
M  V30 2332 O 212.986 -1.78546 -0.763864 0
M  V30 2333 C 210.116 -3.33363 -0.973994 0
M  V30 2334 C 209.07 -4.27003 -0.291928 0
M  V30 2335 C 208.396 -5.16967 -1.36562 0
M  V30 2336 C 209.696 -5.15816 0.820462 0
M  V30 2337 H 211.39 -2.90038 0.742873 0
M  V30 2338 H 208.936 -1.39461 0.358688 0
M  V30 2339 H 210.889 -3.95524 -1.45392 0
M  V30 2340 H 209.613 -2.75095 -1.7604 0
M  V30 2341 H 208.272 -3.66217 0.167623 0
M  V30 2342 H 207.92 -4.55034 -2.14366 0
M  V30 2343 H 207.62 -5.80441 -0.914454 0
M  V30 2344 H 209.144 -5.82003 -1.84675 0
M  V30 2345 H 210.558 -5.71742 0.422366 0
M  V30 2346 H 208.955 -5.8805 1.19656 0
M  V30 2347 H 210.025 -4.55045 1.67518 0
M  V30 2348 N 211.368 -0.403325 -1.52352 0
M  V30 2349 C 212.615 0.174347 -2.01748 0
M  V30 2350 C 212.943 1.45636 -1.2892 0
M  V30 2351 O 212.198 1.9193 -0.382258 0
M  V30 2352 C 212.497 0.474665 -3.54234 0
M  V30 2353 C 212.163 -0.717458 -4.45155 0
M  V30 2354 C 210.825 -1.04447 -4.69728 0
M  V30 2355 C 213.177 -1.51432 -4.98716 0
M  V30 2356 C 210.505 -2.16963 -5.45109 0
M  V30 2357 C 212.857 -2.6302 -5.75329 0
M  V30 2358 C 211.521 -2.96213 -5.98175 0
M  V30 2359 H 210.791 0.0637981 -0.738248 0
M  V30 2360 H 213.438 -0.543553 -1.83624 0
M  V30 2361 H 211.743 1.27406 -3.70506 0
M  V30 2362 H 213.44 0.934496 -3.89959 0
M  V30 2363 H 210.03 -0.452596 -4.26204 0
M  V30 2364 H 214.214 -1.27491 -4.79645 0
M  V30 2365 H 209.47 -2.43034 -5.61021 0
M  V30 2366 H 213.644 -3.25158 -6.15829 0
M  V30 2367 H 211.271 -3.83516 -6.56368 0
M  V30 2368 N 212.846 1.57033 -0.133567 0
M  V30 2369 C 213.793 2.16074 0.811208 0
M  V30 2370 C 214.763 1.08979 1.2535 0
M  V30 2371 O 215.948 1.36958 1.32843 0
M  V30 2372 C 213.088 2.77595 2.05024 0
M  V30 2373 C 212.201 3.99042 1.65498 0
M  V30 2374 C 211.336 4.48603 2.84479 0
M  V30 2375 C 210.375 5.62547 2.41262 0
M  V30 2376 N 209.512 6.06787 3.53206 0
M  V30 2377 H 214.352 2.96477 0.300906 0
M  V30 2378 H 211.889 1.46462 0.136822 0
M  V30 2379 H 213.847 3.11402 2.77642 0
M  V30 2380 H 212.477 1.99859 2.53488 0
M  V30 2381 H 211.529 3.71302 0.826981 0
M  V30 2382 H 212.841 4.81629 1.29748 0
M  V30 2383 H 211.995 4.84395 3.65303 0
M  V30 2384 H 210.734 3.64995 3.23465 0
M  V30 2385 H 209.739 5.26345 1.58874 0
M  V30 2386 H 210.964 6.47931 2.03377 0
M  V30 2387 H 208.91 5.26117 3.91838 0
M  V30 2388 H 208.827 6.84266 3.21427 0
M  V30 2389 H 210.095 6.4722 4.34427 0
M  V30 2390 N 214.325 -0.140222 1.56975 0
M  V30 2391 C 215.572 -0.851687 1.83719 0
M  V30 2392 C 215.9 -1.80862 0.715485 0
M  V30 2393 O 215.155 -1.93464 -0.294956 0
M  V30 2394 C 215.454 -1.65386 3.16832 0
M  V30 2395 C 215.12 -0.843112 4.42947 0
M  V30 2396 C 213.782 -0.619464 4.77196 0
M  V30 2397 C 216.134 -0.276582 5.20466 0
M  V30 2398 C 213.462 0.181312 5.8642 0
M  V30 2399 C 215.814 0.51127 6.30531 0
M  V30 2400 C 214.478 0.745432 6.63325 0
M  V30 2401 H 213.748 -0.311654 0.672274 0
M  V30 2402 H 216.395 -0.115006 1.91154 0
M  V30 2403 H 214.7 -2.46084 3.04877 0
M  V30 2404 H 216.397 -2.20793 3.34741 0
M  V30 2405 H 212.987 -1.0275 4.16101 0
M  V30 2406 H 217.171 -0.436632 4.94376 0
M  V30 2407 H 212.427 0.372165 6.10266 0
M  V30 2408 H 216.601 0.957354 6.89788 0
M  V30 2409 H 214.228 1.36778 7.47794 0
M  V30 2410 N 215.803 -1.52179 -0.40978 0
M  V30 2411 C 216.753 -1.71857 -1.49831 0
M  V30 2412 C 217.737 -0.572469 -1.50372 0
M  V30 2413 O 218.929 -0.829509 -1.56359 0
M  V30 2414 C 216.058 -1.87206 -2.87765 0
M  V30 2415 C 215.144 -3.07685 -2.91875 0
M  V30 2416 N 215.535 -4.30403 -2.65683 0
M  V30 2417 C 213.833 -3.07505 -3.23043 0
M  V30 2418 C 214.534 -5.11868 -2.76344 0
M  V30 2419 N 213.51 -4.47101 -3.09195 0
M  V30 2420 H 217.312 -2.64381 -1.28375 0
M  V30 2421 H 214.826 -1.50203 -0.617479 0
M  V30 2422 H 216.823 -1.99419 -3.66111 0
M  V30 2423 H 215.483 -0.958814 -3.10221 0
M  V30 2424 H 216.494 -4.58887 -2.4009 0
M  V30 2425 H 213.171 -2.25915 -3.51096 0
M  V30 2426 H 214.561 -6.19634 -2.59814 0
M  V30 2427 N 217.281 0.66697 -1.42791 0
M  V30 2428 C 218.529 1.42417 -1.43394 0
M  V30 2429 C 218.85 1.94925 -0.0542373 0
M  V30 2430 O 218.12 1.73564 0.908415 0
M  V30 2431 H 216.7 0.528515 -0.527902 0
M  V30 2432 H 219.362 0.787562 -1.78279 0
M  V30 2433 H 218.458 2.27333 -2.13837 0
M  V30 2434 N 218.759 1.29093 0.90403 0
M  V30 2435 C 220.006 1.16813 1.65411 0
M  V30 2436 C 220.334 -0.28128 1.92455 0
M  V30 2437 O 219.589 -1.22006 1.53013 0
M  V30 2438 C 219.888 1.92224 3.01305 0
M  V30 2439 C 219.554 3.41968 2.93885 0
M  V30 2440 C 218.216 3.82807 2.91569 0
M  V30 2441 C 220.568 4.37409 2.83413 0
M  V30 2442 C 217.896 5.1741 2.76594 0
M  V30 2443 C 220.248 5.72097 2.69977 0
M  V30 2444 C 218.912 6.12199 2.66024 0
M  V30 2445 H 218.182 0.42745 0.605283 0
M  V30 2446 H 220.829 1.59981 1.05254 0
M  V30 2447 H 219.134 1.41635 3.65304 0
M  V30 2448 H 220.831 1.80131 3.58265 0
M  V30 2449 H 217.421 3.09504 2.96488 0
M  V30 2450 H 221.605 4.06813 2.84283 0
M  V30 2451 H 216.861 5.47596 2.71935 0
M  V30 2452 H 221.035 6.45704 2.60844 0
M  V30 2453 H 218.662 7.16448 2.54178 0
M  V30 2454 N 220.237 -1.11381 1.11499 0
M  V30 2455 C 221.467 -1.86663 0.885464 0
M  V30 2456 C 221.875 -1.80464 -0.568281 0
M  V30 2457 O 221.218 -1.18445 -1.40415 0
M  V30 2458 C 221.28 -3.36337 1.26956 0
M  V30 2459 C 220.944 -3.66304 2.73259 0
M  V30 2460 C 221.941 -3.63733 3.71476 0
M  V30 2461 C 219.626 -3.9529 3.09921 0
M  V30 2462 C 221.62 -3.89725 5.04374 0
M  V30 2463 C 219.307 -4.20941 4.43004 0
M  V30 2464 C 220.305 -4.18147 5.40039 0
M  V30 2465 O 219.993 -4.43153 6.70724 0
M  V30 2466 H 219.725 -0.597114 0.316908 0
M  V30 2467 H 222.279 -1.41782 1.48617 0
M  V30 2468 H 220.509 -3.81826 0.611999 0
M  V30 2469 H 222.198 -3.92986 1.01573 0
M  V30 2470 H 222.964 -3.41389 3.44498 0
M  V30 2471 H 218.843 -3.966 2.35009 0
M  V30 2472 H 222.387 -3.8746 5.80104 0
M  V30 2473 H 218.284 -4.42761 4.69716 0
M  V30 2474 H 219.052 -4.60717 6.76522 0
M  V30 2475 N 221.715 -0.905404 -1.28997 0
M  V30 2476 C 222.964 -0.530191 -1.94607 0
M  V30 2477 C 223.277 0.929185 -1.72121 0
M  V30 2478 O 224.483 1.41218 -2.31883 0
M  V30 2479 C 222.939 -0.897333 -3.48534 0
M  V30 2480 C 222.547 -2.37587 -3.79811 0
M  V30 2481 C 224.291 -0.592304 -4.20347 0
M  V30 2482 C 222.198 -2.68357 -5.27009 0
M  V30 2483 H 221.128 -0.194558 -0.728466 0
M  V30 2484 H 223.779 -1.10318 -1.46636 0
M  V30 2485 H 222.161 -0.253214 -3.9519 0
M  V30 2486 H 223.335 -3.06602 -3.43994 0
M  V30 2487 H 221.65 -2.6505 -3.2115 0
M  V30 2488 H 224.247 -0.798975 -5.28697 0
M  V30 2489 H 224.59 0.469474 -4.13644 0
M  V30 2490 H 225.123 -1.19452 -3.79442 0
M  V30 2491 H 221.862 -3.73355 -5.38782 0
M  V30 2492 H 221.382 -2.03971 -5.64053 0
M  V30 2493 H 223.061 -2.54922 -5.94663 0
M  V30 2494 N 223.193 1.4272 -0.668489 0
M  V30 2495 C 224.125 2.2914 0.052613 0
M  V30 2496 C 225.138 1.43339 0.771857 0
M  V30 2497 O 226.327 1.67123 0.627067 0
M  V30 2498 C 223.427 3.20618 1.09804 0
M  V30 2499 C 222.6 4.35039 0.45389 0
M  V30 2500 C 221.659 5.07282 1.39825 0
M  V30 2501 O 220.685 5.62024 0.900978 0
M  V30 2502 N 221.887 5.12206 2.73176 0
M  V30 2503 H 224.652 2.91668 -0.689209 0
M  V30 2504 H 222.213 1.53577 -0.512422 0
M  V30 2505 H 224.205 3.65815 1.73094 0
M  V30 2506 H 222.775 2.59585 1.74167 0
M  V30 2507 H 221.995 3.92567 -0.358396 0
M  V30 2508 H 223.283 5.088 0.00486972 0
M  V30 2509 H 222.681 4.6913 3.16122 0
M  V30 2510 H 221.238 5.61069 3.31729 0
M  V30 2511 N 224.671 0.411399 1.52136 0
M  V30 2512 C 226.087 0.0623865 1.59478 0
M  V30 2513 C 226.287 -1.42554 1.4241 0
M  V30 2514 O 225.343 -2.19263 1.2522 0
M  V30 2515 C 226.656 0.559331 2.95452 0
M  V30 2516 C 228.204 0.517503 3.08692 0
M  V30 2517 C 228.679 0.990994 4.4715 0
M  V30 2518 N 230.17 0.947908 4.53397 0
M  V30 2519 C 230.905 1.28544 5.58806 0
M  V30 2520 N 230.401 1.69454 6.71757 0
M  V30 2521 N 232.194 1.20526 5.49026 0
M  V30 2522 H 224.345 1.37982 1.61477 0
M  V30 2523 H 226.608 0.566977 0.759764 0
M  V30 2524 H 226.314 1.59938 3.1323 0
M  V30 2525 H 226.188 -0.0298014 3.77188 0
M  V30 2526 H 228.575 -0.513505 2.90598 0
M  V30 2527 H 228.656 1.14272 2.28857 0
M  V30 2528 H 228.3 2.02034 4.65988 0
M  V30 2529 H 228.23 0.34257 5.25485 0
M  V30 2530 H 230.721 0.647157 3.72317 0
M  V30 2531 H 231.034 1.93513 7.48179 0
M  V30 2532 H 229.379 1.73359 6.73032 0
M  V30 2533 H 232.57 0.884505 4.59667 0
M  V30 2534 H 232.743 1.47161 6.31069 0
M  V30 2535 N 226.149 -1.5696 0.141893 0
M  V30 2536 C 227.565 -1.58151 -0.21456 0
M  V30 2537 C 227.765 -1.1559 -1.65049 0
M  V30 2538 O 226.821 -0.853832 -2.37626 0
M  V30 2539 C 228.134 -3.00674 0.0395576 0
M  V30 2540 C 229.682 -3.1299 -0.0245529 0
M  V30 2541 C 230.157 -4.57554 0.202167 0
M  V30 2542 N 231.648 -4.62961 0.148919 0
M  V30 2543 C 232.383 -5.7262 0.298924 0
M  V30 2544 N 231.879 -6.90947 0.50637 0
M  V30 2545 N 233.672 -5.61601 0.236886 0
M  V30 2546 H 225.823 -1.8292 1.07953 0
M  V30 2547 H 228.086 -0.846425 0.42693 0
M  V30 2548 H 227.792 -3.36183 1.03315 0
M  V30 2549 H 227.666 -3.70981 -0.682143 0
M  V30 2550 H 230.053 -2.77326 -1.00869 0
M  V30 2551 H 230.134 -2.4518 0.729396 0
M  V30 2552 H 229.778 -4.93922 1.18338 0
M  V30 2553 H 229.708 -5.23484 -0.572044 0
M  V30 2554 H 232.199 -3.77899 -0.00697015 0
M  V30 2555 H 232.512 -7.7038 0.611076 0
M  V30 2556 H 230.857 -6.92878 0.542628 0
M  V30 2557 H 234.048 -4.68039 0.0756209 0
M  V30 2558 H 234.221 -6.47015 0.357227 0
M  V30 2559 N 227.627 0.131896 -1.57047 0
M  V30 2560 C 228.855 0.856461 -1.88341 0
M  V30 2561 C 229.27 1.74042 -0.731757 0
M  V30 2562 O 228.627 1.80051 0.297945 0
M  V30 2563 C 228.678 1.70064 -3.18999 0
M  V30 2564 O 228.399 0.852278 -4.2973 0
M  V30 2565 C 229.9 2.53148 -3.63911 0
M  V30 2566 H 227.12 0.246885 -0.62393 0
M  V30 2567 H 229.664 0.120152 -2.04147 0
M  V30 2568 H 227.819 2.38984 -3.04902 0
M  V30 2569 H 228.233 1.43329 -5.04537 0
M  V30 2570 H 229.707 3.07931 -4.58129 0
M  V30 2571 H 230.184 3.29901 -2.89935 0
M  V30 2572 H 230.79 1.89492 -3.80753 0
M  V30 2573 N 229.106 1.52395 0.401703 0
M  V30 2574 C 230.355 1.66044 1.14509 0
M  V30 2575 C 230.668 0.400216 1.91462 0
M  V30 2576 O 231.874 0.416632 2.68284 0
M  V30 2577 C 230.33 2.93388 2.0845 0
M  V30 2578 C 229.938 4.26545 1.36978 0
M  V30 2579 C 231.682 3.16402 2.83001 0
M  V30 2580 C 229.589 5.45007 2.29611 0
M  V30 2581 H 228.519 0.618562 0.431158 0
M  V30 2582 H 231.17 1.78886 0.40892 0
M  V30 2583 H 229.552 2.74263 2.8565 0
M  V30 2584 H 230.726 4.56179 0.650916 0
M  V30 2585 H 229.041 4.09692 0.74438 0
M  V30 2586 H 231.638 4.02085 3.52465 0
M  V30 2587 H 231.981 2.30943 3.46368 0
M  V30 2588 H 232.514 3.36034 2.12898 0
M  V30 2589 H 229.253 6.32835 1.70879 0
M  V30 2590 H 228.773 5.19702 2.9945 0
M  V30 2591 H 230.452 5.7838 2.89974 0
M  V30 2592 N 230.584 -0.659388 1.43143 0
M  V30 2593 C 232 -0.974337 1.26407 0
M  V30 2594 C 232.2 -2.007 0.179341 0
M  V30 2595 O 231.256 -2.4856 -0.444295 0
M  V30 2596 C 232.569 -1.46447 2.62628 0
M  V30 2597 C 234.117 -1.58144 2.7011 0
M  V30 2598 C 234.592 -2.1055 4.06734 0
M  V30 2599 N 236.083 -2.17861 4.08767 0
M  V30 2600 C 236.818 -2.59519 5.1131 0
M  V30 2601 N 236.314 -3.00518 6.24228 0
M  V30 2602 N 238.107 -2.59404 4.98664 0
M  V30 2603 H 230.258 0.0240528 2.12386 0
M  V30 2604 H 232.521 -0.0518065 0.946583 0
M  V30 2605 H 232.227 -0.780123 3.42939 0
M  V30 2606 H 232.101 -2.44058 2.87603 0
M  V30 2607 H 234.488 -2.25682 1.90136 0
M  V30 2608 H 234.569 -0.589828 2.48907 0
M  V30 2609 H 234.213 -1.43616 4.87172 0
M  V30 2610 H 234.143 -3.10531 4.25298 0
M  V30 2611 H 236.634 -1.88975 3.27257 0
M  V30 2612 H 236.947 -3.31036 6.98309 0
M  V30 2613 H 235.292 -2.98337 6.2771 0
M  V30 2614 H 238.483 -2.26747 4.09516 0
M  V30 2615 H 238.656 -2.91548 5.78709 0
M  V30 2616 N 232.062 -1.29571 -0.897171 0
M  V30 2617 C 232.994 -1.10724 -2.00681 0
M  V30 2618 C 234.007 -0.0540026 -1.6271 0
M  V30 2619 O 235.196 -0.298783 -1.75982 0
M  V30 2620 C 232.296 -0.663912 -3.32333 0
M  V30 2621 C 231.469 -1.79622 -3.98816 0
M  V30 2622 C 230.528 -1.34349 -5.0876 0
M  V30 2623 O 229.554 -2.04864 -5.31055 0
M  V30 2624 N 230.756 -0.215764 -5.80099 0
M  V30 2625 H 233.521 -2.06291 -2.17403 0
M  V30 2626 H 231.082 -1.21544 -1.06951 0
M  V30 2627 H 233.074 -0.344295 -4.03233 0
M  V30 2628 H 231.644 0.199375 -3.11964 0
M  V30 2629 H 230.864 -2.28459 -3.21248 0
M  V30 2630 H 232.152 -2.55535 -4.39976 0
M  V30 2631 H 231.55 0.372091 -5.64475 0
M  V30 2632 H 230.107 0.0444707 -6.51785 0
M  V30 2633 N 233.54 1.10788 -1.12088 0
M  V30 2634 C 234.77 1.86191 -0.895351 0
M  V30 2635 C 235.178 1.80763 0.558702 0
M  V30 2636 O 234.521 1.19188 1.39785 0
M  V30 2637 C 234.583 3.35659 -1.28737 0
M  V30 2638 C 234.247 3.64849 -2.75198 0
M  V30 2639 C 235.244 3.61757 -3.734 0
M  V30 2640 C 232.929 3.93641 -3.12013 0
M  V30 2641 C 234.923 3.87045 -5.06434 0
M  V30 2642 C 232.61 4.18585 -4.4523 0
M  V30 2643 C 233.608 4.15277 -5.42249 0
M  V30 2644 O 233.296 4.3959 -6.73065 0
M  V30 2645 H 233.028 0.595425 -0.32007 0
M  V30 2646 H 235.582 1.40992 -1.49367 0
M  V30 2647 H 233.812 3.81497 -0.63224 0
M  V30 2648 H 235.501 3.92441 -1.03656 0
M  V30 2649 H 236.267 3.39557 -3.46303 0
M  V30 2650 H 232.146 3.95348 -2.37109 0
M  V30 2651 H 235.69 3.84378 -5.82151 0
M  V30 2652 H 231.587 4.40264 -4.72057 0
M  V30 2653 H 232.355 4.57123 -6.78956 0
M  V30 2654 N 235.018 0.912232 1.28515 0
M  V30 2655 C 236.243 0.559774 1.99703 0
M  V30 2656 C 236.668 -0.851393 1.67729 0
M  V30 2657 O 236.026 -1.56875 0.908834 0
M  V30 2658 C 236.074 0.773874 3.52198 0
M  V30 2659 O 235.178 -0.167842 4.12058 0
M  V30 2660 H 234.519 0.21723 0.627461 0
M  V30 2661 H 237.049 1.22725 1.63706 0
M  V30 2662 H 237.059 0.683386 4.02236 0
M  V30 2663 H 235.734 1.80261 3.74805 0
M  V30 2664 H 234.311 -0.0287509 3.72889 0
M  V30 2665 N 236.496 -1.42363 0.676048 0
M  V30 2666 C 237.726 -2.05561 0.206967 0
M  V30 2667 C 238.134 -1.50887 -1.14148 0
M  V30 2668 O 237.477 -0.643933 -1.72044 0
M  V30 2669 C 237.539 -3.5944 0.0659508 0
M  V30 2670 C 237.203 -4.36812 1.34331 0
M  V30 2671 C 238.2 -4.67383 2.27704 0
M  V30 2672 C 235.885 -4.76429 1.59125 0
M  V30 2673 C 237.879 -5.36509 3.44147 0
M  V30 2674 C 235.566 -5.45294 2.75857 0
M  V30 2675 C 236.564 -5.75259 3.68193 0
M  V30 2676 O 236.252 -6.42712 4.82883 0
M  V30 2677 H 235.984 -0.668872 0.0979084 0
M  V30 2678 H 238.538 -1.83467 0.923531 0
M  V30 2679 H 236.768 -3.80197 -0.706204 0
M  V30 2680 H 238.457 -4.0427 -0.363418 0
M  V30 2681 H 239.223 -4.37275 2.09799 0
M  V30 2682 H 235.102 -4.52498 0.881258 0
M  V30 2683 H 238.646 -5.59814 4.16238 0
M  V30 2684 H 234.543 -5.7482 2.93688 0
M  V30 2685 H 235.311 -6.61204 4.82444 0
M  V30 2686 N 237.974 -0.419461 -1.51915 0
M  V30 2687 C 238.922 0.415502 -2.28859 0
M  V30 2688 C 239.916 1.03674 -1.3397 0
M  V30 2689 O 241.122 0.973757 -1.51387 0
M  V30 2690 H 237.497 0.152786 -0.736315 0
M  V30 2691 H 239.468 -0.254531 -2.97312 0
M  V30 2692 C 238.217 1.51425 -3.12995 0
M  V30 2693 H 237.54 1.04556 -3.85886 0
M  V30 2694 H 238.98 2.07208 -3.6992 0
M  V30 2695 C 237.439 2.48745 -2.27217 0
M  V30 2696 O 237.969 3.52871 -1.9195 0
M  V30 2697 N 236.175 2.19202 -1.90785 0
M  V30 2698 H 235.722 1.34556 -2.19664 0
M  V30 2699 H 235.68 2.84561 -1.33687 0
M  V30 2700 N 239.452 1.56882 -0.150215 0
M  V30 2701 C 240.677 2.01027 0.510184 0
M  V30 2702 C 241.102 1.02966 1.57415 0
M  V30 2703 O 240.46 0.00590158 1.81299 0
M  V30 2704 C 240.508 3.43899 1.08472 0
M  V30 2705 O 239.612 3.4885 2.19948 0
M  V30 2706 H 238.953 0.652233 0.124451 0
M  V30 2707 H 241.483 2.03093 -0.247894 0
M  V30 2708 H 241.493 3.82766 1.41259 0
M  V30 2709 H 240.168 4.14776 0.305582 0
M  V30 2710 H 238.745 3.21827 1.88366 0
M  V30 2711 N 240.93 -0.123565 1.57115 0
M  V30 2712 C 241.893 -1.13583 1.99076 0
M  V30 2713 C 242.893 -1.34564 0.880296 0
M  V30 2714 O 244.083 -1.31158 1.14644 0
M  V30 2715 C 241.215 -2.49128 2.32698 0
M  V30 2716 H 242.408 -0.775287 2.89706 0
M  V30 2717 H 239.961 -0.36771 1.51913 0
M  V30 2718 H 240.696 -2.90111 1.44934 0
M  V30 2719 H 240.481 -2.35255 3.13684 0
M  V30 2720 H 241.971 -3.2199 2.65918 0
M  V30 2721 N 242.408 -1.52605 -0.393616 0
M  V30 2722 C 243.371 -1.76415 -1.46323 0
M  V30 2723 C 244.371 -0.634126 -1.47768 0
M  V30 2724 O 245.561 -0.902142 -1.4902 0
M  V30 2725 C 242.693 -1.8607 -2.85641 0
M  V30 2726 H 243.886 -2.71916 -1.26498 0
M  V30 2727 H 241.439 -1.43257 -0.625073 0
M  V30 2728 H 242.174 -0.925378 -3.10817 0
M  V30 2729 H 241.959 -2.68235 -2.85993 0
M  V30 2730 H 243.449 -2.06179 -3.63153 0
M  V30 2731 N 243.887 0.651787 -1.4349 0
M  V30 2732 C 244.837 1.75783 -1.45205 0
M  V30 2733 C 245.821 1.57679 -0.320328 0
M  V30 2734 O 247.013 1.67767 -0.564211 0
M  V30 2735 C 244.142 3.14377 -1.3792 0
M  V30 2736 C 243.228 3.38023 -2.56127 0
M  V30 2737 N 243.619 3.32135 -3.81471 0
M  V30 2738 C 241.917 3.68747 -2.50882 0
M  V30 2739 C 242.618 3.55902 -4.60118 0
M  V30 2740 N 241.594 3.77783 -3.90872 0
M  V30 2741 H 245.396 1.69657 -2.39987 0
M  V30 2742 H 242.91 0.853508 -1.38163 0
M  V30 2743 H 244.907 3.93666 -1.37231 0
M  V30 2744 H 243.567 3.21683 -0.441596 0
M  V30 2745 H 244.578 3.11515 -4.13738 0
M  V30 2746 H 241.255 3.8316 -1.65816 0
M  V30 2747 H 242.645 3.57116 -5.69138 0
M  V30 2748 N 245.365 1.30045 0.890287 0
M  V30 2749 C 246.611 1.18737 1.64406 0
M  V30 2750 C 246.944 -0.258525 1.92472 0
M  V30 2751 O 246.219 -1.18562 1.54186 0
M  V30 2752 C 246.502 2.01087 2.98724 0
M  V30 2753 C 246.355 3.53867 2.77665 0
M  V30 2754 C 247.674 1.84457 3.9958 0
M  V30 2755 H 244.793 0.432698 0.596608 0
M  V30 2756 H 247.435 1.5962 1.0306 0
M  V30 2757 H 245.585 1.66349 3.51084 0
M  V30 2758 H 247.257 3.98637 2.32133 0
M  V30 2759 H 245.5 3.78318 2.12269 0
M  V30 2760 H 246.171 4.06772 3.7315 0
M  V30 2761 H 248.647 2.14817 3.56361 0
M  V30 2762 H 247.523 2.44411 4.91482 0
M  V30 2763 H 247.784 0.802276 4.3476 0
M  V30 2764 N 246.843 -1.10192 1.12674 0
M  V30 2765 C 247.773 -2.18652 0.819362 0
M  V30 2766 C 248.754 -1.68698 -0.217915 0
M  V30 2767 O 249.939 -1.94041 -0.0785581 0
M  V30 2768 C 247.069 -3.46202 0.27594 0
M  V30 2769 C 246.023 -4.09444 1.24656 0
M  V30 2770 C 245.349 -5.31725 0.563258 0
M  V30 2771 C 246.649 -4.52863 2.60217 0
M  V30 2772 H 248.343 -2.44622 1.72628 0
M  V30 2773 H 245.889 -1.17571 0.831451 0
M  V30 2774 H 247.842 -4.21372 0.0486149 0
M  V30 2775 H 246.566 -3.1973 -0.666331 0
M  V30 2776 H 245.225 -3.36284 1.45974 0
M  V30 2777 H 244.873 -5.0153 -0.384235 0
M  V30 2778 H 244.573 -5.74991 1.21075 0
M  V30 2779 H 246.097 -6.09624 0.34503 0
M  V30 2780 H 247.511 -5.19294 2.42913 0
M  V30 2781 H 245.908 -5.06986 3.21068 0
M  V30 2782 H 246.978 -3.65656 3.18471 0
M  V30 2783 N 248.321 -0.919034 -1.28029 0
M  V30 2784 C 249.569 -0.553838 -1.94363 0
M  V30 2785 C 249.89 0.906357 -1.72656 0
M  V30 2786 O 249.16 1.64143 -1.0693 0
M  V30 2787 H 247.74 -0.201834 -0.719216 0
M  V30 2788 H 250.402 -1.16954 -1.55909 0
M  V30 2789 H 249.498 -0.752758 -3.02886 0
M  V30 2790 N 249.799 1.42003 -0.683588 0
M  V30 2791 C 251.076 1.95112 -0.138075 0
M  V30 2792 C 251.456 1.62359 1.34918 0
M  V30 2793 O 250.804 0.924311 2.08971 0
M  V30 2794 C 251.014 3.46505 -0.416581 0
M  V30 2795 C 252.362 4.23254 -0.337834 0
M  V30 2796 O 253.386 3.54468 -0.35082 0
M  V30 2797 O 252.245 5.45743 -0.287596 0
M  V30 2798 H 249.339 0.826961 -0.00797996 0
M  V30 2799 H 251.885 1.51784 -0.758924 0
M  V30 2800 H 250.657 3.63582 -1.4465 0
M  V30 2801 H 250.28 3.969 0.235839 0
M  V30 2802 N 251.277 0.427512 1.51691 0
M  V30 2803 C 252.526 -0.143679 2.01188 0
M  V30 2804 C 252.839 -1.44642 1.31674 0
M  V30 2805 O 254.045 -2.09997 1.72086 0
M  V30 2806 C 252.501 -0.306602 3.58592 0
M  V30 2807 C 252.109 0.985125 4.37035 0
M  V30 2808 C 253.853 -0.832091 4.16265 0
M  V30 2809 C 251.76 0.788382 5.86122 0
M  V30 2810 H 250.69 -0.0574701 0.751807 0
M  V30 2811 H 253.341 0.555772 1.74881 0
M  V30 2812 H 251.723 -1.06882 3.81303 0
M  V30 2813 H 252.897 1.75492 4.26074 0
M  V30 2814 H 251.212 1.4384 3.90767 0
M  V30 2815 H 253.809 -0.995617 5.25349 0
M  V30 2816 H 254.152 -1.81186 3.74803 0
M  V30 2817 H 254.685 -0.128444 3.97593 0
M  V30 2818 H 251.424 1.74025 6.31978 0
M  V30 2819 H 250.944 0.0582143 5.99772 0
M  V30 2820 H 252.623 0.437722 6.45518 0
M  V30 2821 N 252.755 -1.56801 0.158532 0
M  V30 2822 C 254.003 -1.96102 -0.488712 0
M  V30 2823 C 254.324 -1.04498 -1.64636 0
M  V30 2824 O 253.594 -0.108783 -1.95598 0
M  V30 2825 H 252.174 -0.724102 -0.183535 0
M  V30 2826 H 254.836 -1.93457 0.236728 0
M  V30 2827 H 253.932 -3.00097 -0.857219 0
M  V30 2828 N 254.233 0.115231 -1.57178 0
M  V30 2829 C 255.143 1.15994 -2.03918 0
M  V30 2830 C 256.159 1.45103 -0.960268 0
M  V30 2831 O 257.335 1.56144 -1.27204 0
M  V30 2832 C 254.4 2.46568 -2.43732 0
M  V30 2833 C 253.461 2.24822 -3.65723 0
M  V30 2834 C 252.694 3.4917 -4.03629 0
M  V30 2835 O 252.917 4.56623 -3.41835 0
M  V30 2836 O 251.851 3.39949 -4.96708 0
M  V30 2837 H 255.677 0.793019 -2.93164 0
M  V30 2838 H 253.262 0.3263 -1.45793 0
M  V30 2839 H 255.144 3.23492 -2.70057 0
M  V30 2840 H 253.819 2.82726 -1.57631 0
M  V30 2841 H 252.726 1.45744 -3.44542 0
M  V30 2842 H 254.059 1.93566 -4.52541 0
M  V30 2843 N 255.711 1.52812 0.385517 0
M  V30 2844 C 256.957 1.68275 1.13188 0
M  V30 2845 C 257.29 0.423179 1.89533 0
M  V30 2846 O 256.565 -0.579113 1.85679 0
M  V30 2847 C 256.848 2.92001 2.1073 0
M  V30 2848 C 256.701 4.28067 1.38125 0
M  V30 2849 C 258.02 3.11283 3.11113 0
M  V30 2850 H 255.139 0.612352 0.410115 0
M  V30 2851 H 257.781 1.85415 0.414869 0
M  V30 2852 H 255.931 2.77519 2.71874 0
M  V30 2853 H 257.603 4.54324 0.799187 0
M  V30 2854 H 255.846 4.28388 0.683092 0
M  V30 2855 H 256.517 5.10733 2.09417 0
M  V30 2856 H 258.993 3.2482 2.6006 0
M  V30 2857 H 257.869 3.99325 3.76605 0
M  V30 2858 H 258.13 2.25656 3.80173 0
M  V30 2859 N 257.189 -0.644168 1.43834 0
M  V30 2860 C 258.414 -1.43642 1.49605 0
M  V30 2861 C 258.839 -1.8773 0.117913 0
M  V30 2862 O 258.197 -1.57938 -0.890239 0
M  V30 2863 C 258.245 -2.6416 2.45463 0
M  V30 2864 O 257.349 -3.63538 1.94714 0
M  V30 2865 H 256.69 -0.430329 0.50568 0
M  V30 2866 H 259.22 -0.787448 1.8884 0
M  V30 2867 H 259.23 -3.11864 2.63068 0
M  V30 2868 H 257.905 -2.31414 3.45572 0
M  V30 2869 H 256.482 -3.2273 1.86814 0
M  V30 2870 N 258.668 -1.30515 -0.883378 0
M  V30 2871 C 259.601 -1.11359 -1.99184 0
M  V30 2872 C 260.579 -0.0207858 -1.62587 0
M  V30 2873 O 261.763 -0.174646 -1.87689 0
M  V30 2874 C 258.89 -0.69871 -3.31415 0
M  V30 2875 C 257.936 -1.79261 -3.86998 0
M  V30 2876 S 258.769 -3.39536 -4.14096 0
M  V30 2877 C 259.925 -2.99954 -5.49344 0
M  V30 2878 H 260.158 -2.052 -2.15128 0
M  V30 2879 H 257.691 -1.14847 -1.03196 0
M  V30 2880 H 259.649 -0.466075 -4.07846 0
M  V30 2881 H 258.31 0.220368 -3.13326 0
M  V30 2882 H 257.503 -1.45464 -4.82552 0
M  V30 2883 H 257.105 -1.97961 -3.17313 0
M  V30 2884 H 259.397 -2.48013 -6.30473 0
M  V30 2885 H 260.34 -3.9442 -5.8808 0
M  V30 2886 H 260.748 -2.37775 -5.1198 0
M  V30 2887 N 260.146 1.09593 -1.13257 0
M  V30 2888 C 261.093 2.1618 -0.808381 0
M  V30 2889 C 262.063 1.64517 0.228754 0
M  V30 2890 O 263.248 1.9053 0.101381 0
M  V30 2891 C 260.388 3.43973 -0.278675 0
M  V30 2892 C 259.501 4.09545 -1.37466 0
M  V30 2893 C 258.636 5.25088 -0.803479 0
M  V30 2894 C 257.675 5.82579 -1.87799 0
M  V30 2895 N 256.812 6.89486 -1.32488 0
M  V30 2896 H 261.652 2.43254 -1.72138 0
M  V30 2897 H 259.189 1.19392 -0.859294 0
M  V30 2898 H 261.147 4.17174 0.0465583 0
M  V30 2899 H 259.777 3.17223 0.597459 0
M  V30 2900 H 258.829 3.34226 -1.81652 0
M  V30 2901 H 260.141 4.48307 -2.18684 0
M  V30 2902 H 259.295 6.05178 -0.429427 0
M  V30 2903 H 258.034 4.87684 0.0397956 0
M  V30 2904 H 257.039 5.01152 -2.26113 0
M  V30 2905 H 258.264 6.22045 -2.72463 0
M  V30 2906 H 256.21 6.54064 -0.503575 0
M  V30 2907 H 256.127 7.27007 -2.07355 0
M  V30 2908 H 257.395 7.73336 -0.978336 0
M  V30 2909 N 261.624 0.925811 1.2754 0
M  V30 2910 C 262.901 0.483726 1.89524 0
M  V30 2911 C 263.281 -1.03809 1.83812 0
M  V30 2912 O 262.629 -1.89143 1.28207 0
M  V30 2913 C 262.839 1.02769 3.33526 0
M  V30 2914 C 264.187 1.08703 4.10449 0
M  V30 2915 O 265.211 0.977175 3.42534 0
M  V30 2916 O 264.07 1.25599 5.31871 0
M  V30 2917 H 261.164 0.15529 0.812289 0
M  V30 2918 H 263.71 1.01738 1.35822 0
M  V30 2919 H 262.482 2.07155 3.31967 0
M  V30 2920 H 262.105 0.475567 3.94746 0
M  V30 2921 N 263.102 -1.41638 0.69111 0
M  V30 2922 C 264.351 -2.00526 0.217318 0
M  V30 2923 C 264.664 -1.55353 -1.18848 0
M  V30 2924 O 265.87 -2.06769 -1.75951 0
M  V30 2925 C 264.326 -3.58313 0.337639 0
M  V30 2926 C 263.934 -4.12469 1.74852 0
M  V30 2927 C 265.678 -4.24431 -0.0766066 0
M  V30 2928 C 263.585 -5.62675 1.82074 0
M  V30 2929 H 262.515 -0.750008 0.0774893 0
M  V30 2930 H 265.166 -1.6217 0.858661 0
M  V30 2931 H 263.548 -3.9425 -0.371879 0
M  V30 2932 H 264.722 -3.8796 2.48644 0
M  V30 2933 H 263.037 -3.58861 2.11205 0
M  V30 2934 H 265.634 -5.34683 -0.0430284 0
M  V30 2935 H 265.977 -4.01101 -1.1146 0
M  V30 2936 H 266.51 -3.93512 0.582476 0
M  V30 2937 H 263.249 -5.90826 2.83911 0
M  V30 2938 H 262.769 -5.89124 1.12661 0
M  V30 2939 H 264.448 -6.27371 1.58159 0
M  V30 2940 N 264.58 -0.43555 -1.51462 0
M  V30 2941 C 265.49 0.383001 -2.31453 0
M  V30 2942 C 266.506 1.02931 -1.4029 0
M  V30 2943 O 267.682 1.02507 -1.73362 0
M  V30 2944 C 264.747 1.47043 -3.13973 0
M  V30 2945 C 263.808 0.844433 -4.20913 0
M  V30 2946 C 263.041 1.88004 -4.9949 0
M  V30 2947 O 263.264 3.10199 -4.78678 0
M  V30 2948 O 262.198 1.47157 -5.83634 0
M  V30 2949 H 266.024 -0.269964 -3.02498 0
M  V30 2950 H 263.609 -0.19813 -1.4808 0
M  V30 2951 H 265.491 2.10113 -3.65281 0
M  V30 2952 H 264.166 2.10751 -2.45695 0
M  V30 2953 H 263.073 0.175729 -3.73687 0
M  V30 2954 H 264.406 0.250869 -4.9156 0
M  V30 2955 N 266.058 1.56714 -0.166846 0
M  V30 2956 C 267.006 2.19056 0.782123 0
M  V30 2957 C 268 1.15328 1.24079 0
M  V30 2958 O 269.206 1.33537 1.20697 0
M  V30 2959 H 265.581 0.70167 0.270486 0
M  V30 2960 H 267.552 2.97494 0.232322 0
M  V30 2961 C 266.301 2.84206 2.00306 0
M  V30 2962 H 265.624 3.63748 1.65914 0
M  V30 2963 H 267.064 3.31302 2.64604 0
M  V30 2964 C 265.523 1.83744 2.82382 0
M  V30 2965 O 266.053 1.32014 3.79388 0
M  V30 2966 N 264.259 1.52601 2.47308 0
M  V30 2967 H 263.806 1.9486 1.68485 0
M  V30 2968 H 263.764 0.856351 3.02513 0
M  V30 2969 N 267.536 -0.106894 1.57237 0
M  V30 2970 C 268.813 -0.843526 1.76477 0
M  V30 2971 C 269.193 -1.97499 0.745464 0
M  V30 2972 O 268.541 -2.27357 -0.228306 0
M  V30 2973 C 268.751 -1.34903 3.21873 0
M  V30 2974 C 270.099 -1.79654 3.8472 0
M  V30 2975 O 271.123 -1.44554 3.2555 0
M  V30 2976 O 269.982 -2.44515 4.88748 0
M  V30 2977 H 267.076 -0.401468 0.723016 0
M  V30 2978 H 269.622 -0.0896927 1.69463 0
M  V30 2979 H 268.394 -0.53781 3.87586 0
M  V30 2980 H 268.017 -2.16522 3.33473 0
M  V30 2981 N 269.014 -1.53014 -0.377408 0
M  V30 2982 C 270.291 -1.59215 -1.13622 0
M  V30 2983 C 270.671 -0.392407 -2.07421 0
M  V30 2984 O 270.019 0.618342 -2.19975 0
M  V30 2985 C 270.229 -2.93669 -1.88573 0
M  V30 2986 C 271.577 -3.47822 -2.43526 0
M  V30 2987 O 272.601 -2.9562 -1.98715 0
M  V30 2988 O 271.46 -4.39055 -3.25412 0
M  V30 2989 H 268.554 -0.642625 -0.52054 0
M  V30 2990 H 271.1 -1.65353 -0.381625 0
M  V30 2991 H 269.872 -3.7243 -1.20048 0
M  V30 2992 H 269.495 -2.90968 -2.70968 0
M  V30 2993 N 270.492 0.636531 -1.44174 0
M  V30 2994 C 271.722 1.42146 -1.49927 0
M  V30 2995 C 272.13 1.88812 -0.121063 0
M  V30 2996 O 271.473 1.61126 0.882267 0
M  V30 2997 C 271.535 2.67883 -2.39748 0
M  V30 2998 C 271.199 2.43048 -3.8701 0
M  V30 2999 C 272.196 2.05216 -4.77684 0
M  V30 3000 C 269.881 2.56856 -4.3166 0
M  V30 3001 C 271.875 1.81512 -6.11009 0
M  V30 3002 C 269.562 2.32766 -5.65034 0
M  V30 3003 C 270.56 1.95152 -6.54526 0
M  V30 3004 O 270.248 1.71326 -7.85431 0
M  V30 3005 H 269.98 0.442567 -0.51099 0
M  V30 3006 H 272.534 0.786158 -1.8976 0
M  V30 3007 H 270.764 3.34032 -1.94832 0
M  V30 3008 H 272.453 3.29874 -2.36513 0
M  V30 3009 H 273.219 1.94111 -4.44462 0
M  V30 3010 H 269.098 2.85104 -3.62266 0
M  V30 3011 H 272.642 1.52077 -6.80822 0
M  V30 3012 H 268.539 2.43479 -5.97819 0
M  V30 3013 H 269.307 1.85616 -7.97176 0
M  V30 3014 N 271.97 1.30982 0.876444 0
M  V30 3015 C 273.2 1.23063 1.65949 0
M  V30 3016 C 273.608 -0.207537 1.88058 0
M  V30 3017 O 272.951 -1.14781 1.43426 0
M  V30 3018 C 273.013 1.89768 3.05333 0
M  V30 3019 C 272.677 3.39106 3.0636 0
M  V30 3020 C 273.674 4.3496 2.84791 0
M  V30 3021 C 271.359 3.80693 3.27686 0
M  V30 3022 C 273.353 5.70375 2.84519 0
M  V30 3023 C 271.04 5.16223 3.27043 0
M  V30 3024 C 272.038 6.10875 3.05485 0
M  V30 3025 O 271.726 7.43928 3.04674 0
M  V30 3026 H 271.458 0.426685 0.524324 0
M  V30 3027 H 274.012 1.7329 1.10271 0
M  V30 3028 H 272.242 1.34082 3.6271 0
M  V30 3029 H 273.931 1.75853 3.65829 0
M  V30 3030 H 274.697 4.0416 2.68103 0
M  V30 3031 H 270.576 3.07457 3.43499 0
M  V30 3032 H 274.12 6.44228 2.67611 0
M  V30 3033 H 270.017 5.4666 3.43269 0
M  V30 3034 H 270.785 7.53022 3.2078 0
M  V30 3035 N 273.449 -1.08991 1.13837 0
M  V30 3036 C 274.698 -1.80631 0.897509 0
M  V30 3037 C 275.011 -1.86872 -0.57777 0
M  V30 3038 O 276.217 -2.54866 -0.935701 0
M  V30 3039 C 274.673 -3.24517 1.55618 0
M  V30 3040 C 274.281 -3.26529 3.0673 0
M  V30 3041 C 276.025 -4.00882 1.3962 0
M  V30 3042 C 273.932 -4.64965 3.65461 0
M  V30 3043 H 272.862 -0.67691 0.332129 0
M  V30 3044 H 275.513 -1.2246 1.3666 0
M  V30 3045 H 273.895 -3.82778 1.01476 0
M  V30 3046 H 275.069 -2.78008 3.67489 0
M  V30 3047 H 273.384 -2.63656 3.22296 0
M  V30 3048 H 275.981 -5.03167 1.80906 0
M  V30 3049 H 276.324 -4.14896 0.341578 0
M  V30 3050 H 276.857 -3.49075 1.90766 0
M  V30 3051 H 273.596 -4.56153 4.70749 0
M  V30 3052 H 273.116 -5.13792 3.09481 0
M  V30 3053 H 274.795 -5.3394 3.654 0
M  V30 3054 N 274.927 -0.932562 -1.27047 0
M  V30 3055 C 276.343 -0.633544 -1.46487 0
M  V30 3056 C 276.543 0.815746 -1.84249 0
M  V30 3057 O 275.599 1.59319 -1.95892 0
M  V30 3058 C 276.912 -1.58758 -2.55375 0
M  V30 3059 C 278.46 -1.59634 -2.69232 0
M  V30 3060 C 278.935 -2.53747 -3.81283 0
M  V30 3061 N 280.426 -2.51982 -3.88664 0
M  V30 3062 C 281.161 -3.21491 -4.74796 0
M  V30 3063 N 280.657 -4.00395 -5.65381 0
M  V30 3064 N 282.45 -3.10485 -4.68568 0
M  V30 3065 H 274.601 -1.86946 -1.00821 0
M  V30 3066 H 276.864 -0.802897 -0.504044 0
M  V30 3067 H 276.57 -2.62172 -2.34432 0
M  V30 3068 H 276.444 -1.33301 -3.52861 0
M  V30 3069 H 278.831 -0.569488 -2.89553 0
M  V30 3070 H 278.912 -1.89142 -1.72218 0
M  V30 3071 H 278.556 -3.56545 -3.61715 0
M  V30 3072 H 278.486 -2.21532 -4.77735 0
M  V30 3073 H 280.977 -1.94681 -3.23895 0
M  V30 3074 H 281.29 -4.50406 -6.27976 0
M  V30 3075 H 279.635 -4.04498 -5.65161 0
M  V30 3076 H 282.826 -2.48331 -3.96799 0
M  V30 3077 H 282.999 -3.64925 -5.35475 0
M  V30 3078 N 276.405 1.4127 -0.698611 0
M  V30 3079 C 277.653 2.00782 -0.230409 0
M  V30 3080 C 277.974 1.5562 1.17505 0
M  V30 3081 O 277.244 0.78815 1.79346 0
M  V30 3082 H 275.824 0.742464 -0.0821944 0
M  V30 3083 H 278.486 1.72852 -0.90045 0
M  V30 3084 H 277.582 3.11095 -0.25021 0
M  V30 3085 N 277.883 0.443576 1.51229 0
M  V30 3086 C 279.16 -0.181038 1.9476 0
M  V30 3087 C 279.54 -1.59523 1.38259 0
M  V30 3088 O 278.888 -2.2122 0.572198 0
M  V30 3089 C 279.098 -0.152422 3.48667 0
M  V30 3090 C 280.446 -0.354923 4.23114 0
M  V30 3091 O 281.47 -0.230257 3.55455 0
M  V30 3092 O 280.329 -0.603674 5.43156 0
M  V30 3093 H 277.423 -0.1266 0.817252 0
M  V30 3094 H 279.969 0.502004 1.62105 0
M  V30 3095 H 278.741 0.836022 3.82265 0
M  V30 3096 H 278.364 -0.878107 3.87782 0
M  V30 3097 N 279.361 -1.56624 0.175154 0
M  V30 3098 C 280.591 -2.01082 -0.474283 0
M  V30 3099 C 280.999 -1.05447 -1.57091 0
M  V30 3100 O 280.342 -0.0480595 -1.83637 0
M  V30 3101 C 280.404 -3.41963 -1.10911 0
M  V30 3102 C 280.068 -4.56742 -0.153666 0
M  V30 3103 C 281.065 -5.16076 0.629448 0
M  V30 3104 C 278.75 -5.02277 -0.0483776 0
M  V30 3105 C 280.744 -6.19377 1.50501 0
M  V30 3106 C 278.431 -6.05427 0.830768 0
M  V30 3107 C 279.429 -6.63849 1.60605 0
M  V30 3108 O 279.117 -7.64998 2.47049 0
M  V30 3109 H 278.849 -0.664261 -0.125432 0
M  V30 3110 H 281.403 -2.03549 0.275163 0
M  V30 3111 H 279.633 -3.36422 -1.90676 0
M  V30 3112 H 281.322 -3.70352 -1.66114 0
M  V30 3113 H 282.088 -4.81776 0.558297 0
M  V30 3114 H 277.967 -4.56513 -0.641611 0
M  V30 3115 H 281.511 -6.64906 2.1106 0
M  V30 3116 H 277.408 -6.39151 0.903107 0
M  V30 3117 H 278.176 -7.82336 2.40607 0
M  V30 3118 N 280.839 0.0985539 -1.57292 0
M  V30 3119 C 282.088 0.801358 -1.85098 0
M  V30 3120 C 282.401 1.80066 -0.763902 0
M  V30 3121 O 283.607 2.55112 -0.928981 0
M  V30 3122 C 282.063 1.47599 -3.28242 0
M  V30 3123 C 281.671 0.516624 -4.45011 0
M  V30 3124 C 283.415 2.16272 -3.65276 0
M  V30 3125 C 281.322 1.19564 -5.79188 0
M  V30 3126 H 280.252 0.303022 -0.69043 0
M  V30 3127 H 282.903 0.0542623 -1.8342 0
M  V30 3128 H 281.285 2.27042 -3.2445 0
M  V30 3129 H 282.459 -0.246065 -4.60143 0
M  V30 3130 H 280.774 -0.064227 -4.1635 0
M  V30 3131 H 283.371 2.67802 -4.62803 0
M  V30 3132 H 283.714 2.95009 -2.93727 0
M  V30 3133 H 284.247 1.43693 -3.70941 0
M  V30 3134 H 280.986 0.449157 -6.53959 0
M  V30 3135 H 280.506 1.92984 -5.67906 0
M  V30 3136 H 282.185 1.7231 -6.23633 0
M  V30 3137 N 282.317 1.53212 0.369288 0
M  V30 3138 C 283.565 1.68881 1.11012 0
M  V30 3139 C 283.886 0.441285 1.89941 0
M  V30 3140 O 283.156 -0.544623 1.88177 0
M  V30 3141 H 281.736 0.622569 0.412816 0
M  V30 3142 H 284.398 1.90391 0.416802 0
M  V30 3143 H 283.494 2.54822 1.80201 0
M  V30 3144 N 283.795 -0.628877 1.44509 0
M  V30 3145 C 284.742 -1.74074 1.51549 0
M  V30 3146 C 285.712 -1.62084 0.363021 0
M  V30 3147 O 286.897 -1.81975 0.573567 0
M  V30 3148 C 284.037 -3.12328 1.46784 0
M  V30 3149 C 283.15 -3.35277 2.72422 0
M  V30 3150 C 282.285 -4.63515 2.59475 0
M  V30 3151 C 281.324 -4.7965 3.80266 0
M  V30 3152 N 280.461 -5.99168 3.65981 0
M  V30 3153 H 285.301 -1.67392 2.46544 0
M  V30 3154 H 282.838 -0.816527 1.22357 0
M  V30 3155 H 284.796 -3.92286 1.42012 0
M  V30 3156 H 283.426 -3.18018 0.553544 0
M  V30 3157 H 282.478 -2.49242 2.87372 0
M  V30 3158 H 283.79 -3.43078 3.62076 0
M  V30 3159 H 282.944 -5.51638 2.52548 0
M  V30 3160 H 281.683 -4.58076 1.67384 0
M  V30 3161 H 280.688 -3.89957 3.87574 0
M  V30 3162 H 281.913 -4.86902 4.73395 0
M  V30 3163 H 279.859 -5.94814 2.76644 0
M  V30 3164 H 279.776 -6.08035 4.49254 0
M  V30 3165 H 281.044 -6.89846 3.6295 0
M  V30 3166 N 285.273 -1.31445 -0.869486 0
M  V30 3167 C 286.205 -1.14955 -1.98287 0
M  V30 3168 C 287.218 -0.0885037 -1.62559 0
M  V30 3169 O 288.407 -0.336044 -1.75308 0
M  V30 3170 C 285.507 -0.734255 -3.3085 0
M  V30 3171 C 284.68 -1.88042 -3.94917 0
M  V30 3172 C 283.739 -1.4511 -5.05796 0
M  V30 3173 O 282.765 -2.16082 -5.2659 0
M  V30 3174 N 283.967 -0.338763 -5.79511 0
M  V30 3175 H 286.732 -2.10856 -2.12979 0
M  V30 3176 H 284.293 -1.23786 -1.04349 0
M  V30 3177 H 286.285 -0.42975 -4.02412 0
M  V30 3178 H 284.855 0.133158 -3.12316 0
M  V30 3179 H 284.075 -2.35222 -3.1633 0
M  V30 3180 H 285.363 -2.6481 -4.34457 0
M  V30 3181 H 284.761 0.252274 -5.65137 0
M  V30 3182 H 283.318 -0.0937925 -6.51733 0
M  V30 3183 N 286.751 1.08385 -1.14413 0
M  V30 3184 C 287.999 1.80419 -0.910679 0
M  V30 3185 C 288.32 1.86658 0.564243 0
M  V30 3186 O 287.59 1.35985 1.41014 0
M  V30 3187 H 286.17 0.668204 -0.333934 0
M  V30 3188 H 288.832 1.31037 -1.44275 0
M  V30 3189 H 287.928 2.83238 -1.31082 0
M  V30 3190 N 288.23 0.939286 1.26551 0
M  V30 3191 C 289.479 0.581601 1.93133 0
M  V30 3192 C 289.792 -0.883224 1.74524 0
M  V30 3193 O 290.998 -1.3502 2.35546 0
M  V30 3194 C 289.454 0.989425 3.46032 0
M  V30 3195 C 289.062 2.47573 3.73379 0
M  V30 3196 C 290.806 0.703544 4.18629 0
M  V30 3197 C 288.713 2.82235 5.19709 0
M  V30 3198 H 287.643 0.213803 0.723052 0
M  V30 3199 H 290.294 1.14167 1.4366 0
M  V30 3200 H 288.676 0.357902 3.94379 0
M  V30 3201 H 289.85 3.15614 3.35744 0
M  V30 3202 H 288.165 2.73471 3.1401 0
M  V30 3203 H 290.762 0.938869 5.26393 0
M  V30 3204 H 291.105 -0.359639 4.14744 0
M  V30 3205 H 291.638 1.2947 3.76141 0
M  V30 3206 H 288.377 3.87509 5.28694 0
M  V30 3207 H 287.897 2.18854 5.58447 0
M  V30 3208 H 289.576 2.70599 5.87695 0
M  V30 3209 N 289.708 -1.40897 0.706093 0
M  V30 3210 C 290.618 -2.3455 0.0482286 0
M  V30 3211 C 291.634 -1.56796 -0.754396 0
M  V30 3212 O 292.81 -1.89228 -0.689538 0
M  V30 3213 C 289.875 -3.35625 -0.869303 0
M  V30 3214 C 288.936 -4.29261 -0.0576994 0
M  V30 3215 C 288.169 -5.25508 -0.931531 0
M  V30 3216 O 288.392 -5.27472 -2.17092 0
M  V30 3217 O 287.326 -6.00727 -0.375587 0
M  V30 3218 H 291.152 -2.92407 0.820476 0
M  V30 3219 H 288.737 -1.4193 0.4665 0
M  V30 3220 H 290.619 -3.97635 -1.39514 0
M  V30 3221 H 289.294 -2.80196 -1.62086 0
M  V30 3222 H 288.201 -3.70566 0.512988 0
M  V30 3223 H 289.534 -4.87817 0.655426 0
M  V30 3224 N 291.186 -0.45159 -1.50991 0
M  V30 3225 C 292.133 0.352625 -2.2809 0
M  V30 3226 C 293.103 1.0044 -1.32291 0
M  V30 3227 O 294.288 1.02058 -1.6121 0
M  V30 3228 C 291.428 1.43983 -3.13629 0
M  V30 3229 C 290.541 0.804772 -4.24438 0
M  V30 3230 C 289.676 1.86822 -4.97263 0
M  V30 3231 C 288.715 1.21236 -5.99973 0
M  V30 3232 N 287.852 2.2178 -6.66152 0
M  V30 3233 H 292.692 -0.311186 -2.96371 0
M  V30 3234 H 290.229 -0.165308 -1.46168 0
M  V30 3235 H 292.187 2.08161 -3.61559 0
M  V30 3236 H 290.817 2.07307 -2.47434 0
M  V30 3237 H 289.869 0.0509129 -3.80366 0
M  V30 3238 H 291.181 0.286076 -4.97979 0
M  V30 3239 H 290.335 2.58628 -5.48813 0
M  V30 3240 H 289.074 2.42068 -4.23385 0
M  V30 3241 H 288.079 0.479828 -5.47702 0
M  V30 3242 H 289.304 0.667051 -6.75816 0
M  V30 3243 H 287.25 2.76079 -5.95077 0
M  V30 3244 H 287.167 1.74841 -7.35504 0
M  V30 3245 H 288.435 2.93026 -7.22327 0
M  V30 3246 N 292.664 1.56529 -0.183458 0
M  V30 3247 C 293.889 2.02064 0.467428 0
M  V30 3248 C 294.314 1.06282 1.55196 0
M  V30 3249 O 293.672 0.0443565 1.81246 0
M  V30 3250 C 293.72 3.46122 1.01153 0
M  V30 3251 O 292.824 3.53437 2.12499 0
M  V30 3252 H 292.165 0.654726 0.110588 0
M  V30 3253 H 294.695 2.02521 -0.290917 0
M  V30 3254 H 294.705 3.85676 1.33108 0
M  V30 3255 H 293.38 4.15331 0.217533 0
M  V30 3256 H 291.957 3.2575 1.81497 0
M  V30 3257 N 294.142 -0.090211 1.57342 0
M  V30 3258 C 295.372 -0.805055 1.90269 0
M  V30 3259 C 295.78 -1.72561 0.775842 0
M  V30 3260 O 295.123 -1.81839 -0.260843 0
M  V30 3261 C 295.185 -1.66734 3.18497 0
M  V30 3262 C 294.849 -0.918092 4.47683 0
M  V30 3263 C 295.846 -0.245674 5.19319 0
M  V30 3264 C 293.531 -0.890724 4.94339 0
M  V30 3265 C 295.525 0.444088 6.35851 0
M  V30 3266 C 293.212 -0.197179 6.10782 0
M  V30 3267 C 294.21 0.469044 6.81388 0
M  V30 3268 O 293.898 1.15146 7.95611 0
M  V30 3269 H 293.63 -0.235143 0.633785 0
M  V30 3270 H 296.184 -0.0703805 2.05279 0
M  V30 3271 H 294.414 -2.44437 2.99646 0
M  V30 3272 H 296.103 -2.25919 3.37217 0
M  V30 3273 H 296.869 -0.258246 4.84312 0
M  V30 3274 H 292.748 -1.39873 4.39268 0
M  V30 3275 H 296.292 0.964667 6.90898 0
M  V30 3276 H 292.189 -0.18247 6.45242 0
M  V30 3277 H 292.957 1.05885 8.11622 0
M  V30 3278 N 295.62 -1.53406 -0.361157 0
M  V30 3279 C 296.53 -1.83122 -1.4664 0
M  V30 3280 C 297.546 -0.719943 -1.58407 0
M  V30 3281 O 298.722 -1.01046 -1.74218 0
M  V30 3282 C 295.787 -2.01891 -2.81853 0
M  V30 3283 C 294.848 -3.25784 -2.79577 0
M  V30 3284 C 294.081 -3.43648 -4.0834 0
M  V30 3285 O 294.304 -2.65714 -5.0473 0
M  V30 3286 O 293.238 -4.37018 -4.13883 0
M  V30 3287 H 297.064 -2.7703 -1.24451 0
M  V30 3288 H 294.649 -1.38841 -0.551678 0
M  V30 3289 H 296.531 -2.15782 -3.61962 0
M  V30 3290 H 295.206 -1.11173 -3.0401 0
M  V30 3291 H 294.113 -3.17312 -1.98151 0
M  V30 3292 H 295.446 -4.16439 -2.62373 0
M  V30 3293 N 297.098 0.621204 -1.44841 0
M  V30 3294 C 298.323 1.41244 -1.51871 0
M  V30 3295 C 298.748 1.87519 -0.147764 0
M  V30 3296 O 298.106 1.59334 0.865 0
M  V30 3297 C 298.154 2.60221 -2.49634 0
M  V30 3298 O 297.258 3.60395 -2.00473 0
M  V30 3299 H 296.599 0.42223 -0.512463 0
M  V30 3300 H 299.129 0.757305 -1.90069 0
M  V30 3301 H 299.139 3.0764 -2.67996 0
M  V30 3302 H 297.814 2.25887 -3.4921 0
M  V30 3303 H 296.391 3.19717 -1.91925 0
M  V30 3304 N 298.576 1.31904 0.862503 0
M  V30 3305 C 299.806 1.24817 1.64634 0
M  V30 3306 C 300.214 -0.187579 1.88268 0
M  V30 3307 O 299.557 -1.13253 1.44635 0
M  V30 3308 C 299.619 1.92996 3.03303 0
M  V30 3309 C 299.283 3.42336 3.02746 0
M  V30 3310 C 300.28 4.37956 2.80162 0
M  V30 3311 C 297.965 3.84147 3.2363 0
M  V30 3312 C 299.959 5.73361 2.78453 0
M  V30 3313 C 297.646 5.19663 3.21549 0
M  V30 3314 C 298.644 6.14081 2.98988 0
M  V30 3315 O 298.332 7.47118 2.96766 0
M  V30 3316 H 298.064 0.432222 0.519769 0
M  V30 3317 H 300.618 1.7445 1.08427 0
M  V30 3318 H 298.848 1.37922 3.61268 0
M  V30 3319 H 300.537 1.79723 3.63943 0
M  V30 3320 H 301.303 4.06981 2.63802 0
M  V30 3321 H 297.182 3.11083 3.40218 0
M  V30 3322 H 300.726 6.4703 2.60763 0
M  V30 3323 H 296.623 5.5027 3.37451 0
M  V30 3324 H 297.391 7.56382 3.12775 0
M  V30 3325 N 300.054 -1.07777 1.14986 0
M  V30 3326 C 300.984 -2.16865 0.865557 0
M  V30 3327 C 301.965 -1.69123 -0.182083 0
M  V30 3328 O 303.15 -1.94164 -0.0373815 0
M  V30 3329 C 300.28 -3.45539 0.349313 0
M  V30 3330 C 299.234 -4.06708 1.33313 0
M  V30 3331 C 298.56 -5.30411 0.675918 0
M  V30 3332 C 299.86 -4.47241 2.69764 0
M  V30 3333 H 301.554 -2.40905 1.77778 0
M  V30 3334 H 299.1 -1.15781 0.856203 0
M  V30 3335 H 301.053 -4.21174 0.137983 0
M  V30 3336 H 299.777 -3.21072 -0.598362 0
M  V30 3337 H 298.436 -3.33112 1.53075 0
M  V30 3338 H 298.084 -5.02232 -0.277767 0
M  V30 3339 H 297.784 -5.72293 1.33244 0
M  V30 3340 H 299.308 -6.08755 0.474262 0
M  V30 3341 H 300.722 -5.14025 2.53873 0
M  V30 3342 H 299.119 -5.00062 3.3175 0
M  V30 3343 H 300.189 -3.58818 3.26156 0
M  V30 3344 N 301.532 -0.945985 -1.26051 0
M  V30 3345 C 302.948 -0.649045 -1.45807 0
M  V30 3346 C 303.148 0.796158 -1.85104 0
M  V30 3347 O 302.204 1.57233 -1.97571 0
M  V30 3348 C 303.517 -1.61458 -2.53677 0
M  V30 3349 C 305.065 -1.62481 -2.67524 0
M  V30 3350 C 305.54 -2.57776 -3.7857 0
M  V30 3351 N 307.031 -2.5609 -3.85969 0
M  V30 3352 C 307.766 -3.26508 -4.7136 0
M  V30 3353 N 307.262 -4.0637 -5.61102 0
M  V30 3354 N 309.055 -3.15437 -4.65248 0
M  V30 3355 H 301.206 -1.88005 -0.988328 0
M  V30 3356 H 303.469 -0.808198 -0.4955 0
M  V30 3357 H 303.175 -2.64644 -2.31638 0
M  V30 3358 H 303.049 -1.37036 -3.51427 0
M  V30 3359 H 305.436 -0.600167 -2.88933 0
M  V30 3360 H 305.517 -1.90958 -1.70202 0
M  V30 3361 H 305.161 -3.60361 -3.57913 0
M  V30 3362 H 305.091 -2.26587 -4.75359 0
M  V30 3363 H 307.582 -1.98105 -3.21812 0
M  V30 3364 H 307.895 -4.57042 -6.23164 0
M  V30 3365 H 306.24 -4.10469 -5.60839 0
M  V30 3366 H 309.431 -2.52525 -3.94143 0
M  V30 3367 H 309.604 -3.70584 -5.31575 0
M  V30 3368 N 303.011 1.40521 -0.713556 0
M  V30 3369 C 304.259 2.00527 -0.251692 0
M  V30 3370 C 304.58 1.56857 1.15848 0
M  V30 3371 O 303.85 0.807127 1.785 0
M  V30 3372 H 302.43 0.741551 -0.0900646 0
M  V30 3373 H 305.092 1.71887 -0.918733 0
M  V30 3374 H 304.188 3.10813 -0.283192 0
M  V30 3375 N 304.489 0.459591 1.5075 0
M  V30 3376 C 305.399 -0.34613 2.32033 0
M  V30 3377 C 306.415 -1.00686 1.41909 0
M  V30 3378 O 307.591 -0.997361 1.7497 0
M  V30 3379 C 304.656 -1.42029 3.16273 0
M  V30 3380 C 303.717 -0.777362 4.22203 0
M  V30 3381 C 302.95 -1.80034 5.02418 0
M  V30 3382 O 303.173 -3.02544 4.83553 0
M  V30 3383 O 302.107 -1.37853 5.85901 0
M  V30 3384 H 305.933 0.318054 3.0203 0
M  V30 3385 H 303.518 0.221663 1.47746 0
M  V30 3386 H 305.4 -2.04275 3.68578 0
M  V30 3387 H 304.075 -2.06815 2.49016 0
M  V30 3388 H 302.982 -0.116256 3.73919 0
M  V30 3389 H 304.315 -0.172634 4.91897 0
M  V30 3390 N 305.967 -1.56429 0.191757 0
M  V30 3391 C 306.914 -2.18936 -0.730454 0
M  V30 3392 C 307.884 -1.13557 -1.21219 0
M  V30 3393 O 309.069 -1.41794 -1.27668 0
M  V30 3394 C 306.209 -2.85013 -1.9458 0
M  V30 3395 C 305.322 -4.04909 -1.50574 0
M  V30 3396 C 304.457 -4.58853 -2.67634 0
M  V30 3397 C 303.496 -5.71114 -2.20217 0
M  V30 3398 N 302.633 -6.19478 -3.30442 0
M  V30 3399 H 307.473 -2.97389 -0.190664 0
M  V30 3400 H 305.01 -1.46869 -0.0823694 0
M  V30 3401 H 306.968 -3.21492 -2.65893 0
M  V30 3402 H 305.598 -2.09129 -2.45896 0
M  V30 3403 H 304.65 -3.74115 -0.688605 0
M  V30 3404 H 305.962 -4.86113 -1.11784 0
M  V30 3405 H 305.116 -4.97619 -3.47074 0
M  V30 3406 H 303.855 -3.76749 -3.09696 0
M  V30 3407 H 302.86 -5.31879 -1.3923 0
M  V30 3408 H 304.085 -6.55033 -1.79189 0
M  V30 3409 H 302.031 -5.40297 -3.72041 0
M  V30 3410 H 301.948 -6.95725 -2.9581 0
M  V30 3411 H 303.216 -6.62898 -4.10106 0
M  V30 3412 N 307.445 0.0818655 -1.57387 0
M  V30 3413 C 308.693 0.781368 -1.86384 0
M  V30 3414 C 309.014 1.78618 -0.782342 0
M  V30 3415 O 308.284 1.94976 0.190061 0
M  V30 3416 H 306.864 0.291562 -0.687751 0
M  V30 3417 H 309.526 0.060348 -1.94807 0
M  V30 3418 H 308.622 1.3038 -2.83562 0
M  V30 3419 N 308.923 1.53595 0.353017 0
M  V30 3420 C 310.169 1.70638 1.09593 0
M  V30 3421 C 310.502 0.463286 1.88593 0
M  V30 3422 O 309.777 -0.539597 1.86865 0
M  V30 3423 C 310.06 2.96406 2.04489 0
M  V30 3424 C 309.913 4.30901 1.29014 0
M  V30 3425 C 311.232 3.17812 3.0444 0
M  V30 3426 H 308.351 0.620913 0.397034 0
M  V30 3427 H 310.993 1.86254 0.375446 0
M  V30 3428 H 309.143 2.83223 2.65927 0
M  V30 3429 H 310.815 4.55917 0.702638 0
M  V30 3430 H 309.058 4.29741 0.592071 0
M  V30 3431 H 309.729 5.1506 1.98537 0
M  V30 3432 H 312.205 3.30263 2.53112 0
M  V30 3433 H 311.081 4.07223 3.6805 0
M  V30 3434 H 311.342 2.33669 3.75301 0
M  V30 3435 N 310.401 -0.613514 1.45168 0
M  V30 3436 C 311.311 -1.75296 1.55912 0
M  V30 3437 C 312.327 -1.68244 0.443856 0
M  V30 3438 O 313.503 -1.88706 0.70371 0
M  V30 3439 C 310.568 -3.1174 1.5172 0
M  V30 3440 C 309.629 -3.30291 2.74238 0
M  V30 3441 C 308.862 -4.60226 2.70236 0
M  V30 3442 O 309.085 -5.42168 1.77229 0
M  V30 3443 O 308.019 -4.81361 3.61352 0
M  V30 3444 H 311.845 -1.69183 2.52212 0
M  V30 3445 H 309.43 -0.776886 1.27612 0
M  V30 3446 H 311.312 -3.93044 1.51968 0
M  V30 3447 H 309.987 -3.18357 0.585697 0
M  V30 3448 H 308.894 -2.48598 2.79553 0
M  V30 3449 H 310.227 -3.28547 3.66494 0
M  V30 3450 N 311.879 -1.3236 -0.855495 0
M  V30 3451 C 313.125 -1.23054 -1.612 0
M  V30 3452 C 313.458 0.207404 -1.93089 0
M  V30 3453 O 312.733 1.14432 -1.57275 0
M  V30 3454 C 313.016 -2.08937 -2.93287 0
M  V30 3455 C 312.869 -3.61105 -2.68185 0
M  V30 3456 C 314.188 -1.94986 -3.94549 0
M  V30 3457 H 311.307 -0.448364 -0.584926 0
M  V30 3458 H 313.949 -1.62297 -0.987917 0
M  V30 3459 H 312.099 -1.75599 -3.46551 0
M  V30 3460 H 313.771 -4.04652 -2.21483 0
M  V30 3461 H 312.014 -3.83813 -2.02164 0
M  V30 3462 H 312.685 -4.16522 -3.62234 0
M  V30 3463 H 315.161 -2.24189 -3.5054 0
M  V30 3464 H 314.037 -2.57356 -4.84829 0
M  V30 3465 H 314.298 -0.917263 -4.3248 0
M  V30 3466 N 313.357 1.07166 -1.15556 0
M  V30 3467 C 314.287 2.16403 -0.877046 0
M  V30 3468 C 315.268 1.69217 0.173111 0
M  V30 3469 O 316.453 1.94181 0.027084 0
M  V30 3470 C 313.583 3.45349 -0.367632 0
M  V30 3471 C 312.537 4.05995 -1.35468 0
M  V30 3472 C 311.863 5.30045 -0.704038 0
M  V30 3473 C 313.163 4.45804 -2.72132 0
M  V30 3474 H 314.857 2.39959 -1.79053 0
M  V30 3475 H 312.403 1.15325 -0.862331 0
M  V30 3476 H 314.356 4.21095 -0.160317 0
M  V30 3477 H 313.08 3.21385 0.581326 0
M  V30 3478 H 311.739 3.32296 -1.54839 0
M  V30 3479 H 311.387 5.02373 0.251128 0
M  V30 3480 H 311.087 5.71579 -1.36277 0
M  V30 3481 H 312.611 6.08495 -0.50654 0
M  V30 3482 H 314.025 5.12671 -2.56595 0
M  V30 3483 H 312.422 4.98296 -3.34397 0
M  V30 3484 H 313.492 3.57083 -3.28054 0
M  V30 3485 N 314.835 0.952656 1.25548 0
M  V30 3486 C 315.765 0.489287 2.28316 0
M  V30 3487 C 316.746 -0.463359 1.63667 0
M  V30 3488 O 317.931 -0.36274 1.90782 0
M  V30 3489 C 315.061 -0.235603 3.465 0
M  V30 3490 C 314.015 0.631593 4.23314 0
M  V30 3491 C 313.341 -0.223923 5.34231 0
M  V30 3492 C 314.641 1.90871 4.86174 0
M  V30 3493 H 316.335 1.34822 2.67326 0
M  V30 3494 H 313.881 0.649728 1.28509 0
M  V30 3495 H 315.834 -0.570882 4.17515 0
M  V30 3496 H 314.558 -1.12877 3.06474 0
M  V30 3497 H 313.217 0.949929 3.54079 0
M  V30 3498 H 312.865 -1.11678 4.90446 0
M  V30 3499 H 312.565 0.35299 5.86539 0
M  V30 3500 H 314.089 -0.554214 6.0808 0
M  V30 3501 H 315.503 1.63997 5.49343 0
M  V30 3502 H 313.9 2.43112 5.4865 0
M  V30 3503 H 314.97 2.61304 4.08471 0
M  V30 3504 N 316.313 -1.40141 0.720998 0
M  V30 3505 C 317.729 -1.54632 0.395113 0
M  V30 3506 C 317.929 -1.69115 -1.09555 0
M  V30 3507 O 316.985 -1.68377 -1.88163 0
M  V30 3508 C 318.298 -2.77177 1.1659 0
M  V30 3509 C 319.846 -2.91 1.15274 0
M  V30 3510 C 320.321 -4.16465 1.90579 0
M  V30 3511 N 321.812 -4.23476 1.87675 0
M  V30 3512 C 322.547 -5.19475 2.42762 0
M  V30 3513 N 322.043 -6.21348 3.06428 0
M  V30 3514 N 323.836 -5.11592 2.32874 0
M  V30 3515 H 315.987 -1.28986 1.68749 0
M  V30 3516 H 318.25 -0.62412 0.713567 0
M  V30 3517 H 317.956 -2.72771 2.22011 0
M  V30 3518 H 317.83 -3.69442 0.76108 0
M  V30 3519 H 320.217 -2.94907 0.106702 0
M  V30 3520 H 320.298 -1.99838 1.59682 0
M  V30 3521 H 319.942 -4.1332 2.95176 0
M  V30 3522 H 319.872 -5.06646 1.43587 0
M  V30 3523 H 322.363 -3.50497 1.41281 0
M  V30 3524 H 322.676 -6.91034 3.45965 0
M  V30 3525 H 321.021 -6.21777 3.10514 0
M  V30 3526 H 324.212 -4.30936 1.82789 0
M  V30 3527 H 324.385 -5.86233 2.76106 0
M  V30 3528 N 317.792 -0.46758 -1.50504 0
M  V30 3529 C 319.069 0.15003 -1.95024 0
M  V30 3530 C 319.449 1.57304 -1.40779 0
M  V30 3531 O 318.797 2.20281 -0.607319 0
M  V30 3532 C 319.007 0.0969324 -3.48865 0
M  V30 3533 C 320.355 0.287565 -4.23625 0
M  V30 3534 O 321.379 0.173678 -3.55776 0
M  V30 3535 O 320.238 0.517186 -5.44047 0
M  V30 3536 H 317.332 0.113582 -0.819163 0
M  V30 3537 H 319.878 -0.52773 -1.61286 0
M  V30 3538 H 318.65 -0.896732 -3.80886 0
M  V30 3539 H 318.273 0.816303 -3.8913 0
M  V30 3540 N 319.27 1.56325 -0.20005 0
M  V30 3541 C 320.233 2.18084 0.705132 0
M  V30 3542 C 321.233 1.13666 1.1374 0
M  V30 3543 O 322.423 1.39023 1.04968 0
M  V30 3544 C 319.555 2.78689 1.96329 0
M  V30 3545 H 320.748 2.99435 0.167023 0
M  V30 3546 H 318.301 1.56221 0.0495725 0
M  V30 3547 H 319.036 2.0115 2.5438 0
M  V30 3548 H 318.821 3.55133 1.66202 0
M  V30 3549 H 320.311 3.26096 2.60866 0
M  V30 3550 N 320.748 -0.0735177 1.57428 0
M  V30 3551 C 321.698 -1.09442 2.00016 0
M  V30 3552 C 322.682 -1.34575 0.881947 0
M  V30 3553 O 323.874 -1.34905 1.14585 0
M  V30 3554 C 321.003 -2.40865 2.4462 0
M  V30 3555 C 320.089 -2.19014 3.63172 0
M  V30 3556 N 320.48 -1.67087 4.77405 0
M  V30 3557 C 318.778 -2.49494 3.69688 0
M  V30 3558 C 319.479 -1.6001 5.5926 0
M  V30 3559 N 318.455 -2.05999 5.03056 0
M  V30 3560 H 322.257 -0.686227 2.85776 0
M  V30 3561 H 319.771 -0.280617 1.59957 0
M  V30 3562 H 321.768 -3.14763 2.73368 0
M  V30 3563 H 320.428 -2.82403 1.60246 0
M  V30 3564 H 321.439 -1.35975 4.99731 0
M  V30 3565 H 318.116 -2.94409 2.96023 0
M  V30 3566 H 319.506 -1.2073 6.60964 0
M  V30 3567 N 322.226 -1.5378 -0.344866 0
M  V30 3568 C 323.474 -1.70625 -1.08311 0
M  V30 3569 C 323.795 -0.471447 -1.89215 0
M  V30 3570 O 323.065 0.514616 -1.8902 0
M  V30 3571 H 321.645 -0.629058 -0.402859 0
M  V30 3572 H 324.307 -1.9103 -0.386459 0
M  V30 3573 H 323.403 -2.57656 -1.76124 0
M  V30 3574 N 323.704 0.605807 -1.45491 0
M  V30 3575 C 325.12 0.926751 -1.29936 0
M  V30 3576 C 325.32 1.99896 -0.253706 0
M  V30 3577 O 324.376 2.50038 0.351737 0
M  V30 3578 C 325.689 1.36599 -2.67883 0
M  V30 3579 C 327.237 1.4801 -2.75793 0
M  V30 3580 C 327.712 1.95309 -4.14268 0
M  V30 3581 N 329.203 2.0254 -4.16571 0
M  V30 3582 C 329.938 2.40363 -5.20589 0
M  V30 3583 N 329.434 2.77143 -6.34952 0
M  V30 3584 N 331.227 2.40718 -5.07948 0
M  V30 3585 H 323.378 -0.102862 -2.12151 0
M  V30 3586 H 325.641 0.016639 -0.947854 0
M  V30 3587 H 325.347 0.652306 -3.45598 0
M  V30 3588 H 325.221 2.33215 -2.96463 0
M  V30 3589 H 327.608 2.1847 -1.98381 0
M  V30 3590 H 327.689 0.497041 -2.50925 0
M  V30 3591 H 327.333 1.25436 -4.92167 0
M  V30 3592 H 327.263 2.94532 -4.3653 0
M  V30 3593 H 329.754 1.76699 -3.34045 0
M  V30 3594 H 330.067 3.0489 -7.10114 0
M  V30 3595 H 328.412 2.74834 -6.3835 0
M  V30 3596 H 331.603 2.11392 -4.1765 0
M  V30 3597 H 331.776 2.69869 -5.89131 0
M  V30 3598 N 325.182 1.32811 0.848464 0
M  V30 3599 C 326.431 1.23075 1.59798 0
M  V30 3600 C 326.744 -0.204419 1.94529 0
M  V30 3601 O 327.95 -0.423701 2.68173 0
M  V30 3602 C 326.406 2.15594 2.88179 0
M  V30 3603 C 326.014 3.64228 2.60849 0
M  V30 3604 C 327.758 2.14709 3.66197 0
M  V30 3605 C 325.665 4.48689 3.85269 0
M  V30 3606 H 324.595 0.457091 0.599653 0
M  V30 3607 H 327.246 1.57813 0.936342 0
M  V30 3608 H 325.628 1.73778 3.55833 0
M  V30 3609 H 326.802 4.14424 2.01467 0
M  V30 3610 H 325.117 3.67306 1.96151 0
M  V30 3611 H 327.714 2.75046 4.58534 0
M  V30 3612 H 328.057 1.13966 4.00397 0
M  V30 3613 H 328.59 2.54837 3.05455 0
M  V30 3614 H 325.329 5.5027 3.56207 0
M  V30 3615 H 324.849 4.03241 4.44024 0
M  V30 3616 H 326.528 4.62006 4.52946 0
M  V30 3617 N 326.66 -1.06551 1.16123 0
M  V30 3618 C 327.592 -2.13908 0.823171 0
M  V30 3619 C 328.605 -1.61926 -0.16843 0
M  V30 3620 O 329.794 -1.78412 0.055962 0
M  V30 3621 C 326.894 -3.38283 0.204424 0
M  V30 3622 C 326.067 -4.19589 1.23548 0
M  V30 3623 C 325.126 -5.2233 0.637011 0
M  V30 3624 O 324.152 -5.54034 1.30516 0
M  V30 3625 N 325.354 -5.77621 -0.577474 0
M  V30 3626 H 328.119 -2.43508 1.74711 0
M  V30 3627 H 325.68 -1.2253 1.05821 0
M  V30 3628 H 327.672 -4.0416 -0.208909 0
M  V30 3629 H 326.242 -3.06329 -0.623012 0
M  V30 3630 H 325.462 -3.49406 1.82507 0
M  V30 3631 H 326.75 -4.70718 1.93137 0
M  V30 3632 H 326.148 -5.54125 -1.13853 0
M  V30 3633 H 324.705 -6.45087 -0.933053 0
M  V30 3634 N 328.138 -0.959301 -1.25041 0
M  V30 3635 C 329.386 -0.615393 -1.92503 0
M  V30 3636 C 329.707 0.850969 -1.75452 0
M  V30 3637 O 328.977 1.60658 -1.12098 0
M  V30 3638 H 327.557 -0.224613 -0.712431 0
M  V30 3639 H 330.219 -1.21855 -1.5211 0
M  V30 3640 H 329.315 -0.848738 -3.00338 0
M  V30 3641 N 329.616 1.39756 -0.72842 0
M  V30 3642 C 330.566 2.2792 -0.0603424 0
M  V30 3643 C 331.55 1.43922 0.719399 0
M  V30 3644 O 332.742 1.66895 0.589489 0
M  V30 3645 C 329.871 3.32582 0.851104 0
M  V30 3646 C 328.957 4.24049 0.0658641 0
M  V30 3647 N 329.348 4.96653 -0.957578 0
M  V30 3648 C 327.646 4.45013 0.296509 0
M  V30 3649 C 328.347 5.63836 -1.43052 0
M  V30 3650 N 327.323 5.38397 -0.750315 0
M  V30 3651 H 331.125 2.81504 -0.84455 0
M  V30 3652 H 328.639 1.5236 -0.562155 0
M  V30 3653 H 330.636 3.94603 1.34514 0
M  V30 3654 H 329.296 2.80558 1.63454 0
M  V30 3655 H 330.307 5.00297 -1.33877 0
M  V30 3656 H 326.984 4.03943 1.05527 0
M  V30 3657 H 328.374 6.31974 -2.28163 0
M  V30 3658 N 331.094 0.475555 1.50254 0
M  V30 3659 C 332.324 -0.0753399 2.06463 0
M  V30 3660 C 332.732 -1.33661 1.33908 0
M  V30 3661 O 332.075 -1.79219 0.403257 0
M  V30 3662 C 332.137 -0.424921 3.5698 0
M  V30 3663 C 331.801 0.734965 4.51051 0
M  V30 3664 C 332.798 1.61827 4.94073 0
M  V30 3665 C 330.483 0.926557 4.9368 0
M  V30 3666 C 332.477 2.67754 5.78434 0
M  V30 3667 C 330.164 1.98904 5.77824 0
M  V30 3668 C 331.162 2.8629 6.20103 0
M  V30 3669 O 330.85 3.90708 7.02568 0
M  V30 3670 H 330.582 0.00576308 0.675975 0
M  V30 3671 H 333.136 0.664662 1.94349 0
M  V30 3672 H 331.366 -1.21817 3.67012 0
M  V30 3673 H 333.055 -0.911422 3.95535 0
M  V30 3674 H 333.821 1.48196 4.61804 0
M  V30 3675 H 329.7 0.25584 4.6029 0
M  V30 3676 H 333.244 3.35992 6.11355 0
M  V30 3677 H 329.141 2.12541 6.09505 0
M  V30 3678 H 329.909 3.87751 7.20827 0
M  V30 3679 N 332.573 -1.56217 0.208337 0
M  V30 3680 C 333.506 -2.15633 -0.746842 0
M  V30 3681 C 334.484 -1.09685 -1.20034 0
M  V30 3682 O 335.668 -1.3787 -1.28547 0
M  V30 3683 C 332.795 -2.72594 -2.01023 0
M  V30 3684 C 331.841 -3.91251 -1.69779 0
M  V30 3685 S 332.674 -5.28962 -0.834209 0
M  V30 3686 C 333.83 -5.89353 -2.10745 0
M  V30 3687 H 334.063 -2.96315 -0.241789 0
M  V30 3688 H 331.596 -1.54398 -0.00682183 0
M  V30 3689 H 333.554 -3.06053 -2.73572 0
M  V30 3690 H 332.215 -1.91929 -2.48641 0
M  V30 3691 H 331.408 -4.29562 -2.63614 0
M  V30 3692 H 331.01 -3.58869 -1.05303 0
M  V30 3693 H 333.302 -6.04522 -3.05875 0
M  V30 3694 H 334.245 -6.85661 -1.76845 0
M  V30 3695 H 334.653 -5.1807 -2.24196 0
M  V30 3696 N 334.051 0.0651679 -1.57465 0
M  V30 3697 C 335.328 0.79644 -1.78651 0
M  V30 3698 C 335.708 1.95454 -0.797566 0
M  V30 3699 O 335.056 2.27882 0.167946 0
M  V30 3700 C 335.266 1.26322 -3.25337 0
M  V30 3701 C 336.614 1.6939 -3.89348 0
M  V30 3702 O 337.638 1.35872 -3.29268 0
M  V30 3703 O 336.497 2.31471 -4.95059 0
M  V30 3704 H 333.591 0.382157 -0.733407 0
M  V30 3705 H 336.137 0.0447311 -1.69641 0
M  V30 3706 H 334.909 0.434859 -3.88876 0
M  V30 3707 H 334.532 2.07604 -3.39096 0
M  V30 3708 N 335.529 1.53961 0.336706 0
M  V30 3709 C 336.777 1.71197 1.07405 0
M  V30 3710 C 337.098 0.481475 1.88962 0
M  V30 3711 O 336.368 -0.504585 1.8929 0
M  V30 3712 H 334.948 0.631185 0.399517 0
M  V30 3713 H 337.61 1.91232 0.376323 0
M  V30 3714 H 336.706 2.58587 1.74755 0
M  V30 3715 N 337.007 -0.598083 1.45811 0
M  V30 3716 C 337.954 -1.7082 1.55207 0
M  V30 3717 C 338.924 -1.61278 0.39732 0
M  V30 3718 O 340.109 -1.80717 0.612038 0
M  V30 3719 C 337.249 -3.09144 1.53376 0
M  V30 3720 C 336.362 -3.29423 2.79472 0
M  V30 3721 C 335.497 -4.57907 2.69248 0
M  V30 3722 C 334.536 -4.71476 3.90354 0
M  V30 3723 N 333.673 -5.9127 3.78608 0
M  V30 3724 H 338.513 -1.62125 2.50039 0
M  V30 3725 H 336.05 -0.790389 1.24062 0
M  V30 3726 H 338.008 -3.89186 1.50301 0
M  V30 3727 H 336.638 -3.16773 0.620876 0
M  V30 3728 H 335.69 -2.43091 2.92594 0
M  V30 3729 H 337.002 -3.3532 3.69272 0
M  V30 3730 H 336.156 -5.46157 2.64192 0
M  V30 3731 H 334.895 -4.54423 1.77063 0
M  V30 3732 H 333.9 -3.81648 3.95759 0
M  V30 3733 H 335.125 -4.76751 4.83617 0
M  V30 3734 H 333.071 -5.88813 2.89199 0
M  V30 3735 H 332.988 -5.98369 4.6205 0
M  V30 3736 H 334.256 -6.81992 3.77501 0
M  V30 3737 N 338.485 -1.33259 -0.841409 0
M  V30 3738 C 339.715 -1.2742 -1.62628 0
M  V30 3739 C 340.123 0.157604 -1.88542 0
M  V30 3740 O 339.466 1.10938 -1.46419 0
M  V30 3741 C 339.528 -1.97797 -3.00194 0
M  V30 3742 C 339.192 -3.47109 -2.97261 0
M  V30 3743 C 340.189 -4.42358 -2.73159 0
M  V30 3744 C 337.874 -3.89247 -3.17478 0
M  V30 3745 C 339.868 -5.77718 -2.69296 0
M  V30 3746 C 337.555 -5.24713 -3.13241 0
M  V30 3747 C 338.553 -6.1876 -2.89181 0
M  V30 3748 O 338.241 -7.51745 -2.84843 0
M  V30 3749 H 337.973 -0.440436 -0.512827 0
M  V30 3750 H 340.527 -1.76153 -1.05638 0
M  V30 3751 H 338.757 -1.43652 -3.59028 0
M  V30 3752 H 340.446 -1.8549 -3.61038 0
M  V30 3753 H 341.212 -4.11127 -2.57294 0
M  V30 3754 H 337.091 -3.16456 -3.35226 0
M  V30 3755 H 340.635 -6.51097 -2.50436 0
M  V30 3756 H 336.532 -5.55569 -3.28654 0
M  V30 3757 H 337.3 -7.61262 -3.00702 0
M  V30 3758 N 339.963 1.05934 -1.16686 0
M  V30 3759 C 341.24 1.75643 -0.860747 0
M  V30 3760 C 341.62 2.01144 0.640641 0
M  V30 3761 O 340.968 1.64147 1.58959 0
M  V30 3762 C 341.178 3.05493 -1.68745 0
M  V30 3763 C 342.526 3.79581 -1.90271 0
M  V30 3764 O 343.55 3.15344 -1.65641 0
M  V30 3765 O 342.409 4.9499 -2.31618 0
M  V30 3766 H 339.503 0.763426 -0.317977 0
M  V30 3767 H 342.049 1.1217 -1.27342 0
M  V30 3768 H 340.821 2.8264 -2.70611 0
M  V30 3769 H 340.444 3.76702 -1.27206 0
M  V30 3770 N 341.441 0.965919 1.2453 0
M  V30 3771 C 342.388 0.49402 2.25451 0
M  V30 3772 C 343.358 -0.45948 1.59618 0
M  V30 3773 O 344.543 -0.370238 1.87173 0
M  V30 3774 C 341.683 -0.211359 3.44452 0
M  V30 3775 C 340.796 0.7807 4.24887 0
M  V30 3776 C 339.931 0.0516105 5.31175 0
M  V30 3777 C 338.97 1.03385 6.03306 0
M  V30 3778 N 338.107 0.334887 7.01301 0
M  V30 3779 H 342.947 1.35946 2.65184 0
M  V30 3780 H 340.484 0.681515 1.3036 0
M  V30 3781 H 342.442 -0.637 4.12308 0
M  V30 3782 H 341.072 -1.04077 3.05562 0
M  V30 3783 H 340.124 1.32479 3.56586 0
M  V30 3784 H 341.436 1.52978 4.74762 0
M  V30 3785 H 340.59 -0.432114 6.05159 0
M  V30 3786 H 339.329 -0.730179 4.82203 0
M  V30 3787 H 338.334 1.52847 5.28127 0
M  V30 3788 H 339.559 1.81606 6.54367 0
M  V30 3789 H 337.505 -0.427959 6.54603 0
M  V30 3790 H 337.422 1.02287 7.49048 0
M  V30 3791 H 338.69 -0.126928 7.79397 0
M  V30 3792 N 342.919 -1.39368 0.735821 0
M  V30 3793 C 344.335 -1.54204 0.411492 0
M  V30 3794 C 344.535 -1.70268 -1.07755 0
M  V30 3795 O 343.591 -1.70364 -1.86366 0
M  V30 3796 C 344.904 -2.75925 1.19523 0
M  V30 3797 C 346.452 -2.89761 1.18354 0
M  V30 3798 C 346.927 -4.14421 1.94986 0
M  V30 3799 N 348.418 -4.21462 1.92156 0
M  V30 3800 C 349.153 -5.16871 2.48258 0
M  V30 3801 N 348.649 -6.18063 3.13001 0
M  V30 3802 N 350.442 -5.09093 2.38287 0
M  V30 3803 H 342.593 -1.27189 1.70108 0
M  V30 3804 H 344.856 -0.616517 0.720147 0
M  V30 3805 H 344.562 -2.70401 2.24892 0
M  V30 3806 H 344.436 -3.68614 0.800222 0
M  V30 3807 H 346.823 -2.94777 0.137975 0
M  V30 3808 H 346.904 -1.98133 1.61793 0
M  V30 3809 H 346.548 -4.10166 2.99543 0
M  V30 3810 H 346.478 -5.05095 1.48953 0
M  V30 3811 H 348.969 -3.48979 1.44991 0
M  V30 3812 H 349.282 -6.87326 3.53275 0
M  V30 3813 H 347.627 -6.18448 3.17091 0
M  V30 3814 H 350.818 -4.28973 1.8735 0
M  V30 3815 H 350.991 -5.83272 2.82308 0
M  V30 3816 N 344.397 -0.483516 -1.5 0
M  V30 3817 C 345.808 -0.0314176 -1.86674 0
M  V30 3818 C 346.159 1.37728 -1.39733 0
M  V30 3819 O 345.284 2.02327 -0.767635 0
M  V30 3820 C 345.879 -0.0502376 -3.38763 0
M  V30 3821 C 344.438 0.346442 -3.74802 0
M  V30 3822 C 343.585 -0.430366 -2.7394 0
M  V30 3823 H 346.536 -0.697182 -1.42566 0
M  V30 3824 H 346.557 0.749116 -3.73053 0
M  V30 3825 H 346.069 -1.07563 -3.72897 0
M  V30 3826 H 344.17 1.37572 -3.46273 0
M  V30 3827 H 344.283 0.0391486 -4.79084 0
M  V30 3828 H 342.647 0.117557 -2.54429 0
M  V30 3829 H 343.43 -1.4555 -3.10918 0
M  V30 3830 N 345.875 1.56104 -0.216619 0
M  V30 3831 C 347.124 1.97348 0.416744 0
M  V30 3832 C 347.437 1.10715 1.6125 0
M  V30 3833 O 348.643 1.41836 2.31506 0
M  V30 3834 C 347.099 3.51059 0.792835 0
M  V30 3835 C 346.707 4.46387 -0.379828 0
M  V30 3836 C 348.451 4.01026 1.39208 0
M  V30 3837 C 346.358 5.91397 0.0184223 0
M  V30 3838 H 345.288 0.736942 0.159475 0
M  V30 3839 H 347.939 1.80827 -0.31205 0
M  V30 3840 H 346.321 3.63162 1.57891 0
M  V30 3841 H 347.495 4.46029 -1.15737 0
M  V30 3842 H 345.81 4.06734 -0.891979 0
M  V30 3843 H 348.407 5.0686 1.70286 0
M  V30 3844 H 348.75 3.46587 2.30614 0
M  V30 3845 H 349.283 3.92125 0.669537 0
M  V30 3846 H 346.022 6.49807 -0.862002 0
M  V30 3847 H 345.542 5.94961 0.760384 0
M  V30 3848 H 347.221 6.45455 0.446818 0
M  V30 3849 N 347.353 -0.0568162 1.57498 0
M  V30 3850 C 348.764 -0.606858 1.76562 0
M  V30 3851 C 349.115 -1.77114 0.844094 0
M  V30 3852 O 348.24 -2.16376 0.0318911 0
M  V30 3853 C 348.835 -1.10766 3.20182 0
M  V30 3854 C 347.394 -1.60344 3.40539 0
M  V30 3855 C 346.541 -0.529311 2.72201 0
M  V30 3856 H 349.492 0.169393 1.57793 0
M  V30 3857 H 349.513 -1.97602 3.25167 0
M  V30 3858 H 349.025 -0.26006 3.87228 0
M  V30 3859 H 347.126 -2.47379 2.78629 0
M  V30 3860 H 347.239 -1.67006 4.4905 0
M  V30 3861 H 345.603 -0.977893 2.35179 0
M  V30 3862 H 346.386 0.308352 3.41912 0
M  V30 3863 N 348.832 -1.54138 -0.328536 0
M  V30 3864 C 350.08 -1.71765 -1.06496 0
M  V30 3865 C 350.401 -0.49149 -1.88704 0
M  V30 3866 O 349.671 0.494539 -1.89555 0
M  V30 3867 H 348.251 -0.633295 -0.396164 0
M  V30 3868 H 350.913 -1.91429 -0.366176 0
M  V30 3869 H 350.009 -2.5951 -1.73381 0
M  V30 3870 N 350.31 0.590341 -1.46126 0
M  V30 3871 C 351.257 1.69994 -1.56111 0
M  V30 3872 C 352.227 1.61065 -0.405867 0
M  V30 3873 O 353.412 1.8039 -0.621613 0
M  V30 3874 C 350.552 3.08326 -1.55013 0
M  V30 3875 C 349.665 3.27936 -2.81215 0
M  V30 3876 C 348.8 4.56473 -2.71673 0
M  V30 3877 C 347.839 4.694 -3.92849 0
M  V30 3878 N 346.976 5.89254 -3.81738 0
M  V30 3879 H 351.816 1.60797 -2.50895 0
M  V30 3880 H 349.353 0.783799 -1.24479 0
M  V30 3881 H 351.311 3.88383 -1.52362 0
M  V30 3882 H 349.941 3.16439 -0.637667 0
M  V30 3883 H 348.993 2.41536 -2.93879 0
M  V30 3884 H 350.305 3.33357 -3.71045 0
M  V30 3885 H 349.459 5.44748 -2.67085 0
M  V30 3886 H 348.198 4.53477 -1.7947 0
M  V30 3887 H 347.203 3.79544 -3.97777 0
M  V30 3888 H 348.428 4.7418 -4.86138 0
M  V30 3889 H 346.374 5.87271 -2.92317 0
M  V30 3890 H 346.291 5.95911 -4.65217 0
M  V30 3891 H 347.559 6.79981 -3.81112 0
M  V30 3892 N 351.788 1.33704 0.83433 0
M  V30 3893 C 352.736 1.24323 1.96587 0
M  V30 3894 C 353.73 0.143659 1.6879 0
M  V30 3895 O 354.936 0.30791 1.77347 0
M  V30 3896 H 351.311 0.385925 0.645419 0
M  V30 3897 H 353.282 2.19978 2.01624 0
M  V30 3898 C 352.031 1.00394 3.32891 0
M  V30 3899 H 351.354 1.84231 3.54822 0
M  V30 3900 H 352.794 0.97862 4.12552 0
M  V30 3901 C 351.253 -0.293047 3.35623 0
M  V30 3902 O 351.783 -1.29823 3.80143 0
M  V30 3903 N 349.989 -0.322174 2.88809 0
M  V30 3904 H 349.536 0.496379 2.52772 0
M  V30 3905 H 349.494 -1.18977 2.91019 0
M  V30 3906 N 353.266 -1.05314 1.17247 0
M  V30 3907 C 354.196 -2.1498 0.911362 0
M  V30 3908 C 355.177 -1.69471 -0.146169 0
M  V30 3909 O 356.362 -1.942 0.003812 0
M  V30 3910 C 353.492 -3.4472 0.422528 0
M  V30 3911 C 352.446 -4.03789 1.4191 0
M  V30 3912 C 351.772 -5.28858 0.788274 0
M  V30 3913 C 353.072 -4.41418 2.7919 0
M  V30 3914 H 354.766 -2.3708 1.82848 0
M  V30 3915 H 352.312 -1.13938 0.880569 0
M  V30 3916 H 354.265 -4.20787 0.227289 0
M  V30 3917 H 352.989 -3.22269 -0.530123 0
M  V30 3918 H 351.648 -3.2979 1.60106 0
M  V30 3919 H 351.296 -5.02709 -0.171173 0
M  V30 3920 H 350.996 -5.69338 1.45353 0
M  V30 3921 H 352.52 -6.07612 0.603282 0
M  V30 3922 H 353.934 -5.08524 2.64719 0
M  V30 3923 H 352.331 -4.92913 3.42282 0
M  V30 3924 H 353.401 -3.51819 3.33693 0
M  V30 3925 N 354.744 -0.972509 -1.24016 0
M  V30 3926 C 355.691 -0.505969 -2.25186 0
M  V30 3927 C 356.661 0.451009 -1.5986 0
M  V30 3928 O 357.846 0.360307 -1.87367 0
M  V30 3929 C 354.986 0.193089 -3.44559 0
M  V30 3930 C 354.099 -0.803222 -4.24467 0
M  V30 3931 C 353.234 -0.0797793 -5.3114 0
M  V30 3932 C 352.273 -1.06583 -6.02749 0
M  V30 3933 N 351.41 -0.372074 -7.01113 0
M  V30 3934 H 356.25 -1.37351 -2.64459 0
M  V30 3935 H 353.787 -0.688419 -1.29997 0
M  V30 3936 H 355.745 0.615125 -4.1264 0
M  V30 3937 H 354.375 1.02455 -3.06109 0
M  V30 3938 H 353.427 -1.34368 -3.55878 0
M  V30 3939 H 354.739 -1.55494 -4.73944 0
M  V30 3940 H 353.893 0.400015 -6.0538 0
M  V30 3941 H 352.632 0.704597 -4.82583 0
M  V30 3942 H 351.637 -1.55645 -5.27309 0
M  V30 3943 H 352.862 -1.85074 -6.53395 0
M  V30 3944 H 350.808 0.393238 -6.5482 0
M  V30 3945 H 350.725 -1.06258 -7.48495 0
M  V30 3946 H 351.993 0.0855932 -7.79453 0
M  V30 3947 N 356.222 1.38976 -0.743202 0
M  V30 3948 C 357.152 2.33171 -0.123873 0
M  V30 3949 C 358.133 1.54336 0.71516 0
M  V30 3950 O 359.318 1.82696 0.658467 0
M  V30 3951 C 356.448 3.38474 0.777978 0
M  V30 3952 C 355.402 4.27979 0.0424758 0
M  V30 3953 C 354.728 5.2405 1.06189 0
M  V30 3954 C 356.028 5.10155 -1.1198 0
M  V30 3955 H 357.722 2.85213 -0.910709 0
M  V30 3956 H 355.268 1.37133 -0.439388 0
M  V30 3957 H 357.221 4.03328 1.22084 0
M  V30 3958 H 355.945 2.84891 1.59702 0
M  V30 3959 H 354.604 3.64616 -0.380853 0
M  V30 3960 H 354.252 4.66758 1.87472 0
M  V30 3961 H 353.952 5.84785 0.574485 0
M  V30 3962 H 355.476 5.9178 1.50428 0
M  V30 3963 H 356.89 5.68307 -0.75499 0
M  V30 3964 H 355.287 5.80073 -1.53738 0
M  V30 3965 H 356.357 4.44504 -1.93764 0
M  V30 3966 N 357.7 0.491464 1.49741 0
M  V30 3967 C 358.948 -0.0563141 2.02022 0
M  V30 3968 C 359.269 -1.38363 1.37407 0
M  V30 3969 O 358.539 -1.88702 0.526166 0
M  V30 3970 H 357.119 -0.0238014 0.746621 0
M  V30 3971 H 359.781 0.646533 1.83864 0
M  V30 3972 H 358.877 -0.192967 3.11503 0
M  V30 3973 N 359.178 -1.55987 0.224894 0
M  V30 3974 C 360.427 -1.97566 -0.406273 0
M  V30 3975 C 360.74 -1.11569 -1.6066 0
M  V30 3976 O 361.946 -1.43062 -2.3075 0
M  V30 3977 C 360.402 -3.51474 -0.774207 0
M  V30 3978 C 360.01 -4.46179 0.403496 0
M  V30 3979 C 361.754 -4.01758 -1.37079 0
M  V30 3980 C 359.661 -5.91399 0.0129412 0
M  V30 3981 H 358.591 -0.737777 -0.155565 0
M  V30 3982 H 361.242 -1.80659 0.321635 0
M  V30 3983 H 359.624 -3.63994 -1.55963 0
M  V30 3984 H 360.798 -4.45409 1.18101 0
M  V30 3985 H 359.113 -4.06255 0.913536 0
M  V30 3986 H 361.71 -5.07756 -1.67596 0
M  V30 3987 H 362.053 -3.47805 -2.28773 0
M  V30 3988 H 362.586 -3.92475 -0.648733 0
M  V30 3989 H 359.325 -6.49341 0.896451 0
M  V30 3990 H 358.845 -5.95356 -0.728821 0
M  V30 3991 H 360.524 -6.45683 -0.412582 0
M  V30 3992 N 360.656 0.0484629 -1.57525 0
M  V30 3993 C 361.933 0.777447 -1.79486 0
M  V30 3994 C 362.313 1.94597 -0.818251 0
M  V30 3995 O 361.661 2.28047 0.143767 0
M  V30 3996 C 361.871 1.22864 -3.26658 0
M  V30 3997 C 363.219 1.65251 -3.91123 0
M  V30 3998 O 364.243 1.32372 -3.3069 0
M  V30 3999 O 363.102 2.26207 -4.97486 0
M  V30 4000 H 360.196 0.374357 -0.737419 0
M  V30 4001 H 362.742 0.0267359 -1.69679 0
M  V30 4002 H 361.514 0.393589 -3.89316 0
M  V30 4003 H 361.137 2.03996 -3.41279 0
M  V30 4004 N 362.134 1.5431 0.320358 0
M  V30 4005 C 363.383 1.7188 1.05546 0
M  V30 4006 C 363.696 0.501143 1.89071 0
M  V30 4007 O 364.902 0.558258 2.65699 0
M  V30 4008 C 363.358 3.04025 1.92605 0
M  V30 4009 C 362.966 4.33207 1.14176 0
M  V30 4010 C 364.71 3.30959 2.65832 0
M  V30 4011 C 362.617 5.56412 2.00399 0
M  V30 4012 H 361.547 0.640547 0.397763 0
M  V30 4013 H 364.198 1.80802 0.313522 0
M  V30 4014 H 362.58 2.89019 2.7071 0
M  V30 4015 H 363.754 4.58989 0.40819 0
M  V30 4016 H 362.069 4.13062 0.526165 0
M  V30 4017 H 364.666 4.20203 3.30656 0
M  V30 4018 H 365.009 2.48979 3.33639 0
M  V30 4019 H 365.542 3.46847 1.94787 0
M  V30 4020 H 362.281 6.41004 1.37094 0
M  V30 4021 H 361.801 5.34844 2.7148 0
M  V30 4022 H 363.48 5.92938 2.58908 0
M  V30 4023 N 363.613 -0.582584 1.46437 0
M  V30 4024 C 364.89 -1.34276 1.4223 0
M  V30 4025 C 365.27 -2.10835 0.10583 0
M  V30 4026 O 364.618 -2.09485 -0.912596 0
M  V30 4027 C 364.828 -2.26865 2.65204 0
M  V30 4028 C 366.176 -2.88691 3.11356 0
M  V30 4029 O 367.2 -2.37178 2.65753 0
M  V30 4030 O 366.059 -3.82255 3.90568 0
M  V30 4031 H 363.153 -0.603326 0.565621 0
M  V30 4032 H 365.699 -0.603591 1.58603 0
M  V30 4033 H 364.471 -1.69724 3.52576 0
M  V30 4034 H 364.094 -3.08122 2.5129 0
M  V30 4035 N 365.091 -1.34144 -0.827227 0
M  V30 4036 C 366.021 -1.28005 -1.95287 0
M  V30 4037 C 367.002 -0.158321 -1.69362 0
M  V30 4038 O 368.187 -0.349987 -1.9102 0
M  V30 4039 C 365.317 -1.03036 -3.31664 0
M  V30 4040 C 364.271 -2.11628 -3.72019 0
M  V30 4041 C 363.597 -1.71854 -5.0633 0
M  V30 4042 C 364.897 -3.53417 -3.8457 0
M  V30 4043 H 366.591 -2.22187 -2.00682 0
M  V30 4044 H 364.137 -1.0696 -0.964135 0
M  V30 4045 H 366.09 -0.973863 -4.09993 0
M  V30 4046 H 364.814 -0.0529391 -3.26557 0
M  V30 4047 H 363.473 -2.16339 -2.95961 0
M  V30 4048 H 363.121 -0.727841 -4.97706 0
M  V30 4049 H 362.821 -2.44531 -5.34302 0
M  V30 4050 H 364.345 -1.67692 -5.87122 0
M  V30 4051 H 365.759 -3.51142 -4.5318 0
M  V30 4052 H 364.156 -4.24679 -4.2399 0
M  V30 4053 H 365.226 -3.91072 -2.86689 0
M  V30 4054 N 366.569 1.04691 -1.17803 0
M  V30 4055 C 367.501 2.12571 -0.857097 0
M  V30 4056 C 368.514 1.62174 0.142647 0
M  V30 4057 O 369.703 1.78301 -0.0843387 0
M  V30 4058 C 366.803 3.37915 -0.258216 0
M  V30 4059 C 365.976 4.1757 -1.30207 0
M  V30 4060 C 365.035 5.2125 -0.720029 0
M  V30 4061 O 364.061 5.51888 -1.39314 0
M  V30 4062 N 365.263 5.78466 0.485507 0
M  V30 4063 H 368.028 2.40698 -1.78562 0
M  V30 4064 H 365.589 1.20831 -1.07757 0
M  V30 4065 H 367.581 4.04442 0.144584 0
M  V30 4066 H 366.151 3.07281 0.574199 0
M  V30 4067 H 365.371 3.46458 -1.88043 0
M  V30 4068 H 366.659 4.67586 -2.00601 0
M  V30 4069 H 366.057 5.55866 1.05022 0
M  V30 4070 H 364.614 6.4649 0.830307 0
M  V30 4071 N 368.047 0.979072 1.23499 0
M  V30 4072 C 368.98 0.463027 2.23453 0
M  V30 4073 C 369.958 -0.469128 1.55685 0
M  V30 4074 O 371.142 -0.397882 1.84253 0
M  V30 4075 C 368.269 -0.330308 3.37086 0
M  V30 4076 C 367.315 0.545795 4.22993 0
M  V30 4077 S 368.148 1.99285 4.97037 0
M  V30 4078 C 369.304 1.20862 6.1412 0
M  V30 4079 H 369.537 1.31005 2.6688 0
M  V30 4080 H 367.07 0.784965 1.32957 0
M  V30 4081 H 369.028 -0.782027 4.02982 0
M  V30 4082 H 367.689 -1.15244 2.92194 0
M  V30 4083 H 366.882 -0.0638928 5.03959 0
M  V30 4084 H 366.484 0.933705 3.62157 0
M  V30 4085 H 368.776 0.469284 6.75873 0
M  V30 4086 H 369.719 1.99307 6.79472 0
M  V30 4087 H 370.127 0.727992 5.59786 0
M  V30 4088 N 369.525 -1.3858 0.750561 0
M  V30 4089 C 370.455 -2.33102 0.136237 0
M  V30 4090 C 371.436 -1.54713 -0.706965 0
M  V30 4091 O 372.621 -1.83043 -0.648769 0
M  V30 4092 C 369.751 -3.38882 -0.760017 0
M  V30 4093 C 368.705 -4.27995 -0.0197785 0
M  V30 4094 C 368.031 -5.24605 -1.03408 0
M  V30 4095 C 369.331 -5.09554 1.14684 0
M  V30 4096 H 371.025 -2.84726 0.925822 0
M  V30 4097 H 368.571 -1.36898 0.446654 0
M  V30 4098 H 370.524 -4.0397 -1.19943 0
M  V30 4099 H 369.248 -2.85734 -1.58189 0
M  V30 4100 H 367.907 -3.64409 0.400184 0
M  V30 4101 H 367.555 -4.67746 -1.84994 0
M  V30 4102 H 367.255 -5.85081 -0.543464 0
M  V30 4103 H 368.779 -5.9257 -1.47288 0
M  V30 4104 H 370.193 -5.67899 0.785118 0
M  V30 4105 H 368.59 -5.7925 1.56812 0
M  V30 4106 H 369.66 -4.4347 1.96118 0
M  V30 4107 N 371.003 -0.499398 -1.49478 0
M  V30 4108 C 372.251 0.0455996 -2.02049 0
M  V30 4109 C 372.572 1.37633 -1.38138 0
M  V30 4110 O 371.842 1.8842 -0.536166 0
M  V30 4111 H 370.422 0.0198416 -0.746736 0
M  V30 4112 H 373.084 -0.656274 -1.83519 0
M  V30 4113 H 372.18 0.176445 -3.11601 0
M  V30 4114 N 372.481 1.55866 -0.233164 0
M  V30 4115 C 373.391 2.24431 0.683217 0
M  V30 4116 C 374.407 1.2558 1.2044 0
M  V30 4117 O 375.583 1.58422 1.24356 0
M  V30 4118 C 372.648 2.91979 1.86947 0
M  V30 4119 C 371.709 4.06204 1.38912 0
M  V30 4120 C 370.942 4.70522 2.51883 0
M  V30 4121 O 371.165 4.33865 3.70293 0
M  V30 4122 O 370.099 5.59296 2.22423 0
M  V30 4123 H 373.925 3.03426 0.129059 0
M  V30 4124 H 371.51 1.494 -0.0022283 0
M  V30 4125 H 373.392 3.34573 2.56201 0
M  V30 4126 H 372.067 2.15935 2.41151 0
M  V30 4127 H 370.974 3.68155 0.664259 0
M  V30 4128 H 372.307 4.84025 0.893328 0
M  V30 4129 N 373.959 -0.0401083 1.57549 0
M  V30 4130 C 375.375 -0.395556 1.54621 0
M  V30 4131 C 375.575 -1.77281 0.957799 0
M  V30 4132 O 374.631 -2.45888 0.574031 0
M  V30 4133 C 375.944 -0.307535 2.99123 0
M  V30 4134 C 377.492 -0.385425 3.10618 0
M  V30 4135 C 377.967 -0.326973 4.56831 0
M  V30 4136 N 379.458 -0.386102 4.61588 0
M  V30 4137 C 380.193 -0.363591 5.72246 0
M  V30 4138 N 379.689 -0.29402 6.92176 0
M  V30 4139 N 381.482 -0.412503 5.60584 0
M  V30 4140 H 373.633 0.861325 1.94152 0
M  V30 4141 H 375.896 0.326445 0.890021 0
M  V30 4142 H 375.602 0.638461 3.45856 0
M  V30 4143 H 375.476 -1.10552 3.60636 0
M  V30 4144 H 377.863 -1.32185 2.63839 0
M  V30 4145 H 377.944 0.44171 2.51957 0
M  V30 4146 H 377.588 0.605738 5.04275 0
M  V30 4147 H 377.518 -1.17207 5.13391 0
M  V30 4148 H 380.009 -0.442832 3.75296 0
M  V30 4149 H 380.322 -0.28164 7.72287 0
M  V30 4150 H 378.667 -0.260232 6.94513 0
M  V30 4151 H 381.858 -0.464769 4.65787 0
M  V30 4152 H 382.031 -0.391492 6.46816 0
M  V30 4153 N 375.437 -1.54477 -0.31217 0
M  V30 4154 C 376.367 -1.87652 -1.38957 0
M  V30 4155 C 377.348 -0.734358 -1.53431 0
M  V30 4156 O 378.533 -0.98911 -1.67123 0
M  V30 4157 C 375.663 -2.11396 -2.75552 0
M  V30 4158 C 374.617 -3.27243 -2.75855 0
M  V30 4159 C 373.943 -3.36382 -4.15633 0
M  V30 4160 C 375.243 -4.64622 -2.38587 0
M  V30 4161 H 376.937 -2.77887 -1.11442 0
M  V30 4162 H 374.483 -1.33707 -0.534655 0
M  V30 4163 H 376.436 -2.33189 -3.51 0
M  V30 4164 H 375.16 -1.17921 -3.04569 0
M  V30 4165 H 373.819 -3.05356 -2.02863 0
M  V30 4166 H 373.467 -2.40445 -4.41809 0
M  V30 4167 H 373.167 -4.14249 -4.1674 0
M  V30 4168 H 374.691 -3.60422 -4.92877 0
M  V30 4169 H 376.105 -4.86219 -3.03749 0
M  V30 4170 H 374.502 -5.45121 -2.50925 0
M  V30 4171 H 375.572 -4.66097 -1.33723 0
M  V30 4172 N 376.915 0.57481 -1.46744 0
M  V30 4173 C 377.845 1.69337 -1.60771 0
M  V30 4174 C 378.826 1.63825 -0.457736 0
M  V30 4175 O 380.011 1.8172 -0.684947 0
M  V30 4176 C 377.141 3.0798 -1.60517 0
M  V30 4177 C 376.095 3.28327 -2.74564 0
M  V30 4178 C 375.421 4.67578 -2.59373 0
M  V30 4179 C 376.721 3.15398 -4.16319 0
M  V30 4180 H 378.415 1.57853 -2.54407 0
M  V30 4181 H 375.961 0.75799 -1.22436 0
M  V30 4182 H 377.914 3.86061 -1.68923 0
M  V30 4183 H 376.638 3.20381 -0.634305 0
M  V30 4184 H 375.297 2.52649 -2.65639 0
M  V30 4185 H 374.945 4.76755 -1.60353 0
M  V30 4186 H 374.645 4.82144 -3.35873 0
M  V30 4187 H 376.169 5.47817 -2.69682 0
M  V30 4188 H 377.583 3.83315 -4.26313 0
M  V30 4189 H 375.98 3.41482 -4.93468 0
M  V30 4190 H 377.05 2.12372 -4.3592 0
M  V30 4191 N 378.394 1.34581 0.820102 0
M  V30 4192 C 379.341 1.2639 1.93117 0
M  V30 4193 C 380.311 0.138554 1.65521 0
M  V30 4194 O 381.496 0.320004 1.88097 0
M  V30 4195 C 378.636 1.02812 3.29429 0
M  V30 4196 C 377.749 2.24146 3.693 0
M  V30 4197 C 376.884 1.93829 4.94574 0
M  V30 4198 C 375.923 3.1129 5.27034 0
M  V30 4199 N 375.06 2.80838 6.43486 0
M  V30 4200 H 379.9 2.21408 1.99455 0
M  V30 4201 H 377.437 1.10077 0.975784 0
M  V30 4202 H 379.395 0.871788 4.0799 0
M  V30 4203 H 378.025 0.114612 3.22596 0
M  V30 4204 H 377.077 2.50691 2.86109 0
M  V30 4205 H 378.389 3.11899 3.89257 0
M  V30 4206 H 377.543 1.74948 5.80929 0
M  V30 4207 H 376.282 1.03341 4.76626 0
M  V30 4208 H 375.287 3.30764 4.39175 0
M  V30 4209 H 376.512 4.02561 5.4692 0
M  V30 4210 H 374.458 1.92929 6.26988 0
M  V30 4211 H 374.375 3.62123 6.63629 0
M  V30 4212 H 375.643 2.65467 7.32903 0
M  V30 4213 N 379.872 -1.04064 1.18357 0
M  V30 4214 C 380.82 -2.14187 0.907007 0
M  V30 4215 C 381.814 -1.68879 -0.132725 0
M  V30 4216 O 383.02 -1.79993 0.0154248 0
M  V30 4217 H 379.395 -0.699585 0.275835 0
M  V30 4218 H 381.366 -2.34711 1.84264 0
M  V30 4219 C 380.115 -3.44785 0.449254 0
M  V30 4220 H 379.438 -3.80058 1.24081 0
M  V30 4221 H 380.878 -4.22974 0.294737 0
M  V30 4222 C 379.337 -3.26391 -0.834909 0
M  V30 4223 O 379.867 -3.53973 -1.89911 0
M  V30 4224 N 378.073 -2.79726 -0.787523 0
M  V30 4225 H 377.62 -2.5748 0.0787347 0
M  V30 4226 H 377.578 -2.67798 -1.64716 0
M  V30 4227 N 381.35 -0.985608 -1.22978 0
M  V30 4228 C 382.297 -0.529825 -2.24636 0
M  V30 4229 C 383.267 0.434028 -1.60329 0
M  V30 4230 O 384.452 0.340414 -1.87739 0
M  V30 4231 C 381.592 0.156533 -3.44745 0
M  V30 4232 C 380.705 -0.848197 -4.23591 0
M  V30 4233 C 379.84 -0.136109 -5.31026 0
M  V30 4234 C 378.879 -1.1297 -6.01585 0
M  V30 4235 N 378.016 -0.446415 -7.00679 0
M  V30 4236 H 382.856 -1.40148 -2.62988 0
M  V30 4237 H 380.393 -0.702168 -1.29259 0
M  V30 4238 H 382.351 0.571324 -4.1327 0
M  V30 4239 H 380.981 0.992025 -3.07179 0
M  V30 4240 H 380.033 -1.38135 -3.54433 0
M  V30 4241 H 381.345 -1.60512 -4.72268 0
M  V30 4242 H 380.499 0.335784 -6.0577 0
M  V30 4243 H 379.238 0.653373 -4.83304 0
M  V30 4244 H 378.243 -1.6123 -5.25628 0
M  V30 4245 H 379.468 -1.91993 -6.51395 0
M  V30 4246 H 377.414 0.323763 -6.55201 0
M  V30 4247 H 377.331 -1.1419 -7.47326 0
M  V30 4248 H 378.599 0.00291697 -7.795 0
M  V30 4249 N 382.828 1.3818 -0.7579 0
M  V30 4250 C 384.077 1.99261 -0.312744 0
M  V30 4251 C 384.39 1.60846 1.11301 0
M  V30 4252 O 385.596 2.14929 1.65885 0
M  V30 4253 C 384.052 3.56294 -0.50821 0
M  V30 4254 C 383.66 4.03657 -1.94333 0
M  V30 4255 C 385.404 4.24313 -0.125982 0
M  V30 4256 C 383.311 5.53347 -2.08712 0
M  V30 4257 H 382.241 0.745456 -0.113185 0
M  V30 4258 H 384.892 1.57889 -0.935056 0
M  V30 4259 H 383.274 3.95575 0.183353 0
M  V30 4260 H 384.448 3.75655 -2.66871 0
M  V30 4261 H 382.763 3.48376 -2.28086 0
M  V30 4262 H 385.36 5.34279 -0.212125 0
M  V30 4263 H 385.703 4.05962 0.921964 0
M  V30 4264 H 386.236 3.90285 -0.769563 0
M  V30 4265 H 382.975 5.76607 -3.11777 0
M  V30 4266 H 382.495 5.83078 -1.4064 0
M  V30 4267 H 384.174 6.19111 -1.87912 0
M  V30 4268 N 384.306 0.507319 1.49211 0
M  V30 4269 C 385.554 -0.0348839 2.0207 0
M  V30 4270 C 385.875 -1.36898 1.38866 0
M  V30 4271 O 385.145 -1.88133 0.546151 0
M  V30 4272 H 383.725 -0.0158812 0.746831 0
M  V30 4273 H 386.387 0.665998 1.83168 0
M  V30 4274 H 385.483 -0.159917 3.1169 0
M  V30 4275 N 385.784 -1.5574 0.241426 0
M  V30 4276 C 387.009 -2.0366 -0.392111 0
M  V30 4277 C 387.434 -1.11969 -1.51144 0
M  V30 4278 O 386.792 -0.111594 -1.80956 0
M  V30 4279 C 386.84 -3.49638 -0.882371 0
M  V30 4280 O 385.944 -3.6108 -1.99235 0
M  V30 4281 H 385.285 -0.658379 -0.0862122 0
M  V30 4282 H 387.815 -2.01302 0.365881 0
M  V30 4283 H 387.825 -3.90351 -1.18702 0
M  V30 4284 H 386.5 -4.15852 -0.0632361 0
M  V30 4285 H 385.077 -3.32262 -1.69282 0
M  V30 4286 N 387.262 0.0317525 -1.57568 0
M  V30 4287 C 388.511 0.722131 -1.8833 0
M  V30 4288 C 388.824 1.76664 -0.839587 0
M  V30 4289 O 390.03 2.50942 -1.03635 0
M  V30 4290 C 388.486 1.33544 -3.34207 0
M  V30 4291 C 388.094 0.327415 -4.46802 0
M  V30 4292 C 389.838 2.00585 -3.7412 0
M  V30 4293 C 387.745 0.948915 -5.83738 0
M  V30 4294 H 386.675 0.273466 -0.702661 0
M  V30 4295 H 389.326 -0.0235811 -1.83485 0
M  V30 4296 H 387.708 2.13077 -3.33788 0
M  V30 4297 H 388.882 -0.441006 -4.58685 0
M  V30 4298 H 387.197 -0.240758 -4.15703 0
M  V30 4299 H 389.794 2.47932 -4.73744 0
M  V30 4300 H 390.137 2.82285 -3.05975 0
M  V30 4301 H 390.67 1.27831 -3.76702 0
M  V30 4302 H 387.409 0.171387 -6.55276 0
M  V30 4303 H 386.929 1.68724 -5.7558 0
M  V30 4304 H 388.608 1.45705 -6.3038 0
M  V30 4305 N 388.74 1.54641 0.303973 0
M  V30 4306 C 389.986 1.74038 1.04109 0
M  V30 4307 C 390.319 0.523051 1.87024 0
M  V30 4308 O 389.594 -0.479874 1.88487 0
M  V30 4309 C 389.877 3.02761 1.94955 0
M  V30 4310 C 389.73 4.34787 1.1524 0
M  V30 4311 C 391.049 3.27336 2.94175 0
M  V30 4312 H 388.168 0.63323 0.377079 0
M  V30 4313 H 390.81 1.87354 0.316001 0
M  V30 4314 H 388.96 2.9154 2.56782 0
M  V30 4315 H 390.632 4.57922 0.557236 0
M  V30 4316 H 388.875 4.31407 0.455053 0
M  V30 4317 H 389.546 5.21116 1.8205 0
M  V30 4318 H 392.022 3.38148 2.42477 0
M  V30 4319 H 390.898 4.18726 3.54908 0
M  V30 4320 H 391.159 2.45491 3.67677 0
M  V30 4321 N 390.218 -0.567019 1.47046 0
M  V30 4322 C 391.181 -1.65696 1.58359 0
M  V30 4323 C 392.181 -1.54097 0.459441 0
M  V30 4324 O 393.371 -1.58432 0.724225 0
M  V30 4325 C 390.503 -3.05197 1.51879 0
M  V30 4326 H 391.696 -1.57019 2.5551 0
M  V30 4327 H 389.249 -0.786148 1.3509 0
M  V30 4328 H 389.984 -3.19417 0.560673 0
M  V30 4329 H 389.769 -3.15025 2.33455 0
M  V30 4330 H 391.259 -3.84511 1.62913 0
M  V30 4331 N 391.696 -1.35014 -0.812953 0
M  V30 4332 C 392.945 -1.27269 -1.56479 0
M  V30 4333 C 393.258 0.152771 -1.95002 0
M  V30 4334 O 394.464 0.352451 -2.69203 0
M  V30 4335 C 392.92 -2.23159 -2.82362 0
M  V30 4336 C 392.528 -3.71016 -2.511 0
M  V30 4337 C 394.272 -2.24342 -3.60376 0
M  V30 4338 C 392.179 -4.58746 -3.73237 0
M  V30 4339 H 391.109 -0.472829 -0.587324 0
M  V30 4340 H 393.76 -1.6024 -0.894171 0
M  V30 4341 H 392.142 -1.83151 -3.51101 0
M  V30 4342 H 393.316 -4.1962 -1.90409 0
M  V30 4343 H 391.631 -3.72378 -1.86343 0
M  V30 4344 H 394.228 -2.87107 -4.51081 0
M  V30 4345 H 394.571 -1.24542 -3.97234 0
M  V30 4346 H 395.104 -2.62846 -2.98591 0
M  V30 4347 H 391.843 -5.59521 -3.41492 0
M  V30 4348 H 391.363 -4.14871 -4.33176 0
M  V30 4349 H 393.042 -4.73852 -4.40537 0
M  V30 4350 N 393.175 1.03435 -1.18907 0
M  V30 4351 C 394.085 2.15075 -0.937015 0
M  V30 4352 C 395.101 1.73706 0.101085 0
M  V30 4353 O 396.277 2.01232 -0.0822948 0
M  V30 4354 C 393.342 3.43458 -0.473057 0
M  V30 4355 C 392.403 3.99172 -1.57989 0
M  V30 4356 C 391.636 5.21427 -1.13797 0
M  V30 4357 O 391.859 5.704 0.000725941 0
M  V30 4358 O 390.793 5.69837 -1.9383 0
M  V30 4359 H 394.619 2.39198 -1.87131 0
M  V30 4360 H 392.204 1.13506 -0.971427 0
M  V30 4361 H 394.086 4.20811 -0.222702 0
M  V30 4362 H 392.761 3.20793 0.432869 0
M  V30 4363 H 391.668 3.23178 -1.88433 0
M  V30 4364 H 393.001 4.2619 -2.46217 0
M  V30 4365 N 394.653 0.992116 1.22453 0
M  V30 4366 C 396.064 0.702776 1.72968 0
M  V30 4367 C 396.415 -0.780399 1.80012 0
M  V30 4368 O 395.54 -1.61007 1.44589 0
M  V30 4369 C 396.135 1.26903 3.14135 0
M  V30 4370 C 394.694 1.02909 3.62059 0
M  V30 4371 C 393.841 1.38969 2.39964 0
M  V30 4372 H 396.792 1.16457 1.07812 0
M  V30 4373 H 396.813 0.647223 3.74955 0
M  V30 4374 H 396.325 2.34851 3.08977 0
M  V30 4375 H 394.426 -0.0337979 3.72585 0
M  V30 4376 H 394.539 1.69191 4.48231 0
M  V30 4377 H 392.903 0.808279 2.41535 0
M  V30 4378 H 393.686 2.4792 2.37467 0
M  V30 4379 N 396.131 -1.37776 0.765217 0
M  V30 4380 C 397.041 -2.34135 0.147666 0
M  V30 4381 C 398.057 -1.59854 -0.687215 0
M  V30 4382 O 399.233 -1.91983 -0.608659 0
M  V30 4383 C 396.298 -3.3901 -0.72617 0
M  V30 4384 C 395.359 -4.2912 0.124417 0
M  V30 4385 C 394.592 -5.28986 -0.707807 0
M  V30 4386 O 394.815 -5.36205 -1.94525 0
M  V30 4387 O 393.749 -6.01779 -0.12046 0
M  V30 4388 H 397.575 -2.88664 0.943758 0
M  V30 4389 H 395.16 -1.39824 0.526277 0
M  V30 4390 H 397.042 -4.03195 -1.22524 0
M  V30 4391 H 395.717 -2.86819 -1.50056 0
M  V30 4392 H 394.624 -3.68057 0.669696 0
M  V30 4393 H 395.957 -4.84598 0.861736 0
M  V30 4394 N 397.609 -0.515225 -1.4894 0
M  V30 4395 C 398.837 0.0206034 -2.0689 0
M  V30 4396 C 399.252 1.29514 -1.37374 0
M  V30 4397 O 398.609 1.76698 -0.456529 0
M  V30 4398 C 398.66 0.26351 -3.60538 0
M  V30 4399 O 398.381 -0.960517 -4.27441 0
M  V30 4400 C 399.882 0.841383 -4.35242 0
M  V30 4401 H 397.102 -0.0268608 -0.670462 0
M  V30 4402 H 399.646 -0.716651 -1.91532 0
M  V30 4403 H 397.801 0.950777 -3.75552 0
M  V30 4404 H 398.215 -0.73212 -5.19365 0
M  V30 4405 H 399.689 0.96085 -5.43573 0
M  V30 4406 H 400.166 1.8427 -3.98674 0
M  V30 4407 H 400.772 0.191143 -4.2487 0
M  V30 4408 N 399.087 1.5561 -0.249682 0
M  V30 4409 C 400.335 1.98618 0.373548 0
M  V30 4410 C 400.656 1.13919 1.58264 0
M  V30 4411 O 399.926 0.222637 1.94631 0
M  V30 4412 H 398.506 0.733571 0.141006 0
M  V30 4413 H 401.168 1.91748 -0.349117 0
M  V30 4414 H 400.264 3.04584 0.680796 0
M  V30 4415 N 400.565 -0.0233959 1.57583 0
M  V30 4416 C 401.475 -1.03907 2.10334 0
M  V30 4417 C 402.491 -1.39257 1.04323 0
M  V30 4418 O 403.667 -1.48462 1.36091 0
M  V30 4419 C 400.732 -2.31938 2.57693 0
M  V30 4420 C 399.793 -2.03117 3.78209 0
M  V30 4421 C 399.026 -3.25043 4.233 0
M  V30 4422 O 399.249 -4.35916 3.67876 0
M  V30 4423 O 398.183 -3.10411 5.15683 0
M  V30 4424 H 402.009 -0.620748 2.97288 0
M  V30 4425 H 399.594 -0.240743 1.47448 0
M  V30 4426 H 401.476 -3.07196 2.88458 0
M  V30 4427 H 400.151 -2.73055 1.73847 0
M  V30 4428 H 399.058 -1.25408 3.52454 0
M  V30 4429 H 400.391 -1.66852 4.63056 0
M  V30 4430 N 402.043 -1.548 -0.295768 0
M  V30 4431 C 403.292 -1.73538 -1.02798 0
M  V30 4432 C 403.605 -0.531159 -1.8825 0
M  V30 4433 O 404.811 -0.600458 -2.64777 0
M  V30 4434 C 403.267 -3.07051 -1.87744 0
M  V30 4435 C 402.875 -4.34968 -1.07269 0
M  V30 4436 C 404.619 -3.35146 -2.60533 0
M  V30 4437 C 402.526 -5.5953 -1.91521 0
M  V30 4438 H 401.456 -0.646794 -0.387522 0
M  V30 4439 H 404.107 -1.81278 -0.284718 0
M  V30 4440 H 402.489 -2.93289 -2.66078 0
M  V30 4441 H 403.663 -4.5958 -0.335117 0
M  V30 4442 H 401.978 -4.13847 -0.460384 0
M  V30 4443 H 404.575 -4.2541 -3.23929 0
M  V30 4444 H 404.918 -2.54255 -3.29636 0
M  V30 4445 H 405.451 -3.49902 -1.89244 0
M  V30 4446 H 402.19 -6.43103 -1.26878 0
M  V30 4447 H 401.71 -5.39096 -2.62937 0
M  V30 4448 H 403.389 -5.96982 -2.49442 0
M  V30 4449 N 403.521 0.559213 -1.47345 0
M  V30 4450 C 404.451 1.67622 -1.62558 0
M  V30 4451 C 405.432 1.63331 -0.475087 0
M  V30 4452 O 406.617 1.80983 -0.704182 0
M  V30 4453 C 403.747 3.0626 -1.63774 0
M  V30 4454 C 402.701 3.25397 -2.7803 0
M  V30 4455 C 402.027 4.64801 -2.64318 0
M  V30 4456 C 403.327 3.10965 -4.19641 0
M  V30 4457 H 405.021 1.55146 -2.56067 0
M  V30 4458 H 402.567 0.744961 -1.23233 0
M  V30 4459 H 404.52 3.84247 -1.73008 0
M  V30 4460 H 403.244 3.1969 -0.66825 0
M  V30 4461 H 401.903 2.49817 -2.68304 0
M  V30 4462 H 401.551 4.75028 -1.65401 0
M  V30 4463 H 401.251 4.78555 -3.40968 0
M  V30 4464 H 402.775 5.44926 -2.75478 0
M  V30 4465 H 404.189 3.78772 -4.30354 0
M  V30 4466 H 402.586 3.36229 -4.97062 0
M  V30 4467 H 403.656 2.07736 -4.38148 0
M  V30 4468 N 404.999 1.35443 0.805782 0
M  V30 4469 C 406.239 1.30127 1.57627 0
M  V30 4470 C 406.603 -0.122567 1.91608 0
M  V30 4471 O 407.804 -0.300107 2.67119 0
M  V30 4472 C 406.075 2.18314 2.82973 0
M  V30 4473 S 407.634 2.30521 3.7337 0
M  V30 4474 H 404.452 0.462439 0.540066 0
M  V30 4475 H 407.054 1.70843 0.95042 0
M  V30 4476 H 405.758 3.20741 2.56034 0
M  V30 4477 H 405.289 1.78558 3.50543 0
M  V30 4478 H 407.304 1.49062 4.73281 0
M  V30 4479 N 406.477 -1.02803 1.19454 0
M  V30 4480 C 407.41 -2.107 0.876396 0
M  V30 4481 C 408.388 -1.61741 -0.166897 0
M  V30 4482 O 409.572 -1.88451 -0.0430195 0
M  V30 4483 C 406.699 -3.37262 0.311758 0
M  V30 4484 C 405.745 -4.05093 1.33424 0
M  V30 4485 S 406.578 -4.50498 2.89503 0
M  V30 4486 C 407.734 -5.80277 2.34584 0
M  V30 4487 H 407.967 -2.37362 1.79016 0
M  V30 4488 H 405.5 -1.15755 1.02177 0
M  V30 4489 H 407.458 -4.10499 -0.00748752 0
M  V30 4490 H 406.119 -3.08693 -0.58032 0
M  V30 4491 H 405.312 -4.9611 0.888302 0
M  V30 4492 H 404.914 -3.3803 1.60037 0
M  V30 4493 H 407.206 -6.54873 1.73633 0
M  V30 4494 H 408.149 -6.29651 3.23952 0
M  V30 4495 H 408.557 -5.3599 1.77131 0
M  V30 4496 N 407.956 -0.998596 -1.21925 0
M  V30 4497 C 409.202 -0.678667 -1.91107 0
M  V30 4498 C 409.535 0.78791 -1.77498 0
M  V30 4499 O 408.81 1.57043 -1.1475 0
M  V30 4500 C 409.093 -1.09245 -3.43129 0
M  V30 4501 C 408.946 -2.61801 -3.6576 0
M  V30 4502 C 410.265 -0.649984 -4.35274 0
M  V30 4503 H 407.384 -0.248025 -0.694012 0
M  V30 4504 H 410.026 -1.24314 -1.43688 0
M  V30 4505 H 408.176 -0.612171 -3.83647 0
M  V30 4506 H 409.848 -3.17543 -3.34611 0
M  V30 4507 H 408.091 -3.03609 -3.09845 0
M  V30 4508 H 408.762 -2.85804 -4.7225 0
M  V30 4509 H 411.238 -1.0626 -4.02303 0
M  V30 4510 H 410.114 -0.967743 -5.40302 0
M  V30 4511 H 410.375 0.449139 -4.39813 0
M  V30 4512 N 409.434 1.37368 -0.772513 0
M  V30 4513 C 410.659 2.0447 -0.347386 0
M  V30 4514 C 411.084 1.57882 1.0225 0
M  V30 4515 O 410.442 0.73941 1.65537 0
M  V30 4516 C 410.49 3.58369 -0.400479 0
M  V30 4517 O 409.594 4.0803 0.598789 0
M  V30 4518 H 408.935 0.646773 -0.15027 0
M  V30 4519 H 411.465 1.75667 -1.04892 0
M  V30 4520 H 411.475 4.07183 -0.258045 0
M  V30 4521 H 410.15 3.91633 -1.39986 0
M  V30 4522 H 408.727 3.70534 0.419411 0
M  V30 4523 N 410.912 0.523116 1.48665 0
M  V30 4524 C 412.137 -0.0117284 2.07397 0
M  V30 4525 C 412.562 -1.28031 1.37803 0
M  V30 4526 O 411.92 -1.75836 0.441762 0
M  V30 4527 C 411.968 -0.225786 3.59892 0
M  V30 4528 O 411.072 -1.29592 3.91509 0
M  V30 4529 H 410.413 0.0360673 0.66302 0
M  V30 4530 H 412.943 0.729066 1.9117 0
M  V30 4531 H 412.953 -0.450552 4.05505 0
M  V30 4532 H 411.628 0.700944 4.09951 0
M  V30 4533 H 410.205 -1.05436 3.57684 0
M  V30 4534 N 412.39 -1.55475 0.257931 0
M  V30 4535 C 413.801 -1.8511 -0.243135 0
M  V30 4536 C 414.152 -1.17986 -1.5676 0
M  V30 4537 O 413.277 -0.462102 -2.11409 0
M  V30 4538 C 413.872 -3.35826 -0.447929 0
M  V30 4539 C 412.431 -3.65647 -0.893245 0
M  V30 4540 C 411.578 -2.7729 0.0232965 0
M  V30 4541 H 414.529 -1.51261 0.480199 0
M  V30 4542 H 414.55 -3.58002 -1.28898 0
M  V30 4543 H 414.062 -3.84652 0.516196 0
M  V30 4544 H 412.163 -3.22308 -1.86945 0
M  V30 4545 H 412.276 -4.73312 -0.742469 0
M  V30 4546 H 410.64 -2.49942 -0.490021 0
M  V30 4547 H 411.423 -3.28926 0.982994 0
M  V30 4548 N 413.868 0.0150385 -1.57593 0
M  V30 4549 C 415.145 0.7392 -1.81094 0
M  V30 4550 C 415.525 1.92817 -0.859344 0
M  V30 4551 O 414.873 2.28301 0.095362 0
M  V30 4552 C 415.083 1.15907 -3.29191 0
M  V30 4553 C 416.431 1.56918 -3.9454 0
M  V30 4554 O 417.455 1.25328 -3.33424 0
M  V30 4555 O 416.314 2.15604 -5.02173 0
M  V30 4556 H 413.408 0.358631 -0.745193 0
M  V30 4557 H 415.954 -0.00926156 -1.69697 0
M  V30 4558 H 414.726 0.310921 -3.90063 0
M  V30 4559 H 414.349 1.96711 -3.45529 0
M  V30 4560 N 415.346 1.54954 0.287554 0
M  V30 4561 C 416.593 1.74873 1.02106 0
M  V30 4562 C 416.921 0.541829 1.86801 0
M  V30 4563 O 416.176 -0.475992 1.89823 0
M  V30 4564 C 416.475 2.99833 1.94512 0
M  V30 4565 C 416.141 4.33029 1.25686 0
M  V30 4566 C 414.803 4.69233 1.06649 0
M  V30 4567 C 417.155 5.15542 0.765913 0
M  V30 4568 C 414.483 5.85518 0.372222 0
M  V30 4569 C 416.835 6.32542 0.0853101 0
M  V30 4570 C 415.499 6.67398 -0.1169 0
M  V30 4571 H 414.769 0.639906 0.373632 0
M  V30 4572 H 417.416 1.89219 0.294665 0
M  V30 4573 H 415.721 2.80325 2.73725 0
M  V30 4574 H 417.418 3.1244 2.51361 0
M  V30 4575 H 414.008 4.04564 1.41512 0
M  V30 4576 H 418.192 4.88059 0.90066 0
M  V30 4577 H 413.448 6.11057 0.204695 0
M  V30 4578 H 417.622 6.95741 -0.302936 0
M  V30 4579 H 415.249 7.57357 -0.656859 0
M  V30 4580 N 416.824 -0.551391 1.4764 0
M  V30 4581 C 418.101 -1.31229 1.45046 0
M  V30 4582 C 418.481 -2.10563 0.150527 0
M  V30 4583 O 417.829 -2.11374 -0.867956 0
M  V30 4584 C 418.039 -2.21189 2.69956 0
M  V30 4585 C 419.387 -2.82021 3.1741 0
M  V30 4586 O 420.411 -2.31488 2.70724 0
M  V30 4587 O 419.27 -3.73885 3.98588 0
M  V30 4588 H 416.364 -0.591193 0.578291 0
M  V30 4589 H 418.91 -0.569813 1.59847 0
M  V30 4590 H 417.682 -1.62207 3.56096 0
M  V30 4591 H 417.305 -3.02722 2.57769 0
M  V30 4592 N 418.302 -1.35869 -0.798587 0
M  V30 4593 C 419.713 -1.26498 -1.37314 0
M  V30 4594 C 420.064 0.0991899 -1.95949 0
M  V30 4595 O 419.189 1.0004 -1.91888 0
M  V30 4596 C 419.784 -2.29054 -2.49639 0
M  V30 4597 C 418.343 -2.234 -3.02935 0
M  V30 4598 C 417.49 -2.14329 -1.75949 0
M  V30 4599 H 420.441 -1.46881 -0.600971 0
M  V30 4600 H 420.462 -1.92166 -3.28409 0
M  V30 4601 H 419.974 -3.2833 -2.06933 0
M  V30 4602 H 418.075 -1.27562 -3.50084 0
M  V30 4603 H 418.188 -3.15703 -3.60372 0
M  V30 4604 H 416.552 -1.60435 -1.9782 0
M  V30 4605 H 417.335 -3.15477 -1.35384 0
M  V30 4606 N 419.78 1.02168 -1.19998 0
M  V30 4607 C 421.196 1.27969 -0.953737 0
M  V30 4608 C 421.396 1.98079 0.369703 0
M  V30 4609 O 420.452 2.27306 1.09947 0
M  V30 4610 C 421.765 2.11971 -2.13281 0
M  V30 4611 C 423.313 2.25255 -2.17323 0
M  V30 4612 C 423.788 3.12632 -3.34702 0
M  V30 4613 N 425.279 3.2022 -3.34684 0
M  V30 4614 C 426.014 3.88039 -4.22153 0
M  V30 4615 N 425.51 4.58027 -5.19791 0
M  V30 4616 N 427.303 3.84511 -4.10009 0
M  V30 4617 H 419.454 0.550794 -2.05134 0
M  V30 4618 H 421.717 0.305683 -0.897364 0
M  V30 4619 H 421.423 1.67785 -3.09097 0
M  V30 4620 H 421.297 3.12699 -2.10949 0
M  V30 4621 H 423.684 2.68667 -1.22073 0
M  V30 4622 H 423.765 1.24053 -2.23706 0
M  V30 4623 H 423.409 2.69926 -4.30235 0
M  V30 4624 H 423.339 4.13909 -3.25556 0
M  V30 4625 H 425.83 2.70382 -2.64012 0
M  V30 4626 H 426.143 5.07429 -5.82868 0
M  V30 4627 H 424.488 4.56869 -5.23733 0
M  V30 4628 H 427.679 3.28978 -3.33003 0
M  V30 4629 H 427.852 4.3709 -4.78389 0
M  V30 4630 N 421.258 1.00505 1.21394 0
M  V30 4631 C 422.188 0.585684 2.26035 0
M  V30 4632 C 423.169 -0.393525 1.65485 0
M  V30 4633 O 424.354 -0.281497 1.92149 0
M  V30 4634 C 421.484 -0.0884283 3.47187 0
M  V30 4635 C 420.438 0.810567 4.20254 0
M  V30 4636 C 419.764 0.00286382 5.347 0
M  V30 4637 C 421.064 2.1132 4.77641 0
M  V30 4638 H 422.758 1.46039 2.61368 0
M  V30 4639 H 420.304 0.703648 1.25638 0
M  V30 4640 H 422.257 -0.393286 4.19561 0
M  V30 4641 H 420.981 -0.997766 3.10986 0
M  V30 4642 H 419.64 1.09925 3.49731 0
M  V30 4643 H 419.288 -0.907765 4.94741 0
M  V30 4644 H 418.988 0.601444 5.84514 0
M  V30 4645 H 420.512 -0.295808 6.09883 0
M  V30 4646 H 421.926 1.87148 5.41893 0
M  V30 4647 H 420.323 2.66164 5.37845 0
M  V30 4648 H 421.393 2.78393 3.9702 0
M  V30 4649 N 422.737 -1.36956 0.779787 0
M  V30 4650 C 423.67 -2.27896 0.117681 0
M  V30 4651 C 424.648 -1.46736 -0.700523 0
M  V30 4652 O 425.832 -1.76055 -0.673568 0
M  V30 4653 C 422.959 -3.28136 -0.839296 0
M  V30 4654 C 422.005 -4.26373 -0.10409 0
M  V30 4655 S 422.838 -5.2157 1.21348 0
M  V30 4656 C 423.994 -6.25359 0.260249 0
M  V30 4657 H 424.227 -2.83704 0.888778 0
M  V30 4658 H 421.76 -1.43352 0.57355 0
M  V30 4659 H 423.718 -3.86394 -1.38601 0
M  V30 4660 H 422.379 -2.7126 -1.58356 0
M  V30 4661 H 421.572 -4.97121 -0.82986 0
M  V30 4662 H 421.174 -3.72147 0.371858 0
M  V30 4663 H 423.466 -6.75145 -0.564435 0
M  V30 4664 H 424.409 -7.01885 0.936135 0
M  V30 4665 H 424.817 -5.64345 -0.132127 0
M  V30 4666 N 424.215 -0.530993 -1.48385 0
M  V30 4667 C 425.464 0.00474348 -2.01699 0
M  V30 4668 C 425.777 1.35227 -1.41325 0
M  V30 4669 O 426.983 1.97643 -1.86144 0
M  V30 4670 C 425.439 0.0588473 -3.59852 0
M  V30 4671 C 425.047 -1.28385 -4.2921 0
M  V30 4672 C 426.791 0.543358 -4.21008 0
M  V30 4673 C 424.698 -1.19028 -5.79298 0
M  V30 4674 H 423.628 0.00554317 -0.75398 0
M  V30 4675 H 426.279 -0.674924 -1.70637 0
M  V30 4676 H 424.661 0.803612 -3.8776 0
M  V30 4677 H 425.835 -2.04426 -4.12973 0
M  V30 4678 H 424.15 -1.70418 -3.7993 0
M  V30 4679 H 426.747 0.631351 -5.3096 0
M  V30 4680 H 427.09 1.54937 -3.86394 0
M  V30 4681 H 427.623 -0.145754 -3.97533 0
M  V30 4682 H 424.362 -2.17147 -6.18488 0
M  V30 4683 H 423.882 -0.471246 -5.97946 0
M  V30 4684 H 425.561 -0.881365 -6.40969 0
M  V30 4685 N 425.693 1.55336 -0.266172 0
M  V30 4686 C 426.941 1.99003 0.35246 0
M  V30 4687 C 427.262 1.15591 1.57047 0
M  V30 4688 O 426.532 0.243268 1.94384 0
M  V30 4689 H 425.112 0.735025 0.133217 0
M  V30 4690 H 427.774 1.91367 -0.369434 0
M  V30 4691 H 426.87 3.05289 0.648453 0
M  V30 4692 N 427.171 -0.0066808 1.57599 0
M  V30 4693 C 428.587 -0.36267 1.55425 0
M  V30 4694 C 428.787 -1.75209 0.995187 0
M  V30 4695 O 427.843 -2.44616 0.626058 0
M  V30 4696 C 429.156 -0.244017 2.99708 0
M  V30 4697 C 430.704 -0.319451 3.11366 0
M  V30 4698 C 431.179 -0.229998 4.57422 0
M  V30 4699 N 432.67 -0.288105 4.62303 0
M  V30 4700 C 433.405 -0.242127 5.72889 0
M  V30 4701 N 432.901 -0.147133 6.92644 0
M  V30 4702 N 434.694 -0.293502 5.61333 0
M  V30 4703 H 426.845 0.902314 1.92281 0
M  V30 4704 H 429.108 0.34525 0.882896 0
M  V30 4705 H 428.814 0.711678 3.44424 0
M  V30 4706 H 428.688 -1.02877 3.629 0
M  V30 4707 H 431.075 -1.26559 2.66584 0
M  V30 4708 H 431.156 0.495055 2.50964 0
M  V30 4709 H 430.8 0.712566 5.02877 0
M  V30 4710 H 430.73 -1.0629 5.15761 0
M  V30 4711 H 433.221 -0.363126 3.76151 0
M  V30 4712 H 433.534 -0.117763 7.7271 0
M  V30 4713 H 431.879 -0.112857 6.94908 0
M  V30 4714 H 435.07 -0.365864 4.66668 0
M  V30 4715 H 435.243 -0.254204 6.47501 0
M  V30 4716 N 428.649 -1.55105 -0.279332 0
M  V30 4717 C 429.581 -1.83952 -1.36727 0
M  V30 4718 C 430.594 -0.723642 -1.45833 0
M  V30 4719 O 431.783 -1.00141 -1.47763 0
M  V30 4720 C 428.883 -1.98183 -2.74912 0
M  V30 4721 C 428.056 -3.28787 -2.88475 0
M  V30 4722 C 427.115 -3.33162 -4.07295 0
M  V30 4723 O 426.141 -4.06576 -3.98353 0
M  V30 4724 N 427.343 -2.60109 -5.18964 0
M  V30 4725 H 430.108 -2.77853 -1.12328 0
M  V30 4726 H 427.669 -1.54945 -0.469442 0
M  V30 4727 H 429.661 -1.98488 -3.52682 0
M  V30 4728 H 428.231 -1.11177 -2.92162 0
M  V30 4729 H 427.451 -3.41075 -1.97641 0
M  V30 4730 H 428.739 -4.14933 -2.94463 0
M  V30 4731 H 428.137 -2.00136 -5.29115 0
M  V30 4732 H 426.694 -2.66143 -5.94988 0
M  V30 4733 N 430.127 0.543554 -1.4793 0
M  V30 4734 C 431.543 0.870806 -1.3375 0
M  V30 4735 C 431.743 1.9864 -0.338261 0
M  V30 4736 O 430.799 2.51305 0.245371 0
M  V30 4737 C 432.112 1.25114 -2.73435 0
M  V30 4738 C 433.66 1.3618 -2.81823 0
M  V30 4739 C 434.135 1.77563 -4.22179 0
M  V30 4740 N 435.626 1.8469 -4.24787 0
M  V30 4741 C 436.361 2.18067 -5.30315 0
M  V30 4742 N 435.857 2.49963 -6.46135 0
M  V30 4743 N 437.65 2.18958 -5.17701 0
M  V30 4744 H 429.801 -0.19275 -2.11524 0
M  V30 4745 H 432.064 -0.0235777 -0.947707 0
M  V30 4746 H 431.77 0.50514 -3.48053 0
M  V30 4747 H 431.644 2.20431 -3.06088 0
M  V30 4748 H 434.031 2.09859 -2.07468 0
M  V30 4749 H 434.112 0.390169 -2.52807 0
M  V30 4750 H 433.756 1.04449 -4.97044 0
M  V30 4751 H 433.686 2.75753 -4.48629 0
M  V30 4752 H 436.177 1.62372 -3.41239 0
M  V30 4753 H 436.49 2.74497 -7.22406 0
M  V30 4754 H 434.835 2.47513 -6.49432 0
M  V30 4755 H 438.026 1.93488 -4.2624 0
M  V30 4756 H 438.199 2.44639 -6.00047 0
M  V30 4757 N 431.605 1.3629 0.791371 0
M  V30 4758 C 432.853 1.30154 1.5461 0
M  V30 4759 C 433.174 -0.119409 1.94634 0
M  V30 4760 O 432.444 -1.05924 1.64794 0
M  V30 4761 H 431.024 0.478784 0.573389 0
M  V30 4762 H 433.686 1.70565 0.94306 0
M  V30 4763 H 432.782 1.92762 2.45457 0
M  V30 4764 N 433.083 -1.0153 1.20538 0
M  V30 4765 C 434.03 -2.10098 0.955383 0
M  V30 4766 C 435 -1.65702 -0.114878 0
M  V30 4767 O 436.185 -1.90776 0.0301118 0
M  V30 4768 C 433.325 -3.41236 0.514969 0
M  V30 4769 C 432.438 -3.99102 1.65353 0
M  V30 4770 C 431.573 -5.18306 1.16329 0
M  V30 4771 C 430.612 -5.68258 2.27485 0
M  V30 4772 N 429.749 -6.78722 1.7967 0
M  V30 4773 H 434.589 -2.30818 1.88486 0
M  V30 4774 H 432.126 -1.13189 0.939499 0
M  V30 4775 H 434.084 -4.16504 0.240935 0
M  V30 4776 H 432.714 -3.20585 -0.377512 0
M  V30 4777 H 431.766 -3.20918 2.04245 0
M  V30 4778 H 433.078 -4.32177 2.49047 0
M  V30 4779 H 432.232 -6.00782 0.845302 0
M  V30 4780 H 430.971 -4.86799 0.296254 0
M  V30 4781 H 429.976 -4.84385 2.60099 0
M  V30 4782 H 431.201 -6.01798 3.14667 0
M  V30 4783 H 429.147 -6.49042 0.95295 0
M  V30 4784 H 429.064 -7.10996 2.56944 0
M  V30 4785 H 430.332 -7.64759 1.50875 0
M  V30 4786 N 434.561 -1.01147 -1.20859 0
M  V30 4787 C 435.509 -0.57059 -2.25493 0
M  V30 4788 C 436.503 0.388109 -1.64894 0
M  V30 4789 O 437.709 0.258592 -1.78133 0
M  V30 4790 H 434.084 -0.166191 -0.733406 0
M  V30 4791 H 436.055 -1.46411 -2.60012 0
M  V30 4792 C 434.804 0.0805241 -3.47607 0
M  V30 4793 H 434.127 -0.648156 -3.94511 0
M  V30 4794 H 435.567 0.352197 -4.22535 0
M  V30 4795 C 434.026 1.32175 -3.09889 0
M  V30 4796 O 434.556 2.41553 -3.20959 0
M  V30 4797 N 432.762 1.20392 -2.64488 0
M  V30 4798 H 432.309 0.313905 -2.5568 0
M  V30 4799 H 432.267 2.03541 -2.39621 0
M  V30 4800 N 436.039 1.36541 -0.78704 0
M  V30 4801 C 436.989 2.27459 -0.156957 0
M  V30 4802 C 437.973 1.46843 0.657709 0
M  V30 4803 O 439.165 1.69245 0.518173 0
M  V30 4804 C 436.294 3.35893 0.709278 0
M  V30 4805 C 435.38 4.23947 -0.114049 0
M  V30 4806 N 435.771 4.92145 -1.16736 0
M  V30 4807 C 434.069 4.4587 0.107497 0
M  V30 4808 C 434.77 5.57261 -1.66837 0
M  V30 4809 N 433.746 5.3473 -0.977992 0
M  V30 4810 H 437.548 2.77669 -0.963185 0
M  V30 4811 H 435.062 1.49839 -0.62627 0
M  V30 4812 H 437.059 3.99953 1.17656 0
M  V30 4813 H 435.719 2.87238 1.51408 0
M  V30 4814 H 436.73 4.94169 -1.54976 0
M  V30 4815 H 433.407 4.08056 0.882994 0
M  V30 4816 H 434.797 6.21728 -2.54762 0
M  V30 4817 N 437.518 0.538854 1.48102 0
M  V30 4818 C 438.448 -0.207654 2.32575 0
M  V30 4819 C 439.429 -0.926559 1.4265 0
M  V30 4820 O 440.614 -0.91061 1.71527 0
M  V30 4821 C 437.744 -1.24957 3.24042 0
M  V30 4822 C 436.698 -0.648263 4.23062 0
M  V30 4823 C 436.024 -1.79348 5.03725 0
M  V30 4824 C 437.324 0.385897 5.20872 0
M  V30 4825 H 439.018 0.497534 2.95237 0
M  V30 4826 H 436.564 0.240715 1.41974 0
M  V30 4827 H 438.517 -1.77983 3.81969 0
M  V30 4828 H 437.241 -1.98446 2.59397 0
M  V30 4829 H 435.9 -0.139452 3.66335 0
M  V30 4830 H 435.548 -2.51696 4.35498 0
M  V30 4831 H 435.248 -1.39702 5.70751 0
M  V30 4832 H 436.772 -2.32735 5.64506 0
M  V30 4833 H 438.186 -0.057607 5.73271 0
M  V30 4834 H 436.583 0.700227 5.96001 0
M  V30 4835 H 437.653 1.28848 4.67468 0
M  V30 4836 N 438.996 -1.55193 0.274407 0
M  V30 4837 C 439.929 -2.18606 -0.654712 0
M  V30 4838 C 440.907 -1.14677 -1.15273 0
M  V30 4839 O 442.091 -1.43198 -1.22583 0
M  V30 4840 C 439.218 -2.80875 -1.89281 0
M  V30 4841 C 438.264 -3.981 -1.53032 0
M  V30 4842 S 439.097 -5.32025 -0.609107 0
M  V30 4843 C 440.253 -5.97761 -1.85559 0
M  V30 4844 H 440.486 -2.97074 -0.115894 0
M  V30 4845 H 438.019 -1.54288 0.05867 0
M  V30 4846 H 439.977 -3.17381 -2.60345 0
M  V30 4847 H 438.638 -2.02302 -2.40277 0
M  V30 4848 H 437.831 -4.40356 -2.45158 0
M  V30 4849 H 437.433 -3.63013 -0.899874 0
M  V30 4850 H 439.725 -6.16951 -2.7996 0
M  V30 4851 H 440.668 -6.92545 -1.47605 0
M  V30 4852 H 441.076 -5.27113 -2.02021 0
M  V30 4853 N 440.474 -0.00167713 -1.576 0
M  V30 4854 C 441.404 0.988091 -2.11563 0
M  V30 4855 C 442.385 1.35736 -1.02517 0
M  V30 4856 O 443.57 1.44082 -1.30208 0
M  V30 4857 C 440.7 2.27941 -2.62031 0
M  V30 4858 C 439.654 2.0517 -3.75619 0
M  V30 4859 C 438.98 3.4033 -4.12407 0
M  V30 4860 C 440.28 1.41294 -5.02825 0
M  V30 4861 H 441.974 0.538771 -2.94513 0
M  V30 4862 H 439.52 0.257712 -1.41675 0
M  V30 4863 H 441.473 2.97539 -2.9841 0
M  V30 4864 H 440.197 2.74989 -1.76205 0
M  V30 4865 H 438.856 1.37998 -3.39635 0
M  V30 4866 H 438.504 3.85085 -3.23603 0
M  V30 4867 H 438.204 3.25909 -4.88935 0
M  V30 4868 H 439.728 4.1124 -4.51347 0
M  V30 4869 H 441.142 2.00851 -5.36965 0
M  V30 4870 H 439.539 1.37356 -5.84169 0
M  V30 4871 H 440.609 0.382362 -4.8339 0
M  V30 4872 N 441.952 1.55251 0.271103 0
M  V30 4873 C 442.884 1.84675 1.35749 0
M  V30 4874 C 443.897 0.731366 1.45447 0
M  V30 4875 O 445.086 1.00924 1.4723 0
M  V30 4876 C 442.186 1.99638 2.73857 0
M  V30 4877 C 441.359 3.30312 2.86727 0
M  V30 4878 C 440.418 3.35318 4.05522 0
M  V30 4879 O 439.444 4.08682 3.96191 0
M  V30 4880 N 440.646 2.62857 5.17577 0
M  V30 4881 H 443.411 2.78445 1.10853 0
M  V30 4882 H 440.972 1.55191 0.461218 0
M  V30 4883 H 442.964 2.00355 3.51625 0
M  V30 4884 H 441.534 1.12725 2.91568 0
M  V30 4885 H 440.754 3.42118 1.95829 0
M  V30 4886 H 442.042 4.16488 2.92258 0
M  V30 4887 H 441.44 2.02939 5.28046 0
M  V30 4888 H 439.997 2.69295 5.93568 0
M  V30 4889 N 443.43 -0.535701 1.48216 0
M  V30 4890 C 444.846 -0.863701 1.3421 0
M  V30 4891 C 445.046 -1.98458 0.34879 0
M  V30 4892 O 444.102 -2.51432 -0.23204 0
M  V30 4893 C 445.415 -1.23662 2.74095 0
M  V30 4894 C 446.963 -1.34683 2.82541 0
M  V30 4895 C 447.438 -1.75322 4.23115 0
M  V30 4896 N 448.929 -1.82434 4.2576 0
M  V30 4897 C 449.664 -2.15252 5.31464 0
M  V30 4898 N 449.16 -2.46533 6.47452 0
M  V30 4899 N 450.953 -2.16209 5.18855 0
M  V30 4900 H 443.104 0.203965 2.11418 0
M  V30 4901 H 445.367 0.0286033 0.947568 0
M  V30 4902 H 445.073 -0.486674 3.48316 0
M  V30 4903 H 444.947 -2.18805 3.07253 0
M  V30 4904 H 447.334 -2.08756 2.08579 0
M  V30 4905 H 447.415 -0.376756 2.5301 0
M  V30 4906 H 447.059 -1.01812 4.97591 0
M  V30 4907 H 446.989 -2.7337 4.50085 0
M  V30 4908 H 449.48 -1.6056 3.42095 0
M  V30 4909 H 449.793 -2.70662 7.23852 0
M  V30 4910 H 448.138 -2.44065 6.50736 0
M  V30 4911 H 451.329 -1.91224 4.2726 0
M  V30 4912 H 451.502 -2.41453 6.01335 0
M  V30 4913 N 444.908 -1.36708 -0.784132 0
M  V30 4914 C 446.185 -1.21776 -1.53069 0
M  V30 4915 C 446.565 0.193876 -2.10208 0
M  V30 4916 O 445.913 1.20012 -1.94446 0
M  V30 4917 C 446.123 -2.30395 -2.62143 0
M  V30 4918 C 447.471 -2.67325 -3.29882 0
M  V30 4919 O 448.495 -2.29478 -2.7243 0
M  V30 4920 O 447.354 -3.32485 -4.33724 0
M  V30 4921 H 444.448 -0.474459 -0.677361 0
M  V30 4922 H 446.994 -1.48454 -0.82216 0
M  V30 4923 H 445.766 -3.2498 -2.17953 0
M  V30 4924 H 445.389 -2.05112 -3.40609 0
M  V30 4925 N 446.386 1.0089 -1.21074 0
M  V30 4926 C 447.797 1.56056 -1.02486 0
M  V30 4927 C 448.148 1.91728 0.416506 0
M  V30 4928 O 447.273 1.73066 1.29912 0
M  V30 4929 C 447.868 2.83563 -1.85411 0
M  V30 4930 C 446.427 3.3523 -1.71166 0
M  V30 4931 C 445.574 2.0846 -1.82865 0
M  V30 4932 H 448.525 0.831818 -1.35154 0
M  V30 4933 H 448.546 3.55286 -1.36205 0
M  V30 4934 H 448.058 2.57569 -2.9031 0
M  V30 4935 H 446.159 3.66167 -0.689361 0
M  V30 4936 H 446.272 4.06913 -2.52901 0
M  V30 4937 H 444.636 2.21275 -1.26132 0
M  V30 4938 H 445.419 1.84883 -2.89263 0
M  V30 4939 N 447.864 1.01787 1.20321 0
M  V30 4940 C 448.797 0.533882 2.21867 0
M  V30 4941 C 449.775 -0.419361 1.57099 0
M  V30 4942 O 450.959 -0.339062 1.85426 0
M  V30 4943 C 448.086 -0.222899 3.37966 0
M  V30 4944 C 447.132 0.680091 4.21043 0
M  V30 4945 S 447.965 2.14997 4.90445 0
M  V30 4946 C 449.121 1.40339 6.09964 0
M  V30 4947 H 449.354 1.39429 2.62577 0
M  V30 4948 H 446.887 0.826867 1.30393 0
M  V30 4949 H 448.845 -0.653425 4.05266 0
M  V30 4950 H 447.506 -1.0589 2.95713 0
M  V30 4951 H 446.699 0.0964704 5.03908 0
M  V30 4952 H 446.301 1.04845 3.59004 0
M  V30 4953 H 448.593 0.68407 6.74038 0
M  V30 4954 H 449.536 2.20823 6.72787 0
M  V30 4955 H 449.944 0.905716 5.57187 0
M  V30 4956 N 449.342 -1.36122 0.79427 0
M  V30 4957 C 450.289 -2.29982 0.194101 0
M  V30 4958 C 451.259 -1.52214 -0.664833 0
M  V30 4959 O 452.444 -1.80702 -0.612498 0
M  V30 4960 C 449.584 -3.38706 -0.661244 0
M  V30 4961 C 448.697 -4.31456 0.216766 0
M  V30 4962 C 447.832 -5.27265 -0.645411 0
M  V30 4963 C 446.871 -6.11653 0.233756 0
M  V30 4964 N 446.008 -6.99636 -0.587682 0
M  V30 4965 H 450.848 -2.80722 0.999965 0
M  V30 4966 H 448.385 -1.38172 0.504677 0
M  V30 4967 H 450.343 -4.00394 -1.17219 0
M  V30 4968 H 448.973 -2.89274 -1.43249 0
M  V30 4969 H 448.025 -3.7088 0.845724 0
M  V30 4970 H 449.337 -4.90724 0.893973 0
M  V30 4971 H 448.491 -5.94266 -1.22198 0
M  V30 4972 H 447.23 -4.68463 -1.35623 0
M  V30 4973 H 446.235 -5.4361 0.82269 0
M  V30 4974 H 447.46 -6.72531 0.942247 0
M  V30 4975 H 445.406 -6.43337 -1.2827 0
M  V30 4976 H 445.323 -7.55993 0.0317402 0
M  V30 4977 H 446.591 -7.71001 -1.14792 0
M  V30 4978 N 450.82 -0.546701 -1.47814 0
M  V30 4979 C 452.231 -0.110564 -1.86372 0
M  V30 4980 C 452.582 1.31678 -1.45449 0
M  V30 4981 O 451.707 1.98889 -0.852758 0
M  V30 4982 C 452.302 -0.193873 -3.38245 0
M  V30 4983 C 450.861 0.187164 -3.75934 0
M  V30 4984 C 450.008 -0.546166 -2.71868 0
M  V30 4985 H 452.959 -0.757022 -1.39481 0
M  V30 4986 H 452.98 0.590218 -3.75895 0
M  V30 4987 H 452.492 -1.23282 -3.67999 0
M  V30 4988 H 450.593 1.22762 -3.51796 0
M  V30 4989 H 450.706 -0.164083 -4.78819 0
M  V30 4990 H 449.07 0.00953904 -2.54698 0
M  V30 4991 H 449.853 -1.58606 -3.04465 0
M  V30 4992 N 452.299 1.55045 -0.282633 0
M  V30 4993 C 453.229 2.2579 0.595066 0
M  V30 4994 C 454.21 1.25074 1.15284 0
M  V30 4995 O 455.395 1.5381 1.18559 0
M  V30 4996 C 452.525 2.98472 1.77572 0
M  V30 4997 C 451.479 4.0618 1.34914 0
M  V30 4998 C 450.805 4.66477 2.6135 0
M  V30 4999 C 452.105 5.1996 0.493821 0
M  V30 5000 H 453.799 2.994 0.00505653 0
M  V30 5001 H 451.345 1.44 0.000992001 0
M  V30 5002 H 453.298 3.46677 2.39568 0
M  V30 5003 H 452.022 2.2241 2.39168 0
M  V30 5004 H 450.681 3.58797 0.752338 0
M  V30 5005 H 450.329 3.87074 3.2122 0
M  V30 5006 H 450.029 5.39207 2.33516 0
M  V30 5007 H 451.553 5.17435 3.24181 0
M  V30 5008 H 452.967 5.64172 1.01898 0
M  V30 5009 H 451.364 5.99299 0.310047 0
M  V30 5010 H 452.434 4.82462 -0.485593 0
M  V30 5011 N 453.777 0.010035 1.57597 0
M  V30 5012 C 454.707 -0.976857 2.12084 0
M  V30 5013 C 455.688 -1.35191 1.03235 0
M  V30 5014 O 456.873 -1.43389 1.3097 0
M  V30 5015 C 454.003 -2.26548 2.63236 0
M  V30 5016 C 452.957 -2.03175 3.76701 0
M  V30 5017 C 452.283 -3.38138 4.14206 0
M  V30 5018 C 453.583 -1.38625 5.03568 0
M  V30 5019 H 455.277 -0.523145 2.94794 0
M  V30 5020 H 452.823 -0.250195 1.4181 0
M  V30 5021 H 454.776 -2.95952 2.99984 0
M  V30 5022 H 453.5 -2.74051 1.77661 0
M  V30 5023 H 452.159 -1.36195 3.40362 0
M  V30 5024 H 451.807 -3.83363 3.25641 0
M  V30 5025 H 451.507 -3.23312 4.90656 0
M  V30 5026 H 453.031 -4.08841 4.53521 0
M  V30 5027 H 454.445 -1.98 5.38023 0
M  V30 5028 H 452.842 -1.34256 5.84889 0
M  V30 5029 H 453.912 -0.356722 4.83586 0
M  V30 5030 N 455.255 -1.55392 -0.262866 0
M  V30 5031 C 456.203 -1.8977 -1.345 0
M  V30 5032 C 457.197 -0.775063 -1.50629 0
M  V30 5033 O 458.403 -0.959519 -1.52293 0
M  V30 5034 H 454.778 -0.602467 -0.450041 0
M  V30 5035 H 456.749 -2.80147 -1.02762 0
M  V30 5036 C 455.498 -2.19501 -2.69657 0
M  V30 5037 H 454.821 -3.05378 -2.5804 0
M  V30 5038 H 456.261 -2.47469 -3.44289 0
M  V30 5039 C 454.72 -1.00597 -3.21531 0
M  V30 5040 O 455.25 -0.245768 -4.00947 0
M  V30 5041 N 453.456 -0.800911 -2.79345 0
M  V30 5042 H 453.003 -1.42079 -2.14875 0
M  V30 5043 H 452.961 -0.00697996 -3.14399 0
M  V30 5044 N 456.733 0.527833 -1.48498 0
M  V30 5045 C 458.149 0.856571 -1.34666 0
M  V30 5046 C 458.349 1.98271 -0.35931 0
M  V30 5047 O 457.405 2.51551 0.218703 0
M  V30 5048 C 458.718 1.22207 -2.74747 0
M  V30 5049 C 460.266 1.33183 -2.83251 0
M  V30 5050 C 460.741 1.73075 -4.24039 0
M  V30 5051 N 462.232 1.80174 -4.26722 0
M  V30 5052 C 462.967 2.1243 -5.32598 0
M  V30 5053 N 462.463 2.43096 -6.4875 0
M  V30 5054 N 464.256 2.13454 -5.19994 0
M  V30 5055 H 456.407 -0.215174 -2.11307 0
M  V30 5056 H 458.67 -0.0336281 -0.947403 0
M  V30 5057 H 458.376 0.468195 -3.4857 0
M  V30 5058 H 458.25 2.17173 -3.08409 0
M  V30 5059 H 460.637 2.07647 -2.09683 0
M  V30 5060 H 460.718 0.363333 -2.53206 0
M  V30 5061 H 460.362 0.991712 -4.98124 0
M  V30 5062 H 460.292 2.70979 -4.51529 0
M  V30 5063 H 462.783 1.58744 -3.42942 0
M  V30 5064 H 463.096 2.6682 -7.25277 0
M  V30 5065 H 461.441 2.40611 -6.52021 0
M  V30 5066 H 464.632 1.88956 -4.28268 0
M  V30 5067 H 464.805 2.38261 -6.02608 0
M  V30 5068 N 458.211 1.37122 0.776871 0
M  V30 5069 C 459.436 1.354 1.57104 0
M  V30 5070 C 459.861 -0.0595562 1.88006 0
M  V30 5071 O 459.219 -1.03514 1.48844 0
M  V30 5072 C 459.267 2.19472 2.8612 0
M  V30 5073 O 458.371 1.59582 3.80273 0
M  V30 5074 H 457.712 0.462869 0.476076 0
M  V30 5075 H 460.242 1.80577 0.961932 0
M  V30 5076 H 460.252 2.32502 3.35271 0
M  V30 5077 H 458.927 3.22222 2.62956 0
M  V30 5078 H 457.504 1.55564 3.38902 0
M  V30 5079 N 459.689 -1.00246 1.21608 0
M  V30 5080 C 460.938 -1.73476 1.02902 0
M  V30 5081 C 461.251 -1.90643 -0.437561 0
M  V30 5082 O 462.457 -2.61105 -0.74407 0
M  V30 5083 C 460.913 -3.12079 1.79261 0
M  V30 5084 C 460.521 -3.02877 3.30106 0
M  V30 5085 C 462.265 -3.89421 1.68972 0
M  V30 5086 C 460.172 -4.36575 3.98944 0
M  V30 5087 H 459.102 -0.650408 0.381425 0
M  V30 5088 H 461.753 -1.11985 1.45367 0
M  V30 5089 H 460.135 -3.74196 1.2959 0
M  V30 5090 H 461.309 -2.49983 3.87098 0
M  V30 5091 H 459.624 -2.39022 3.40965 0
M  V30 5092 H 462.221 -4.88362 2.17731 0
M  V30 5093 H 462.564 -4.1122 0.648397 0
M  V30 5094 H 463.097 -3.33963 2.16133 0
M  V30 5095 H 459.836 -4.19978 5.03288 0
M  V30 5096 H 459.356 -4.8942 3.4674 0
M  V30 5097 H 461.035 -5.05364 4.04 0
M  V30 5098 N 461.167 -1.02423 -1.1978 0
M  V30 5099 C 462.1 -0.545641 -2.21581 0
M  V30 5100 C 463.078 0.411024 -1.57319 0
M  V30 5101 O 464.262 0.329223 -1.85603 0
M  V30 5102 C 461.389 0.204973 -3.38079 0
M  V30 5103 C 460.435 -0.70241 -4.20676 0
M  V30 5104 S 461.268 -2.17595 -4.89298 0
M  V30 5105 C 462.424 -1.43572 -6.09211 0
M  V30 5106 H 462.657 -1.4082 -2.61834 0
M  V30 5107 H 460.19 -0.833771 -1.29952 0
M  V30 5108 H 462.148 0.631924 -4.05607 0
M  V30 5109 H 460.809 1.0432 -2.9627 0
M  V30 5110 H 460.002 -0.123193 -5.03849 0
M  V30 5111 H 459.604 -1.06747 -3.58442 0
M  V30 5112 H 461.896 -0.719806 -6.73665 0
M  V30 5113 H 462.839 -2.24388 -6.71607 0
M  V30 5114 H 463.247 -0.935252 -5.56699 0
M  V30 5115 N 462.645 1.35699 -0.801477 0
M  V30 5116 C 463.893 1.9852 -0.37871 0
M  V30 5117 C 464.214 1.63907 1.05638 0
M  V30 5118 O 463.484 0.919013 1.73006 0
M  V30 5119 H 462.064 0.734322 -0.137042 0
M  V30 5120 H 464.726 1.65697 -1.02619 0
M  V30 5121 H 463.822 3.08382 -0.480284 0
M  V30 5122 N 464.123 0.554532 1.47522 0
M  V30 5123 C 465.369 0.0295227 2.02779 0
M  V30 5124 C 465.702 -1.31582 1.42828 0
M  V30 5125 O 464.977 -1.85561 0.582872 0
M  V30 5126 C 465.26 -0.0664057 3.60039 0
M  V30 5127 C 465.113 1.30585 4.30427 0
M  V30 5128 C 466.432 -0.781162 4.33112 0
M  V30 5129 H 463.551 0.0122027 0.736899 0
M  V30 5130 H 466.193 0.716305 1.7598 0
M  V30 5131 H 464.343 -0.651307 3.83002 0
M  V30 5132 H 466.015 1.93374 4.18813 0
M  V30 5133 H 464.258 1.88125 3.90886 0
M  V30 5134 H 464.929 1.19147 5.38988 0
M  V30 5135 H 467.405 -0.284565 4.15126 0
M  V30 5136 H 466.281 -0.817237 5.42782 0
M  V30 5137 H 466.542 -1.83672 4.0214 0
M  V30 5138 N 465.601 -1.54893 0.290851 0
M  V30 5139 C 466.831 -2.04047 -0.323818 0
M  V30 5140 C 467.239 -1.16809 -1.48837 0
M  V30 5141 O 466.582 -0.184145 -1.82775 0
M  V30 5142 C 466.644 -3.49248 -0.852395 0
M  V30 5143 C 466.308 -4.56623 0.185557 0
M  V30 5144 C 467.305 -5.09985 1.01053 0
M  V30 5145 C 464.99 -5.01252 0.324332 0
M  V30 5146 C 466.984 -6.06507 1.96031 0
M  V30 5147 C 464.671 -5.97596 1.27757 0
M  V30 5148 C 465.669 -6.50107 2.09405 0
M  V30 5149 O 465.357 -7.44565 3.03114 0
M  V30 5150 H 465.089 -0.671735 -0.0758129 0
M  V30 5151 H 467.643 -2.00947 0.425393 0
M  V30 5152 H 465.873 -3.49639 -1.65195 0
M  V30 5153 H 467.562 -3.81654 -1.38185 0
M  V30 5154 H 468.328 -4.76307 0.914129 0
M  V30 5155 H 464.207 -4.60015 -0.301213 0
M  V30 5156 H 467.751 -6.47418 2.598 0
M  V30 5157 H 463.648 -6.30691 1.37473 0
M  V30 5158 H 464.416 -7.62334 2.97976 0
M  V30 5159 N 467.08 -0.0183926 -1.57589 0
M  V30 5160 C 468.491 0.521927 -1.79256 0
M  V30 5161 C 468.842 1.72885 -0.927636 0
M  V30 5162 O 467.967 2.15978 -0.135091 0
M  V30 5163 C 468.562 0.953632 -3.25102 0
M  V30 5164 C 467.121 1.43913 -3.47801 0
M  V30 5165 C 466.268 0.398837 -2.74417 0
M  V30 5166 H 469.219 -0.244485 -1.56805 0
M  V30 5167 H 469.24 1.81863 -3.34224 0
M  V30 5168 H 468.752 0.0750123 -3.88028 0
M  V30 5169 H 466.853 2.33804 -2.90115 0
M  V30 5170 H 466.966 1.45391 -4.56507 0
M  V30 5171 H 465.33 0.864572 -2.39577 0
M  V30 5172 H 466.113 -0.471132 -3.40052 0
M  V30 5173 N 468.558 1.5553 0.254621 0
M  V30 5174 C 469.969 1.67518 0.824286 0
M  V30 5175 C 470.32 0.614429 1.86331 0
M  V30 5176 O 469.445 -0.240736 2.15057 0
M  V30 5177 C 470.04 3.03692 1.50189 0
M  V30 5178 C 468.599 3.17646 2.01935 0
M  V30 5179 C 467.746 2.63373 0.867746 0
M  V30 5180 H 470.697 1.58671 0.0305843 0
M  V30 5181 H 470.718 2.97706 2.36962 0
M  V30 5182 H 470.23 3.80874 0.745431 0
M  V30 5183 H 468.331 2.45273 2.80485 0
M  V30 5184 H 468.444 4.24455 2.22204 0
M  V30 5185 H 466.808 2.20999 1.26616 0
M  V30 5186 H 467.591 3.43074 0.124498 0
M  V30 5187 N 470.036 -0.519951 1.48776 0
M  V30 5188 C 471.284 -1.2727 1.56993 0
M  V30 5189 C 471.605 -1.9339 0.25004 0
M  V30 5190 O 470.875 -1.81822 -0.729216 0
M  V30 5191 H 469.455 -0.472732 0.578389 0
M  V30 5192 H 472.117 -0.604234 1.85297 0
M  V30 5193 H 471.213 -2.04669 2.3562 0
M  V30 5194 N 471.514 -1.37532 -0.769588 0
M  V30 5195 C 472.739 -1.36231 -1.56384 0
M  V30 5196 C 473.164 0.0495849 -1.88035 0
M  V30 5197 O 472.522 1.02723 -1.49391 0
M  V30 5198 C 472.57 -2.20986 -2.84952 0
M  V30 5199 O 471.674 -1.61597 -3.79421 0
M  V30 5200 H 471.015 -0.465387 -0.473615 0
M  V30 5201 H 473.545 -1.81085 -0.952342 0
M  V30 5202 H 473.555 -2.34277 -3.34034 0
M  V30 5203 H 472.23 -3.23612 -2.61243 0
M  V30 5204 H 470.807 -1.57359 -3.38072 0
M  V30 5205 N 472.992 0.995999 -1.22138 0
M  V30 5206 C 474.22 1.77066 -1.07029 0
M  V30 5207 C 474.635 1.8495 0.379357 0
M  V30 5208 O 473.992 1.3174 1.26297 0
M  V30 5209 C 474.043 3.20533 -1.67155 0
M  V30 5210 O 473.764 3.13082 -3.06449 0
M  V30 5211 C 475.265 4.14461 -1.5728 0
M  V30 5212 H 472.485 0.556179 -0.375374 0
M  V30 5213 H 475.029 1.25238 -1.61666 0
M  V30 5214 H 473.184 3.6944 -1.16589 0
M  V30 5215 H 473.598 4.03283 -3.35355 0
M  V30 5216 H 475.072 5.1289 -2.04078 0
M  V30 5217 H 475.549 4.36005 -0.528795 0
M  V30 5218 H 476.155 3.71449 -2.07136 0
M  V30 5219 N 474.47 1.03057 1.19235 0
M  V30 5220 C 475.717 0.728019 1.88961 0
M  V30 5221 C 476.045 -0.743515 1.79728 0
M  V30 5222 O 475.3 -1.55729 1.1852 0
M  V30 5223 C 475.599 1.1268 3.39172 0
M  V30 5224 C 475.265 2.5969 3.68608 0
M  V30 5225 C 473.927 2.99854 3.76352 0
M  V30 5226 C 476.279 3.54793 3.81801 0
M  V30 5227 C 473.607 4.34031 3.94758 0
M  V30 5228 C 475.959 4.88675 4.0172 0
M  V30 5229 C 474.623 5.28526 4.07697 0
M  V30 5230 H 473.893 0.266401 0.691456 0
M  V30 5231 H 476.54 1.29373 1.41191 0
M  V30 5232 H 474.845 0.479722 3.88852 0
M  V30 5233 H 476.542 0.870203 3.91444 0
M  V30 5234 H 473.132 2.27575 3.63191 0
M  V30 5235 H 477.316 3.24914 3.7516 0
M  V30 5236 H 472.572 4.6444 3.97625 0
M  V30 5237 H 476.746 5.6228 4.1087 0
M  V30 5238 H 474.373 6.32506 4.21712 0
M  V30 5239 N 475.948 -1.35272 0.808662 0
M  V30 5240 C 476.895 -2.29764 0.218482 0
M  V30 5241 C 477.865 -1.52911 -0.648652 0
M  V30 5242 O 479.05 -1.81341 -0.593297 0
M  V30 5243 C 476.19 -3.39388 -0.625282 0
M  V30 5244 C 475.303 -4.31202 0.262516 0
M  V30 5245 C 474.438 -5.27919 -0.589451 0
M  V30 5246 C 473.477 -6.11371 0.298617 0
M  V30 5247 N 472.614 -7.0022 -0.513443 0
M  V30 5248 H 477.454 -2.79645 1.02968 0
M  V30 5249 H 474.991 -1.37629 0.519303 0
M  V30 5250 H 476.949 -4.01615 -1.12966 0
M  V30 5251 H 475.579 -2.90777 -1.40173 0
M  V30 5252 H 474.631 -3.69962 0.885013 0
M  V30 5253 H 475.943 -4.89748 0.945971 0
M  V30 5254 H 475.097 -5.95529 -1.15888 0
M  V30 5255 H 473.836 -4.69875 -1.30647 0
M  V30 5256 H 472.841 -5.42707 0.880301 0
M  V30 5257 H 474.066 -6.71494 1.01352 0
M  V30 5258 H 472.012 -6.44662 -1.21439 0
M  V30 5259 H 471.929 -7.55917 0.111922 0
M  V30 5260 H 473.197 -7.72175 -1.06608 0
M  V30 5261 N 477.426 -0.562348 -1.47226 0
M  V30 5262 C 478.654 -0.0452275 -2.06851 0
M  V30 5263 C 479.069 1.25078 -1.41424 0
M  V30 5264 O 478.426 1.75156 -0.512513 0
M  V30 5265 C 478.477 0.148674 -3.61194 0
M  V30 5266 O 478.198 -1.09602 -4.24169 0
M  V30 5267 C 479.699 0.702488 -4.37699 0
M  V30 5268 H 476.919 -0.0481775 -0.669268 0
M  V30 5269 H 479.463 -0.777223 -1.89155 0
M  V30 5270 H 477.618 0.830817 -3.78386 0
M  V30 5271 H 478.032 -0.896982 -5.16773 0
M  V30 5272 H 479.506 0.78743 -5.46355 0
M  V30 5273 H 479.983 1.71493 -4.04335 0
M  V30 5274 H 480.589 0.0558772 -4.25263 0
M  V30 5275 N 478.904 1.54736 -0.299062 0
M  V30 5276 C 479.867 2.22127 0.565012 0
M  V30 5277 C 480.867 1.20669 1.06281 0
M  V30 5278 O 482.057 1.45417 0.959145 0
M  V30 5279 C 479.189 2.90611 1.78208 0
M  V30 5280 H 480.382 2.99891 -0.0237448 0
M  V30 5281 H 477.935 1.5622 -0.0498788 0
M  V30 5282 H 478.67 2.16921 2.41072 0
M  V30 5283 H 478.455 3.64984 1.43281 0
M  V30 5284 H 479.945 3.42026 2.396 0
M  V30 5285 N 480.382 0.0267497 1.57577 0
M  V30 5286 C 481.314 -0.984594 2.06974 0
M  V30 5287 C 482.327 -1.29032 0.992705 0
M  V30 5288 O 483.516 -1.25539 1.26895 0
M  V30 5289 C 480.616 -2.31262 2.47732 0
M  V30 5290 C 479.789 -2.1924 3.78487 0
M  V30 5291 C 478.848 -3.34956 4.05821 0
M  V30 5292 O 477.874 -3.11948 4.76106 0
M  V30 5293 N 479.076 -4.58672 3.55809 0
M  V30 5294 H 481.841 -0.563143 2.94362 0
M  V30 5295 H 479.402 -0.160061 1.61107 0
M  V30 5296 H 481.394 -3.07496 2.63112 0
M  V30 5297 H 479.964 -2.65056 1.65723 0
M  V30 5298 H 479.184 -1.27747 3.72927 0
M  V30 5299 H 480.472 -2.08409 4.64158 0
M  V30 5300 H 479.87 -4.8026 2.98942 0
M  V30 5301 H 478.427 -5.32083 3.76472 0
M  V30 5302 N 481.861 -1.55662 -0.24637 0
M  V30 5303 C 482.824 -1.89558 -1.28842 0
M  V30 5304 C 483.824 -0.772082 -1.41052 0
M  V30 5305 O 485.014 -1.04007 -1.39743 0
M  V30 5306 C 482.146 -2.12449 -2.66605 0
M  V30 5307 H 483.339 -2.82735 -1.00004 0
M  V30 5308 H 480.892 -1.48562 -0.485684 0
M  V30 5309 H 481.627 -1.21742 -3.00582 0
M  V30 5310 H 481.412 -2.94273 -2.59125 0
M  V30 5311 H 482.902 -2.39854 -3.41847 0
M  V30 5312 N 483.339 0.512053 -1.4905 0
M  V30 5313 C 484.269 1.62365 -1.67809 0
M  V30 5314 C 485.25 1.61737 -0.526809 0
M  V30 5315 O 486.435 1.78651 -0.761404 0
M  V30 5316 C 483.565 3.00895 -1.73435 0
M  V30 5317 C 482.519 3.16387 -2.88242 0
M  V30 5318 C 481.845 4.56157 -2.78971 0
M  V30 5319 C 483.145 2.97457 -4.29321 0
M  V30 5320 H 484.839 1.46921 -2.60873 0
M  V30 5321 H 482.385 0.705379 -1.2554 0
M  V30 5322 H 484.338 3.78549 -1.85145 0
M  V30 5323 H 483.062 3.17403 -0.769619 0
M  V30 5324 H 481.721 2.41155 -2.76116 0
M  V30 5325 H 481.369 4.69525 -1.8043 0
M  V30 5326 H 481.069 4.67465 -3.5602 0
M  V30 5327 H 482.593 5.35886 -2.92675 0
M  V30 5328 H 484.007 3.64888 -4.42187 0
M  V30 5329 H 482.404 3.20245 -5.07507 0
M  V30 5330 H 483.474 1.93692 -4.44535 0
M  V30 5331 N 484.817 1.37938 0.762283 0
M  V30 5332 C 486.045 1.36883 1.55147 0
M  V30 5333 C 486.46 -0.0435348 1.8875 0
M  V30 5334 O 485.817 -1.00786 1.52146 0
M  V30 5335 C 485.868 2.21624 2.85596 0
M  V30 5336 O 485.589 3.57358 2.5343 0
M  V30 5337 C 487.09 2.28653 3.7978 0
M  V30 5338 H 484.31 0.468521 0.480343 0
M  V30 5339 H 486.854 1.81404 0.944079 0
M  V30 5340 H 485.009 1.80588 3.42734 0
M  V30 5341 H 485.423 4.01883 3.37032 0
M  V30 5342 H 486.897 2.9225 4.68288 0
M  V30 5343 H 487.374 1.29767 4.19592 0
M  V30 5344 H 487.98 2.70043 3.28568 0
M  V30 5345 N 486.295 -0.989507 1.22664 0
M  V30 5346 C 487.542 -1.72953 1.05325 0
M  V30 5347 C 487.87 -1.90104 -0.411168 0
M  V30 5348 O 487.125 -1.44386 -1.32103 0
M  V30 5349 C 487.424 -3.13649 1.71345 0
M  V30 5350 C 487.09 -3.16403 3.21248 0
M  V30 5351 C 485.752 -3.16862 3.62149 0
M  V30 5352 C 488.104 -3.12428 4.17179 0
M  V30 5353 C 485.432 -3.11051 4.97458 0
M  V30 5354 C 487.784 -3.08159 5.52468 0
M  V30 5355 C 486.448 -3.06935 5.92746 0
M  V30 5356 H 485.718 -0.632881 0.385412 0
M  V30 5357 H 488.365 -1.15863 1.52473 0
M  V30 5358 H 486.67 -3.74069 1.16532 0
M  V30 5359 H 488.367 -3.69658 1.55416 0
M  V30 5360 H 484.957 -3.16798 2.88682 0
M  V30 5361 H 489.141 -3.11221 3.86595 0
M  V30 5362 H 484.397 -3.0845 5.27891 0
M  V30 5363 H 488.571 -3.04039 6.26525 0
M  V30 5364 H 486.198 -3.02186 6.97558 0
M  V30 5365 N 487.773 -1.03688 -1.18687 0
M  V30 5366 C 488.703 -0.645407 -2.24403 0
M  V30 5367 C 489.684 0.349511 -1.66471 0
M  V30 5368 O 490.869 0.230453 -1.92828 0
M  V30 5369 C 487.999 -0.00365337 -3.473 0
M  V30 5370 C 486.953 -0.921705 -4.17958 0
M  V30 5371 C 486.279 -0.144629 -5.34504 0
M  V30 5372 C 487.579 -2.23909 -4.71871 0
M  V30 5373 H 489.273 -1.52917 -2.57404 0
M  V30 5374 H 486.819 -0.736711 -1.23728 0
M  V30 5375 H 488.772 0.281908 -4.20456 0
M  V30 5376 H 487.496 0.914963 -3.13522 0
M  V30 5377 H 486.155 -1.19159 -3.46694 0
M  V30 5378 H 485.803 0.776274 -4.96974 0
M  V30 5379 H 485.503 -0.756206 -5.82714 0
M  V30 5380 H 487.027 0.134004 -6.10453 0
M  V30 5381 H 488.441 -2.0145 -5.36741 0
M  V30 5382 H 486.838 -2.8033 -5.30599 0
M  V30 5383 H 487.908 -2.88822 -3.895 0
M  V30 5384 N 489.251 1.34841 -0.815825 0
M  V30 5385 C 490.183 2.28409 -0.190265 0
M  V30 5386 C 491.196 1.50705 0.615771 0
M  V30 5387 O 492.385 1.72822 0.446616 0
M  V30 5388 C 489.485 3.30441 0.752446 0
M  V30 5389 C 488.658 4.37399 -0.00922152 0
M  V30 5390 C 487.717 5.19234 0.853351 0
M  V30 5391 O 486.743 5.68404 0.300919 0
M  V30 5392 N 487.945 5.38248 2.17416 0
M  V30 5393 H 490.71 2.82732 -0.994114 0
M  V30 5394 H 488.271 1.47289 -0.672129 0
M  V30 5395 H 490.263 3.82084 1.33394 0
M  V30 5396 H 488.833 2.76565 1.45707 0
M  V30 5397 H 488.053 3.86567 -0.771979 0
M  V30 5398 H 489.341 5.05992 -0.533807 0
M  V30 5399 H 488.739 4.99961 2.6468 0
M  V30 5400 H 487.296 5.93035 2.70467 0
M  V30 5401 N 490.729 0.570148 1.46925 0
M  V30 5402 C 491.639 -0.173061 2.33961 0
M  V30 5403 C 492.655 -0.898825 1.48987 0
M  V30 5404 O 493.831 -0.864825 1.81887 0
M  V30 5405 C 490.896 -1.18177 3.25937 0
M  V30 5406 C 489.957 -0.462041 4.26806 0
M  V30 5407 C 489.19 -1.4227 5.14388 0
M  V30 5408 O 489.413 -2.65842 5.04662 0
M  V30 5409 O 488.347 -0.940127 5.94513 0
M  V30 5410 H 492.173 0.541216 2.98839 0
M  V30 5411 H 489.758 0.330647 1.45695 0
M  V30 5412 H 491.64 -1.76372 3.82715 0
M  V30 5413 H 490.315 -1.87774 2.63671 0
M  V30 5414 H 489.222 0.161429 3.73752 0
M  V30 5415 H 490.555 0.192719 4.91823 0
M  V30 5416 N 492.207 -1.54576 0.307264 0
M  V30 5417 C 493.455 -1.99867 -0.299574 0
M  V30 5418 C 493.776 -1.19714 -1.53927 0
M  V30 5419 O 493.046 -0.29472 -1.9367 0
M  V30 5420 H 491.626 -0.738299 -0.113683 0
M  V30 5421 H 494.288 -1.9032 0.420042 0
M  V30 5422 H 493.384 -3.06901 -0.567283 0
M  V30 5423 N 493.685 -0.035106 -1.57561 0
M  V30 5424 C 494.934 0.641604 -1.91223 0
M  V30 5425 C 495.247 1.72944 -0.913761 0
M  V30 5426 O 496.453 2.46321 -1.14185 0
M  V30 5427 C 494.909 1.19249 -3.3957 0
M  V30 5428 C 494.517 0.137616 -4.47789 0
M  V30 5429 C 496.261 1.84537 -3.82291 0
M  V30 5430 C 494.168 0.700478 -5.87237 0
M  V30 5431 H 493.098 0.243417 -0.713627 0
M  V30 5432 H 495.749 -0.101382 -1.8322 0
M  V30 5433 H 494.131 1.98728 -3.42525 0
M  V30 5434 H 495.305 -0.635153 -4.56402 0
M  V30 5435 H 493.62 -0.416855 -4.14308 0
M  V30 5436 H 496.217 2.27616 -4.83834 0
M  V30 5437 H 496.56 2.69054 -3.17672 0
M  V30 5438 H 497.093 1.11739 -3.81784 0
M  V30 5439 H 493.832 -0.106693 -6.55413 0
M  V30 5440 H 493.352 1.4416 -5.82218 0
M  V30 5441 H 495.031 1.18837 -6.35993 0
M  V30 5442 N 495.163 1.55791 0.238111 0
M  V30 5443 C 496.412 1.77234 0.962868 0
M  V30 5444 C 496.725 0.600661 1.86149 0
M  V30 5445 O 497.931 0.698315 2.62366 0
M  V30 5446 C 496.387 3.13808 1.76218 0
M  V30 5447 C 495.995 4.3865 0.910518 0
M  V30 5448 C 497.739 3.44585 2.47914 0
M  V30 5449 C 495.646 5.66252 1.70623 0
M  V30 5450 H 494.576 0.660731 0.36325 0
M  V30 5451 H 497.227 1.8221 0.217242 0
M  V30 5452 H 495.609 3.02963 2.55009 0
M  V30 5453 H 496.783 4.60507 0.164316 0
M  V30 5454 H 495.098 4.15271 0.30647 0
M  V30 5455 H 497.695 4.3714 3.07917 0
M  V30 5456 H 498.038 2.66314 3.19973 0
M  V30 5457 H 498.571 3.56685 1.76127 0
M  V30 5458 H 495.31 6.47369 1.02923 0
M  V30 5459 H 494.83 5.48483 2.42748 0
M  V30 5460 H 496.509 6.05829 2.27114 0
M  V30 5461 N 496.642 -0.504142 1.49319 0
M  V30 5462 C 497.574 -1.62265 1.61872 0
M  V30 5463 C 498.587 -1.54881 0.501573 0
M  V30 5464 O 499.776 -1.6087 0.773497 0
M  V30 5465 C 496.876 -3.01042 1.55651 0
M  V30 5466 C 496.049 -3.33642 2.82845 0
M  V30 5467 C 495.108 -4.51816 2.69719 0
M  V30 5468 O 494.134 -4.53755 3.4365 0
M  V30 5469 N 495.336 -5.51543 1.81055 0
M  V30 5470 H 498.101 -1.51924 2.58339 0
M  V30 5471 H 495.662 -0.691954 1.46368 0
M  V30 5472 H 497.654 -3.78013 1.44528 0
M  V30 5473 H 496.224 -3.05323 0.670546 0
M  V30 5474 H 495.444 -2.45598 3.08343 0
M  V30 5475 H 496.732 -3.5222 3.67177 0
M  V30 5476 H 496.13 -5.52774 1.20241 0
M  V30 5477 H 494.687 -6.27629 1.75856 0
M  V30 5478 N 498.12 -1.38341 -0.754957 0
M  V30 5479 C 499.348 -1.37704 -1.54419 0
M  V30 5480 C 499.763 0.0335243 -1.8877 0
M  V30 5481 O 499.12 0.999773 -1.52679 0
M  V30 5482 C 499.171 -2.23136 -2.84416 0
M  V30 5483 O 498.892 -3.58697 -2.51531 0
M  V30 5484 C 500.393 -2.30664 -3.78562 0
M  V30 5485 H 497.613 -0.471061 -0.477852 0
M  V30 5486 H 500.157 -1.81902 -0.934446 0
M  V30 5487 H 498.312 -1.82403 -3.41772 0
M  V30 5488 H 498.726 -4.03665 -3.34896 0
M  V30 5489 H 500.2 -2.9473 -4.66732 0
M  V30 5490 H 500.677 -1.3199 -4.18898 0
M  V30 5491 H 501.283 -2.71781 -3.27131 0
M  V30 5492 N 499.598 0.982988 -1.23187 0
M  V30 5493 C 500.546 2.09616 -1.00817 0
M  V30 5494 C 501.54 1.6932 0.0519995 0
M  V30 5495 O 502.746 1.79715 -0.101284 0
M  V30 5496 H 499.121 0.685628 -0.308899 0
M  V30 5497 H 501.092 2.25652 -1.95253 0
M  V30 5498 C 499.841 3.42249 -0.613243 0
M  V30 5499 H 499.164 3.73705 -1.42073 0
M  V30 5500 H 500.604 4.21086 -0.496208 0
M  V30 5501 C 499.063 3.30002 0.678233 0
M  V30 5502 O 499.593 3.6263 1.72807 0
M  V30 5503 N 497.799 2.83164 0.653165 0
M  V30 5504 H 497.346 2.56811 -0.201492 0
M  V30 5505 H 497.304 2.75352 1.51752 0
M  V30 5506 N 501.076 1.04316 1.18135 0
M  V30 5507 C 502.304 0.768117 1.92113 0
M  V30 5508 C 502.719 -0.675057 1.76319 0
M  V30 5509 O 502.076 -1.46038 1.09449 0
M  V30 5510 C 502.127 1.12808 3.43448 0
M  V30 5511 O 501.848 2.5146 3.58747 0
M  V30 5512 C 503.349 0.8779 4.3452 0
M  V30 5513 H 500.569 0.279937 0.609817 0
M  V30 5514 H 503.113 1.39149 1.49859 0
M  V30 5515 H 501.268 0.549623 3.83481 0
M  V30 5516 H 501.682 2.65313 4.52448 0
M  V30 5517 H 503.156 1.17959 5.39249 0
M  V30 5518 H 503.633 -0.187239 4.38801 0
M  V30 5519 H 504.239 1.43977 4.00188 0
M  V30 5520 N 502.554 -1.34406 0.822964 0
M  V30 5521 C 503.965 -1.8069 0.469879 0
M  V30 5522 C 504.316 -1.68223 -1.00972 0
M  V30 5523 O 503.441 -1.22226 -1.78577 0
M  V30 5524 C 504.036 -3.28064 0.846118 0
M  V30 5525 C 502.595 -3.72428 0.545402 0
M  V30 5526 C 501.742 -2.56116 1.06301 0
M  V30 5527 H 504.693 -1.22153 1.01313 0
M  V30 5528 H 504.714 -3.80205 0.149922 0
M  V30 5529 H 504.226 -3.37107 1.92304 0
M  V30 5530 H 502.327 -3.68924 -0.522109 0
M  V30 5531 H 502.44 -4.66548 1.0895 0
M  V30 5532 H 500.804 -2.50048 0.484554 0
M  V30 5533 H 501.587 -2.67928 2.14638 0
M  V30 5534 N 504.032 -0.577932 -1.46621 0
M  V30 5535 C 504.995 0.147805 -2.28723 0
M  V30 5536 C 505.995 0.823325 -1.38123 0
M  V30 5537 O 507.185 0.676011 -1.60548 0
M  V30 5538 C 504.317 1.21853 -3.18378 0
M  V30 5539 H 505.51 -0.573654 -2.94362 0
M  V30 5540 H 503.063 -0.335703 -1.52652 0
M  V30 5541 H 503.798 1.97173 -2.57475 0
M  V30 5542 H 503.583 0.738714 -3.85078 0
M  V30 5543 H 505.073 1.72768 -3.80186 0
M  V30 5544 N 505.51 1.54411 -0.315457 0
M  V30 5545 C 506.757 2.00419 0.289543 0
M  V30 5546 C 507.085 1.20373 1.52776 0
M  V30 5547 O 506.34 0.271769 1.93804 0
M  V30 5548 C 506.639 3.50936 0.676652 0
M  V30 5549 C 506.305 4.48532 -0.461472 0
M  V30 5550 C 504.967 4.74936 -0.773879 0
M  V30 5551 C 507.319 5.06567 -1.22637 0
M  V30 5552 C 504.647 5.56634 -1.85405 0
M  V30 5553 C 506.999 5.89441 -2.29657 0
M  V30 5554 C 505.663 6.1415 -2.61488 0
M  V30 5555 H 504.933 0.733386 0.105951 0
M  V30 5556 H 507.58 1.86434 -0.437554 0
M  V30 5557 H 505.885 3.62606 1.48405 0
M  V30 5558 H 507.582 3.83971 1.15618 0
M  V30 5559 H 504.172 4.28096 -0.207893 0
M  V30 5560 H 508.356 4.86157 -0.998271 0
M  V30 5561 H 503.612 5.74012 -2.10523 0
M  V30 5562 H 507.786 6.33432 -2.89374 0
M  V30 5563 H 505.413 6.77245 -3.45317 0
M  V30 5564 N 506.988 0.0434614 1.5754 0
M  V30 5565 C 508.399 -0.493343 1.80064 0
M  V30 5566 C 508.75 -1.71388 0.955023 0
M  V30 5567 O 507.875 -2.15736 0.169434 0
M  V30 5568 C 508.47 -0.90179 3.26578 0
M  V30 5569 C 507.029 -1.38362 3.50047 0
M  V30 5570 C 506.176 -0.355129 2.75017 0
M  V30 5571 H 509.127 0.2694 1.56397 0
M  V30 5572 H 509.148 -1.76523 3.37075 0
M  V30 5573 H 508.66 -0.013271 3.88098 0
M  V30 5574 H 506.761 -2.29159 2.93798 0
M  V30 5575 H 506.874 -1.3811 4.58762 0
M  V30 5576 H 505.238 -0.826348 2.40922 0
M  V30 5577 H 506.021 0.525172 3.39259 0
M  V30 5578 N 508.466 -1.55915 -0.229846 0
M  V30 5579 C 509.706 -1.80314 -0.962614 0
M  V30 5580 C 510.07 -0.61568 -1.81861 0
M  V30 5581 O 511.271 -0.738795 -2.58448 0
M  V30 5582 C 509.542 -3.0956 -1.78627 0
M  V30 5583 S 511.101 -3.55243 -2.57581 0
M  V30 5584 H 507.919 -0.633142 -0.323499 0
M  V30 5585 H 510.521 -1.94155 -0.228919 0
M  V30 5586 H 509.225 -3.94033 -1.14742 0
M  V30 5587 H 508.756 -2.98503 -2.56241 0
M  V30 5588 H 510.771 -3.17924 -3.80971 0
M  V30 5589 N 509.944 0.496216 -1.49584 0
M  V30 5590 C 510.907 1.57952 -1.66084 0
M  V30 5591 C 511.907 1.51729 -0.53244 0
M  V30 5592 O 513.097 1.54796 -0.79899 0
M  V30 5593 C 510.229 2.97604 -1.66268 0
M  V30 5594 H 511.422 1.44649 -2.6271 0
M  V30 5595 H 508.975 0.7208 -1.38687 0
M  V30 5596 H 509.71 3.16378 -0.712432 0
M  V30 5597 H 509.495 3.03528 -2.4822 0
M  V30 5598 H 510.985 3.76301 -1.81073 0
M  V30 5599 N 511.423 1.38739 0.74761 0
M  V30 5600 C 512.373 1.32948 1.85226 0
M  V30 5601 C 513.357 0.212642 1.59489 0
M  V30 5602 O 514.549 0.449121 1.71207 0
M  V30 5603 C 511.678 1.16279 3.23008 0
M  V30 5604 C 510.764 2.32611 3.54617 0
M  V30 5605 N 511.155 3.58065 3.57244 0
M  V30 5606 C 509.453 2.25293 3.84914 0
M  V30 5607 C 510.154 4.34919 3.8629 0
M  V30 5608 N 509.13 3.64348 4.03425 0
M  V30 5609 H 512.932 2.27927 1.85544 0
M  V30 5610 H 510.446 1.32056 0.945253 0
M  V30 5611 H 512.443 1.10214 4.02068 0
M  V30 5612 H 511.103 0.222394 3.23937 0
M  V30 5613 H 512.114 3.91656 3.3886 0
M  V30 5614 H 508.791 1.39446 3.93524 0
M  V30 5615 H 510.181 5.43605 3.94896 0
M  V30 5616 N 512.901 -0.976442 1.23707 0
M  V30 5617 C 514.149 -1.71487 1.06942 0
M  V30 5618 C 514.47 -1.9098 -0.393897 0
M  V30 5619 O 513.74 -1.48128 -1.28198 0
M  V30 5620 H 512.32 -0.635425 0.392739 0
M  V30 5621 H 514.982 -1.17515 1.55487 0
M  V30 5622 H 514.078 -2.70286 1.56051 0
M  V30 5623 N 514.379 -1.04941 -1.1758 0
M  V30 5624 C 515.626 -0.757989 -1.87779 0
M  V30 5625 C 515.954 0.714827 -1.80888 0
M  V30 5626 O 515.209 1.53824 -1.20982 0
M  V30 5627 C 515.508 -1.18062 -3.37337 0
M  V30 5628 C 515.174 -2.65521 -3.6443 0
M  V30 5629 C 513.836 -3.05804 -3.71534 0
M  V30 5630 C 516.188 -3.60822 -3.76108 0
M  V30 5631 C 513.516 -4.40256 -3.87803 0
M  V30 5632 C 515.868 -4.95005 -3.93895 0
M  V30 5633 C 514.532 -5.34945 -3.99237 0
M  V30 5634 H 513.802 -0.277368 -0.68713 0
M  V30 5635 H 516.449 -1.31603 -1.39115 0
M  V30 5636 H 514.754 -0.541525 -3.8804 0
M  V30 5637 H 516.451 -0.932368 -3.9001 0
M  V30 5638 H 513.041 -2.33324 -3.59524 0
M  V30 5639 H 517.225 -3.30841 -3.69943 0
M  V30 5640 H 512.481 -4.70707 -3.90186 0
M  V30 5641 H 516.655 -5.68746 -4.01872 0
M  V30 5642 H 514.282 -6.39135 -4.11596 0
M  V30 5643 N 515.857 1.33968 -0.830081 0
M  V30 5644 C 516.805 2.31301 -0.245435 0
M  V30 5645 C 517.799 1.57734 0.617762 0
M  V30 5646 O 519.005 1.72674 0.508303 0
M  V30 5647 H 515.38 0.749552 -0.0606316 0
M  V30 5648 H 517.351 2.78129 -1.08105 0
M  V30 5649 C 516.1 3.42961 0.572084 0
M  V30 5650 H 515.423 3.99714 -0.0828118 0
M  V30 5651 H 516.863 4.13286 0.94715 0
M  V30 5652 C 515.322 2.88043 1.74737 0
M  V30 5653 O 515.852 2.83508 2.8458 0
M  V30 5654 N 514.058 2.44768 1.56642 0
M  V30 5655 H 513.605 2.48656 0.672901 0
M  V30 5656 H 513.563 2.08375 2.3543 0
M  V30 5657 N 517.335 0.585699 1.46312 0
M  V30 5658 C 518.565 0.0780166 2.06453 0
M  V30 5659 C 518.973 -1.2336 1.43454 0
M  V30 5660 O 518.316 -1.75734 0.535086 0
M  V30 5661 C 518.378 -0.158951 3.59148 0
M  V30 5662 C 518.042 1.06752 4.44357 0
M  V30 5663 C 519.039 1.98031 4.80708 0
M  V30 5664 C 516.724 1.2902 4.85447 0
M  V30 5665 C 518.718 3.09924 5.5698 0
M  V30 5666 C 516.405 2.41218 5.61478 0
M  V30 5667 C 517.403 3.31499 5.97158 0
M  V30 5668 O 517.091 4.41747 6.71651 0
M  V30 5669 H 516.823 0.0558894 0.673686 0
M  V30 5670 H 519.377 0.806994 1.88883 0
M  V30 5671 H 517.607 -0.942575 3.75037 0
M  V30 5672 H 519.296 -0.615513 4.01206 0
M  V30 5673 H 520.062 1.82043 4.49539 0
M  V30 5674 H 515.941 0.596567 4.57124 0
M  V30 5675 H 519.485 3.80415 5.84748 0
M  V30 5676 H 515.382 2.57167 5.9206 0
M  V30 5677 H 516.15 4.40152 6.90079 0
M  V30 5678 N 518.813 -1.54241 0.323641 0
M  V30 5679 C 520.061 -2.00174 -0.278359 0
M  V30 5680 C 520.382 -1.2134 -1.52648 0
M  V30 5681 O 519.652 -0.315244 -1.93347 0
M  V30 5682 H 518.232 -0.739463 -0.105845 0
M  V30 5683 H 520.894 -1.89864 0.440204 0
M  V30 5684 H 519.99 -3.07486 -0.5347 0
M  V30 5685 N 520.291 -0.0518155 -1.57515 0
M  V30 5686 C 521.516 0.634896 -1.97443 0
M  V30 5687 C 521.941 1.63546 -0.929207 0
M  V30 5688 O 521.299 1.80981 0.107484 0
M  V30 5689 C 521.347 1.29765 -3.36442 0
M  V30 5690 O 520.451 2.41333 -3.34413 0
M  V30 5691 H 519.792 0.164994 -0.643174 0
M  V30 5692 H 522.322 -0.120407 -2.04245 0
M  V30 5693 H 522.332 1.64918 -3.73184 0
M  V30 5694 H 521.007 0.564361 -4.12053 0
M  V30 5695 H 519.584 2.08122 -3.09418 0
M  V30 5696 N 521.769 1.56035 0.221574 0
M  V30 5697 C 522.699 1.95434 1.2778 0
M  V30 5698 C 523.68 0.822564 1.48889 0
M  V30 5699 O 524.865 1.08486 1.61072 0
M  V30 5700 C 521.995 2.27102 2.62759 0
M  V30 5701 C 520.949 3.4277 2.56306 0
M  V30 5702 C 520.275 3.60043 3.95314 0
M  V30 5703 C 521.575 4.77742 2.11093 0
M  V30 5704 H 523.269 2.83912 0.950504 0
M  V30 5705 H 520.815 1.36596 0.455791 0
M  V30 5706 H 522.768 2.53256 3.36807 0
M  V30 5707 H 521.492 1.35478 2.97176 0
M  V30 5708 H 520.151 3.16664 1.84715 0
M  V30 5709 H 519.799 2.65794 4.27039 0
M  V30 5710 H 519.499 4.37841 3.91879 0
M  V30 5711 H 521.023 3.88545 4.71025 0
M  V30 5712 H 522.437 5.03102 2.74885 0
M  V30 5713 H 520.834 5.58823 2.18716 0
M  V30 5714 H 521.904 4.731 1.06321 0
M  V30 5715 N 523.247 -0.488276 1.49845 0
M  V30 5716 C 524.197 -1.58556 1.63842 0
M  V30 5717 C 525.181 -1.53142 0.493586 0
M  V30 5718 O 526.373 -1.60457 0.747169 0
M  V30 5719 C 523.502 -2.97101 1.72005 0
M  V30 5720 C 522.588 -3.07463 2.92108 0
M  V30 5721 N 522.979 -2.87681 4.16021 0
M  V30 5722 C 521.277 -3.3858 2.90309 0
M  V30 5723 C 521.978 -3.0256 4.96822 0
M  V30 5724 N 520.954 -3.32002 4.30437 0
M  V30 5725 H 524.756 -1.41935 2.57355 0
M  V30 5726 H 522.27 -0.694668 1.46793 0
M  V30 5727 H 524.267 -3.75976 1.80132 0
M  V30 5728 H 522.927 -3.14782 0.796375 0
M  V30 5729 H 523.938 -2.63603 4.45796 0
M  V30 5730 H 520.615 -3.62357 2.07372 0
M  V30 5731 H 522.005 -2.9165 6.05301 0
M  V30 5732 N 524.725 -1.39134 -0.740242 0
M  V30 5733 C 525.971 -1.36273 -1.50192 0
M  V30 5734 C 526.304 0.0430136 -1.94152 0
M  V30 5735 O 525.579 1.00691 -1.66408 0
M  V30 5736 C 525.862 -2.33041 -2.74525 0
M  V30 5737 C 525.715 -3.82535 -2.36617 0
M  V30 5738 C 527.034 -2.27723 -3.76604 0
M  V30 5739 H 524.153 -0.496323 -0.544823 0
M  V30 5740 H 526.795 -1.70085 -0.846815 0
M  V30 5741 H 524.945 -2.04337 -3.30422 0
M  V30 5742 H 526.617 -4.21967 -1.86391 0
M  V30 5743 H 524.86 -3.99565 -1.68909 0
M  V30 5744 H 525.531 -4.45723 -3.2563 0
M  V30 5745 H 528.007 -2.53091 -3.30279 0
M  V30 5746 H 526.883 -2.97519 -4.61274 0
M  V30 5747 H 527.144 -1.28049 -4.2315 0
M  V30 5748 N 526.204 0.969867 -1.24223 0
M  V30 5749 C 527.452 1.70918 -1.0785 0
M  V30 5750 C 527.773 1.91186 0.383763 0
M  V30 5751 O 527.043 1.48806 1.27411 0
M  V30 5752 H 525.623 0.633334 -0.396103 0
M  V30 5753 H 528.285 1.16689 -1.56108 0
M  V30 5754 H 527.381 2.69455 -1.57482 0
M  V30 5755 N 527.682 1.05563 1.17022 0
M  V30 5756 C 528.922 0.777033 1.89054 0
M  V30 5757 C 529.286 -0.683617 1.79418 0
M  V30 5758 O 530.487 -1.07648 2.46303 0
M  V30 5759 C 528.758 1.24886 3.34871 0
M  V30 5760 S 530.317 1.0982 4.24835 0
M  V30 5761 H 527.135 0.282082 0.652649 0
M  V30 5762 H 529.737 1.35103 1.41306 0
M  V30 5763 H 528.441 2.30699 3.3942 0
M  V30 5764 H 527.972 0.669292 3.87665 0
M  V30 5765 H 529.987 0.02462 4.96194 0
M  V30 5766 N 529.16 -1.33526 0.837174 0
M  V30 5767 C 530.11 -2.2672 0.241269 0
M  V30 5768 C 531.094 -1.49183 -0.602756 0
M  V30 5769 O 532.286 -1.71052 -0.455002 0
M  V30 5770 C 529.415 -3.38294 -0.584125 0
M  V30 5771 C 528.501 -4.23231 0.271315 0
M  V30 5772 N 528.892 -4.87473 1.34922 0
M  V30 5773 C 527.19 -4.45962 0.0580589 0
M  V30 5774 C 527.891 -5.50685 1.87405 0
M  V30 5775 N 526.867 -5.30732 1.17578 0
M  V30 5776 H 530.669 -2.73903 1.06558 0
M  V30 5777 H 528.183 -1.47411 0.68145 0
M  V30 5778 H 530.18 -4.04044 -1.02731 0
M  V30 5779 H 528.84 -2.9266 -1.40643 0
M  V30 5780 H 529.851 -4.88077 1.7321 0
M  V30 5781 H 526.528 -4.11052 -0.730938 0
M  V30 5782 H 527.918 -6.11845 2.77661 0
M  V30 5783 N 530.638 -0.59345 -1.46 0
M  V30 5784 C 531.601 0.123538 -2.28867 0
M  V30 5785 C 532.601 0.808628 -1.38989 0
M  V30 5786 O 533.791 0.658945 -1.61256 0
M  V30 5787 C 530.923 1.1847 -3.19653 0
M  V30 5788 H 532.116 -0.604843 -2.93737 0
M  V30 5789 H 529.669 -0.351875 -1.52288 0
M  V30 5790 H 530.404 1.94431 -2.59552 0
M  V30 5791 H 530.189 0.69783 -3.8584 0
M  V30 5792 H 531.679 1.68726 -3.81997 0
M  V30 5793 N 532.116 1.54067 -0.331816 0
M  V30 5794 C 533.066 2.21363 0.546101 0
M  V30 5795 C 534.05 1.19698 1.07523 0
M  V30 5796 O 535.242 1.45293 1.01088 0
M  V30 5797 C 532.371 2.98115 1.70242 0
M  V30 5798 C 531.457 4.07127 1.18779 0
M  V30 5799 N 531.848 5.04267 0.393465 0
M  V30 5800 C 530.146 4.21226 1.46576 0
M  V30 5801 C 530.847 5.81585 0.115572 0
M  V30 5802 N 529.823 5.39022 0.703987 0
M  V30 5803 H 533.625 2.93821 -0.0679751 0
M  V30 5804 H 531.139 1.61812 -0.138085 0
M  V30 5805 H 533.136 3.44818 2.34321 0
M  V30 5806 H 531.796 2.27181 2.31989 0
M  V30 5807 H 532.807 5.17888 0.0355757 0
M  V30 5808 H 529.484 3.61509 2.08848 0
M  V30 5809 H 530.874 6.6985 -0.524426 0
M  V30 5810 N 533.594 0.0601682 1.57485 0
M  V30 5811 C 534.842 -0.610386 1.92662 0
M  V30 5812 C 535.163 -1.70849 0.939981 0
M  V30 5813 O 534.433 -1.95895 -0.0137455 0
M  V30 5814 H 533.013 -0.228457 0.711208 0
M  V30 5815 H 535.675 0.115288 1.94559 0
M  V30 5816 H 534.771 -1.0432 2.94149 0
M  V30 5817 N 535.072 -1.5615 -0.213296 0
M  V30 5818 C 536.297 -1.83986 -0.957282 0
M  V30 5819 C 536.722 -0.641526 -1.76822 0
M  V30 5820 O 536.08 0.409722 -1.7661 0
M  V30 5821 C 536.128 -3.09889 -1.84393 0
M  V30 5822 O 535.232 -2.89163 -2.94038 0
M  V30 5823 H 534.573 -0.606357 -0.270605 0
M  V30 5824 H 537.103 -2.03369 -0.224111 0
M  V30 5825 H 537.113 -3.40209 -2.25215 0
M  V30 5826 H 535.788 -3.96735 -1.24795 0
M  V30 5827 H 534.365 -2.70097 -2.57103 0
M  V30 5828 N 536.55 0.480323 -1.50102 0
M  V30 5829 C 537.961 1.06142 -1.53593 0
M  V30 5830 C 538.312 1.93335 -0.334055 0
M  V30 5831 O 537.437 2.09188 0.55403 0
M  V30 5832 C 538.032 1.9317 -2.78336 0
M  V30 5833 C 536.591 2.46405 -2.84538 0
M  V30 5834 C 535.738 1.24521 -2.4777 0
M  V30 5835 H 538.689 0.26333 -1.565 0
M  V30 5836 H 538.71 2.78123 -2.59669 0
M  V30 5837 H 538.222 1.29683 -3.65792 0
M  V30 5838 H 536.323 3.13472 -2.01411 0
M  V30 5839 H 536.436 2.82143 -3.87211 0
M  V30 5840 H 534.8 1.57706 -2.00003 0
M  V30 5841 H 535.583 0.627102 -3.37524 0
M  V30 5842 N 538.028 1.39524 0.732853 0
M  V30 5843 C 538.958 1.41153 1.86005 0
M  V30 5844 C 539.939 0.274614 1.67869 0
M  V30 5845 O 541.124 0.480745 1.88155 0
M  V30 5846 C 538.254 1.25638 3.23778 0
M  V30 5847 C 537.208 2.36752 3.56556 0
M  V30 5848 C 536.534 2.06326 4.93289 0
M  V30 5849 C 537.834 3.79069 3.5931 0
M  V30 5850 H 539.528 2.35484 1.84899 0
M  V30 5851 H 537.074 1.13348 0.888162 0
M  V30 5852 H 539.027 1.25398 4.0231 0
M  V30 5853 H 537.751 0.277772 3.25417 0
M  V30 5854 H 536.41 2.36213 2.80355 0
M  V30 5855 H 536.058 1.06897 4.9151 0
M  V30 5856 H 535.758 2.80757 5.16187 0
M  V30 5857 H 537.282 2.07739 5.74175 0
M  V30 5858 H 538.696 3.81526 4.27914 0
M  V30 5859 H 537.093 4.52878 3.93728 0
M  V30 5860 H 538.163 4.09893 2.59068 0
M  V30 5861 N 539.506 -0.963266 1.24736 0
M  V30 5862 C 540.917 -1.52145 1.08207 0
M  V30 5863 C 541.268 -1.93142 -0.345061 0
M  V30 5864 O 540.393 -1.77769 -1.23399 0
M  V30 5865 C 540.988 -2.76486 1.95808 0
M  V30 5866 C 539.547 -3.28646 1.8349 0
M  V30 5867 C 538.694 -2.01529 1.90476 0
M  V30 5868 H 541.645 -0.781083 1.38148 0
M  V30 5869 H 541.666 -3.49986 1.49297 0
M  V30 5870 H 541.178 -2.46617 2.99669 0
M  V30 5871 H 539.279 -3.63357 0.824787 0
M  V30 5872 H 539.392 -3.97246 2.67829 0
M  V30 5873 H 537.756 -2.16442 1.34258 0
M  V30 5874 H 538.539 -1.7402 2.95926 0
M  V30 5875 N 540.985 -1.06182 -1.16461 0
M  V30 5876 C 541.915 -0.692861 -2.22984 0
M  V30 5877 C 542.896 0.314122 -1.67174 0
M  V30 5878 O 544.081 0.189499 -1.93273 0
M  V30 5879 C 541.211 -0.07732 -3.47214 0
M  V30 5880 C 540.165 -1.01015 -4.15909 0
M  V30 5881 C 539.491 -0.257973 -5.34077 0
M  V30 5882 C 540.791 -2.33868 -4.67015 0
M  V30 5883 H 542.485 -1.58343 -2.54102 0
M  V30 5884 H 540.031 -0.76279 -1.22137 0
M  V30 5885 H 541.984 0.19266 -4.20959 0
M  V30 5886 H 540.708 0.848254 -3.15392 0
M  V30 5887 H 539.367 -1.26486 -3.44088 0
M  V30 5888 H 539.015 0.670684 -4.98509 0
M  V30 5889 H 538.715 -0.879638 -5.80979 0
M  V30 5890 H 540.239 0.00448788 -6.106 0
M  V30 5891 H 541.653 -2.1279 -5.32347 0
M  V30 5892 H 540.05 -2.91522 -5.24533 0
M  V30 5893 H 541.12 -2.97019 -3.83286 0
M  V30 5894 N 542.463 1.3308 -0.844243 0
M  V30 5895 C 543.712 1.96868 -0.438833 0
M  V30 5896 C 544.025 1.67599 1.00846 0
M  V30 5897 O 545.231 2.25043 1.51881 0
M  V30 5898 C 543.687 3.5234 -0.73377 0
M  V30 5899 C 543.295 3.90481 -2.1961 0
M  V30 5900 C 545.039 4.22653 -0.395574 0
M  V30 5901 C 542.946 5.38954 -2.43481 0
M  V30 5902 H 541.876 0.736749 -0.160364 0
M  V30 5903 H 544.527 1.51623 -1.03358 0
M  V30 5904 H 542.909 3.95941 -0.068589 0
M  V30 5905 H 544.083 3.57922 -2.90221 0
M  V30 5906 H 542.398 3.33165 -2.4978 0
M  V30 5907 H 544.995 5.31848 -0.551477 0
M  V30 5908 H 545.338 4.11004 0.661921 0
M  V30 5909 H 545.871 3.84601 -1.01621 0
M  V30 5910 H 542.61 5.55612 -3.47816 0
M  V30 5911 H 542.13 5.72954 -1.77437 0
M  V30 5912 H 543.809 6.05907 -2.26905 0
M  V30 5913 N 543.941 0.601185 1.45683 0
M  V30 5914 C 545.352 0.179659 1.85834 0
M  V30 5915 C 545.703 -1.26189 1.50236 0
M  V30 5916 O 544.828 -1.95587 0.925987 0
M  V30 5917 C 545.423 0.319277 3.37292 0
M  V30 5918 C 543.982 -0.0475092 3.7637 0
M  V30 5919 C 543.129 0.646692 2.69654 0
M  V30 5920 H 546.08 0.808268 1.36575 0
M  V30 5921 H 546.101 -0.4503 3.77826 0
M  V30 5922 H 545.613 1.36855 3.6317 0
M  V30 5923 H 543.714 -1.0962 3.5611 0
M  V30 5924 H 543.827 0.34168 4.7788 0
M  V30 5925 H 542.191 0.0849971 2.54558 0
M  V30 5926 H 542.974 1.69797 2.98369 0
M  V30 5927 N 545.419 -1.53889 0.339982 0
M  V30 5928 C 546.382 -2.23547 -0.50592 0
M  V30 5929 C 547.382 -1.23445 -1.03044 0
M  V30 5930 O 548.572 -1.47909 -0.920253 0
M  V30 5931 C 545.704 -2.95234 -1.7044 0
M  V30 5932 H 546.897 -2.99722 0.103247 0
M  V30 5933 H 544.45 -1.56033 0.0912804 0
M  V30 5934 H 545.185 -2.23236 -2.35236 0
M  V30 5935 H 544.97 -3.68654 -1.33553 0
M  V30 5936 H 546.46 -3.48258 -2.30447 0
M  V30 5937 N 546.897 -0.0685191 -1.57451 0
M  V30 5938 C 548.146 0.600898 -1.92541 0
M  V30 5939 C 548.459 1.70967 -0.950239 0
M  V30 5940 O 549.665 2.43844 -1.19384 0
M  V30 5941 C 548.121 1.12019 -3.42023 0
M  V30 5942 C 547.729 0.0426028 -4.4798 0
M  V30 5943 C 549.473 1.76386 -3.86119 0
M  V30 5944 C 547.38 0.575759 -5.88591 0
M  V30 5945 H 546.31 0.228225 -0.71863 0
M  V30 5946 H 548.961 -0.140223 -1.82963 0
M  V30 5947 H 547.343 1.91418 -3.46663 0
M  V30 5948 H 548.517 -0.73182 -4.54952 0
M  V30 5949 H 546.832 -0.504642 -4.13331 0
M  V30 5950 H 549.429 2.17302 -4.88553 0
M  V30 5951 H 549.772 2.62255 -3.23308 0
M  V30 5952 H 550.305 1.03615 -3.84069 0
M  V30 5953 H 547.044 -0.245691 -6.55039 0
M  V30 5954 H 546.564 1.31778 -5.85145 0
M  V30 5955 H 548.243 1.0532 -6.3837 0
M  V30 5956 N 548.375 1.56261 0.205012 0
M  V30 5957 C 549.338 1.92908 1.23771 0
M  V30 5958 C 550.338 0.809208 1.38955 0
M  V30 5959 O 551.528 1.07676 1.36936 0
M  V30 5960 C 548.66 2.19442 2.60879 0
M  V30 5961 H 549.853 2.85287 0.924728 0
M  V30 5962 H 547.406 1.49798 0.446125 0
M  V30 5963 H 548.141 1.29668 2.97248 0
M  V30 5964 H 547.926 3.0104 2.51232 0
M  V30 5965 H 549.416 2.48833 3.35368 0
M  V30 5966 N 549.853 -0.472356 1.50355 0
M  V30 5967 C 551.081 -1.24784 1.65035 0
M  V30 5968 C 551.496 -1.85837 0.333176 0
M  V30 5969 O 550.853 -1.69168 -0.68472 0
M  V30 5970 C 550.904 -2.35747 2.74054 0
M  V30 5971 O 550.625 -1.77197 4.00665 0
M  V30 5972 C 552.126 -3.26645 2.99696 0
M  V30 5973 H 549.346 -0.377432 0.554785 0
M  V30 5974 H 551.89 -0.563962 1.9657 0
M  V30 5975 H 550.045 -2.99912 2.45217 0
M  V30 5976 H 550.459 -2.5026 4.60945 0
M  V30 5977 H 551.933 -4.00718 3.79644 0
M  V30 5978 H 552.41 -3.8535 2.10718 0
M  V30 5979 H 553.016 -2.68218 3.3006 0
M  V30 5980 N 551.331 -1.39911 -0.725443 0
M  V30 5981 C 552.556 -1.41137 -1.5197 0
M  V30 5982 C 552.981 -0.010262 -1.88097 0
M  V30 5983 O 552.339 0.979184 -1.52583 0
M  V30 5984 C 552.387 -2.2994 -2.77777 0
M  V30 5985 O 551.491 -1.73586 -3.74088 0
M  V30 5986 H 550.832 -0.480219 -0.458569 0
M  V30 5987 H 553.362 -1.84023 -0.894249 0
M  V30 5988 H 553.372 -2.44785 -3.26411 0
M  V30 5989 H 552.047 -3.31759 -2.50816 0
M  V30 5990 H 550.624 -1.68035 -3.32894 0
M  V30 5991 N 552.809 0.956637 -1.25245 0
M  V30 5992 C 554.049 1.71585 -1.11076 0
M  V30 5993 C 554.413 1.88916 0.34277 0
M  V30 5994 O 555.614 2.61875 0.606227 0
M  V30 5995 C 553.885 3.06267 -1.84215 0
M  V30 5996 S 555.444 3.97469 -1.85914 0
M  V30 5997 H 552.262 0.589803 -0.397055 0
M  V30 5998 H 554.864 1.14114 -1.58739 0
M  V30 5999 H 553.568 2.91322 -2.89067 0
M  V30 6000 H 553.099 3.688 -1.36931 0
M  V30 6001 H 555.114 4.87316 -0.93474 0
M  V30 6002 N 554.287 1.06798 1.15896 0
M  V30 6003 C 555.235 0.677525 2.22514 0
M  V30 6004 C 556.229 -0.308994 1.66558 0
M  V30 6005 O 557.435 -0.173308 1.79164 0
M  V30 6006 H 553.81 0.200994 0.724642 0
M  V30 6007 H 555.781 1.5865 2.52731 0
M  V30 6008 C 554.53 0.0854153 3.47595 0
M  V30 6009 H 553.853 0.835645 3.90969 0
M  V30 6010 H 555.293 -0.150199 4.23734 0
M  V30 6011 C 553.752 -1.1724 3.15843 0
M  V30 6012 O 554.282 -2.25965 3.32119 0
M  V30 6013 N 552.488 -1.07636 2.69931 0
M  V30 6014 H 552.035 -0.191559 2.56887 0
M  V30 6015 H 551.993 -1.91876 2.4906 0
M  V30 6016 N 555.766 -1.3263 0.851289 0
M  V30 6017 C 556.991 -2.02097 0.466006 0
M  V30 6018 C 557.416 -1.63574 -0.928709 0
M  V30 6019 O 556.774 -0.834665 -1.60944 0
M  V30 6020 C 556.822 -3.55425 0.608737 0
M  V30 6021 O 555.926 -4.10827 -0.359878 0
M  V30 6022 H 555.267 -0.636911 0.187724 0
M  V30 6023 H 557.797 -1.69253 1.14955 0
M  V30 6024 H 557.807 -4.04986 0.495006 0
M  V30 6025 H 556.482 -3.82806 1.62581 0
M  V30 6026 H 555.059 -3.72349 -0.202666 0
M  V30 6027 N 557.244 -0.608902 -1.45362 0
M  V30 6028 C 558.474 -0.110852 -2.06302 0
M  V30 6029 C 558.882 1.21062 -1.45398 0
M  V30 6030 O 558.225 1.74861 -0.562976 0
M  V30 6031 C 558.287 0.101793 -3.59356 0
M  V30 6032 C 557.951 -1.13808 -4.42602 0
M  V30 6033 C 558.948 -2.05653 -4.77496 0
M  V30 6034 C 556.633 -1.36727 -4.83333 0
M  V30 6035 C 558.627 -3.18745 -5.51978 0
M  V30 6036 C 556.314 -2.5012 -5.57569 0
M  V30 6037 C 557.312 -3.40957 -5.91809 0
M  V30 6038 O 557 -4.52376 -6.64538 0
M  V30 6039 H 556.732 -0.0666001 -0.672711 0
M  V30 6040 H 559.286 -0.836942 -1.87575 0
M  V30 6041 H 557.516 0.88279 -3.76489 0
M  V30 6042 H 559.205 0.551607 -4.02134 0
M  V30 6043 H 559.971 -1.89172 -4.46586 0
M  V30 6044 H 555.85 -0.669216 -4.56117 0
M  V30 6045 H 559.394 -3.8967 -5.78622 0
M  V30 6046 H 555.291 -2.66553 -5.87894 0
M  V30 6047 H 556.059 -4.51075 -6.82989 0
M  V30 6048 N 558.722 1.53707 -0.348139 0
M  V30 6049 C 559.969 2.00988 0.246966 0
M  V30 6050 C 560.297 1.23586 1.50189 0
M  V30 6051 O 559.552 0.312817 1.93184 0
M  V30 6052 C 559.851 3.52292 0.602061 0
M  V30 6053 C 559.517 4.47453 -0.556509 0
M  V30 6054 C 558.179 4.73188 -0.874446 0
M  V30 6055 C 560.531 5.03851 -1.33354 0
M  V30 6056 C 557.859 5.52577 -1.9717 0
M  V30 6057 C 560.211 5.84437 -2.42108 0
M  V30 6058 C 558.875 6.08465 -2.74456 0
M  V30 6059 H 558.145 0.735469 0.0903712 0
M  V30 6060 H 560.792 1.85464 -0.477001 0
M  V30 6061 H 559.097 3.65672 1.40681 0
M  V30 6062 H 560.794 3.86337 1.07447 0
M  V30 6063 H 557.384 4.27558 -0.298652 0
M  V30 6064 H 561.568 4.8393 -1.10117 0
M  V30 6065 H 556.824 5.69418 -2.22651 0
M  V30 6066 H 560.998 6.27151 -3.02745 0
M  V30 6067 H 558.625 6.69768 -3.59604 0
M  V30 6068 N 560.2 0.0768682 1.57412 0
M  V30 6069 C 561.44 -0.594676 1.95558 0
M  V30 6070 C 561.804 -1.66469 0.956658 0
M  V30 6071 O 563.005 -2.39215 1.22595 0
M  V30 6072 C 561.276 -1.15206 3.38323 0
M  V30 6073 S 562.835 -1.83803 3.9845 0
M  V30 6074 H 559.653 -0.194579 0.683857 0
M  V30 6075 H 562.255 0.151933 1.94909 0
M  V30 6076 H 560.959 -0.36153 4.08805 0
M  V30 6077 H 560.49 -1.93491 3.42527 0
M  V30 6078 H 562.505 -3.12087 3.85767 0
M  V30 6079 N 561.678 -1.56367 -0.196722 0
M  V30 6080 C 562.924 -1.81698 -0.914182 0
M  V30 6081 C 563.279 -0.65367 -1.80956 0
M  V30 6082 O 562.572 0.351224 -1.88353 0
M  V30 6083 C 562.766 -3.10663 -1.767 0
M  V30 6084 C 562.595 -4.39428 -0.955689 0
M  V30 6085 C 561.365 -5.01221 -0.64076 0
M  V30 6086 C 563.563 -5.1337 -0.309165 0
M  V30 6087 N 561.545 -6.13608 0.189358 0
M  V30 6088 C 562.916 -6.18815 0.383225 0
M  V30 6089 C 564.971 -4.97393 -0.224726 0
M  V30 6090 C 563.674 -7.10015 1.15201 0
M  V30 6091 C 565.7 -5.89014 0.530658 0
M  V30 6092 C 565.062 -6.93903 1.2115 0
M  V30 6093 H 561.161 -0.716203 -0.31397 0
M  V30 6094 H 563.745 -1.93838 -0.18304 0
M  V30 6095 H 561.916 -2.99762 -2.46976 0
M  V30 6096 H 563.648 -3.24088 -2.42382 0
M  V30 6097 H 560.403 -4.63669 -0.96479 0
M  V30 6098 H 560.827 -6.74389 0.593979 0
M  V30 6099 H 565.469 -4.16331 -0.736754 0
M  V30 6100 H 563.187 -7.9054 1.67547 0
M  V30 6101 H 566.773 -5.78726 0.597326 0
M  V30 6102 H 565.653 -7.63576 1.78665 0
M  V30 6103 N 563.156 0.464375 -1.50603 0
M  V30 6104 C 564.404 1.21356 -1.61608 0
M  V30 6105 C 564.725 1.92329 -0.321643 0
M  V30 6106 O 563.995 1.84403 0.661232 0
M  V30 6107 H 562.575 0.45094 -0.595535 0
M  V30 6108 H 565.237 0.535046 -1.87412 0
M  V30 6109 H 564.333 1.95783 -2.43054 0
M  V30 6110 N 564.634 1.40294 0.718013 0
M  V30 6111 C 565.564 1.43118 1.84498 0
M  V30 6112 C 566.545 0.292403 1.67568 0
M  V30 6113 O 567.73 0.500675 1.87635 0
M  V30 6114 C 564.86 1.29065 3.22427 0
M  V30 6115 C 563.814 2.40521 3.54025 0
M  V30 6116 C 563.14 2.11546 4.91073 0
M  V30 6117 C 564.44 3.82859 3.55269 0
M  V30 6118 H 566.134 2.37432 1.82391 0
M  V30 6119 H 563.68 1.14283 0.87609 0
M  V30 6120 H 565.633 1.29658 4.00957 0
M  V30 6121 H 564.357 0.312271 3.25104 0
M  V30 6122 H 563.016 2.39173 2.77834 0
M  V30 6123 H 562.664 1.12104 4.90348 0
M  V30 6124 H 562.364 2.86216 5.1318 0
M  V30 6125 H 563.888 2.13817 5.71939 0
M  V30 6126 H 565.302 3.86044 4.23843 0
M  V30 6127 H 563.699 4.57029 3.88902 0
M  V30 6128 H 564.769 4.12617 2.54706 0
M  V30 6129 N 566.112 -0.949982 1.2575 0
M  V30 6130 C 567.359 -1.69515 1.10774 0
M  V30 6131 C 567.687 -1.91316 -0.350479 0
M  V30 6132 O 566.942 -1.48515 -1.27443 0
M  V30 6133 C 567.241 -3.08039 1.81237 0
M  V30 6134 C 566.907 -3.06023 3.31151 0
M  V30 6135 C 565.569 -3.0518 3.72047 0
M  V30 6136 C 567.921 -2.98998 4.26907 0
M  V30 6137 C 565.249 -2.95067 5.07102 0
M  V30 6138 C 567.601 -2.90426 5.61992 0
M  V30 6139 C 566.265 -2.87922 6.0221 0
M  V30 6140 H 565.535 -0.6203 0.405351 0
M  V30 6141 H 568.182 -1.10953 1.56082 0
M  V30 6142 H 566.487 -3.70172 1.28373 0
M  V30 6143 H 568.184 -3.64526 1.67098 0
M  V30 6144 H 564.774 -3.07453 2.98614 0
M  V30 6145 H 568.958 -2.98764 3.963 0
M  V30 6146 H 564.214 -2.915 5.37436 0
M  V30 6147 H 568.388 -2.83952 6.35881 0
M  V30 6148 H 566.015 -2.79841 7.06819 0
M  V30 6149 N 567.59 -1.07411 -1.15328 0
M  V30 6150 C 569.006 -0.799759 -1.38116 0
M  V30 6151 C 569.206 0.59572 -1.92493 0
M  V30 6152 O 568.262 1.35433 -2.13106 0
M  V30 6153 C 569.575 -1.87407 -2.35158 0
M  V30 6154 C 571.123 -1.89889 -2.48819 0
M  V30 6155 C 571.598 -2.96406 -3.49153 0
M  V30 6156 N 573.089 -2.95512 -3.56689 0
M  V30 6157 C 573.824 -3.74575 -4.34144 0
M  V30 6158 N 573.32 -4.63488 -5.14928 0
M  V30 6159 N 575.113 -3.62919 -4.29239 0
M  V30 6160 H 567.264 -1.97411 -0.78374 0
M  V30 6161 H 569.527 -0.856113 -0.407154 0
M  V30 6162 H 569.233 -2.8768 -2.0232 0
M  V30 6163 H 569.107 -1.73471 -3.34944 0
M  V30 6164 H 571.494 -0.902677 -2.80955 0
M  V30 6165 H 571.575 -2.07904 -1.49029 0
M  V30 6166 H 571.219 -3.96227 -3.17752 0
M  V30 6167 H 571.149 -2.75638 -4.48699 0
M  V30 6168 H 573.64 -2.31061 -2.99031 0
M  V30 6169 H 573.953 -5.20445 -5.71276 0
M  V30 6170 H 572.298 -4.67537 -5.14232 0
M  V30 6171 H 575.489 -2.92833 -3.65194 0
M  V30 6172 H 575.662 -4.24777 -4.89355 0
M  V30 6173 N 569.068 1.32177 -0.85831 0
M  V30 6174 C 570.001 2.26823 -0.25035 0
M  V30 6175 C 570.979 1.50571 0.61378 0
M  V30 6176 O 572.163 1.79682 0.569777 0
M  V30 6177 C 569.29 3.32472 0.646556 0
M  V30 6178 C 568.336 4.26255 -0.144675 0
M  V30 6179 S 569.169 5.13608 -1.5155 0
M  V30 6180 C 570.325 6.22778 -0.624408 0
M  V30 6181 H 570.558 2.7804 -1.05267 0
M  V30 6182 H 568.091 1.39764 -0.656152 0
M  V30 6183 H 570.049 3.93817 1.15837 0
M  V30 6184 H 568.71 2.80031 1.42272 0
M  V30 6185 H 567.903 5.01114 0.538613 0
M  V30 6186 H 567.505 3.69346 -0.588198 0
M  V30 6187 H 569.797 6.77287 0.169846 0
M  V30 6188 H 570.74 6.95233 -1.34376 0
M  V30 6189 H 571.148 5.64156 -0.197128 0
M  V30 6190 N 570.547 0.616602 1.45037 0
M  V30 6191 C 571.794 0.115331 2.02171 0
M  V30 6192 C 572.122 -1.25748 1.48383 0
M  V30 6193 O 571.377 -1.84511 0.652229 0
M  V30 6194 C 571.676 0.0356829 3.57382 0
M  V30 6195 C 571.342 1.34535 4.30362 0
M  V30 6196 C 570.004 1.70408 4.50016 0
M  V30 6197 C 572.356 2.21049 4.72003 0
M  V30 6198 C 569.684 2.92529 5.0857 0
M  V30 6199 C 572.036 3.42427 5.31908 0
M  V30 6200 C 570.7 3.78541 5.49784 0
M  V30 6201 H 569.97 0.0422024 0.739797 0
M  V30 6202 H 572.617 0.80002 1.73988 0
M  V30 6203 H 570.922 -0.732314 3.84895 0
M  V30 6204 H 572.619 -0.368463 3.99304 0
M  V30 6205 H 569.209 1.05615 4.15383 0
M  V30 6206 H 573.393 1.94632 4.56544 0
M  V30 6207 H 568.649 3.20605 5.20598 0
M  V30 6208 H 572.823 4.09709 5.63127 0
M  V30 6209 H 570.45 4.73255 5.94923 0
M  V30 6210 N 572.025 -1.5352 0.356285 0
M  V30 6211 C 573.273 -2.00719 -0.235837 0
M  V30 6212 C 573.594 -1.24551 -1.5004 0
M  V30 6213 O 572.864 -0.356185 -1.92635 0
M  V30 6214 H 571.444 -0.741542 -0.0901366 0
M  V30 6215 H 574.106 -1.88887 0.480378 0
M  V30 6216 H 573.202 -3.08551 -0.469357 0
M  V30 6217 N 573.503 -0.0852151 -1.57369 0
M  V30 6218 C 574.78 0.622534 -1.85429 0
M  V30 6219 C 575.16 1.86962 -0.980229 0
M  V30 6220 O 574.508 2.28445 -0.0500219 0
M  V30 6221 C 574.718 0.947374 -3.35896 0
M  V30 6222 C 576.066 1.31509 -4.03721 0
M  V30 6223 O 577.09 1.03869 -3.40719 0
M  V30 6224 O 575.949 1.83231 -5.14868 0
M  V30 6225 H 573.043 0.310513 -0.766492 0
M  V30 6226 H 575.589 -0.117164 -1.69295 0
M  V30 6227 H 574.361 0.0622264 -3.91251 0
M  V30 6228 H 573.984 1.74338 -3.5734 0
M  V30 6229 N 574.981 1.5647 0.188427 0
M  V30 6230 C 576.397 1.50204 0.539532 0
M  V30 6231 C 576.597 0.78644 1.85519 0
M  V30 6232 O 575.653 0.339714 2.50204 0
M  V30 6233 C 576.966 2.94893 0.588103 0
M  V30 6234 C 578.514 3.05602 0.67648 0
M  V30 6235 C 578.989 4.51716 0.756101 0
M  V30 6236 N 580.48 4.55894 0.819451 0
M  V30 6237 C 581.215 5.66272 0.90134 0
M  V30 6238 N 580.711 6.86323 0.945118 0
M  V30 6239 N 582.504 5.54201 0.939043 0
M  V30 6240 H 574.655 2.01406 -0.674493 0
M  V30 6241 H 576.918 0.916828 -0.241103 0
M  V30 6242 H 576.624 3.50334 -0.309633 0
M  V30 6243 H 576.498 3.4861 1.44051 0
M  V30 6244 H 578.885 2.50206 1.56465 0
M  V30 6245 H 578.966 2.54999 -0.202262 0
M  V30 6246 H 578.61 5.07739 -0.12774 0
M  V30 6247 H 578.54 5.00058 1.65074 0
M  V30 6248 H 581.031 3.69452 0.794594 0
M  V30 6249 H 581.344 7.66194 1.0083 0
M  V30 6250 H 579.689 6.88968 0.913683 0
M  V30 6251 H 582.88 4.59333 0.901725 0
M  V30 6252 H 583.053 6.40247 0.999402 0
M  V30 6253 N 576.459 -0.456382 1.50847 0
M  V30 6254 C 577.406 -1.55249 1.70782 0
M  V30 6255 C 578.376 -1.56757 0.549231 0
M  V30 6256 O 579.561 -1.74061 0.7815 0
M  V30 6257 C 576.701 -2.93118 1.82143 0
M  V30 6258 C 575.814 -3.01285 3.09598 0
M  V30 6259 C 574.949 -4.30159 3.11667 0
M  V30 6260 C 573.988 -4.32124 4.33515 0
M  V30 6261 N 573.125 -5.52492 4.3324 0
M  V30 6262 H 577.965 -1.37555 2.64353 0
M  V30 6263 H 575.502 -0.668543 1.3103 0
M  V30 6264 H 577.46 -3.73088 1.86711 0
M  V30 6265 H 576.09 -3.09413 0.919978 0
M  V30 6266 H 575.142 -2.14096 3.14431 0
M  V30 6267 H 576.454 -2.98597 3.99551 0
M  V30 6268 H 575.608 -5.18489 3.15046 0
M  V30 6269 H 574.347 -4.35477 2.1957 0
M  V30 6270 H 573.352 -3.42189 4.30333 0
M  V30 6271 H 574.577 -4.28485 5.26856 0
M  V30 6272 H 572.523 -5.58567 3.44004 0
M  V30 6273 H 572.44 -5.51605 5.16979 0
M  V30 6274 H 573.708 -6.42906 4.40786 0
M  V30 6275 N 577.937 -1.40673 -0.710563 0
M  V30 6276 C 579.167 -1.4234 -1.49742 0
M  V30 6277 C 579.575 -0.022821 -1.89186 0
M  V30 6278 O 578.918 0.964773 -1.56326 0
M  V30 6279 C 578.98 -2.25509 -2.79975 0
M  V30 6280 C 578.644 -3.73862 -2.62824 0
M  V30 6281 C 579.641 -4.66379 -2.29752 0
M  V30 6282 C 577.326 -4.17735 -2.78932 0
M  V30 6283 C 579.32 -6.00756 -2.13006 0
M  V30 6284 C 577.007 -5.5218 -2.61802 0
M  V30 6285 C 578.005 -6.43505 -2.28888 0
M  V30 6286 O 577.693 -7.75472 -2.11894 0
M  V30 6287 H 577.425 -0.487311 -0.468513 0
M  V30 6288 H 579.979 -1.8542 -0.883668 0
M  V30 6289 H 578.209 -1.77218 -3.43701 0
M  V30 6290 H 579.898 -2.19058 -3.41714 0
M  V30 6291 H 580.664 -4.33778 -2.16936 0
M  V30 6292 H 576.543 -3.46967 -3.03537 0
M  V30 6293 H 580.087 -6.72003 -1.87237 0
M  V30 6294 H 575.984 -5.84365 -2.74204 0
M  V30 6295 H 576.752 -7.86458 -2.26775 0
M  V30 6296 N 579.415 0.9433 -1.26252 0
M  V30 6297 C 580.663 1.68592 -1.11451 0
M  V30 6298 C 580.984 1.91957 0.343123 0
M  V30 6299 O 580.254 1.51475 1.24226 0
M  V30 6300 H 578.834 0.624789 -0.409448 0
M  V30 6301 H 581.496 1.13351 -1.58548 0
M  V30 6302 H 580.592 2.66054 -1.63162 0
M  V30 6303 N 580.893 1.08022 1.14757 0
M  V30 6304 C 582.118 0.82895 1.90114 0
M  V30 6305 C 582.543 -0.612772 1.77839 0
M  V30 6306 O 581.901 -1.42895 1.11583 0
M  V30 6307 C 581.949 1.25062 3.38219 0
M  V30 6308 O 581.053 0.400119 4.10454 0
M  V30 6309 H 580.394 0.301412 0.591648 0
M  V30 6310 H 582.924 1.44062 1.45284 0
M  V30 6311 H 582.934 1.22977 3.89025 0
M  V30 6312 H 581.609 2.30067 3.46471 0
M  V30 6313 H 580.186 0.484052 3.69745 0
M  V30 6314 N 582.371 -1.3172 0.865308 0
M  V30 6315 C 583.596 -2.01591 0.487415 0
M  V30 6316 C 584.021 -1.6455 -0.911307 0
M  V30 6317 O 583.379 -0.851689 -1.6005 0
M  V30 6318 C 583.427 -3.54759 0.646401 0
M  V30 6319 O 582.531 -4.11185 -0.316284 0
M  V30 6320 H 581.872 -0.634884 0.194468 0
M  V30 6321 H 584.402 -1.68024 1.16744 0
M  V30 6322 H 584.412 -4.04438 0.537932 0
M  V30 6323 H 583.087 -3.8106 1.66632 0
M  V30 6324 H 581.664 -3.72543 -0.163162 0
M  V30 6325 N 583.85 -0.624285 -1.44708 0
M  V30 6326 C 584.782 0.12305 -2.28869 0
M  V30 6327 C 585.795 0.81557 -1.40898 0
M  V30 6328 O 586.984 0.678162 -1.65116 0
M  V30 6329 C 584.084 1.19612 -3.1709 0
M  V30 6330 C 583.257 0.587452 -4.33437 0
M  V30 6331 C 582.316 1.55358 -5.02743 0
M  V30 6332 O 581.341 1.07338 -5.58988 0
M  V30 6333 N 582.543 2.88798 -5.03563 0
M  V30 6334 H 585.308 -0.599193 -2.93649 0
M  V30 6335 H 582.87 -0.464954 -1.5508 0
M  V30 6336 H 584.861 1.84261 -3.60319 0
M  V30 6337 H 583.432 1.82067 -2.54107 0
M  V30 6338 H 582.652 -0.237509 -3.93484 0
M  V30 6339 H 583.94 0.161326 -5.08544 0
M  V30 6340 H 583.338 3.30399 -4.59188 0
M  V30 6341 H 581.894 3.48826 -5.50603 0
M  V30 6342 N 585.328 1.53329 -0.364422 0
M  V30 6343 C 586.276 2.27212 0.497737 0
M  V30 6344 C 587.27 1.30146 1.08437 0
M  V30 6345 O 588.476 1.47778 1.0277 0
M  V30 6346 H 584.851 0.730329 0.179232 0
M  V30 6347 H 586.822 2.98037 -0.147182 0
M  V30 6348 C 585.571 3.07333 1.6261 0
M  V30 6349 H 584.894 3.81866 1.184 0
M  V30 6350 H 586.334 3.62209 2.20409 0
M  V30 6351 C 584.793 2.18102 2.56775 0
M  V30 6352 O 585.323 1.79104 3.59562 0
M  V30 6353 N 583.529 1.82759 2.25937 0
M  V30 6354 H 583.076 2.14671 1.42387 0
M  V30 6355 H 583.034 1.23342 2.89196 0
M  V30 6356 N 586.806 0.0935595 1.57322 0
M  V30 6357 C 587.769 -0.851426 2.12799 0
M  V30 6358 C 588.769 -1.21187 1.0569 0
M  V30 6359 O 589.959 -1.14156 1.31583 0
M  V30 6360 C 587.091 -2.14779 2.64731 0
M  V30 6361 H 588.284 -0.369733 2.97612 0
M  V30 6362 H 585.837 -0.155417 1.55525 0
M  V30 6363 H 586.572 -2.67437 1.83434 0
M  V30 6364 H 586.357 -1.89907 3.43042 0
M  V30 6365 H 587.847 -2.82383 3.07651 0
M  V30 6366 N 588.284 -1.56567 -0.180126 0
M  V30 6367 C 589.533 -1.80685 -0.896426 0
M  V30 6368 C 589.846 -0.669335 -1.83791 0
M  V30 6369 O 591.052 -0.795209 -2.59593 0
M  V30 6370 C 589.508 -3.20132 -1.6445 0
M  V30 6371 C 589.116 -4.41727 -0.747088 0
M  V30 6372 C 590.86 -3.53549 -2.34955 0
M  V30 6373 C 588.767 -5.72195 -1.49489 0
M  V30 6374 H 587.697 -0.673758 -0.338477 0
M  V30 6375 H 590.348 -1.8289 -0.149467 0
M  V30 6376 H 588.73 -3.12218 -2.43589 0
M  V30 6377 H 589.904 -4.608 0.00671129 0
M  V30 6378 H 588.219 -4.16122 -0.152134 0
M  V30 6379 H 590.816 -4.48267 -2.91481 0
M  V30 6380 H 591.159 -2.78006 -3.09868 0
M  V30 6381 H 591.692 -3.62976 -1.62768 0
M  V30 6382 H 588.431 -6.50743 -0.788251 0
M  V30 6383 H 587.951 -5.57115 -2.22224 0
M  V30 6384 H 589.63 -6.1384 -2.04472 0
M  V30 6385 N 589.762 0.448376 -1.51087 0
M  V30 6386 C 590.99 1.22143 -1.66999 0
M  V30 6387 C 591.405 1.85283 -0.362699 0
M  V30 6388 O 590.762 1.70236 0.65772 0
M  V30 6389 C 590.813 2.31357 -2.7777 0
M  V30 6390 O 590.534 1.70801 -4.03434 0
M  V30 6391 C 592.035 3.21836 -3.04855 0
M  V30 6392 H 589.255 0.368558 -0.560719 0
M  V30 6393 H 591.799 0.532618 -1.97442 0
M  V30 6394 H 589.954 2.95973 -2.49958 0
M  V30 6395 H 590.368 2.42895 -4.64868 0
M  V30 6396 H 591.842 3.94627 -3.85971 0
M  V30 6397 H 592.319 3.81949 -2.16821 0
M  V30 6398 H 592.925 2.62933 -3.34285 0
M  V30 6399 N 591.24 1.41047 0.703093 0
M  V30 6400 C 592.486 1.40207 1.46526 0
M  V30 6401 C 592.819 0.00847763 1.94198 0
M  V30 6402 O 592.094 -0.962437 1.69019 0
M  V30 6403 C 592.377 2.40238 2.6825 0
M  V30 6404 C 592.23 3.88674 2.26391 0
M  V30 6405 C 593.549 2.37627 3.70434 0
M  V30 6406 H 590.668 0.510594 0.531472 0
M  V30 6407 H 593.31 1.72271 0.801422 0
M  V30 6408 H 591.46 2.13026 3.24888 0
M  V30 6409 H 593.132 4.2676 1.75138 0
M  V30 6410 H 591.375 4.03903 1.58255 0
M  V30 6411 H 592.046 4.542 3.13698 0
M  V30 6412 H 594.522 2.61759 3.23452 0
M  V30 6413 H 593.398 3.09645 4.53223 0
M  V30 6414 H 593.659 1.39223 4.19606 0
M  V30 6415 N 592.718 -0.936591 1.26751 0
M  V30 6416 C 593.964 -1.68625 1.13741 0
M  V30 6417 C 594.319 -1.898 -0.315221 0
M  V30 6418 O 593.612 -1.47088 -1.22783 0
M  V30 6419 C 593.806 -3.06099 1.84494 0
M  V30 6420 C 593.635 -2.98338 3.36488 0
M  V30 6421 C 592.405 -3.01104 4.05789 0
M  V30 6422 C 594.603 -2.78128 4.32608 0
M  V30 6423 N 592.585 -2.8369 5.4442 0
M  V30 6424 C 593.956 -2.69329 5.58446 0
M  V30 6425 C 596.011 -2.62946 4.22804 0
M  V30 6426 C 594.714 -2.46899 6.75598 0
M  V30 6427 C 596.74 -2.41892 5.39669 0
M  V30 6428 C 596.102 -2.33829 6.64457 0
M  V30 6429 H 592.201 -0.624227 0.471025 0
M  V30 6430 H 594.785 -1.10798 1.601 0
M  V30 6431 H 592.956 -3.62057 1.40604 0
M  V30 6432 H 594.688 -3.69951 1.64067 0
M  V30 6433 H 591.443 -3.10992 3.57185 0
M  V30 6434 H 591.867 -2.78138 6.17226 0
M  V30 6435 H 596.509 -2.67944 3.27056 0
M  V30 6436 H 594.227 -2.40642 7.71438 0
M  V30 6437 H 597.813 -2.31043 5.33957 0
M  V30 6438 H 596.693 -2.17754 7.53361 0
M  V30 6439 N 594.196 -1.08629 -1.14182 0
M  V30 6440 C 595.143 -0.718299 -2.19338 0
M  V30 6441 C 596.113 0.296587 -1.63431 0
M  V30 6442 O 597.298 0.180079 -1.89948 0
M  V30 6443 C 594.438 -0.136203 -3.44831 0
M  V30 6444 C 593.551 -1.20414 -4.14879 0
M  V30 6445 C 592.686 -0.585666 -5.27962 0
M  V30 6446 C 591.725 -1.63548 -5.89846 0
M  V30 6447 N 590.862 -1.03864 -6.94375 0
M  V30 6448 H 595.702 -1.61932 -2.50164 0
M  V30 6449 H 593.239 -0.80919 -1.22844 0
M  V30 6450 H 595.197 0.219021 -4.16625 0
M  V30 6451 H 593.827 0.728121 -3.14481 0
M  V30 6452 H 592.879 -1.67676 -3.41451 0
M  V30 6453 H 594.191 -1.99959 -4.56966 0
M  V30 6454 H 593.345 -0.178818 -6.06436 0
M  V30 6455 H 592.084 0.24142 -4.87102 0
M  V30 6456 H 591.089 -2.05197 -5.10073 0
M  V30 6457 H 592.314 -2.46509 -6.3278 0
M  V30 6458 H 590.26 -0.232687 -6.55587 0
M  V30 6459 H 590.177 -1.77116 -7.3496 0
M  V30 6460 H 591.445 -0.657724 -7.7672 0
M  V30 6461 N 595.674 1.31259 -0.872281 0
M  V30 6462 C 596.951 1.91362 -0.404943 0
M  V30 6463 C 597.331 1.79362 1.11321 0
M  V30 6464 O 596.679 1.20277 1.94283 0
M  V30 6465 C 596.889 3.3749 -0.888893 0
M  V30 6466 C 598.237 4.14593 -0.916384 0
M  V30 6467 O 599.261 3.46282 -0.834701 0
M  V30 6468 O 598.12 5.3661 -1.03498 0
M  V30 6469 H 595.214 0.818016 -0.121569 0
M  V30 6470 H 597.76 1.39912 -0.960346 0
M  V30 6471 H 596.532 3.40249 -1.93251 0
M  V30 6472 H 596.155 3.96375 -0.311932 0
M  V30 6473 N 597.152 0.631951 1.44375 0
M  V30 6474 C 598.102 -0.0943862 2.27805 0
M  V30 6475 C 599.086 -0.815359 1.38711 0
M  V30 6476 O 600.278 -0.701331 1.62513 0
M  V30 6477 C 597.407 -1.07472 3.26044 0
M  V30 6478 C 596.493 -0.353329 4.22626 0
M  V30 6479 N 596.884 0.618512 5.02004 0
M  V30 6480 C 595.182 -0.597662 4.41977 0
M  V30 6481 C 595.883 1.0448 5.7224 0
M  V30 6482 N 594.859 0.383413 5.42246 0
M  V30 6483 H 598.661 0.651672 2.86584 0
M  V30 6484 H 596.175 0.45752 1.55822 0
M  V30 6485 H 598.172 -1.60969 3.84571 0
M  V30 6486 H 596.832 -1.82107 2.68825 0
M  V30 6487 H 597.843 0.996356 5.08226 0
M  V30 6488 H 594.52 -1.32682 3.95856 0
M  V30 6489 H 595.91 1.84773 6.45994 0
M  V30 6490 N 598.631 -1.53133 0.372548 0
M  V30 6491 C 599.564 -2.22328 -0.514361 0
M  V30 6492 C 600.542 -1.21776 -1.07747 0
M  V30 6493 O 601.726 -1.50704 -1.13228 0
M  V30 6494 C 598.853 -2.92343 -1.71035 0
M  V30 6495 C 597.899 -4.07026 -1.27405 0
M  V30 6496 S 598.732 -5.34821 -0.269526 0
M  V30 6497 C 599.888 -6.08352 -1.47168 0
M  V30 6498 H 600.121 -2.9721 0.0732683 0
M  V30 6499 H 597.654 -1.53603 0.156673 0
M  V30 6500 H 599.612 -3.33296 -2.39634 0
M  V30 6501 H 598.273 -2.17173 -2.26925 0
M  V30 6502 H 597.466 -4.55056 -2.16656 0
M  V30 6503 H 597.068 -3.68001 -0.66719 0
M  V30 6504 H 599.36 -6.33507 -2.40157 0
M  V30 6505 H 600.303 -7.0053 -1.03263 0
M  V30 6506 H 600.711 -5.38893 -1.6809 0
M  V30 6507 N 600.109 -0.101901 -1.5727 0
M  V30 6508 C 601.355 0.561027 -1.94885 0
M  V30 6509 C 601.688 1.6741 -0.984258 0
M  V30 6510 O 600.963 1.94491 -0.0184767 0
M  V30 6511 C 601.246 1.10982 -3.42571 0
M  V30 6512 C 601.099 0.00133418 -4.498 0
M  V30 6513 C 602.418 2.00608 -3.9172 0
M  V30 6514 H 599.537 0.202467 -0.708644 0
M  V30 6515 H 602.179 -0.173992 -1.89202 0
M  V30 6516 H 600.329 1.73621 -3.47546 0
M  V30 6517 H 602.001 -0.63322 -4.56933 0
M  V30 6518 H 600.244 -0.664143 -4.28686 0
M  V30 6519 H 600.915 0.426253 -5.50352 0
M  V30 6520 H 603.391 1.47864 -3.88941 0
M  V30 6521 H 602.267 2.3593 -4.95609 0
M  V30 6522 H 602.528 2.92608 -3.3141 0
M  V30 6523 N 601.587 1.56661 0.17182 0
M  V30 6524 C 602.812 1.86459 0.908165 0
M  V30 6525 C 603.237 0.688181 1.75059 0
M  V30 6526 O 602.595 -0.362753 1.77634 0
M  V30 6527 C 602.643 3.14669 1.76112 0
M  V30 6528 O 601.747 2.96858 2.86268 0
M  V30 6529 H 601.088 0.613318 0.254434 0
M  V30 6530 H 603.618 2.03892 0.170113 0
M  V30 6531 H 603.628 3.46061 2.16115 0
M  V30 6532 H 602.303 3.99905 1.14233 0
M  V30 6533 H 600.88 2.76819 2.49852 0
M  V30 6534 N 603.065 -0.440357 1.51323 0
M  V30 6535 C 603.997 -1.55254 1.68609 0
M  V30 6536 C 605.01 -1.52614 0.566812 0
M  V30 6537 O 606.199 -1.57445 0.841032 0
M  V30 6538 C 603.299 -2.94169 1.68279 0
M  V30 6539 C 602.472 -3.21346 2.96742 0
M  V30 6540 C 601.531 -4.3997 2.8864 0
M  V30 6541 O 600.557 -4.38771 3.62586 0
M  V30 6542 N 601.759 -5.43367 2.04285 0
M  V30 6543 H 604.524 -1.40831 2.6455 0
M  V30 6544 H 602.085 -0.629251 1.49171 0
M  V30 6545 H 604.077 -3.71543 1.60431 0
M  V30 6546 H 602.647 -3.02205 0.799441 0
M  V30 6547 H 601.867 -2.32299 3.18482 0
M  V30 6548 H 603.155 -3.3633 3.81785 0
M  V30 6549 H 602.553 -5.47176 1.43578 0
M  V30 6550 H 601.11 -6.19605 2.02318 0
M  V30 6551 N 604.543 -1.41418 -0.695603 0
M  V30 6552 C 605.791 -1.40496 -1.45277 0
M  V30 6553 C 606.112 -0.0149538 -1.94994 0
M  V30 6554 O 605.382 0.9432 -1.71699 0
M  V30 6555 H 603.962 -0.517147 -0.539044 0
M  V30 6556 H 606.624 -1.76656 -0.823321 0
M  V30 6557 H 605.72 -2.09214 -2.31595 0
M  V30 6558 N 606.021 0.929856 -1.27246 0
M  V30 6559 C 607.268 1.67731 -1.13457 0
M  V30 6560 C 607.596 1.9185 0.319998 0
M  V30 6561 O 606.851 1.50524 1.25064 0
M  V30 6562 C 607.15 3.05116 -1.86115 0
M  V30 6563 C 606.816 3.00715 -3.35978 0
M  V30 6564 C 605.478 2.99222 -3.76855 0
M  V30 6565 C 607.83 2.92168 -4.3161 0
M  V30 6566 C 605.158 2.86962 -5.11732 0
M  V30 6567 C 607.51 2.81449 -5.66542 0
M  V30 6568 C 606.174 2.78305 -6.06715 0
M  V30 6569 H 605.444 0.613772 -0.415168 0
M  V30 6570 H 608.091 1.08456 -1.57827 0
M  V30 6571 H 606.396 3.68083 -1.34246 0
M  V30 6572 H 608.093 3.61822 -1.72876 0
M  V30 6573 H 604.683 3.02664 -3.03468 0
M  V30 6574 H 608.867 2.92421 -4.01003 0
M  V30 6575 H 604.123 2.82913 -5.42006 0
M  V30 6576 H 608.297 2.738 -6.40317 0
M  V30 6577 H 605.924 2.68561 -7.11181 0
M  V30 6578 N 607.499 1.09233 1.13605 0
M  V30 6579 C 608.747 0.825525 1.84471 0
M  V30 6580 C 609.068 -0.650702 1.83823 0
M  V30 6581 O 608.338 -1.47204 1.29259 0
M  V30 6582 H 606.918 0.3024 0.683054 0
M  V30 6583 H 609.58 1.38006 1.37624 0
M  V30 6584 H 608.676 1.17727 2.89045 0
M  V30 6585 N 608.977 -1.30795 0.87923 0
M  V30 6586 C 610.207 -2.00237 0.50881 0
M  V30 6587 C 610.615 -1.66115 -0.905682 0
M  V30 6588 O 609.958 -0.89138 -1.60624 0
M  V30 6589 C 610.02 -3.54508 0.597003 0
M  V30 6590 C 609.684 -4.12131 1.97477 0
M  V30 6591 C 610.681 -4.28552 2.94346 0
M  V30 6592 C 608.366 -4.47644 2.2786 0
M  V30 6593 C 610.36 -4.79689 4.19735 0
M  V30 6594 C 608.047 -4.98481 3.53496 0
M  V30 6595 C 609.045 -5.14456 4.49248 0
M  V30 6596 O 608.733 -5.64199 5.72656 0
M  V30 6597 H 608.465 -0.647026 0.195788 0
M  V30 6598 H 611.019 -1.67785 1.1848 0
M  V30 6599 H 609.249 -3.86461 -0.135945 0
M  V30 6600 H 610.938 -4.05198 0.238684 0
M  V30 6601 H 611.704 -4.01424 2.72183 0
M  V30 6602 H 607.583 -4.34481 1.54102 0
M  V30 6603 H 611.127 -4.92073 4.9448 0
M  V30 6604 H 607.024 -5.25044 3.75498 0
M  V30 6605 H 607.792 -5.82551 5.74957 0
M  V30 6606 N 610.455 -0.639598 -1.44038 0
M  V30 6607 C 611.402 0.0602458 -2.30721 0
M  V30 6608 C 612.372 0.828352 -1.43971 0
M  V30 6609 O 613.557 0.807693 -1.72861 0
M  V30 6610 C 610.697 1.03008 -3.29368 0
M  V30 6611 C 609.81 0.259502 -4.3122 0
M  V30 6612 C 608.945 1.22191 -5.16955 0
M  V30 6613 C 607.984 0.440978 -6.10509 0
M  V30 6614 N 607.121 1.35428 -6.88915 0
M  V30 6615 H 611.961 -0.684867 -2.90023 0
M  V30 6616 H 609.498 -0.349509 -1.42888 0
M  V30 6617 H 611.456 1.60583 -3.85057 0
M  V30 6618 H 610.086 1.74222 -2.71747 0
M  V30 6619 H 609.138 -0.432317 -3.77935 0
M  V30 6620 H 610.45 -0.348347 -4.97582 0
M  V30 6621 H 609.604 1.86873 -5.77203 0
M  V30 6622 H 608.343 1.86367 -4.50687 0
M  V30 6623 H 607.348 -0.219279 -5.49363 0
M  V30 6624 H 608.573 -0.196192 -6.78817 0
M  V30 6625 H 606.519 1.9831 -6.25307 0
M  V30 6626 H 606.436 0.800657 -7.51748 0
M  V30 6627 H 607.704 1.98967 -7.53679 0
M  V30 6628 N 611.933 1.52934 -0.380664 0
M  V30 6629 C 612.863 2.29118 0.450268 0
M  V30 6630 C 613.844 1.32153 1.07096 0
M  V30 6631 O 615.029 1.61038 1.08537 0
M  V30 6632 C 612.159 3.09161 1.58231 0
M  V30 6633 C 611.113 4.13938 1.0881 0
M  V30 6634 C 610.439 4.82153 2.31155 0
M  V30 6635 C 611.739 5.22048 0.162146 0
M  V30 6636 H 613.433 2.98826 -0.185361 0
M  V30 6637 H 610.979 1.43715 -0.0905886 0
M  V30 6638 H 612.932 3.61211 2.17036 0
M  V30 6639 H 611.656 2.3717 2.2454 0
M  V30 6640 H 610.315 3.62855 0.522633 0
M  V30 6641 H 609.963 4.06719 2.95953 0
M  V30 6642 H 609.663 5.52966 1.98752 0
M  V30 6643 H 611.187 5.37004 2.90618 0
M  V30 6644 H 612.601 5.6951 0.658126 0
M  V30 6645 H 610.998 6.00057 -0.0717122 0
M  V30 6646 H 612.068 4.78398 -0.791438 0
M  V30 6647 N 613.412 0.11024 1.57214 0
M  V30 6648 C 614.66 -0.548783 1.94506 0
M  V30 6649 C 614.981 -1.67772 0.99386 0
M  V30 6650 O 614.251 -1.9584 0.0485841 0
M  V30 6651 H 612.831 -0.205715 0.718116 0
M  V30 6652 H 615.493 0.177127 1.94093 0
M  V30 6653 H 614.589 -0.949096 2.97319 0
M  V30 6654 N 614.89 -1.56749 -0.16351 0
M  V30 6655 C 616.136 -1.82704 -0.880168 0
M  V30 6656 C 616.469 -0.689311 -1.81555 0
M  V30 6657 O 615.744 0.308224 -1.92042 0
M  V30 6658 C 616.027 -3.19084 -1.66905 0
M  V30 6659 C 615.88 -4.43397 -0.756269 0
M  V30 6660 C 617.199 -3.52493 -2.63509 0
M  V30 6661 H 614.318 -0.664608 -0.318535 0
M  V30 6662 H 616.96 -1.89438 -0.146036 0
M  V30 6663 H 615.11 -3.13475 -2.2949 0
M  V30 6664 H 616.782 -4.61079 -0.14269 0
M  V30 6665 H 615.025 -4.33752 -0.0647944 0
M  V30 6666 H 615.696 -5.3539 -1.34393 0
M  V30 6667 H 618.172 -3.58606 -2.11047 0
M  V30 6668 H 617.048 -4.48979 -3.15767 0
M  V30 6669 H 617.309 -2.77597 -3.44082 0
M  V30 6670 N 616.368 0.432326 -1.51554 0
M  V30 6671 C 617.645 1.19288 -1.55015 0
M  V30 6672 C 618.025 2.08701 -0.317375 0
M  V30 6673 O 617.373 2.17602 0.697243 0
M  V30 6674 C 617.583 1.99037 -2.86679 0
M  V30 6675 C 618.931 2.55907 -3.38817 0
M  V30 6676 O 619.955 2.09243 -2.88263 0
M  V30 6677 O 618.814 3.41029 -4.27038 0
M  V30 6678 H 615.908 0.543369 -0.623441 0
M  V30 6679 H 618.454 0.440988 -1.6387 0
M  V30 6680 H 617.226 1.33397 -3.6786 0
M  V30 6681 H 616.849 2.81281 -2.8101 0
M  V30 6682 N 617.846 1.41785 0.688094 0
M  V30 6683 C 618.776 1.47 1.8142 0
M  V30 6684 C 619.757 0.327881 1.6691 0
M  V30 6685 O 620.942 0.540362 1.86531 0
M  V30 6686 C 618.072 1.35876 3.19617 0
M  V30 6687 C 617.026 2.47976 3.48844 0
M  V30 6688 C 616.352 2.21915 4.86475 0
M  V30 6689 C 617.652 3.90309 3.47068 0
M  V30 6690 H 619.346 2.41247 1.77314 0
M  V30 6691 H 616.892 1.16116 0.851651 0
M  V30 6692 H 618.845 1.38134 3.98117 0
M  V30 6693 H 617.569 0.38116 3.24368 0
M  V30 6694 H 616.228 2.45013 2.72698 0
M  V30 6695 H 615.876 1.2248 4.8786 0
M  V30 6696 H 615.576 2.97037 5.06994 0
M  V30 6697 H 617.1 2.25901 5.67275 0
M  V30 6698 H 618.514 3.94947 4.1556 0
M  V30 6699 H 616.911 4.65175 3.7912 0
M  V30 6700 H 617.981 4.17927 2.45896 0
M  V30 6701 N 619.324 -0.923095 1.27737 0
M  V30 6702 C 620.735 -1.48626 1.12993 0
M  V30 6703 C 621.086 -1.94142 -0.283439 0
M  V30 6704 O 620.211 -1.81605 -1.17681 0
M  V30 6705 C 620.806 -2.70117 2.04505 0
M  V30 6706 C 619.365 -3.22642 1.93853 0
M  V30 6707 C 618.512 -1.95368 1.96791 0
M  V30 6708 H 621.463 -0.736737 1.40563 0
M  V30 6709 H 621.484 -3.4506 1.60356 0
M  V30 6710 H 620.996 -2.36959 3.07363 0
M  V30 6711 H 619.097 -3.60549 0.939968 0
M  V30 6712 H 619.21 -3.88525 2.80331 0
M  V30 6713 H 617.574 -2.12061 1.41076 0
M  V30 6714 H 618.357 -1.64517 3.01312 0
M  V30 6715 N 620.802 -1.09834 -1.13024 0
M  V30 6716 C 622.05 -0.835297 -1.8403 0
M  V30 6717 C 622.371 0.640944 -1.84165 0
M  V30 6718 O 621.641 1.46517 -1.30037 0
M  V30 6719 H 620.221 -0.306018 -0.681441 0
M  V30 6720 H 622.883 -1.38734 -1.36891 0
M  V30 6721 H 621.979 -1.19258 -2.88416 0
M  V30 6722 N 622.28 1.30327 -0.886154 0
M  V30 6723 C 623.19 2.31854 -0.357866 0
M  V30 6724 C 624.206 1.65392 0.540502 0
M  V30 6725 O 625.382 1.96683 0.433339 0
M  V30 6726 C 622.447 3.44171 0.417999 0
M  V30 6727 C 621.508 4.26257 -0.510263 0
M  V30 6728 C 620.741 5.3321 0.228669 0
M  V30 6729 O 620.964 5.51542 1.45458 0
M  V30 6730 O 619.898 6.0042 -0.421832 0
M  V30 6731 H 623.724 2.78995 -1.19982 0
M  V30 6732 H 621.309 1.34518 -0.650028 0
M  V30 6733 H 623.191 4.12588 0.857251 0
M  V30 6734 H 621.866 2.99164 1.23623 0
M  V30 6735 H 620.773 3.60533 -0.99835 0
M  V30 6736 H 622.106 4.74871 -1.29454 0
M  V30 6737 N 623.758 0.647228 1.43697 0
M  V30 6738 C 624.705 -0.0480092 2.3075 0
M  V30 6739 C 625.675 -0.820705 1.44408 0
M  V30 6740 O 626.86 -0.798515 1.73287 0
M  V30 6741 C 624 -1.01259 3.2991 0
M  V30 6742 C 623.113 -0.236629 4.31351 0
M  V30 6743 C 622.248 -1.19447 5.17596 0
M  V30 6744 C 621.287 -0.408595 6.10735 0
M  V30 6745 N 620.424 -1.31772 6.89623 0
M  V30 6746 H 625.264 0.700238 2.89656 0
M  V30 6747 H 622.801 0.357082 1.427 0
M  V30 6748 H 624.759 -1.58538 3.85903 0
M  V30 6749 H 623.389 -1.72778 2.72667 0
M  V30 6750 H 622.441 0.452353 3.77701 0
M  V30 6751 H 623.753 0.374731 4.9739 0
M  V30 6752 H 622.907 -1.83809 5.78186 0
M  V30 6753 H 621.646 -1.83975 4.51669 0
M  V30 6754 H 620.651 0.24841 5.49239 0
M  V30 6755 H 621.876 0.232188 6.78703 0
M  V30 6756 H 619.822 -1.94991 6.2635 0
M  V30 6757 H 619.739 -0.760779 7.52162 0
M  V30 6758 H 621.007 -1.94967 7.54724 0
M  V30 6759 N 625.236 -1.5273 0.388769 0
M  V30 6760 C 626.652 -1.59553 0.0387049 0
M  V30 6761 C 626.852 -1.40278 -1.44652 0
M  V30 6762 O 625.908 -1.21951 -2.21098 0
M  V30 6763 C 627.221 -2.9625 0.515409 0
M  V30 6764 C 628.769 -3.09426 0.471621 0
M  V30 6765 C 629.244 -4.48572 0.924505 0
M  V30 6766 N 630.735 -4.54754 0.880496 0
M  V30 6767 C 631.47 -5.60653 1.20234 0
M  V30 6768 N 630.966 -6.74198 1.59463 0
M  V30 6769 N 632.759 -5.50755 1.12363 0
M  V30 6770 H 624.91 -1.63508 1.35569 0
M  V30 6771 H 627.173 -0.768097 0.555636 0
M  V30 6772 H 626.879 -3.15569 1.5527 0
M  V30 6773 H 626.753 -3.77102 -0.085792 0
M  V30 6774 H 629.14 -2.89804 -0.556588 0
M  V30 6775 H 629.221 -2.30528 1.10862 0
M  V30 6776 H 628.865 -4.68936 1.95094 0
M  V30 6777 H 628.795 -5.25935 0.264524 0
M  V30 6778 H 631.286 -3.73237 0.591815 0
M  V30 6779 H 631.599 -7.5097 1.82385 0
M  V30 6780 H 629.944 -6.75531 1.63349 0
M  V30 6781 H 633.135 -4.6093 0.816169 0
M  V30 6782 H 633.308 -6.33184 1.37777 0
M  V30 6783 N 626.714 -0.118576 -1.57153 0
M  V30 6784 C 627.962 0.538461 -1.94795 0
M  V30 6785 C 628.283 1.67243 -1.00274 0
M  V30 6786 O 627.553 1.95811 -0.0589692 0
M  V30 6787 H 626.133 0.201904 -0.719197 0
M  V30 6788 H 628.795 -0.187418 -1.93997 0
M  V30 6789 H 627.891 0.933315 -2.97818 0
M  V30 6790 N 628.193 1.56834 0.155195 0
M  V30 6791 C 629.123 2.00678 1.19376 0
M  V30 6792 C 630.104 0.884973 1.45266 0
M  V30 6793 O 631.289 1.1522 1.56326 0
M  V30 6794 C 628.419 2.38042 2.5289 0
M  V30 6795 C 627.373 3.53332 2.41538 0
M  V30 6796 C 626.699 3.76485 3.79688 0
M  V30 6797 C 627.999 4.86265 1.9064 0
M  V30 6798 H 629.693 2.87688 0.829232 0
M  V30 6799 H 627.239 1.38407 0.397445 0
M  V30 6800 H 629.192 2.67314 3.25763 0
M  V30 6801 H 627.916 1.4796 2.91162 0
M  V30 6802 H 626.575 3.24213 1.71117 0
M  V30 6803 H 626.223 2.83667 4.15382 0
M  V30 6804 H 625.923 4.54068 3.72956 0
M  V30 6805 H 627.447 4.08174 4.54122 0
M  V30 6806 H 628.861 5.14308 2.53299 0
M  V30 6807 H 627.258 5.67597 1.94818 0
M  V30 6808 H 628.328 4.77184 0.861596 0
M  V30 6809 N 629.671 -0.424282 1.51781 0
M  V30 6810 C 630.92 -1.16961 1.64326 0
M  V30 6811 C 631.233 -1.92035 0.371749 0
M  V30 6812 O 632.439 -2.68873 0.37676 0
M  V30 6813 C 630.895 -2.12782 2.90262 0
M  V30 6814 C 630.503 -1.43295 4.24465 0
M  V30 6815 C 632.247 -2.87667 3.12166 0
M  V30 6816 C 630.154 -2.37676 5.41538 0
M  V30 6817 H 629.084 -0.440293 0.612093 0
M  V30 6818 H 631.735 -0.435431 1.78259 0
M  V30 6819 H 630.117 -2.8969 2.69992 0
M  V30 6820 H 631.291 -0.718564 4.55163 0
M  V30 6821 H 629.606 -0.805118 4.08542 0
M  V30 6822 H 632.203 -3.58395 3.96808 0
M  V30 6823 H 632.546 -3.49758 2.25776 0
M  V30 6824 H 633.079 -2.17863 3.32837 0
M  V30 6825 H 629.818 -1.80255 6.30229 0
M  V30 6826 H 629.338 -3.07132 5.15199 0
M  V30 6827 H 631.017 -2.98529 5.74012 0
M  V30 6828 N 631.149 -1.42148 -0.680565 0
M  V30 6829 C 632.56 -1.3768 -1.26099 0
M  V30 6830 C 632.911 -0.0672348 -1.96085 0
M  V30 6831 O 632.036 0.834172 -1.99676 0
M  V30 6832 C 632.631 -2.49387 -2.29328 0
M  V30 6833 C 631.19 -2.4827 -2.82911 0
M  V30 6834 C 630.337 -2.2847 -1.57152 0
M  V30 6835 H 633.288 -1.51446 -0.474326 0
M  V30 6836 H 633.309 -2.19307 -3.10941 0
M  V30 6837 H 632.821 -3.44686 -1.78363 0
M  V30 6838 H 630.922 -1.56773 -3.38013 0
M  V30 6839 H 631.035 -3.45109 -3.3232 0
M  V30 6840 H 629.399 -1.76623 -1.83511 0
M  V30 6841 H 630.182 -3.25816 -1.0816 0
M  V30 6842 N 632.627 0.916307 -1.28225 0
M  V30 6843 C 633.575 2.03977 -1.11786 0
M  V30 6844 C 634.569 1.69358 -0.0378265 0
M  V30 6845 O 635.775 1.78925 -0.196405 0
M  V30 6846 H 632.15 0.66829 -0.344809 0
M  V30 6847 H 634.121 2.14985 -2.06939 0
M  V30 6848 C 632.87 3.38518 -0.7938 0
M  V30 6849 H 632.193 3.65649 -1.61682 0
M  V30 6850 H 633.633 4.17864 -0.718719 0
M  V30 6851 C 632.092 3.33134 0.502353 0
M  V30 6852 O 632.622 3.71281 1.53341 0
M  V30 6853 N 630.828 2.86229 0.502147 0
M  V30 6854 H 630.375 2.55382 -0.337338 0
M  V30 6855 H 630.333 2.83009 1.36942 0
M  V30 6856 N 634.105 1.10431 1.1244 0
M  V30 6857 C 635.068 0.756542 2.16354 0
M  V30 6858 C 636.068 -0.21899 1.59302 0
M  V30 6859 O 637.258 0.00415969 1.742 0
M  V30 6860 C 634.39 0.120612 3.40687 0
M  V30 6861 H 635.583 1.67696 2.48632 0
M  V30 6862 H 633.136 0.904832 1.27446 0
M  V30 6863 H 633.871 -0.810536 3.14008 0
M  V30 6864 H 633.656 0.822693 3.83372 0
M  V30 6865 H 635.146 -0.106945 4.17463 0
M  V30 6866 N 635.583 -1.29855 0.893053 0
M  V30 6867 C 636.515 -2.26911 0.32311 0
M  V30 6868 C 637.528 -1.54039 -0.526858 0
M  V30 6869 O 638.717 -1.75132 -0.345095 0
M  V30 6870 C 635.817 -3.34266 -0.558509 0
M  V30 6871 C 634.99 -4.36601 0.264222 0
M  V30 6872 C 634.049 -5.23326 -0.549171 0
M  V30 6873 O 633.075 -5.69192 0.0309883 0
M  V30 6874 N 634.277 -5.50008 -1.85664 0
M  V30 6875 H 637.042 -2.76455 1.15726 0
M  V30 6876 H 634.603 -1.4312 0.756859 0
M  V30 6877 H 636.595 -3.89211 -1.1089 0
M  V30 6878 H 635.165 -2.8459 -1.29334 0
M  V30 6879 H 634.385 -3.81409 0.996046 0
M  V30 6880 H 635.673 -5.02019 0.827906 0
M  V30 6881 H 635.071 -5.14542 -2.35081 0
M  V30 6882 H 633.628 -6.07796 -2.35431 0
M  V30 6883 N 637.061 -0.65484 -1.43351 0
M  V30 6884 C 638.308 -0.168892 -2.01794 0
M  V30 6885 C 638.636 1.2177 -1.51665 0
M  V30 6886 O 637.891 1.82717 -0.70092 0
M  V30 6887 C 638.19 -0.130424 -3.57162 0
M  V30 6888 C 637.856 -1.45898 -4.26643 0
M  V30 6889 C 636.518 -1.82279 -4.4534 0
M  V30 6890 C 638.87 -2.33485 -4.65976 0
M  V30 6891 C 636.198 -3.0591 -5.00635 0
M  V30 6892 C 638.55 -3.5641 -5.22642 0
M  V30 6893 C 637.214 -3.92985 -5.39555 0
M  V30 6894 H 636.484 -0.061802 -0.738418 0
M  V30 6895 H 639.131 -0.845869 -1.71806 0
M  V30 6896 H 637.436 0.630008 -3.86702 0
M  V30 6897 H 639.133 0.262465 -4.0014 0
M  V30 6898 H 635.723 -1.16591 -4.12437 0
M  V30 6899 H 639.907 -2.06668 -4.51223 0
M  V30 6900 H 635.163 -3.34295 -5.11915 0
M  V30 6901 H 639.337 -4.24495 -5.52066 0
M  V30 6902 H 636.964 -4.88862 -5.82167 0
M  V30 6903 N 638.539 1.52521 -0.396863 0
M  V30 6904 C 639.769 2.05792 0.182485 0
M  V30 6905 C 640.177 1.26784 1.40436 0
M  V30 6906 O 639.52 0.309617 1.81072 0
M  V30 6907 C 639.582 3.54291 0.609781 0
M  V30 6908 C 639.246 4.5426 -0.499674 0
M  V30 6909 C 640.243 5.01812 -1.35944 0
M  V30 6910 C 637.928 4.97827 -0.668864 0
M  V30 6911 C 639.922 5.91562 -2.37346 0
M  V30 6912 C 637.609 5.87376 -1.68621 0
M  V30 6913 C 638.607 6.34137 -2.53692 0
M  V30 6914 O 638.295 7.21915 -3.53686 0
M  V30 6915 H 638.027 0.675362 0.0293583 0
M  V30 6916 H 640.581 1.97539 -0.56281 0
M  V30 6917 H 638.811 3.60188 1.40717 0
M  V30 6918 H 640.5 3.90267 1.11565 0
M  V30 6919 H 641.266 4.68879 -1.24008 0
M  V30 6920 H 637.145 4.60997 -0.0163971 0
M  V30 6921 H 640.689 6.27983 -3.03782 0
M  V30 6922 H 636.586 6.19723 -1.80593 0
M  V30 6923 H 637.354 7.39996 -3.49784 0
M  V30 6924 N 640.017 0.126909 1.57088 0
M  V30 6925 C 641.294 -0.573152 1.87014 0
M  V30 6926 C 641.674 -1.84297 1.02945 0
M  V30 6927 O 641.022 -2.28232 0.110573 0
M  V30 6928 C 641.232 -0.857984 3.38289 0
M  V30 6929 C 642.58 -1.20759 4.07066 0
M  V30 6930 O 643.604 -0.947992 3.43353 0
M  V30 6931 O 642.463 -1.69516 5.19545 0
M  V30 6932 H 639.557 -0.290082 0.774456 0
M  V30 6933 H 642.103 0.162008 1.68925 0
M  V30 6934 H 640.875 0.0415286 3.91278 0
M  V30 6935 H 640.498 -1.64803 3.61837 0
M  V30 6936 N 641.495 -1.56914 -0.146875 0
M  V30 6937 C 642.442 -1.98275 -1.18134 0
M  V30 6938 C 643.412 -0.850367 -1.42681 0
M  V30 6939 O 644.597 -1.11244 -1.55014 0
M  V30 6940 C 641.737 -2.36861 -2.5098 0
M  V30 6941 C 640.85 -3.63391 -2.33605 0
M  V30 6942 C 639.985 -3.91079 -3.59486 0
M  V30 6943 C 639.024 -5.10879 -3.37149 0
M  V30 6944 N 638.161 -5.34577 -4.55161 0
M  V30 6945 H 643.001 -2.8645 -0.821622 0
M  V30 6946 H 640.538 -1.41718 -0.394248 0
M  V30 6947 H 642.496 -2.57262 -3.28439 0
M  V30 6948 H 641.126 -1.51766 -2.84898 0
M  V30 6949 H 640.178 -3.50766 -1.47199 0
M  V30 6950 H 641.49 -4.51007 -2.13059 0
M  V30 6951 H 640.644 -4.11979 -4.45374 0
M  V30 6952 H 639.383 -3.01885 -3.83036 0
M  V30 6953 H 638.388 -4.89853 -2.49649 0
M  V30 6954 H 639.613 -6.01626 -3.14997 0
M  V30 6955 H 637.559 -4.48337 -4.78884 0
M  V30 6956 H 637.476 -6.16463 -4.37618 0
M  V30 6957 H 638.744 -5.59975 -5.42263 0
M  V30 6958 N 642.974 0.416227 -1.52004 0
M  V30 6959 C 643.937 1.48926 -1.74223 0
M  V30 6960 C 644.937 1.48693 -0.612119 0
M  V30 6961 O 646.127 1.50343 -0.879921 0
M  V30 6962 C 643.259 2.88372 -1.81809 0
M  V30 6963 H 644.452 1.3052 -2.70008 0
M  V30 6964 H 642.005 0.646271 -1.42313 0
M  V30 6965 H 642.74 3.12157 -0.879135 0
M  V30 6966 H 642.525 2.89944 -2.6396 0
M  V30 6967 H 644.015 3.66173 -2.00766 0
M  V30 6968 N 644.452 1.42507 0.673017 0
M  V30 6969 C 645.682 1.46261 1.45916 0
M  V30 6970 C 646.09 0.0729724 1.89059 0
M  V30 6971 O 645.433 -0.922987 1.58829 0
M  V30 6972 C 645.495 2.32853 2.73898 0
M  V30 6973 C 645.159 3.80699 2.52819 0
M  V30 6974 C 646.156 4.72307 2.17306 0
M  V30 6975 C 643.841 4.24983 2.67758 0
M  V30 6976 C 645.835 6.06192 1.97003 0
M  V30 6977 C 643.522 5.58927 2.4707 0
M  V30 6978 C 644.52 6.49348 2.11746 0
M  V30 6979 O 644.208 7.80817 1.91259 0
M  V30 6980 H 643.94 0.499561 0.455428 0
M  V30 6981 H 646.494 1.87697 0.834196 0
M  V30 6982 H 644.724 1.86268 3.38882 0
M  V30 6983 H 646.413 2.28041 3.35786 0
M  V30 6984 H 647.179 4.39378 2.05359 0
M  V30 6985 H 643.058 3.54893 2.94231 0
M  V30 6986 H 646.602 6.76731 1.69355 0
M  V30 6987 H 642.499 5.91429 2.58615 0
M  V30 6988 H 643.267 7.92194 2.05843 0
M  V30 6989 N 645.93 -0.909495 1.28709 0
M  V30 6990 C 647.346 -1.18862 1.06508 0
M  V30 6991 C 647.546 -2.00604 -0.189864 0
M  V30 6992 O 646.602 -2.36281 -0.890355 0
M  V30 6993 C 647.915 -1.91908 2.31499 0
M  V30 6994 C 649.463 -2.04773 2.36721 0
M  V30 6995 C 649.938 -2.81228 3.6149 0
M  V30 6996 N 651.429 -2.88787 3.62155 0
M  V30 6997 C 652.164 -3.48455 4.55375 0
M  V30 6998 N 651.66 -4.09369 5.58918 0
M  V30 6999 N 653.453 -3.46035 4.42963 0
M  V30 7000 H 645.604 -0.363867 2.0926 0
M  V30 7001 H 647.867 -0.223649 0.921241 0
M  V30 7002 H 647.573 -1.39275 3.22948 0
M  V30 7003 H 647.447 -2.92436 2.38245 0
M  V30 7004 H 649.834 -2.56585 1.45767 0
M  V30 7005 H 649.915 -1.03408 2.33967 0
M  V30 7006 H 649.559 -2.30094 4.5279 0
M  V30 7007 H 649.489 -3.82917 3.61499 0
M  V30 7008 H 651.98 -2.45514 2.87283 0
M  V30 7009 H 652.293 -4.52891 6.26187 0
M  V30 7010 H 650.638 -4.0786 5.62739 0
M  V30 7011 H 653.829 -2.9766 3.6127 0
M  V30 7012 H 654.002 -3.92244 5.15799 0
M  V30 7013 N 647.408 -1.11026 -1.11852 0
M  V30 7014 C 648.656 -0.854769 -1.83134 0
M  V30 7015 C 648.977 0.621375 -1.84835 0
M  V30 7016 O 648.247 1.45129 -1.31584 0
M  V30 7017 H 646.827 -0.313229 -0.678157 0
M  V30 7018 H 649.489 -1.40178 -1.35411 0
M  V30 7019 H 648.585 -1.22311 -2.87135 0
M  V30 7020 N 648.886 1.2938 -0.899927 0
M  V30 7021 C 650.302 1.48052 -0.596059 0
M  V30 7022 C 650.502 1.82114 0.862372 0
M  V30 7023 O 649.558 1.91774 1.64253 0
M  V30 7024 C 650.871 2.59332 -1.52208 0
M  V30 7025 C 652.419 2.73208 -1.5273 0
M  V30 7026 C 652.894 3.87617 -2.43961 0
M  V30 7027 N 654.385 3.9495 -2.42009 0
M  V30 7028 C 655.12 4.82824 -3.09303 0
M  V30 7029 N 654.616 5.75387 -3.85877 0
M  V30 7030 N 656.409 4.76317 -2.98459 0
M  V30 7031 H 648.56 1.05546 -1.8432 0
M  V30 7032 H 650.823 0.524314 -0.78981 0
M  V30 7033 H 650.529 2.41029 -2.56121 0
M  V30 7034 H 650.403 3.56139 -1.24278 0
M  V30 7035 H 652.79 2.90908 -0.495614 0
M  V30 7036 H 652.871 1.76975 -1.84698 0
M  V30 7037 H 652.515 3.70672 -3.47224 0
M  V30 7038 H 652.445 4.83218 -2.09303 0
M  V30 7039 H 654.936 3.28744 -1.86375 0
M  V30 7040 H 655.249 6.39235 -4.34279 0
M  V30 7041 H 653.594 5.75272 -3.89984 0
M  V30 7042 H 656.785 4.0299 -2.38152 0
M  V30 7043 H 656.958 5.44589 -3.51179 0
M  V30 7044 N 650.364 0.662433 1.43002 0
M  V30 7045 C 651.61 0.188492 2.02525 0
M  V30 7046 C 651.965 -1.18752 1.51379 0
M  V30 7047 O 651.258 -1.78313 0.701065 0
M  V30 7048 C 651.452 0.149363 3.57088 0
M  V30 7049 C 651.281 1.52004 4.23231 0
M  V30 7050 C 650.051 2.11473 4.5892 0
M  V30 7051 C 652.249 2.46028 4.51635 0
M  V30 7052 N 650.231 3.4145 5.10181 0
M  V30 7053 C 651.602 3.60647 5.04315 0
M  V30 7054 C 653.657 2.44715 4.33612 0
M  V30 7055 C 652.36 4.74189 5.40867 0
M  V30 7056 C 654.386 3.57344 4.71232 0
M  V30 7057 C 653.748 4.70689 5.24053 0
M  V30 7058 H 649.847 0.113615 0.773703 0
M  V30 7059 H 652.431 0.872738 1.74044 0
M  V30 7060 H 650.602 -0.504255 3.85113 0
M  V30 7061 H 652.334 -0.336307 4.033 0
M  V30 7062 H 649.089 1.64087 4.44266 0
M  V30 7063 H 649.513 4.07987 5.40255 0
M  V30 7064 H 654.155 1.58318 3.9204 0
M  V30 7065 H 651.873 5.61271 5.81378 0
M  V30 7066 H 655.459 3.5754 4.58973 0
M  V30 7067 H 654.339 5.56398 5.52621 0
M  V30 7068 N 651.842 -1.52309 0.404946 0
M  V30 7069 C 652.79 -2.28452 -0.437321 0
M  V30 7070 C 653.784 -1.32975 -1.04948 0
M  V30 7071 O 654.99 -1.50451 -0.988159 0
M  V30 7072 H 651.365 -0.734824 -0.159805 0
M  V30 7073 H 653.336 -2.97542 0.22615 0
M  V30 7074 C 652.085 -3.11536 -1.54404 0
M  V30 7075 H 651.408 -3.84871 -1.08233 0
M  V30 7076 H 652.848 -3.67926 -2.10729 0
M  V30 7077 C 651.307 -2.24833 -2.50902 0
M  V30 7078 O 651.837 -1.88574 -3.54687 0
M  V30 7079 N 650.043 -1.88685 -2.21012 0
M  V30 7080 H 649.59 -2.18371 -1.36646 0
M  V30 7081 H 649.548 -1.30966 -2.85824 0
M  V30 7082 N 653.32 -0.135238 -1.57019 0
M  V30 7083 C 654.568 0.51777 -1.95355 0
M  V30 7084 C 654.889 1.6617 -1.02042 0
M  V30 7085 O 654.159 1.95738 -0.0797343 0
M  V30 7086 H 652.739 0.194264 -0.721298 0
M  V30 7087 H 655.401 -0.207983 -1.93787 0
M  V30 7088 H 654.497 0.901675 -2.98791 0
M  V30 7089 N 654.798 1.5699 0.138552 0
M  V30 7090 C 655.728 2.01933 1.17241 0
M  V30 7091 C 656.709 0.90033 1.44319 0
M  V30 7092 O 657.894 1.16872 1.55095 0
M  V30 7093 C 655.024 2.40711 2.50351 0
M  V30 7094 C 653.978 3.55874 2.37776 0
M  V30 7095 C 653.304 3.80491 3.75674 0
M  V30 7096 C 654.604 4.8826 1.85472 0
M  V30 7097 H 656.298 2.88551 0.798672 0
M  V30 7098 H 653.844 1.3882 0.382743 0
M  V30 7099 H 655.797 2.70754 3.22909 0
M  V30 7100 H 654.521 1.5104 2.89576 0
M  V30 7101 H 653.18 3.2601 1.67669 0
M  V30 7102 H 652.828 2.88057 4.12349 0
M  V30 7103 H 652.528 4.57998 3.68119 0
M  V30 7104 H 654.052 4.12967 4.49767 0
M  V30 7105 H 655.466 5.16965 2.4783 0
M  V30 7106 H 653.863 5.69631 1.88787 0
M  V30 7107 H 654.933 4.78071 0.810935 0
M  V30 7108 N 656.276 -0.40816 1.52223 0
M  V30 7109 C 657.504 -1.17672 1.70179 0
M  V30 7110 C 657.919 -1.84257 0.411696 0
M  V30 7111 O 657.276 -1.7192 -0.612354 0
M  V30 7112 C 657.327 -2.23911 2.83806 0
M  V30 7113 O 657.048 -1.60044 4.0782 0
M  V30 7114 C 658.549 -3.1364 3.13281 0
M  V30 7115 H 655.769 -0.353562 0.570293 0
M  V30 7116 H 658.313 -0.480083 1.98785 0
M  V30 7117 H 656.468 -2.89242 2.57717 0
M  V30 7118 H 656.882 -2.30484 4.71145 0
M  V30 7119 H 658.356 -3.84255 3.96298 0
M  V30 7120 H 658.833 -3.76066 2.26872 0
M  V30 7121 H 659.439 -2.53977 3.41139 0
M  V30 7122 N 657.755 -1.42862 -0.66545 0
M  V30 7123 C 659.001 -1.44043 -1.42757 0
M  V30 7124 C 659.334 -0.0599629 -1.94107 0
M  V30 7125 O 658.609 0.917286 -1.71511 0
M  V30 7126 C 658.892 -2.47266 -2.61786 0
M  V30 7127 C 658.745 -3.94539 -2.16007 0
M  V30 7128 C 660.064 -2.47365 -3.64003 0
M  V30 7129 H 657.183 -0.524506 -0.517748 0
M  V30 7130 H 659.825 -1.74335 -0.755466 0
M  V30 7131 H 657.975 -2.21565 -3.19126 0
M  V30 7132 H 659.647 -4.31254 -1.63762 0
M  V30 7133 H 657.89 -4.07957 -1.47491 0
M  V30 7134 H 658.561 -4.62357 -3.01546 0
M  V30 7135 H 661.037 -2.70243 -3.16399 0
M  V30 7136 H 659.913 -3.21552 -4.44854 0
M  V30 7137 H 660.174 -1.50299 -4.15767 0
M  V30 7138 N 659.233 0.902656 -1.29189 0
M  V30 7139 C 660.482 1.6475 -1.16362 0
M  V30 7140 C 660.795 1.93517 0.284682 0
M  V30 7141 O 662.001 2.66192 0.534229 0
M  V30 7142 C 660.457 2.96848 -2.03493 0
M  V30 7143 C 660.065 2.75687 -3.5313 0
M  V30 7144 C 661.809 3.74762 -1.99383 0
M  V30 7145 C 659.716 4.03492 -4.32375 0
M  V30 7146 H 658.646 0.618041 -0.431904 0
M  V30 7147 H 661.297 1.0008 -1.53806 0
M  V30 7148 H 659.679 3.62715 -1.58916 0
M  V30 7149 H 660.853 2.18431 -4.05739 0
M  V30 7150 H 659.168 2.11171 -3.58881 0
M  V30 7151 H 661.765 4.69515 -2.5585 0
M  V30 7152 H 662.108 4.04767 -0.973123 0
M  V30 7153 H 662.641 3.15732 -2.41988 0
M  V30 7154 H 659.38 3.78656 -5.3507 0
M  V30 7155 H 658.9 4.60318 -3.84535 0
M  V30 7156 H 660.579 4.71662 -4.42881 0
M  V30 7157 N 660.711 1.11618 1.11262 0
M  V30 7158 C 661.936 0.889013 1.8738 0
M  V30 7159 C 662.361 -0.555884 1.79698 0
M  V30 7160 O 661.719 -1.39272 1.16073 0
M  V30 7161 C 661.767 1.35759 3.34069 0
M  V30 7162 O 660.871 0.530499 4.08974 0
M  V30 7163 H 660.212 0.320082 0.581759 0
M  V30 7164 H 662.742 1.48611 1.40627 0
M  V30 7165 H 662.752 1.35291 3.84916 0
M  V30 7166 H 661.427 2.40973 3.38976 0
M  V30 7167 H 660.004 0.601439 3.68018 0
M  V30 7168 N 662.189 -1.289 0.906776 0
M  V30 7169 C 663.438 -1.9455 0.532262 0
M  V30 7170 C 663.751 -1.72219 -0.927353 0
M  V30 7171 O 664.957 -2.32033 -1.40971 0
M  V30 7172 C 663.413 -3.48438 0.901041 0
M  V30 7173 C 663.021 -3.79558 2.37991 0
M  V30 7174 C 664.765 -4.20284 0.596777 0
M  V30 7175 C 662.672 -5.26723 2.68918 0
M  V30 7176 H 661.602 -0.728259 0.195333 0
M  V30 7177 H 664.253 -1.46519 1.10474 0
M  V30 7178 H 662.635 -3.95162 0.257419 0
M  V30 7179 H 663.809 -3.43668 3.06967 0
M  V30 7180 H 662.124 -3.20868 2.65391 0
M  V30 7181 H 664.721 -5.28612 0.8046 0
M  V30 7182 H 665.064 -4.13694 -0.465072 0
M  V30 7183 H 665.597 -3.79315 1.19855 0
M  V30 7184 H 662.336 -5.38384 3.73928 0
M  V30 7185 H 661.856 -5.63836 2.04571 0
M  V30 7186 H 663.535 -5.94391 2.55555 0
M  V30 7187 N 663.667 -0.670007 -1.42649 0
M  V30 7188 C 664.63 0.00204659 -2.292 0
M  V30 7189 C 665.63 0.733817 -1.4308 0
M  V30 7190 O 666.82 0.57254 -1.64522 0
M  V30 7191 C 663.952 1.01359 -3.25483 0
M  V30 7192 H 665.145 -0.759696 -2.90118 0
M  V30 7193 H 662.698 -0.432105 -1.50208 0
M  V30 7194 H 663.433 1.80399 -2.69493 0
M  V30 7195 H 663.218 0.492323 -3.88997 0
M  V30 7196 H 664.708 1.4824 -3.90403 0
M  V30 7197 N 665.145 1.52092 -0.413018 0
M  V30 7198 C 666.394 2.01041 0.16287 0
M  V30 7199 C 666.707 1.30288 1.45892 0
M  V30 7200 O 667.913 1.70075 2.11629 0
M  V30 7201 C 666.369 3.58283 0.340806 0
M  V30 7202 C 665.977 4.37955 -0.943377 0
M  V30 7203 C 667.721 4.15452 0.871774 0
M  V30 7204 C 665.628 5.86847 -0.732417 0
M  V30 7205 H 664.558 0.751224 0.0646414 0
M  V30 7206 H 667.209 1.75404 -0.539059 0
M  V30 7207 H 665.591 3.80266 1.10516 0
M  V30 7208 H 666.765 4.2773 -1.71418 0
M  V30 7209 H 665.08 3.92122 -1.40105 0
M  V30 7210 H 667.677 5.24375 1.0457 0
M  V30 7211 H 668.02 3.73057 1.84755 0
M  V30 7212 H 668.553 3.97452 0.166377 0
M  V30 7213 H 665.292 6.33609 -1.67986 0
M  V30 7214 H 664.812 5.998 -0.000980058 0
M  V30 7215 H 666.491 6.45906 -0.376105 0
M  V30 7216 N 666.623 0.143563 1.56945 0
M  V30 7217 C 667.871 -0.507402 1.95627 0
M  V30 7218 C 668.192 -1.65626 1.02922 0
M  V30 7219 O 667.462 -1.95693 0.0901136 0
M  V30 7220 H 666.042 -0.190436 0.722318 0
M  V30 7221 H 668.704 0.218257 1.93674 0
M  V30 7222 H 667.8 -0.885816 2.99265 0
M  V30 7223 N 668.101 -1.57061 -0.130224 0
M  V30 7224 C 669.033 -1.96147 -1.18571 0
M  V30 7225 C 670.046 -0.859347 -1.38272 0
M  V30 7226 O 671.235 -1.13769 -1.37545 0
M  V30 7227 C 668.335 -2.23484 -2.54771 0
M  V30 7228 C 667.508 -3.54786 -2.55824 0
M  V30 7229 C 666.567 -3.70467 -3.73686 0
M  V30 7230 O 665.593 -4.42693 -3.57787 0
M  V30 7231 N 666.795 -3.08389 -4.91809 0
M  V30 7232 H 669.56 -2.87295 -0.853333 0
M  V30 7233 H 667.121 -1.58714 -0.319621 0
M  V30 7234 H 669.113 -2.312 -3.32158 0
M  V30 7235 H 667.683 -1.38518 -2.80235 0
M  V30 7236 H 666.903 -3.5836 -1.64232 0
M  V30 7237 H 668.191 -4.4111 -2.53573 0
M  V30 7238 H 667.589 -2.49656 -5.0763 0
M  V30 7239 H 666.146 -3.21642 -5.66912 0
M  V30 7240 N 669.579 0.400081 -1.52437 0
M  V30 7241 C 670.827 1.14392 -1.6661 0
M  V30 7242 C 671.148 1.90792 -0.402927 0
M  V30 7243 O 670.418 1.87042 0.582425 0
M  V30 7244 H 668.998 0.425275 -0.614125 0
M  V30 7245 H 671.66 0.455076 -1.89513 0
M  V30 7246 H 670.756 1.85298 -2.51139 0
M  V30 7247 N 671.057 1.43213 0.657864 0
M  V30 7248 C 671.967 1.50448 1.80007 0
M  V30 7249 C 672.983 0.39191 1.69529 0
M  V30 7250 O 674.159 0.645349 1.90781 0
M  V30 7251 C 671.224 1.42062 3.16258 0
M  V30 7252 C 670.285 2.63951 3.38568 0
M  V30 7253 C 669.518 2.55956 4.68318 0
M  V30 7254 O 669.741 1.60473 5.47361 0
M  V30 7255 O 668.675 3.46378 4.92245 0
M  V30 7256 H 672.501 2.4689 1.76858 0
M  V30 7257 H 670.086 1.25163 0.81576 0
M  V30 7258 H 671.968 1.3981 3.97531 0
M  V30 7259 H 670.643 0.487524 3.20008 0
M  V30 7260 H 669.55 2.71776 2.57077 0
M  V30 7261 H 670.883 3.56217 3.39662 0
M  V30 7262 N 672.536 -0.895792 1.29666 0
M  V30 7263 C 673.785 -1.64131 1.17234 0
M  V30 7264 C 674.098 -1.93665 -0.274416 0
M  V30 7265 O 675.304 -2.66472 -0.520105 0
M  V30 7266 C 673.76 -2.95764 2.05065 0
M  V30 7267 C 673.368 -2.7381 3.54587 0
M  V30 7268 C 675.112 -3.737 2.01367 0
M  V30 7269 C 673.019 -4.01194 4.34508 0
M  V30 7270 H 671.949 -0.615742 0.435175 0
M  V30 7271 H 674.6 -0.992626 1.54335 0
M  V30 7272 H 672.982 -3.61867 1.60837 0
M  V30 7273 H 674.156 -2.16277 4.06892 0
M  V30 7274 H 672.471 -2.09265 3.59996 0
M  V30 7275 H 675.068 -4.68152 2.58337 0
M  V30 7276 H 675.411 -4.04245 0.994575 0
M  V30 7277 H 675.944 -3.14444 2.43659 0
M  V30 7278 H 672.683 -3.75813 5.37071 0
M  V30 7279 H 672.203 -4.58272 3.86971 0
M  V30 7280 H 673.882 -4.69307 4.45376 0
M  V30 7281 N 674.014 -1.12206 -1.10668 0
M  V30 7282 C 674.944 -0.810086 -2.18997 0
M  V30 7283 C 675.925 0.225065 -1.68604 0
M  V30 7284 O 677.11 0.086783 -1.94006 0
M  V30 7285 C 674.24 -0.261262 -3.46316 0
M  V30 7286 C 673.194 -1.2292 -4.09969 0
M  V30 7287 C 672.52 -0.540713 -5.31959 0
M  V30 7288 C 673.82 -2.58295 -4.53962 0
M  V30 7289 H 675.514 -1.7159 -2.45352 0
M  V30 7290 H 673.06 -0.82646 -1.17922 0
M  V30 7291 H 675.013 -0.0307522 -4.21389 0
M  V30 7292 H 673.737 0.679879 -3.19445 0
M  V30 7293 H 672.396 -1.44548 -3.369 0
M  V30 7294 H 672.044 0.405492 -5.01363 0
M  V30 7295 H 671.744 -1.18637 -5.75499 0
M  V30 7296 H 673.268 -0.319184 -6.09765 0
M  V30 7297 H 674.682 -2.40709 -5.20319 0
M  V30 7298 H 673.079 -3.18916 -5.08343 0
M  V30 7299 H 674.149 -3.16918 -3.67002 0
M  V30 7300 N 675.492 1.28418 -0.913599 0
M  V30 7301 C 676.455 2.25564 -0.406624 0
M  V30 7302 C 677.455 1.5387 0.466965 0
M  V30 7303 O 678.645 1.72094 0.270042 0
M  V30 7304 C 675.777 3.38339 0.417053 0
M  V30 7305 H 676.97 2.71926 -1.26477 0
M  V30 7306 H 674.523 1.40098 -0.692986 0
M  V30 7307 H 675.258 2.97339 1.29461 0
M  V30 7308 H 675.043 3.91542 -0.209102 0
M  V30 7309 H 676.533 4.10578 0.762602 0
M  V30 7310 N 676.97 0.677563 1.42291 0
M  V30 7311 C 678.198 0.209459 2.05837 0
M  V30 7312 C 678.613 -1.13444 1.50917 0
M  V30 7313 O 677.97 -1.70529 0.65008 0
M  V30 7314 C 678.021 0.138819 3.61233 0
M  V30 7315 O 677.742 1.42962 4.14118 0
M  V30 7316 C 679.243 -0.352449 4.41897 0
M  V30 7317 H 676.463 0.101209 0.663323 0
M  V30 7318 H 679.007 0.925077 1.8238 0
M  V30 7319 H 677.162 -0.527505 3.83792 0
M  V30 7320 H 677.576 1.3048 5.08011 0
M  V30 7321 H 679.05 -0.350778 5.50884 0
M  V30 7322 H 679.527 -1.3882 4.16684 0
M  V30 7323 H 680.133 0.282236 4.24362 0
M  V30 7324 N 678.448 -1.51871 0.421078 0
M  V30 7325 C 679.859 -1.86644 -0.0457991 0
M  V30 7326 C 680.21 -1.33919 -1.43388 0
M  V30 7327 O 679.335 -0.683316 -2.05328 0
M  V30 7328 C 679.93 -3.38681 -0.0898844 0
M  V30 7329 C 678.489 -3.73049 -0.501127 0
M  V30 7330 C 677.636 -2.75485 0.316723 0
M  V30 7331 H 680.587 -1.45327 0.637635 0
M  V30 7332 H 680.608 -3.69636 -0.902734 0
M  V30 7333 H 680.12 -3.77025 0.920513 0
M  V30 7334 H 678.221 -3.40288 -1.51773 0
M  V30 7335 H 678.334 -4.78512 -0.237217 0
M  V30 7336 H 676.698 -2.53725 -0.222663 0
M  V30 7337 H 677.481 -3.16671 1.32569 0
M  V30 7338 N 679.926 -0.151884 -1.56866 0
M  V30 7339 C 680.856 0.781943 -2.20018 0
M  V30 7340 C 681.837 1.25347 -1.14987 0
M  V30 7341 O 683.022 1.31015 -1.43348 0
M  V30 7342 C 680.152 2.01928 -2.82564 0
M  V30 7343 C 679.106 1.68434 -3.93464 0
M  V30 7344 C 678.432 2.99472 -4.42968 0
M  V30 7345 C 679.732 0.927244 -5.14003 0
M  V30 7346 H 681.426 0.255607 -2.98307 0
M  V30 7347 H 678.972 0.121502 -1.43486 0
M  V30 7348 H 680.925 2.67741 -3.25411 0
M  V30 7349 H 679.649 2.56943 -2.01614 0
M  V30 7350 H 678.308 1.04998 -3.51242 0
M  V30 7351 H 677.956 3.52488 -3.58834 0
M  V30 7352 H 677.656 2.77823 -5.17772 0
M  V30 7353 H 679.18 3.66348 -4.88489 0
M  V30 7354 H 680.594 1.48756 -5.53665 0
M  V30 7355 H 678.991 0.810513 -5.94601 0
M  V30 7356 H 680.061 -0.0801163 -4.84834 0
M  V30 7357 N 681.404 1.57128 0.121893 0
M  V30 7358 C 682.336 1.96773 1.17529 0
M  V30 7359 C 683.349 0.866668 1.37814 0
M  V30 7360 O 684.538 1.14497 1.3694 0
M  V30 7361 C 681.638 2.24832 2.53582 0
M  V30 7362 C 680.811 3.56138 2.53939 0
M  V30 7363 C 679.87 3.72443 3.71716 0
M  V30 7364 O 678.896 4.44584 3.55434 0
M  V30 7365 N 680.098 3.10993 4.90167 0
M  V30 7366 H 682.863 2.87743 0.838086 0
M  V30 7367 H 680.424 1.58881 0.311199 0
M  V30 7368 H 682.416 2.32958 3.30927 0
M  V30 7369 H 680.986 1.40002 2.79496 0
M  V30 7370 H 680.206 3.59226 1.62329 0
M  V30 7371 H 681.494 4.42448 2.51231 0
M  V30 7372 H 680.892 2.52345 5.06299 0
M  V30 7373 H 679.449 3.24644 5.65198 0
M  V30 7374 N 682.882 -0.391992 1.52647 0
M  V30 7375 C 684.131 -1.13449 1.6677 0
M  V30 7376 C 684.444 -1.91203 0.412399 0
M  V30 7377 O 685.65 -2.68013 0.433707 0
M  V30 7378 C 684.106 -2.06577 2.9471 0
M  V30 7379 C 683.714 -1.3426 4.27409 0
M  V30 7380 C 685.458 -2.80981 3.18198 0
M  V30 7381 C 683.365 -2.26136 5.46458 0
M  V30 7382 H 682.295 -0.427211 0.621295 0
M  V30 7383 H 684.946 -0.397522 1.79142 0
M  V30 7384 H 683.328 -2.83898 2.76076 0
M  V30 7385 H 684.502 -0.621856 4.56585 0
M  V30 7386 H 682.817 -0.718279 4.10158 0
M  V30 7387 H 685.414 -3.49898 4.04321 0
M  V30 7388 H 685.757 -3.44891 2.33144 0
M  V30 7389 H 686.29 -2.10754 3.37383 0
M  V30 7390 H 683.029 -1.66846 6.33911 0
M  V30 7391 H 682.549 -2.96134 5.21598 0
M  V30 7392 H 684.228 -2.86286 5.80215 0
M  V30 7393 N 684.36 -1.4356 -0.65026 0
M  V30 7394 C 685.323 -1.48615 -1.74489 0
M  V30 7395 C 686.323 -0.370483 -1.56474 0
M  V30 7396 O 687.513 -0.632351 -1.62317 0
M  V30 7397 C 684.645 -1.34161 -3.13391 0
M  V30 7398 H 685.838 -2.46103 -1.71387 0
M  V30 7399 H 683.391 -1.30369 -0.862186 0
M  V30 7400 H 684.126 -0.376918 -3.22102 0
M  V30 7401 H 683.911 -2.1504 -3.27872 0
M  V30 7402 H 685.401 -1.40637 -3.93206 0
M  V30 7403 N 685.838 0.888903 -1.30139 0
M  V30 7404 C 686.786 2.0156 -1.16088 0
M  V30 7405 C 687.78 1.69239 -0.0737413 0
M  V30 7406 O 688.986 1.78468 -0.234313 0
M  V30 7407 H 685.361 0.660825 -0.358907 0
M  V30 7408 H 687.332 2.10547 -2.11453 0
M  V30 7409 C 686.081 3.36758 -0.865426 0
M  V30 7410 H 685.404 3.62137 -1.69402 0
M  V30 7411 H 686.844 4.16246 -0.807192 0
M  V30 7412 C 685.303 3.34124 0.431577 0
M  V30 7413 O 685.833 3.7445 1.45431 0
M  V30 7414 N 684.039 2.87229 0.441321 0
M  V30 7415 H 683.586 2.54609 -0.391433 0
M  V30 7416 H 683.544 2.8585 1.30909 0
M  V30 7417 N 687.317 1.12792 1.10072 0
M  V30 7418 C 688.247 0.821688 2.18565 0
M  V30 7419 C 689.228 -0.21612 1.68721 0
M  V30 7420 O 690.413 -0.0764932 1.94049 0
M  V30 7421 C 687.543 0.279624 3.46172 0
M  V30 7422 C 686.497 1.25092 4.09312 0
M  V30 7423 C 685.823 0.568916 5.31665 0
M  V30 7424 C 687.123 2.60699 4.52585 0
M  V30 7425 H 688.817 1.72888 2.44438 0
M  V30 7426 H 686.363 0.832702 1.17482 0
M  V30 7427 H 688.316 0.053099 4.21367 0
M  V30 7428 H 687.04 -0.662929 3.19801 0
M  V30 7429 H 685.699 1.46332 3.36129 0
M  V30 7430 H 685.347 -0.378898 5.01571 0
M  V30 7431 H 685.047 1.21687 5.74862 0
M  V30 7432 H 686.571 0.351517 6.09587 0
M  V30 7433 H 687.985 2.43465 5.19035 0
M  V30 7434 H 686.382 3.21608 5.06644 0
M  V30 7435 H 687.452 3.1886 3.65317 0
M  V30 7436 N 688.795 -1.27931 0.920396 0
M  V30 7437 C 690.043 -1.94304 0.555906 0
M  V30 7438 C 690.364 -1.72753 -0.904519 0
M  V30 7439 O 689.634 -1.07104 -1.64029 0
M  V30 7440 H 688.214 -0.719001 0.202599 0
M  V30 7441 H 690.876 -1.55785 1.1712 0
M  V30 7442 H 689.972 -3.02806 0.755981 0
M  V30 7443 N 690.273 -0.685099 -1.4193 0
M  V30 7444 C 691.236 -0.0222632 -2.29189 0
M  V30 7445 C 692.236 0.7186 -1.4385 0
M  V30 7446 O 693.426 0.555058 -1.6512 0
M  V30 7447 C 690.558 0.979013 -3.2654 0
M  V30 7448 H 691.751 -0.790424 -2.89296 0
M  V30 7449 H 689.304 -0.448012 -1.49742 0
M  V30 7450 H 690.039 1.77531 -2.71392 0
M  V30 7451 H 689.824 0.451037 -3.89497 0
M  V30 7452 H 691.314 1.44091 -3.91954 0
M  V30 7453 N 691.751 1.51645 -0.429126 0
M  V30 7454 C 692.979 2.06433 0.138994 0
M  V30 7455 C 693.394 1.29735 1.37165 0
M  V30 7456 O 692.751 0.354638 1.79021 0
M  V30 7457 C 692.802 3.58439 0.469452 0
M  V30 7458 O 692.523 4.32238 -0.714273 0
M  V30 7459 C 694.024 4.29712 1.08914 0
M  V30 7460 H 691.244 0.6709 0.0115608 0
M  V30 7461 H 693.788 1.9532 -0.605843 0
M  V30 7462 H 691.943 3.69494 1.16419 0
M  V30 7463 H 692.357 5.22704 -0.433633 0
M  V30 7464 H 693.831 5.37182 1.27042 0
M  V30 7465 H 694.308 3.87473 2.06788 0
M  V30 7466 H 694.914 4.2308 0.434028 0
M  V30 7467 N 693.229 0.160201 1.56784 0
M  V30 7468 C 694.478 -0.487619 1.95717 0
M  V30 7469 C 694.791 -1.65136 1.0483 0
M  V30 7470 O 695.997 -2.36468 1.33398 0
M  V30 7471 C 694.453 -0.91888 3.47972 0
M  V30 7472 C 694.061 0.218655 4.47466 0
M  V30 7473 C 695.805 -1.53575 3.95746 0
M  V30 7474 C 693.712 -0.231614 5.90946 0
M  V30 7475 H 692.642 -0.185939 0.730714 0
M  V30 7476 H 695.293 0.246657 1.81835 0
M  V30 7477 H 693.675 -1.70881 3.57234 0
M  V30 7478 H 694.849 0.995825 4.49911 0
M  V30 7479 H 693.164 0.744767 4.09685 0
M  V30 7480 H 695.761 -1.88448 5.00391 0
M  V30 7481 H 696.104 -2.42959 3.38048 0
M  V30 7482 H 696.637 -0.810467 3.89456 0
M  V30 7483 H 693.376 0.62718 6.52493 0
M  V30 7484 H 692.896 -0.974379 5.91833 0
M  V30 7485 H 694.575 -0.67922 6.43425 0
M  V30 7486 N 694.707 -1.5719 -0.113559 0
M  V30 7487 C 695.67 -1.99796 -1.12314 0
M  V30 7488 C 696.67 -0.888847 -1.34001 0
M  V30 7489 O 697.86 -1.15476 -1.30426 0
M  V30 7490 C 694.992 -2.34279 -2.47641 0
M  V30 7491 H 696.185 -2.90193 -0.756825 0
M  V30 7492 H 693.738 -1.52144 -0.358029 0
M  V30 7493 H 694.473 -1.46778 -2.89183 0
M  V30 7494 H 694.258 -3.15175 -2.33253 0
M  V30 7495 H 695.748 -2.67963 -3.2029 0
M  V30 7496 N 696.185 0.383891 -1.52853 0
M  V30 7497 C 697.133 1.48965 -1.7864 0
M  V30 7498 C 698.127 1.56242 -0.654577 0
M  V30 7499 O 699.333 1.59347 -0.83716 0
M  V30 7500 H 695.708 0.495892 -0.565328 0
M  V30 7501 H 697.679 1.24411 -2.71228 0
M  V30 7502 C 696.428 2.86036 -1.97683 0
M  V30 7503 H 695.751 2.81188 -2.84206 0
M  V30 7504 H 697.191 3.62632 -2.19713 0
M  V30 7505 C 695.65 3.28428 -0.750776 0
M  V30 7506 O 696.18 4.0164 0.0693491 0
M  V30 7507 N 694.386 2.84765 -0.579427 0
M  V30 7508 H 693.933 2.25353 -1.24795 0
M  V30 7509 H 693.891 3.13486 0.239544 0
M  V30 7510 N 697.663 1.43903 0.642637 0
M  V30 7511 C 699.079 1.27536 0.959519 0
M  V30 7512 C 699.279 0.202751 2.00477 0
M  V30 7513 O 698.335 -0.415256 2.49062 0
M  V30 7514 C 699.648 2.6432 1.43372 0
M  V30 7515 C 701.196 2.71937 1.54981 0
M  V30 7516 C 701.671 4.09164 2.05789 0
M  V30 7517 N 703.162 4.11282 2.13076 0
M  V30 7518 C 703.897 5.14303 2.53534 0
M  V30 7519 N 703.393 6.27693 2.93212 0
M  V30 7520 N 705.186 5.01657 2.53567 0
M  V30 7521 H 697.337 2.12344 -0.0488376 0
M  V30 7522 H 699.6 0.947124 0.0407559 0
M  V30 7523 H 699.306 3.43826 0.740048 0
M  V30 7524 H 699.18 2.90432 2.40685 0
M  V30 7525 H 701.567 1.92757 2.23448 0
M  V30 7526 H 701.648 2.49578 0.560739 0
M  V30 7527 H 701.292 4.88815 1.37921 0
M  V30 7528 H 701.222 4.28893 3.05546 0
M  V30 7529 H 703.713 3.2944 1.85143 0
M  V30 7530 H 704.026 7.02125 3.22863 0
M  V30 7531 H 702.371 6.31149 2.90991 0
M  V30 7532 H 705.562 4.12134 2.21952 0
M  V30 7533 H 705.735 5.82072 2.84774 0
M  V30 7534 N 699.141 -0.881989 1.30609 0
M  V30 7535 C 700.389 -1.63082 1.19368 0
M  V30 7536 C 700.71 -1.93376 -0.251147 0
M  V30 7537 O 699.98 -1.5723 -1.16857 0
M  V30 7538 H 698.56 -0.604542 0.438791 0
M  V30 7539 H 701.222 -1.05658 1.63776 0
M  V30 7540 H 700.318 -2.57966 1.7567 0
M  V30 7541 N 700.619 -1.13374 -1.09472 0
M  V30 7542 C 701.569 -0.77946 -2.14263 0
M  V30 7543 C 702.553 0.226271 -1.59301 0
M  V30 7544 O 703.745 0.0302581 -1.76974 0
M  V30 7545 C 700.874 -0.246635 -3.42413 0
M  V30 7546 C 699.96 -1.28124 -4.04283 0
M  V30 7547 N 700.351 -2.48201 -4.40715 0
M  V30 7548 C 698.649 -1.12892 -4.31476 0
M  V30 7549 C 699.35 -3.14347 -4.8945 0
M  V30 7550 N 698.326 -2.41771 -4.86876 0
M  V30 7551 H 702.128 -1.69305 -2.40235 0
M  V30 7552 H 699.642 -1.01598 -1.26695 0
M  V30 7553 H 701.639 0.0254131 -4.16892 0
M  V30 7554 H 700.299 0.661287 -3.17895 0
M  V30 7555 H 701.31 -2.85511 -4.32093 0
M  V30 7556 H 697.987 -0.279117 -4.16566 0
M  V30 7557 H 699.377 -4.16663 -5.27107 0
M  V30 7558 N 702.098 1.27442 -0.927168 0
M  V30 7559 C 703.345 1.94391 -0.567324 0
M  V30 7560 C 703.673 1.72875 0.891321 0
M  V30 7561 O 702.928 1.05071 1.65102 0
M  V30 7562 C 703.227 3.47413 -0.838994 0
M  V30 7563 C 702.893 3.89049 -2.2793 0
M  V30 7564 C 701.555 4.00127 -2.67305 0
M  V30 7565 C 703.907 4.10154 -3.21595 0
M  V30 7566 C 701.235 4.29697 -3.99471 0
M  V30 7567 C 703.587 4.41208 -4.53341 0
M  V30 7568 C 702.251 4.50499 -4.92551 0
M  V30 7569 H 701.521 0.711325 -0.207598 0
M  V30 7570 H 704.168 1.51523 -1.17103 0
M  V30 7571 H 702.473 3.91503 -0.152609 0
M  V30 7572 H 704.17 3.97354 -0.53955 0
M  V30 7573 H 700.76 3.80962 -1.96381 0
M  V30 7574 H 704.944 4.01036 -2.92377 0
M  V30 7575 H 700.2 4.35099 -4.29533 0
M  V30 7576 H 704.374 4.56486 -5.25922 0
M  V30 7577 H 702.001 4.73167 -5.94994 0
M  V30 7578 N 703.576 0.692616 1.41565 0
M  V30 7579 C 704.825 0.219452 2.00503 0
M  V30 7580 C 705.138 -1.18683 1.55479 0
M  V30 7581 O 706.344 -1.75731 2.06956 0
M  V30 7582 C 704.8 0.341451 3.58277 0
M  V30 7583 C 704.408 1.75291 4.12283 0
M  V30 7584 C 706.152 -0.0720899 4.24439 0
M  V30 7585 C 704.059 1.82673 5.62481 0
M  V30 7586 H 702.989 0.0782874 0.749925 0
M  V30 7587 H 705.64 0.860386 1.62079 0
M  V30 7588 H 704.022 -0.367683 3.94289 0
M  V30 7589 H 705.196 2.49057 3.87695 0
M  V30 7590 H 703.511 2.11587 3.58636 0
M  V30 7591 H 706.108 -0.0373385 5.34687 0
M  V30 7592 H 706.451 -1.11034 4.0122 0
M  V30 7593 H 706.984 0.586663 3.9345 0
M  V30 7594 H 703.723 2.84539 5.90523 0
M  V30 7595 H 703.243 1.13288 5.89004 0
M  V30 7596 H 704.922 1.58827 6.27203 0
M  V30 7597 N 705.054 -1.51416 0.437162 0
M  V30 7598 C 706.282 -2.06503 -0.128045 0
M  V30 7599 C 706.697 -1.30461 -1.36475 0
M  V30 7600 O 706.054 -0.364127 -1.78831 0
M  V30 7601 C 706.105 -3.58683 -0.450437 0
M  V30 7602 O 705.826 -4.31853 0.737186 0
M  V30 7603 C 707.327 -4.30284 -1.06633 0
M  V30 7604 H 704.547 -0.670952 -0.00800269 0
M  V30 7605 H 707.091 -1.94996 0.616193 0
M  V30 7606 H 705.246 -3.70106 -1.14457 0
M  V30 7607 H 705.66 -5.22467 0.461347 0
M  V30 7608 H 707.134 -5.37848 -1.24191 0
M  V30 7609 H 707.611 -3.88564 -2.0473 0
M  V30 7610 H 708.217 -4.23304 -0.411585 0
M  V30 7611 N 706.532 -0.168513 -1.56696 0
M  V30 7612 C 707.943 0.348694 -1.83415 0
M  V30 7613 C 708.294 1.63257 -1.0882 0
M  V30 7614 O 707.419 2.13707 -0.340333 0
M  V30 7615 C 708.014 0.639423 -3.32711 0
M  V30 7616 C 706.573 1.10108 -3.59935 0
M  V30 7617 C 705.72 0.135464 -2.76969 0
M  V30 7618 H 708.671 -0.392829 -1.53761 0
M  V30 7619 H 708.692 1.49179 -3.50037 0
M  V30 7620 H 708.204 -0.295173 -3.86976 0
M  V30 7621 H 706.305 2.05088 -3.11079 0
M  V30 7622 H 706.418 1.01218 -4.68286 0
M  V30 7623 H 704.782 0.632286 -2.46727 0
M  V30 7624 H 705.565 -0.793104 -3.34013 0
M  V30 7625 N 708.01 1.57248 0.105221 0
M  V30 7626 C 708.96 1.9777 1.1345 0
M  V30 7627 C 709.944 0.854654 1.36325 0
M  V30 7628 O 711.136 1.11844 1.37186 0
M  V30 7629 C 708.265 2.39717 2.45745 0
M  V30 7630 C 707.351 3.58686 2.26286 0
M  V30 7631 N 707.742 4.73942 1.76671 0
M  V30 7632 C 706.04 3.64586 2.56891 0
M  V30 7633 C 706.741 5.55923 1.71245 0
M  V30 7634 N 705.717 4.98803 2.16093 0
M  V30 7635 H 709.519 2.84336 0.743664 0
M  V30 7636 H 707.033 1.59359 0.312787 0
M  V30 7637 H 709.03 2.66971 3.20206 0
M  V30 7638 H 707.69 1.54523 2.85574 0
M  V30 7639 H 708.701 4.9689 1.46016 0
M  V30 7640 H 705.378 2.90031 3.00314 0
M  V30 7641 H 706.768 6.58398 1.34022 0
M  V30 7642 N 709.488 -0.375779 1.53054 0
M  V30 7643 C 710.737 -1.11674 1.67964 0
M  V30 7644 C 711.05 -1.90755 0.432655 0
M  V30 7645 O 712.256 -2.67538 0.462109 0
M  V30 7646 C 710.712 -2.0344 2.96884 0
M  V30 7647 C 710.32 -1.29719 4.28809 0
M  V30 7648 C 712.064 -2.7759 3.2116 0
M  V30 7649 C 709.971 -2.20327 5.48826 0
M  V30 7650 H 708.901 -0.420597 0.625791 0
M  V30 7651 H 711.552 -0.378499 1.79554 0
M  V30 7652 H 709.934 -2.80953 2.79072 0
M  V30 7653 H 711.108 -0.573394 4.57219 0
M  V30 7654 H 709.423 -0.674735 4.10897 0
M  V30 7655 H 712.02 -3.4559 4.0801 0
M  V30 7656 H 712.363 -3.42399 2.36789 0
M  V30 7657 H 712.896 -2.07164 3.396 0
M  V30 7658 H 709.635 -1.60113 6.35645 0
M  V30 7659 H 709.155 -2.90585 5.2471 0
M  V30 7660 H 710.834 -2.80116 5.83219 0
M  V30 7661 N 710.966 -1.44241 -0.634997 0
M  V30 7662 C 712.212 -1.47038 -1.39669 0
M  V30 7663 C 712.545 -0.101122 -1.93937 0
M  V30 7664 O 711.82 0.880699 -1.73418 0
M  V30 7665 C 712.103 -2.52763 -2.56482 0
M  V30 7666 C 711.956 -3.99032 -2.07589 0
M  V30 7667 C 713.275 -2.55031 -3.58674 0
M  V30 7668 H 710.394 -0.53537 -0.506506 0
M  V30 7669 H 713.036 -1.75898 -0.718317 0
M  V30 7670 H 711.186 -2.28284 -3.14354 0
M  V30 7671 H 712.858 -4.3463 -1.54577 0
M  V30 7672 H 711.101 -4.10994 -1.38804 0
M  V30 7673 H 711.772 -4.68649 -2.91671 0
M  V30 7674 H 714.248 -2.76893 -3.10595 0
M  V30 7675 H 713.124 -3.30916 -4.37934 0
M  V30 7676 H 713.385 -1.59085 -4.12486 0
M  V30 7677 N 712.444 0.87505 -1.31075 0
M  V30 7678 C 713.391 1.98178 -1.18296 0
M  V30 7679 C 714.361 1.65952 -0.0699923 0
M  V30 7680 O 715.546 1.8926 -0.241951 0
M  V30 7681 C 712.686 3.33399 -0.891024 0
M  V30 7682 C 711.799 3.78253 -2.08684 0
M  V30 7683 C 710.934 5.02166 -1.73212 0
M  V30 7684 C 709.973 5.39455 -2.89231 0
M  V30 7685 N 709.11 6.54549 -2.53989 0
M  V30 7686 H 713.95 2.0844 -2.12971 0
M  V30 7687 H 711.487 1.02047 -1.05948 0
M  V30 7688 H 713.445 4.11246 -0.702338 0
M  V30 7689 H 712.075 3.22794 0.0188799 0
M  V30 7690 H 711.127 2.9623 -2.38646 0
M  V30 7691 H 712.439 4.01821 -2.95536 0
M  V30 7692 H 711.593 5.87666 -1.50777 0
M  V30 7693 H 710.332 4.80491 -0.83544 0
M  V30 7694 H 709.337 4.52477 -3.12321 0
M  V30 7695 H 710.562 5.63098 -3.79601 0
M  V30 7696 H 708.508 6.3443 -1.66838 0
M  V30 7697 H 708.425 6.78035 -3.34372 0
M  V30 7698 H 709.693 7.43254 -2.34934 0
M  V30 7699 N 713.922 1.13953 1.08869 0
M  V30 7700 C 714.832 0.835666 2.19212 0
M  V30 7701 C 715.848 -0.182005 1.73045 0
M  V30 7702 O 717.024 -0.0116661 2.01397 0
M  V30 7703 C 714.089 0.312325 3.4529 0
M  V30 7704 C 713.15 1.39196 4.06107 0
M  V30 7705 C 712.383 0.893496 5.26168 0
M  V30 7706 O 712.606 -0.266807 5.69776 0
M  V30 7707 O 711.54 1.67037 5.78258 0
M  V30 7708 H 715.366 1.75769 2.47667 0
M  V30 7709 H 712.951 0.917421 1.17914 0
M  V30 7710 H 714.833 0.0261582 4.21392 0
M  V30 7711 H 713.508 -0.582042 3.18424 0
M  V30 7712 H 712.415 1.73152 3.31616 0
M  V30 7713 H 713.748 2.26068 4.37212 0
M  V30 7714 N 715.4 -1.26948 0.933913 0
M  V30 7715 C 716.649 -1.93378 0.573409 0
M  V30 7716 C 716.962 -1.74148 -0.890614 0
M  V30 7717 O 718.168 -2.34971 -1.36017 0
M  V30 7718 C 716.624 -3.46449 0.974747 0
M  V30 7719 C 716.232 -3.74425 2.45988 0
M  V30 7720 C 717.976 -4.18924 0.685791 0
M  V30 7721 C 715.883 -5.209 2.8003 0
M  V30 7722 H 714.813 -0.723952 0.210736 0
M  V30 7723 H 717.464 -1.44143 1.13557 0
M  V30 7724 H 715.846 -3.94528 0.341181 0
M  V30 7725 H 717.02 -3.37079 3.14188 0
M  V30 7726 H 715.335 -3.15167 2.72138 0
M  V30 7727 H 717.932 -5.26786 0.916546 0
M  V30 7728 H 718.275 -4.14587 -0.377217 0
M  V30 7729 H 718.808 -3.76687 1.27874 0
M  V30 7730 H 715.547 -5.30332 3.85264 0
M  V30 7731 H 715.067 -5.59369 2.16485 0
M  V30 7732 H 716.746 -5.88837 2.68105 0
M  V30 7733 N 716.879 -0.700114 -1.41195 0
M  V30 7734 C 717.811 0.00155823 -2.292 0
M  V30 7735 C 718.824 0.739736 -1.45023 0
M  V30 7736 O 720.013 0.589684 -1.68478 0
M  V30 7737 C 717.113 1.02635 -3.22985 0
M  V30 7738 C 716.286 0.356871 -4.35942 0
M  V30 7739 C 715.345 1.28491 -5.10271 0
M  V30 7740 O 714.371 0.775562 -5.63892 0
M  V30 7741 N 715.573 2.61699 -5.18164 0
M  V30 7742 H 718.338 -0.754008 -2.9006 0
M  V30 7743 H 715.899 -0.546504 -1.52397 0
M  V30 7744 H 717.891 1.64902 -3.6958 0
M  V30 7745 H 716.461 1.68341 -2.63401 0
M  V30 7746 H 715.681 -0.445753 -3.91672 0
M  V30 7747 H 716.969 -0.108469 -5.08684 0
M  V30 7748 H 716.367 3.05594 -4.76056 0
M  V30 7749 H 714.924 3.19149 -5.6832 0
M  V30 7750 N 718.357 1.51182 -0.445186 0
M  V30 7751 C 719.634 1.9478 0.178965 0
M  V30 7752 C 720.014 1.38428 1.59376 0
M  V30 7753 O 719.362 0.574552 2.21159 0
M  V30 7754 C 719.572 3.48683 0.148711 0
M  V30 7755 C 720.92 4.23152 0.35042 0
M  V30 7756 O 721.944 3.55479 0.226474 0
M  V30 7757 O 720.803 5.4322 0.597893 0
M  V30 7758 H 717.897 0.817387 0.12573 0
M  V30 7759 H 720.443 1.62051 -0.503729 0
M  V30 7760 H 719.215 3.82176 -0.84009 0
M  V30 7761 H 718.838 3.87875 0.873979 0
M  V30 7762 N 719.835 0.176821 1.56605 0
M  V30 7763 C 720.745 -0.763682 2.21822 0
M  V30 7764 C 721.761 -1.24889 1.21156 0
M  V30 7765 O 722.937 -1.29987 1.53836 0
M  V30 7766 C 720.002 -1.97352 2.8505 0
M  V30 7767 C 719.063 -1.53466 4.00932 0
M  V30 7768 C 718.296 -2.68682 4.61135 0
M  V30 7769 O 718.519 -3.85694 4.20234 0
M  V30 7770 O 717.453 -2.42442 5.50913 0
M  V30 7771 H 721.279 -0.238363 3.02763 0
M  V30 7772 H 718.864 -0.0516331 1.49311 0
M  V30 7773 H 720.746 -2.68096 3.25119 0
M  V30 7774 H 719.421 -2.48779 2.07101 0
M  V30 7775 H 718.328 -0.796551 3.65521 0
M  V30 7776 H 719.661 -1.06724 4.8049 0
M  V30 7777 N 721.313 -1.57302 -0.09688 0
M  V30 7778 C 722.245 -1.98618 -1.14384 0
M  V30 7779 C 723.258 -0.888483 -1.36418 0
M  V30 7780 O 724.447 -1.16661 -1.35101 0
M  V30 7781 C 721.547 -2.28838 -2.49973 0
M  V30 7782 C 720.72 -3.60132 -2.48241 0
M  V30 7783 C 719.779 -3.7831 -3.65743 0
M  V30 7784 O 718.805 -4.50183 -3.48316 0
M  V30 7785 N 720.007 -3.18752 -4.85157 0
M  V30 7786 H 722.772 -2.8904 -0.792202 0
M  V30 7787 H 720.333 -1.59356 -0.285883 0
M  V30 7788 H 722.325 -2.38193 -3.27179 0
M  V30 7789 H 720.895 -1.44431 -2.77233 0
M  V30 7790 H 720.115 -3.61763 -1.56593 0
M  V30 7791 H 721.403 -4.46389 -2.4416 0
M  V30 7792 H 720.801 -2.60368 -5.0222 0
M  V30 7793 H 719.358 -3.33595 -5.59962 0
M  V30 7794 N 722.791 0.367657 -1.53252 0
M  V30 7795 C 723.721 1.45632 -1.8252 0
M  V30 7796 C 724.702 1.55979 -0.678568 0
M  V30 7797 O 725.887 1.70581 -0.928217 0
M  V30 7798 C 723.017 2.82994 -2.01325 0
M  V30 7799 C 721.971 2.87473 -3.17086 0
M  V30 7800 C 721.297 4.2749 -3.21179 0
M  V30 7801 C 722.597 2.55182 -4.55719 0
M  V30 7802 H 724.291 1.21387 -2.73689 0
M  V30 7803 H 721.837 0.58251 -1.31692 0
M  V30 7804 H 723.79 3.59179 -2.20383 0
M  V30 7805 H 722.514 3.08622 -1.06864 0
M  V30 7806 H 721.173 2.13739 -2.97844 0
M  V30 7807 H 720.821 4.5019 -2.24361 0
M  V30 7808 H 720.521 4.31403 -3.98955 0
M  V30 7809 H 722.045 5.0555 -3.42419 0
M  V30 7810 H 723.459 3.21081 -4.74953 0
M  V30 7811 H 721.856 2.70414 -5.3572 0
M  V30 7812 H 722.926 1.5044 -4.60973 0
M  V30 7813 N 724.269 1.44576 0.627338 0
M  V30 7814 C 725.546 1.38033 1.38586 0
M  V30 7815 C 725.926 0.0409468 2.1106 0
M  V30 7816 O 725.274 -0.976582 2.0658 0
M  V30 7817 C 725.484 2.58102 2.34913 0
M  V30 7818 C 726.832 3.02332 2.98129 0
M  V30 7819 O 727.856 2.58334 2.45238 0
M  V30 7820 O 726.715 3.78628 3.94085 0
M  V30 7821 H 723.809 0.546801 0.620434 0
M  V30 7822 H 726.355 1.56672 0.652077 0
M  V30 7823 H 725.127 3.4719 1.80485 0
M  V30 7824 H 724.75 2.41696 3.15703 0
M  V30 7825 N 725.747 -0.868086 1.31537 0
M  V30 7826 C 726.972 -1.65926 1.24432 0
M  V30 7827 C 727.397 -1.87169 -0.186936 0
M  V30 7828 O 726.755 -1.4148 -1.13371 0
M  V30 7829 C 726.803 -3.00347 1.9956 0
M  V30 7830 O 725.907 -3.90221 1.33422 0
M  V30 7831 H 725.248 -0.506375 0.429512 0
M  V30 7832 H 727.778 -1.0822 1.73637 0
M  V30 7833 H 727.788 -3.50269 2.09226 0
M  V30 7834 H 726.463 -2.84205 3.03645 0
M  V30 7835 H 725.04 -3.48672 1.32219 0
M  V30 7836 N 727.225 -1.14528 -1.08264 0
M  V30 7837 C 728.155 -0.856356 -2.1723 0
M  V30 7838 C 729.136 0.189251 -1.69044 0
M  V30 7839 O 730.321 0.0456119 -1.94146 0
M  V30 7840 C 727.451 -0.334662 -3.45684 0
M  V30 7841 C 726.405 -1.31588 -4.0727 0
M  V30 7842 C 725.731 -0.653428 -5.30692 0
M  V30 7843 C 727.031 -2.67866 -4.48381 0
M  V30 7844 H 728.725 -1.76755 -2.41657 0
M  V30 7845 H 726.271 -0.851287 -1.16143 0
M  V30 7846 H 728.224 -0.120128 -4.21229 0
M  V30 7847 H 726.948 0.611967 -3.20815 0
M  V30 7848 H 725.607 -1.51661 -3.33758 0
M  V30 7849 H 725.255 0.299054 -5.0211 0
M  V30 7850 H 724.955 -1.30817 -5.72853 0
M  V30 7851 H 726.479 -0.448453 -6.08951 0
M  V30 7852 H 727.893 -2.51692 -5.15096 0
M  V30 7853 H 726.29 -3.29627 -5.01464 0
M  V30 7854 H 727.36 -3.24632 -3.60198 0
M  V30 7855 N 728.703 1.26451 -0.940633 0
M  V30 7856 C 729.933 1.97581 -0.603766 0
M  V30 7857 C 730.341 1.70246 0.825395 0
M  V30 7858 O 729.684 0.967001 1.56188 0
M  V30 7859 C 729.746 3.51256 -0.765463 0
M  V30 7860 C 729.41 4.0224 -2.16915 0
M  V30 7861 C 730.407 4.1402 -3.14457 0
M  V30 7862 C 728.092 4.36263 -2.48958 0
M  V30 7863 C 730.086 4.59117 -4.42143 0
M  V30 7864 C 727.773 4.81048 -3.76877 0
M  V30 7865 C 728.771 4.92436 -4.73282 0
M  V30 7866 O 728.459 5.36234 -5.98923 0
M  V30 7867 H 728.191 0.636948 -0.226436 0
M  V30 7868 H 730.745 1.61941 -1.2635 0
M  V30 7869 H 728.975 3.86669 -0.0485956 0
M  V30 7870 H 730.664 4.03597 -0.431738 0
M  V30 7871 H 731.43 3.87981 -2.91026 0
M  V30 7872 H 727.309 4.26634 -1.74656 0
M  V30 7873 H 730.853 4.6792 -5.17394 0
M  V30 7874 H 726.75 5.06531 -4.00121 0
M  V30 7875 H 727.518 5.54456 -6.02097 0
M  V30 7876 N 730.181 0.707592 1.40822 0
M  V30 7877 C 731.597 0.38034 1.55002 0
M  V30 7878 C 731.797 -1.11163 1.68062 0
M  V30 7879 O 730.853 -1.89761 1.66574 0
M  V30 7880 C 732.166 1.1394 2.78277 0
M  V30 7881 C 733.714 1.12492 2.92087 0
M  V30 7882 C 734.189 1.86597 4.18265 0
M  V30 7883 N 735.68 1.83626 4.25248 0
M  V30 7884 C 736.415 2.37794 5.21768 0
M  V30 7885 N 735.911 3.00485 6.24244 0
M  V30 7886 N 737.704 2.27982 5.13791 0
M  V30 7887 H 729.855 1.67511 1.3059 0
M  V30 7888 H 732.118 0.707579 0.630901 0
M  V30 7889 H 731.824 2.19398 2.74877 0
M  V30 7890 H 731.698 0.725793 3.70151 0
M  V30 7891 H 734.085 0.0785564 2.94995 0
M  V30 7892 H 734.166 1.57768 2.01353 0
M  V30 7893 H 733.81 2.91219 4.16118 0
M  V30 7894 H 733.74 1.38746 5.07993 0
M  V30 7895 H 736.231 1.3793 3.51829 0
M  V30 7896 H 736.544 3.39355 6.94304 0
M  V30 7897 H 734.889 3.04567 6.24711 0
M  V30 7898 H 738.08 1.78669 4.3266 0
M  V30 7899 H 738.253 2.70499 5.88841 0
M  V30 7900 N 731.66 -1.50943 0.453197 0
M  V30 7901 C 732.906 -2.02512 -0.108082 0
M  V30 7902 C 733.239 -1.33574 -1.40967 0
M  V30 7903 O 732.514 -0.455671 -1.89087 0
M  V30 7904 C 732.797 -3.58759 -0.310453 0
M  V30 7905 C 732.65 -4.38293 1.0109 0
M  V30 7906 C 733.969 -4.26816 -1.07313 0
M  V30 7907 H 731.088 -0.73603 -0.0378064 0
M  V30 7908 H 733.73 -1.80433 0.595295 0
M  V30 7909 H 731.88 -3.77702 -0.909582 0
M  V30 7910 H 733.552 -4.30964 1.64523 0
M  V30 7911 H 731.795 -4.02745 1.61179 0
M  V30 7912 H 732.466 -5.45828 0.82315 0
M  V30 7913 H 734.942 -4.1224 -0.565473 0
M  V30 7914 H 733.818 -5.35989 -1.1835 0
M  V30 7915 H 734.079 -3.88757 -2.10525 0
M  V30 7916 N 733.138 -0.185124 -1.56509 0
M  V30 7917 C 734.549 0.329221 -1.83774 0
M  V30 7918 C 734.9 1.62093 -1.10545 0
M  V30 7919 O 734.025 2.13334 -0.36298 0
M  V30 7920 C 734.62 0.604099 -3.33371 0
M  V30 7921 C 733.179 1.06284 -3.61083 0
M  V30 7922 C 732.326 0.10608 -2.77097 0
M  V30 7923 H 735.277 -0.409116 -1.53336 0
M  V30 7924 H 735.298 1.45458 -3.51599 0
M  V30 7925 H 734.81 -0.336201 -3.86641 0
M  V30 7926 H 732.911 2.01777 -3.13236 0
M  V30 7927 H 733.024 0.962453 -4.69333 0
M  V30 7928 H 731.388 0.606082 -2.47384 0
M  V30 7929 H 732.171 -0.828486 -3.33153 0
M  V30 7930 N 734.616 1.57351 0.0885366 0
M  V30 7931 C 736.032 1.53331 0.442916 0
M  V30 7932 C 736.232 0.902831 1.80142 0
M  V30 7933 O 735.288 0.498147 2.47537 0
M  V30 7934 C 736.601 2.98036 0.399372 0
M  V30 7935 C 738.149 3.09286 0.480759 0
M  V30 7936 C 738.624 4.5561 0.467296 0
M  V30 7937 N 740.115 4.60182 0.52786 0
M  V30 7938 C 740.85 5.70857 0.539388 0
M  V30 7939 N 740.346 6.90944 0.506729 0
M  V30 7940 N 742.139 5.59051 0.584691 0
M  V30 7941 H 734.29 1.96709 -0.801215 0
M  V30 7942 H 736.553 0.899639 -0.298922 0
M  V30 7943 H 736.259 3.47656 -0.531806 0
M  V30 7944 H 736.133 3.57066 1.21589 0
M  V30 7945 H 738.52 2.5965 1.40236 0
M  V30 7946 H 738.601 2.53197 -0.364023 0
M  V30 7947 H 738.245 5.05899 -0.450384 0
M  V30 7948 H 738.175 5.09544 1.32938 0
M  V30 7949 H 740.666 3.73757 0.558028 0
M  V30 7950 H 740.979 7.71055 0.518989 0
M  V30 7951 H 739.324 6.93384 0.473675 0
M  V30 7952 H 742.515 4.64138 0.607781 0
M  V30 7953 H 742.688 6.45307 0.590206 0
M  V30 7954 N 736.094 -0.359525 1.53444 0
M  V30 7955 C 737.041 -1.44073 1.8031 0
M  V30 7956 C 738.011 -1.52946 0.647811 0
M  V30 7957 O 739.196 -1.68739 0.890614 0
M  V30 7958 C 736.336 -2.80941 2.00416 0
M  V30 7959 C 735.449 -2.80986 3.28132 0
M  V30 7960 C 734.584 -4.09468 3.38393 0
M  V30 7961 C 733.623 -4.03679 4.60119 0
M  V30 7962 N 732.76 -5.23821 4.675 0
M  V30 7963 H 737.6 -1.20464 2.72566 0
M  V30 7964 H 735.137 -0.583859 1.35017 0
M  V30 7965 H 737.095 -3.60459 2.1006 0
M  V30 7966 H 735.725 -3.02936 1.11489 0
M  V30 7967 H 734.777 -1.93666 3.27411 0
M  V30 7968 H 736.089 -2.72583 4.17732 0
M  V30 7969 H 735.243 -4.97404 3.47382 0
M  V30 7970 H 733.982 -4.20632 2.4682 0
M  V30 7971 H 732.987 -3.14129 4.51224 0
M  V30 7972 H 734.212 -3.94112 5.5304 0
M  V30 7973 H 732.158 -5.35559 3.7883 0
M  V30 7974 H 732.075 -5.17611 5.51013 0
M  V30 7975 H 733.343 -6.13572 4.8078 0
M  V30 7976 N 737.572 -1.44907 -0.619662 0
M  V30 7977 C 738.8 -1.51795 -1.40591 0
M  V30 7978 C 739.215 -0.146553 -1.8823 0
M  V30 7979 O 738.572 0.849698 -1.61513 0
M  V30 7980 C 738.623 -2.49229 -2.61853 0
M  V30 7981 O 738.344 -3.81039 -2.16197 0
M  V30 7982 C 739.845 -2.65696 -3.54853 0
M  V30 7983 H 737.065 -0.514463 -0.430777 0
M  V30 7984 H 739.609 -1.8998 -0.756813 0
M  V30 7985 H 737.764 -2.14149 -3.2283 0
M  V30 7986 H 738.178 -4.33747 -2.94896 0
M  V30 7987 H 739.652 -3.37874 -4.36515 0
M  V30 7988 H 740.129 -1.71316 -4.0441 0
M  V30 7989 H 740.735 -3.01724 -2.99737 0
M  V30 7990 N 739.05 0.861098 -1.31996 0
M  V30 7991 C 740.275 1.65264 -1.2531 0
M  V30 7992 C 740.7 1.87265 0.177007 0
M  V30 7993 O 740.058 1.4208 1.12619 0
M  V30 7994 C 740.106 2.99284 -2.0115 0
M  V30 7995 O 739.21 3.89508 -1.3549 0
M  V30 7996 H 738.551 0.50409 -0.432192 0
M  V30 7997 H 741.081 1.07297 -1.74208 0
M  V30 7998 H 741.091 3.49154 -2.11081 0
M  V30 7999 H 739.766 2.82591 -3.05148 0
M  V30 8000 H 738.343 3.47966 -1.34066 0
M  V30 8001 N 740.528 1.15101 1.07655 0
M  V30 8002 C 741.777 0.918528 1.79572 0
M  V30 8003 C 742.09 -0.555922 1.87534 0
M  V30 8004 O 743.296 -0.905893 2.55941 0
M  V30 8005 C 741.752 1.59394 3.22679 0
M  V30 8006 C 741.36 3.1052 3.22927 0
M  V30 8007 C 743.104 1.44289 3.99225 0
M  V30 8008 C 741.011 3.70862 4.60668 0
M  V30 8009 H 739.941 0.340006 0.672987 0
M  V30 8010 H 742.592 1.38079 1.20857 0
M  V30 8011 H 740.974 1.05936 3.81567 0
M  V30 8012 H 742.148 3.70708 2.737 0
M  V30 8013 H 740.463 3.25351 2.59876 0
M  V30 8014 H 743.06 1.86766 5.01022 0
M  V30 8015 H 743.403 0.389975 4.14469 0
M  V30 8016 H 743.936 1.94826 3.46825 0
M  V30 8017 H 740.675 4.7604 4.50628 0
M  V30 8018 H 740.195 3.15456 5.10145 0
M  V30 8019 H 741.874 3.71607 5.29639 0
M  V30 8020 N 742.006 -1.2595 0.947325 0
M  V30 8021 C 743.283 -1.88676 0.515824 0
M  V30 8022 C 743.663 -1.85547 -1.00675 0
M  V30 8023 O 743.011 -1.31399 -1.8694 0
M  V30 8024 C 743.221 -3.31734 1.08415 0
M  V30 8025 C 744.569 -4.08545 1.15654 0
M  V30 8026 O 745.593 -3.40826 1.03517 0
M  V30 8027 O 744.452 -5.29663 1.34608 0
M  V30 8028 H 741.546 -0.809537 0.169055 0
M  V30 8029 H 744.092 -1.34075 1.04029 0
M  V30 8030 H 742.864 -3.28404 2.1276 0
M  V30 8031 H 742.487 -3.93882 0.542499 0
M  V30 8032 N 743.484 -0.715051 -1.40445 0
M  V30 8033 C 744.9 -0.388555 -1.54798 0
M  V30 8034 C 745.1 1.10271 -1.68649 0
M  V30 8035 O 744.156 1.88875 -1.67578 0
M  V30 8036 C 745.469 -1.15414 -2.77669 0
M  V30 8037 C 747.017 -1.14039 -2.91486 0
M  V30 8038 C 747.492 -1.88812 -4.1727 0
M  V30 8039 N 748.983 -1.85878 -4.24268 0
M  V30 8040 C 749.718 -2.40558 -5.20499 0
M  V30 8041 N 749.214 -3.03791 -6.22642 0
M  V30 8042 N 751.007 -2.30703 -5.12574 0
M  V30 8043 H 743.158 -1.68201 -1.297 0
M  V30 8044 H 745.421 -0.710915 -0.627139 0
M  V30 8045 H 745.127 -2.20853 -2.7371 0
M  V30 8046 H 745.001 -0.745412 -3.69761 0
M  V30 8047 H 747.388 -0.0941996 -2.9495 0
M  V30 8048 H 747.469 -1.58834 -2.00513 0
M  V30 8049 H 747.113 -2.93422 -4.14568 0
M  V30 8050 H 747.043 -1.41438 -5.0725 0
M  V30 8051 H 749.534 -1.39794 -3.51093 0
M  V30 8052 H 749.847 -3.43032 -6.92495 0
M  V30 8053 H 748.192 -3.07875 -6.23087 0
M  V30 8054 H 751.383 -1.80961 -4.31707 0
M  V30 8055 H 751.556 -2.73618 -5.87398 0
M  V30 8056 N 744.962 1.50701 -0.461195 0
M  V30 8057 C 745.909 2.2831 0.338094 0
M  V30 8058 C 746.879 1.32928 0.995957 0
M  V30 8059 O 748.064 1.61857 1.0103 0
M  V30 8060 C 745.204 3.14539 1.41983 0
M  V30 8061 C 744.317 4.24942 0.77773 0
M  V30 8062 C 743.452 4.98443 1.83652 0
M  V30 8063 C 742.491 6.00733 1.17413 0
M  V30 8064 N 741.628 6.6755 2.17533 0
M  V30 8065 H 746.468 2.96167 -0.330051 0
M  V30 8066 H 744.005 1.4606 -0.174611 0
M  V30 8067 H 745.963 3.62877 2.05855 0
M  V30 8068 H 744.593 2.48749 2.05727 0
M  V30 8069 H 743.645 3.80391 0.0266924 0
M  V30 8070 H 744.957 4.98151 0.254362 0
M  V30 8071 H 744.111 5.50449 2.55129 0
M  V30 8072 H 742.85 4.24917 2.39367 0
M  V30 8073 H 741.855 5.47997 0.444944 0
M  V30 8074 H 743.08 6.76227 0.624006 0
M  V30 8075 H 741.026 5.96823 2.72284 0
M  V30 8076 H 740.943 7.36603 1.70154 0
M  V30 8077 H 742.211 7.24178 2.88421 0
M  V30 8078 N 746.441 0.193421 1.56409 0
M  V30 8079 C 747.391 -0.74089 2.15627 0
M  V30 8080 C 748.375 -1.17747 1.09656 0
M  V30 8081 O 749.567 -1.13615 1.35723 0
M  V30 8082 C 746.696 -1.96091 2.81786 0
M  V30 8083 C 745.782 -1.54531 3.94944 0
M  V30 8084 N 746.173 -0.840569 4.98767 0
M  V30 8085 C 744.471 -1.83473 4.06514 0
M  V30 8086 C 745.172 -0.632571 5.7825 0
M  V30 8087 N 744.148 -1.18078 5.30621 0
M  V30 8088 H 747.95 -0.193718 2.93261 0
M  V30 8089 H 745.464 -0.00643211 1.62399 0
M  V30 8090 H 747.461 -2.64071 3.22602 0
M  V30 8091 H 746.121 -2.51282 2.05639 0
M  V30 8092 H 747.132 -0.496218 5.15517 0
M  V30 8093 H 743.809 -2.40184 3.41493 0
M  V30 8094 H 745.199 -0.0736433 6.7186 0
M  V30 8095 N 747.919 -1.57396 -0.0801906 0
M  V30 8096 C 749.149 -1.90778 -0.792924 0
M  V30 8097 C 749.557 -0.786814 -1.72064 0
M  V30 8098 O 748.9 0.249259 -1.82001 0
M  V30 8099 C 748.962 -3.19552 -1.64702 0
M  V30 8100 C 748.626 -4.48259 -0.889567 0
M  V30 8101 C 749.623 -5.19465 -0.212602 0
M  V30 8102 C 747.308 -4.94896 -0.859229 0
M  V30 8103 C 749.302 -6.35555 0.484566 0
M  V30 8104 C 746.989 -6.10895 -0.158284 0
M  V30 8105 C 747.987 -6.81075 0.512421 0
M  V30 8106 O 747.675 -7.94862 1.20209 0
M  V30 8107 H 747.407 -0.63527 -0.231103 0
M  V30 8108 H 749.961 -2.0532 -0.0573081 0
M  V30 8109 H 748.191 -3.01196 -2.42524 0
M  V30 8110 H 749.88 -3.38649 -2.23767 0
M  V30 8111 H 750.646 -4.84467 -0.227403 0
M  V30 8112 H 746.525 -4.4015 -1.37073 0
M  V30 8113 H 750.069 -6.9027 1.00864 0
M  V30 8114 H 745.966 -6.45345 -0.141381 0
M  V30 8115 H 746.734 -8.10932 1.11051 0
M  V30 8116 N 749.397 0.351382 -1.53633 0
M  V30 8117 C 750.307 1.45471 -1.84052 0
M  V30 8118 C 751.323 1.57945 -0.730015 0
M  V30 8119 O 752.499 1.73571 -1.02153 0
M  V30 8120 C 749.564 2.80562 -2.03681 0
M  V30 8121 C 748.625 2.77497 -3.27558 0
M  V30 8122 C 747.858 4.06144 -3.46241 0
M  V30 8123 O 748.081 5.03028 -2.68922 0
M  V30 8124 O 747.015 4.11092 -4.39645 0
M  V30 8125 H 750.841 1.22684 -2.77817 0
M  V30 8126 H 748.426 0.542827 -1.3919 0
M  V30 8127 H 750.308 3.6058 -2.18082 0
M  V30 8128 H 748.983 3.03296 -1.13106 0
M  V30 8129 H 747.89 1.96126 -3.18568 0
M  V30 8130 H 749.223 2.59716 -4.18101 0
M  V30 8131 N 750.875 1.45233 0.611969 0
M  V30 8132 C 752.152 1.39495 1.37115 0
M  V30 8133 C 752.532 0.0633303 2.11005 0
M  V30 8134 O 751.88 -0.954617 2.07604 0
M  V30 8135 C 752.09 2.60579 2.32163 0
M  V30 8136 C 753.438 3.05477 2.94905 0
M  V30 8137 O 754.462 2.60921 2.42485 0
M  V30 8138 O 753.321 3.82787 3.90047 0
M  V30 8139 H 750.415 0.55335 0.614599 0
M  V30 8140 H 752.961 1.57355 0.635423 0
M  V30 8141 H 751.733 3.49085 1.76793 0
M  V30 8142 H 751.356 2.45031 3.13122 0
M  V30 8143 N 752.353 -0.854086 1.3245 0
M  V30 8144 C 753.599 -1.61069 1.23225 0
M  V30 8145 C 753.932 -1.93111 -0.205349 0
M  V30 8146 O 753.207 -1.57397 -1.14265 0
M  V30 8147 C 753.49 -2.93065 2.09249 0
M  V30 8148 C 753.343 -2.67801 3.6139 0
M  V30 8149 C 754.662 -3.94341 1.95406 0
M  V30 8150 H 751.781 -0.584449 0.448986 0
M  V30 8151 H 754.423 -0.986189 1.62402 0
M  V30 8152 H 752.573 -3.46364 1.75967 0
M  V30 8153 H 754.245 -2.21052 4.04887 0
M  V30 8154 H 752.488 -2.01756 3.84027 0
M  V30 8155 H 753.159 -3.6179 4.16907 0
M  V30 8156 H 755.635 -3.50301 2.24562 0
M  V30 8157 H 754.511 -4.84555 2.57872 0
M  V30 8158 H 754.772 -4.32382 0.921865 0
M  V30 8159 N 753.831 -1.1567 -1.07043 0
M  V30 8160 C 755.077 -0.9349 -1.79965 0
M  V30 8161 C 755.41 0.536464 -1.86643 0
M  V30 8162 O 754.685 1.39781 -1.35247 0
M  V30 8163 C 754.968 -1.55371 -3.24857 0
M  V30 8164 C 754.821 -3.09589 -3.26305 0
M  V30 8165 C 756.14 -1.24209 -4.22209 0
M  V30 8166 H 753.259 -0.341061 -0.653335 0
M  V30 8167 H 755.901 -1.42883 -1.25237 0
M  V30 8168 H 754.051 -1.13368 -3.71591 0
M  V30 8169 H 755.723 -3.60521 -2.87789 0
M  V30 8170 H 753.966 -3.43315 -2.65174 0
M  V30 8171 H 754.637 -3.48002 -4.28484 0
M  V30 8172 H 757.113 -1.60548 -3.8388 0
M  V30 8173 H 755.989 -1.70119 -5.21872 0
M  V30 8174 H 756.25 -0.15964 -4.41812 0
M  V30 8175 N 755.309 1.25446 -0.953992 0
M  V30 8176 C 756.537 1.97215 -0.625595 0
M  V30 8177 C 756.952 1.70911 0.802168 0
M  V30 8178 O 756.309 0.984782 1.5365 0
M  V30 8179 C 756.36 3.50777 -0.873943 0
M  V30 8180 O 756.081 3.76173 -2.24556 0
M  V30 8181 C 757.582 4.39776 -0.557845 0
M  V30 8182 H 754.802 0.628652 -0.2346 0
M  V30 8183 H 757.346 1.59632 -1.27819 0
M  V30 8184 H 755.501 3.86474 -0.267765 0
M  V30 8185 H 755.915 4.70636 -2.31522 0
M  V30 8186 H 757.389 5.46431 -0.782157 0
M  V30 8187 H 757.866 4.36257 0.507573 0
M  V30 8188 H 758.472 4.09644 -1.14332 0
M  V30 8189 N 756.787 0.722489 1.40064 0
M  V30 8190 C 758.035 0.264455 2.00362 0
M  V30 8191 C 758.356 -1.14847 1.57592 0
M  V30 8192 O 757.626 -1.77982 0.818477 0
M  V30 8193 H 756.206 0.0947846 0.740962 0
M  V30 8194 H 758.868 0.929659 1.71299 0
M  V30 8195 H 757.964 0.302977 3.10626 0
M  V30 8196 N 758.265 -1.50454 0.469181 0
M  V30 8197 C 759.198 -2.25149 -0.371928 0
M  V30 8198 C 760.176 -1.28382 -0.997845 0
M  V30 8199 O 761.36 -1.57599 -1.03415 0
M  V30 8200 C 758.487 -3.02629 -1.52097 0
M  V30 8201 C 757.533 -4.14305 -1.01262 0
M  V30 8202 S 758.366 -5.35453 0.0711459 0
M  V30 8203 C 759.522 -6.1648 -1.08181 0
M  V30 8204 H 759.755 -2.96142 0.262134 0
M  V30 8205 H 757.288 -1.52296 0.254042 0
M  V30 8206 H 759.246 -3.47861 -2.17952 0
M  V30 8207 H 757.907 -2.31165 -2.12654 0
M  V30 8208 H 757.1 -4.67913 -1.87278 0
M  V30 8209 H 756.702 -3.71499 -0.431804 0
M  V30 8210 H 758.994 -6.47497 -1.99382 0
M  V30 8211 H 759.937 -7.05679 -0.585028 0
M  V30 8212 H 760.345 -5.48492 -1.33478 0
M  V30 8213 N 759.743 -0.201713 -1.56304 0
M  V30 8214 C 761.159 0.154025 -1.58855 0
M  V30 8215 C 761.359 1.60516 -1.21807 0
M  V30 8216 O 760.415 2.34193 -0.94393 0
M  V30 8217 C 761.728 -0.154319 -3.00304 0
M  V30 8218 C 763.276 -0.0949578 -3.12856 0
M  V30 8219 C 763.751 -0.376703 -4.56448 0
M  V30 8220 N 765.242 -0.325558 -4.62054 0
M  V30 8221 C 765.977 -0.51732 -5.71062 0
M  V30 8222 N 765.473 -0.769789 -6.8851 0
M  V30 8223 N 767.266 -0.45112 -5.60287 0
M  V30 8224 H 759.417 -1.14858 -1.78666 0
M  V30 8225 H 761.68 -0.458934 -0.829508 0
M  V30 8226 H 761.386 -1.16074 -3.31994 0
M  V30 8227 H 761.26 0.540014 -3.73314 0
M  V30 8228 H 763.647 0.902075 -2.80974 0
M  V30 8229 H 763.728 -0.822468 -2.42217 0
M  V30 8230 H 763.372 -1.37108 -4.89044 0
M  V30 8231 H 763.302 0.371772 -5.25286 0
M  V30 8232 H 765.793 -0.137308 -3.7765 0
M  V30 8233 H 766.106 -0.904744 -7.67486 0
M  V30 8234 H 764.451 -0.806758 -6.90302 0
M  V30 8235 H 767.642 -0.254253 -4.67409 0
M  V30 8236 H 767.815 -0.603982 -6.45179 0
M  V30 8237 N 761.222 1.57436 0.0718424 0
M  V30 8238 C 762.185 2.02703 1.06977 0
M  V30 8239 C 763.185 0.924062 1.31597 0
M  V30 8240 O 764.375 1.18894 1.27318 0
M  V30 8241 C 761.507 2.40763 2.41342 0
M  V30 8242 H 762.7 2.92098 0.679619 0
M  V30 8243 H 760.253 1.5304 0.317565 0
M  V30 8244 H 760.988 1.54394 2.8519 0
M  V30 8245 H 760.773 3.21249 2.24814 0
M  V30 8246 H 762.263 2.76361 3.13073 0
M  V30 8247 N 762.7 -0.34323 1.53817 0
M  V30 8248 C 763.663 -1.40444 1.8113 0
M  V30 8249 C 764.663 -1.45604 0.682366 0
M  V30 8250 O 765.853 -1.45974 0.950649 0
M  V30 8251 C 762.985 -2.79369 1.95361 0
M  V30 8252 H 764.178 -1.17489 2.75928 0
M  V30 8253 H 761.731 -0.577636 1.45234 0
M  V30 8254 H 762.466 -3.07607 1.02707 0
M  V30 8255 H 762.251 -2.7702 2.77493 0
M  V30 8256 H 763.741 -3.56178 2.18008 0
M  V30 8257 N 764.178 -1.45556 -0.604258 0
M  V30 8258 C 765.424 -1.49968 -1.36519 0
M  V30 8259 C 765.757 -0.142236 -1.93678 0
M  V30 8260 O 765.032 0.843717 -1.75247 0
M  V30 8261 C 765.315 -2.58146 -2.51063 0
M  V30 8262 C 765.168 -4.03346 -1.99078 0
M  V30 8263 C 766.487 -2.62581 -3.53184 0
M  V30 8264 H 763.606 -0.545993 -0.495036 0
M  V30 8265 H 766.248 -1.77382 -0.680845 0
M  V30 8266 H 764.398 -2.34901 -3.09441 0
M  V30 8267 H 766.07 -4.37811 -1.45323 0
M  V30 8268 H 764.313 -4.13845 -1.30055 0
M  V30 8269 H 764.984 -4.74731 -2.81664 0
M  V30 8270 H 767.46 -2.83419 -3.04652 0
M  V30 8271 H 766.336 -3.40131 -4.30816 0
M  V30 8272 H 766.597 -1.67798 -4.09019 0
M  V30 8273 N 765.656 0.84705 -1.32902 0
M  V30 8274 C 766.884 1.63403 -1.26913 0
M  V30 8275 C 767.299 1.88108 0.161483 0
M  V30 8276 O 766.656 1.45546 1.10103 0
M  V30 8277 C 766.707 2.98896 -2.03331 0
M  V30 8278 O 766.428 2.75281 -3.40811 0
M  V30 8279 C 767.929 3.93335 -2.04457 0
M  V30 8280 H 765.149 0.508701 -0.437566 0
M  V30 8281 H 767.693 1.05567 -1.75145 0
M  V30 8282 H 765.848 3.53356 -1.58802 0
M  V30 8283 H 766.262 3.61504 -3.8002 0
M  V30 8284 H 767.736 4.85647 -2.62394 0
M  V30 8285 H 768.213 4.26885 -1.03274 0
M  V30 8286 H 768.819 3.44812 -2.48967 0
M  V30 8287 N 767.134 1.16236 1.06428 0
M  V30 8288 C 768.382 0.941171 1.78847 0
M  V30 8289 C 768.703 -0.53248 1.87589 0
M  V30 8290 O 767.973 -1.38686 1.38358 0
M  V30 8291 H 766.553 0.345228 0.66244 0
M  V30 8292 H 769.215 1.46479 1.28569 0
M  V30 8293 H 768.311 1.35871 2.80972 0
M  V30 8294 N 768.612 -1.24939 0.960631 0
M  V30 8295 C 769.86 -1.92437 0.617441 0
M  V30 8296 C 770.181 -1.75543 -0.849101 0
M  V30 8297 O 769.451 -1.12269 -1.60538 0
M  V30 8298 H 768.031 -0.712192 0.225371 0
M  V30 8299 H 770.693 -1.5198 1.22017 0
M  V30 8300 H 769.789 -3.00247 0.851933 0
M  V30 8301 N 770.09 -0.729906 -1.39679 0
M  V30 8302 C 771.318 -0.285709 -2.04918 0
M  V30 8303 C 771.733 1.07765 -1.55023 0
M  V30 8304 O 771.09 1.67999 -0.712923 0
M  V30 8305 C 771.141 -0.272793 -3.60469 0
M  V30 8306 O 770.862 -1.58233 -4.08527 0
M  V30 8307 C 772.363 0.188199 -4.429 0
M  V30 8308 H 769.583 -0.125758 -0.65911 0
M  V30 8309 H 772.127 -0.992129 -1.78821 0
M  V30 8310 H 770.282 0.384699 -3.85485 0
M  V30 8311 H 770.696 -1.49245 -5.02818 0
M  V30 8312 H 772.17 0.14608 -5.51807 0
M  V30 8313 H 772.647 1.2326 -4.21549 0
M  V30 8314 H 773.253 -0.439541 -4.23023 0
M  V30 8315 N 771.568 1.50203 -0.477153 0
M  V30 8316 C 772.808 2.04265 0.0744065 0
M  V30 8317 C 773.172 1.35082 1.36443 0
M  V30 8318 O 774.373 1.79732 1.99875 0
M  V30 8319 C 772.644 3.56539 0.247874 0
M  V30 8320 S 774.203 4.32219 0.757117 0
M  V30 8321 H 771.021 0.71088 0.0130891 0
M  V30 8322 H 773.623 1.8453 -0.645678 0
M  V30 8323 H 772.327 4.04443 -0.696709 0
M  V30 8324 H 771.858 3.80638 0.993896 0
M  V30 8325 H 773.873 4.52789 2.0297 0
M  V30 8326 N 773.046 0.209999 1.56195 0
M  V30 8327 C 774.462 -0.145598 1.58934 0
M  V30 8328 C 774.662 -1.59868 1.22656 0
M  V30 8329 O 773.718 -2.33689 0.956336 0
M  V30 8330 C 775.031 0.170243 3.00218 0
M  V30 8331 C 776.579 0.111548 3.12801 0
M  V30 8332 C 777.054 0.400904 4.56242 0
M  V30 8333 N 778.545 0.350058 4.61875 0
M  V30 8334 C 779.28 0.547598 5.70779 0
M  V30 8335 N 778.776 0.806291 6.88092 0
M  V30 8336 N 780.569 0.480827 5.6004 0
M  V30 8337 H 772.72 1.15804 1.78054 0
M  V30 8338 H 774.983 0.463326 0.827063 0
M  V30 8339 H 774.689 1.17833 3.31373 0
M  V30 8340 H 774.563 -0.520208 3.73596 0
M  V30 8341 H 776.95 -0.887162 2.81449 0
M  V30 8342 H 777.031 0.835302 2.41777 0
M  V30 8343 H 776.675 1.397 4.8831 0
M  V30 8344 H 776.605 -0.34391 5.25476 0
M  V30 8345 H 779.096 0.157334 3.77572 0
M  V30 8346 H 779.409 0.945433 7.66995 0
M  V30 8347 H 777.754 0.843355 6.89864 0
M  V30 8348 H 780.945 0.279037 4.67268 0
M  V30 8349 H 781.118 0.638189 6.4485 0
M  V30 8350 N 774.524 -1.57472 -0.0634922 0
M  V30 8351 C 775.77 -1.87932 -0.762194 0
M  V30 8352 C 776.103 -0.803377 -1.76804 0
M  V30 8353 O 775.378 0.185468 -1.93614 0
M  V30 8354 C 775.661 -3.29053 -1.46275 0
M  V30 8355 C 775.514 -4.47309 -0.472755 0
M  V30 8356 C 776.833 -3.68537 -2.40558 0
M  V30 8357 H 773.952 -0.683521 -0.275624 0
M  V30 8358 H 776.594 -1.89983 -0.0252651 0
M  V30 8359 H 774.744 -3.27435 -2.0909 0
M  V30 8360 H 776.416 -4.61053 0.150828 0
M  V30 8361 H 774.659 -4.33286 0.211187 0
M  V30 8362 H 775.33 -5.42853 -1.00072 0
M  V30 8363 H 777.806 -3.71302 -1.87814 0
M  V30 8364 H 776.682 -4.68152 -2.86574 0
M  V30 8365 H 776.943 -2.98917 -3.25731 0
M  V30 8366 N 776.003 0.335068 -1.53997 0
M  V30 8367 C 776.966 1.39481 -1.81872 0
M  V30 8368 C 777.966 1.4524 -0.690078 0
M  V30 8369 O 779.156 1.45467 -0.958377 0
M  V30 8370 C 776.288 2.78329 -1.9684 0
M  V30 8371 H 777.481 1.16024 -2.76547 0
M  V30 8372 H 775.034 0.569926 -1.45539 0
M  V30 8373 H 775.769 3.07058 -1.04337 0
M  V30 8374 H 775.554 2.75544 -2.78958 0
M  V30 8375 H 777.044 3.55016 -2.19894 0
M  V30 8376 N 777.481 1.45874 0.596531 0
M  V30 8377 C 778.729 1.5017 1.35253 0
M  V30 8378 C 779.05 0.149246 1.94428 0
M  V30 8379 O 778.32 -0.82268 1.77789 0
M  V30 8380 H 776.9 0.553052 0.502138 0
M  V30 8381 H 779.562 1.81908 0.699671 0
M  V30 8382 H 778.658 2.24671 2.16632 0
M  V30 8383 N 778.959 -0.83999 1.33349 0
M  V30 8384 C 779.922 -1.93128 1.23426 0
M  V30 8385 C 780.922 -1.60065 0.153599 0
M  V30 8386 O 782.112 -1.69425 0.405049 0
M  V30 8387 C 779.244 -3.28761 0.901622 0
M  V30 8388 H 780.437 -2.03352 2.20427 0
M  V30 8389 H 777.99 -1.03194 1.17391 0
M  V30 8390 H 778.725 -3.24233 -0.0659337 0
M  V30 8391 H 778.51 -3.54138 1.68311 0
M  V30 8392 H 780 -4.08714 0.856913 0
M  V30 8393 N 780.437 -1.16799 -1.0581 0
M  V30 8394 C 781.686 -0.94698 -1.78088 0
M  V30 8395 C 781.999 0.526016 -1.88394 0
M  V30 8396 O 783.205 0.865061 -2.5735 0
M  V30 8397 C 781.661 -1.64508 -3.20102 0
M  V30 8398 C 781.269 -3.15618 -3.17946 0
M  V30 8399 C 783.013 -1.50622 -3.96879 0
M  V30 8400 C 780.92 -3.78144 -4.5471 0
M  V30 8401 H 779.85 -0.35067 -0.667493 0
M  V30 8402 H 782.501 -1.39985 -1.18645 0
M  V30 8403 H 780.883 -1.11993 -3.79834 0
M  V30 8404 H 782.057 -3.75016 -2.67768 0
M  V30 8405 H 780.372 -3.29444 -2.54667 0
M  V30 8406 H 782.969 -1.94713 -4.97987 0
M  V30 8407 H 783.312 -0.455864 -4.13797 0
M  V30 8408 H 783.845 -2.00319 -3.43682 0
M  V30 8409 H 780.584 -4.83149 -4.42998 0
M  V30 8410 H 780.104 -3.23532 -5.05062 0
M  V30 8411 H 781.783 -3.79986 -5.2366 0
M  V30 8412 N 781.915 1.24427 -0.967243 0
M  V30 8413 C 782.845 2.2773 -0.515899 0
M  V30 8414 C 783.826 1.64197 0.444227 0
M  V30 8415 O 785.011 1.91193 0.340451 0
M  V30 8416 C 782.141 3.46751 0.195149 0
M  V30 8417 C 781.095 4.22548 -0.680953 0
M  V30 8418 C 780.421 5.34456 0.161561 0
M  V30 8419 C 781.721 4.83914 -1.96532 0
M  V30 8420 H 783.415 2.65735 -1.37933 0
M  V30 8421 H 780.961 1.27742 -0.664681 0
M  V30 8422 H 782.914 4.18153 0.522117 0
M  V30 8423 H 781.638 3.07771 1.09292 0
M  V30 8424 H 780.297 3.52946 -0.991186 0
M  V30 8425 H 779.945 4.91716 1.05947 0
M  V30 8426 H 779.645 5.86087 -0.421418 0
M  V30 8427 H 781.169 6.08685 0.483211 0
M  V30 8428 H 782.583 5.47392 -1.70396 0
M  V30 8429 H 780.98 5.45775 -2.49499 0
M  V30 8430 H 782.05 4.05393 -2.66053 0
M  V30 8431 N 783.393 0.737304 1.3929 0
M  V30 8432 C 784.804 0.355966 1.83275 0
M  V30 8433 C 785.155 -1.11295 1.6158 0
M  V30 8434 O 784.28 -1.85871 1.10819 0
M  V30 8435 C 784.875 0.63931 3.32713 0
M  V30 8436 C 783.434 0.31144 3.75109 0
M  V30 8437 C 782.581 0.900765 2.62262 0
M  V30 8438 H 785.532 0.934763 1.28249 0
M  V30 8439 H 785.553 -0.0881293 3.80398 0
M  V30 8440 H 785.065 1.70847 3.48472 0
M  V30 8441 H 783.166 -0.751791 3.64937 0
M  V30 8442 H 783.279 0.795611 4.72448 0
M  V30 8443 H 781.643 0.327239 2.52589 0
M  V30 8444 H 782.426 1.97463 2.80826 0
M  V30 8445 N 784.871 -1.49948 0.485112 0
M  V30 8446 C 786.148 -1.95186 -0.12726 0
M  V30 8447 C 786.528 -1.42605 -1.5565 0
M  V30 8448 O 785.876 -0.632986 -2.19558 0
M  V30 8449 C 786.086 -3.48955 -0.0562117 0
M  V30 8450 C 787.434 -4.23932 -0.238106 0
M  V30 8451 O 788.458 -3.55955 -0.132145 0
M  V30 8452 O 787.317 -5.44614 -0.453658 0
M  V30 8453 H 784.411 -0.820433 -0.104014 0
M  V30 8454 H 786.957 -1.60659 0.546517 0
M  V30 8455 H 785.729 -3.79814 0.941122 0
M  V30 8456 H 785.352 -3.90056 -0.770834 0
M  V30 8457 N 786.349 -0.21828 -1.56081 0
M  V30 8458 C 787.595 0.414921 -1.9851 0
M  V30 8459 C 787.928 1.59648 -1.10573 0
M  V30 8460 O 787.203 1.93818 -0.162695 0
M  V30 8461 C 787.486 0.852647 -3.4986 0
M  V30 8462 C 787.339 -0.33232 -4.48571 0
M  V30 8463 C 788.658 1.70998 -4.05521 0
M  V30 8464 H 785.777 0.149344 -0.72171 0
M  V30 8465 H 788.419 -0.313858 -1.8739 0
M  V30 8466 H 786.569 1.47362 -3.59467 0
M  V30 8467 H 788.241 -0.970418 -4.50977 0
M  V30 8468 H 786.484 -0.980302 -4.22578 0
M  V30 8469 H 787.155 0.0168407 -5.51997 0
M  V30 8470 H 789.631 1.18606 -3.98838 0
M  V30 8471 H 788.507 1.98517 -5.11744 0
M  V30 8472 H 788.768 2.67219 -3.52202 0
M  V30 8473 N 787.827 1.57504 0.0551401 0
M  V30 8474 C 788.737 2.08198 1.08124 0
M  V30 8475 C 789.753 1.01496 1.41331 0
M  V30 8476 O 790.929 1.33073 1.51174 0
M  V30 8477 C 787.994 2.52968 2.37083 0
M  V30 8478 C 787.055 3.7404 2.10696 0
M  V30 8479 C 786.288 4.16665 3.33505 0
M  V30 8480 O 786.511 3.59019 4.4324 0
M  V30 8481 O 785.445 5.09324 3.20737 0
M  V30 8482 H 789.271 2.95977 0.680518 0
M  V30 8483 H 786.856 1.46933 0.270401 0
M  V30 8484 H 788.738 2.82211 3.12946 0
M  V30 8485 H 787.413 1.6831 2.76502 0
M  V30 8486 H 786.32 3.49855 1.32484 0
M  V30 8487 H 787.653 4.59601 1.76148 0
M  V30 8488 N 789.305 -0.326896 1.54172 0
M  V30 8489 C 790.551 -1.06681 1.72473 0
M  V30 8490 C 790.884 -1.87779 0.49523 0
M  V30 8491 O 790.159 -1.87754 -0.507803 0
M  V30 8492 C 790.442 -1.99429 2.99834 0
M  V30 8493 C 790.295 -1.21682 4.33028 0
M  V30 8494 C 791.614 -2.99002 3.22933 0
M  V30 8495 H 788.733 -0.386438 0.627563 0
M  V30 8496 H 791.375 -0.343779 1.86864 0
M  V30 8497 H 789.525 -2.61081 2.87696 0
M  V30 8498 H 791.197 -0.625153 4.57044 0
M  V30 8499 H 789.44 -0.519045 4.30684 0
M  V30 8500 H 790.111 -1.89766 5.18356 0
M  V30 8501 H 792.587 -2.4747 3.34511 0
M  V30 8502 H 791.463 -3.61085 4.13412 0
M  V30 8503 H 791.724 -3.71281 2.40006 0
M  V30 8504 N 790.784 -1.46188 -0.588786 0
M  V30 8505 C 792.024 -1.52738 -1.35833 0
M  V30 8506 C 792.388 -0.172403 -1.91224 0
M  V30 8507 O 793.589 -0.112633 -2.68564 0
M  V30 8508 C 791.86 -2.59085 -2.4619 0
M  V30 8509 S 793.419 -2.84997 -3.3365 0
M  V30 8510 H 790.237 -0.539713 -0.462851 0
M  V30 8511 H 792.839 -1.83386 -0.677489 0
M  V30 8512 H 791.543 -3.56177 -2.03878 0
M  V30 8513 H 791.074 -2.3015 -3.19053 0
M  V30 8514 H 793.089 -2.19804 -4.4486 0
M  V30 8515 N 792.262 0.832906 -1.33792 0
M  V30 8516 C 793.51 1.58539 -1.25338 0
M  V30 8517 C 793.831 1.94175 0.179204 0
M  V30 8518 O 793.101 1.61458 1.10941 0
M  V30 8519 H 791.681 0.58784 -0.460926 0
M  V30 8520 H 794.343 0.995064 -1.67584 0
M  V30 8521 H 793.439 2.51268 -1.85123 0
M  V30 8522 N 793.74 1.17359 1.05189 0
M  V30 8523 C 794.687 0.890325 2.12936 0
M  V30 8524 C 795.657 -0.165779 1.65271 0
M  V30 8525 O 796.842 -0.0285672 1.90779 0
M  V30 8526 C 793.982 0.409793 3.42658 0
M  V30 8527 C 793.095 1.53002 4.03998 0
M  V30 8528 C 792.23 1.00336 5.21638 0
M  V30 8529 C 791.269 2.09903 5.74984 0
M  V30 8530 N 790.406 1.58714 6.83926 0
M  V30 8531 H 795.246 1.81299 2.36505 0
M  V30 8532 H 792.783 0.904249 1.16025 0
M  V30 8533 H 794.741 0.112743 4.17048 0
M  V30 8534 H 793.371 -0.475915 3.19272 0
M  V30 8535 H 792.423 1.9428 3.27047 0
M  V30 8536 H 793.735 2.3564 4.39631 0
M  V30 8537 H 792.889 0.660158 6.03098 0
M  V30 8538 H 791.628 0.14642 4.8748 0
M  V30 8539 H 790.633 2.45081 4.92154 0
M  V30 8540 H 791.858 2.96013 6.1119 0
M  V30 8541 H 789.804 0.752915 6.51665 0
M  V30 8542 H 789.721 2.34959 7.18561 0
M  V30 8543 H 790.989 1.27287 7.69037 0
M  V30 8544 N 795.218 -1.23913 0.973828 0
M  V30 8545 C 796.446 -1.96195 0.656891 0
M  V30 8546 C 796.861 -1.72166 -0.774876 0
M  V30 8547 O 796.218 -1.0091 -1.52064 0
M  V30 8548 C 796.269 -3.49342 0.929638 0
M  V30 8549 O 795.99 -3.72553 2.30512 0
M  V30 8550 C 797.491 -4.38833 0.627739 0
M  V30 8551 H 794.711 -0.624841 0.244572 0
M  V30 8552 H 797.255 -1.57579 1.30343 0
M  V30 8553 H 795.41 -3.85999 0.329216 0
M  V30 8554 H 795.824 -4.66893 2.3898 0
M  V30 8555 H 797.298 -5.45117 0.868991 0
M  V30 8556 H 797.775 -4.37009 -0.438104 0
M  V30 8557 H 798.381 -4.07773 1.20834 0
M  V30 8558 N 796.696 -0.74468 -1.38897 0
M  V30 8559 C 797.944 -0.296298 -1.99916 0
M  V30 8560 C 798.265 1.12325 -1.59399 0
M  V30 8561 O 797.535 1.76658 -0.846689 0
M  V30 8562 H 796.115 -0.106561 -0.73936 0
M  V30 8563 H 798.777 -0.956793 -1.69798 0
M  V30 8564 H 797.873 -0.352356 -3.10105 0
M  V30 8565 N 798.174 1.49689 -0.493057 0
M  V30 8566 C 799.402 2.06836 0.0513141 0
M  V30 8567 C 799.817 1.35436 1.31539 0
M  V30 8568 O 799.174 0.430248 1.77356 0
M  V30 8569 C 799.225 3.60107 0.317003 0
M  V30 8570 O 798.946 4.2882 -0.896957 0
M  V30 8571 C 800.447 4.33945 0.905902 0
M  V30 8572 H 797.667 0.670787 -0.0169048 0
M  V30 8573 H 800.211 1.92574 -0.688139 0
M  V30 8574 H 798.366 3.74099 1.00642 0
M  V30 8575 H 798.78 5.20395 -0.654939 0
M  V30 8576 H 800.254 5.42087 1.04144 0
M  V30 8577 H 800.731 3.95895 1.90168 0
M  V30 8578 H 801.337 4.2454 0.254195 0
M  V30 8579 N 799.652 0.226554 1.55963 0
M  V30 8580 C 800.615 -0.668015 2.19249 0
M  V30 8581 C 801.615 -1.11794 1.1558 0
M  V30 8582 O 802.805 -1.02593 1.40784 0
M  V30 8583 C 799.937 -1.91571 2.81981 0
M  V30 8584 H 801.13 -0.116175 2.99675 0
M  V30 8585 H 798.683 -0.0230497 1.56283 0
M  V30 8586 H 799.418 -2.50929 2.05439 0
M  V30 8587 H 799.203 -1.6015 3.57903 0
M  V30 8588 H 800.693 -2.55294 3.30477 0
M  V30 8589 N 801.13 -1.57531 -0.0467866 0
M  V30 8590 C 802.062 -2.02156 -1.08007 0
M  V30 8591 C 803.075 -0.931434 -1.33522 0
M  V30 8592 O 804.264 -1.209 -1.31321 0
M  V30 8593 C 801.364 -2.36675 -2.42566 0
M  V30 8594 C 800.537 -3.67848 -2.36658 0
M  V30 8595 C 799.596 -3.89754 -3.53523 0
M  V30 8596 O 798.622 -4.61036 -3.33818 0
M  V30 8597 N 799.824 -3.34025 -4.74771 0
M  V30 8598 H 802.589 -2.91414 -0.699845 0
M  V30 8599 H 800.15 -1.60185 -0.235041 0
M  V30 8600 H 802.142 -2.48482 -3.19435 0
M  V30 8601 H 800.712 -1.53178 -2.72498 0
M  V30 8602 H 799.932 -3.66561 -1.45005 0
M  V30 8603 H 801.22 -4.53931 -2.29835 0
M  V30 8604 H 800.618 -2.76214 -4.93683 0
M  V30 8605 H 799.175 -3.51241 -5.49066 0
M  V30 8606 N 802.608 0.318715 -1.54344 0
M  V30 8607 C 803.556 1.41254 -1.84798 0
M  V30 8608 C 804.55 1.53325 -0.720256 0
M  V30 8609 O 805.756 1.55653 -0.903992 0
M  V30 8610 H 802.131 0.471468 -0.585851 0
M  V30 8611 H 804.102 1.12795 -2.7626 0
M  V30 8612 C 802.851 2.77395 -2.09637 0
M  V30 8613 H 802.174 2.68881 -2.95876 0
M  V30 8614 H 803.614 3.52987 -2.34896 0
M  V30 8615 C 802.073 3.24948 -0.889398 0
M  V30 8616 O 802.603 4.01573 -0.101063 0
M  V30 8617 N 800.809 2.82051 -0.699684 0
M  V30 8618 H 800.356 2.19858 -1.3424 0
M  V30 8619 H 800.314 3.1422 0.106368 0
M  V30 8620 N 804.086 1.46499 0.581025 0
M  V30 8621 C 805.502 1.31491 0.904563 0
M  V30 8622 C 805.702 0.287598 1.99437 0
M  V30 8623 O 804.758 -0.309247 2.50599 0
M  V30 8624 C 806.071 2.70163 1.32032 0
M  V30 8625 C 807.619 2.78266 1.43308 0
M  V30 8626 C 808.094 4.17524 1.8825 0
M  V30 8627 N 809.585 4.19949 1.9544 0
M  V30 8628 C 810.32 5.24594 2.31493 0
M  V30 8629 N 809.816 6.39564 2.66326 0
M  V30 8630 N 811.609 5.11961 2.32062 0
M  V30 8631 H 803.76 2.11946 -0.138856 0
M  V30 8632 H 806.023 0.948 0.000548528 0
M  V30 8633 H 805.729 3.46655 0.593554 0
M  V30 8634 H 805.603 3.00379 2.2815 0
M  V30 8635 H 807.99 2.02061 2.15071 0
M  V30 8636 H 808.071 2.51732 0.45438 0
M  V30 8637 H 807.715 4.94225 1.17065 0
M  V30 8638 H 807.645 4.41466 2.87081 0
M  V30 8639 H 810.136 3.36996 1.71004 0
M  V30 8640 H 810.449 7.15187 2.92793 0
M  V30 8641 H 808.794 6.42923 2.6396 0
M  V30 8642 H 811.985 4.21177 2.04272 0
M  V30 8643 H 812.158 5.93626 2.5983 0
M  V30 8644 N 805.565 -0.825799 1.34232 0
M  V30 8645 C 806.813 -1.57873 1.26177 0
M  V30 8646 C 807.134 -1.94267 -0.168904 0
M  V30 8647 O 806.404 -1.62045 -1.10084 0
M  V30 8648 H 804.984 -0.585388 0.464037 0
M  V30 8649 H 807.646 -0.986163 1.6811 0
M  V30 8650 H 806.742 -2.50283 1.86453 0
M  V30 8651 N 807.043 -1.17915 -1.04565 0
M  V30 8652 C 807.993 -0.869634 -2.10764 0
M  V30 8653 C 808.977 0.158502 -1.60117 0
M  V30 8654 O 810.169 -0.04483 -1.76943 0
M  V30 8655 C 807.298 -0.391642 -3.41059 0
M  V30 8656 C 806.384 -1.45156 -3.98485 0
M  V30 8657 N 806.775 -2.6667 -4.29792 0
M  V30 8658 C 805.073 -1.3109 -4.263 0
M  V30 8659 C 805.774 -3.34823 -4.75677 0
M  V30 8660 N 804.75 -2.62203 -4.76183 0
M  V30 8661 H 808.552 -1.79342 -2.32838 0
M  V30 8662 H 806.066 -1.0688 -1.22272 0
M  V30 8663 H 808.063 -0.151428 -4.16625 0
M  V30 8664 H 806.723 0.525862 -3.20413 0
M  V30 8665 H 807.734 -3.0358 -4.19594 0
M  V30 8666 H 804.411 -0.455545 -4.15007 0
M  V30 8667 H 805.801 -4.38645 -5.0896 0
M  V30 8668 N 808.521 1.23394 -0.980386 0
M  V30 8669 C 809.798 1.87242 -0.565667 0
M  V30 8670 C 810.178 1.88151 0.957197 0
M  V30 8671 O 809.526 1.36309 1.8339 0
M  V30 8672 C 809.736 3.28743 -1.17172 0
M  V30 8673 C 811.084 4.05335 -1.26446 0
M  V30 8674 O 812.108 3.37962 -1.12517 0
M  V30 8675 O 810.967 5.25908 -1.48604 0
M  V30 8676 H 808.061 0.80477 -0.190459 0
M  V30 8677 H 810.607 1.3127 -1.07547 0
M  V30 8678 H 809.379 3.22647 -2.21392 0
M  V30 8679 H 809.002 3.92305 -0.646739 0
M  V30 8680 N 809.999 0.752036 1.385 0
M  V30 8681 C 810.949 0.0990189 2.27785 0
M  V30 8682 C 811.933 -0.694867 1.45122 0
M  V30 8683 O 813.125 -0.561077 1.67872 0
M  V30 8684 C 810.254 -0.794531 3.33979 0
M  V30 8685 C 809.34 0.00611984 4.241 0
M  V30 8686 N 809.731 1.04174 4.94956 0
M  V30 8687 C 808.029 -0.220934 4.45452 0
M  V30 8688 C 808.73 1.52601 5.61327 0
M  V30 8689 N 807.706 0.84159 5.37046 0
M  V30 8690 H 811.508 0.892208 2.8003 0
M  V30 8691 H 809.022 0.587934 1.51384 0
M  V30 8692 H 811.019 -1.27797 3.96829 0
M  V30 8693 H 809.679 -1.58669 2.83292 0
M  V30 8694 H 810.69 1.42349 4.97953 0
M  V30 8695 H 807.367 -0.986556 4.05676 0
M  V30 8696 H 808.757 2.38857 6.2801 0
M  V30 8697 N 811.477 -1.49425 0.500989 0
M  V30 8698 C 812.702 -2.07356 -0.0425154 0
M  V30 8699 C 813.127 -1.35887 -1.30063 0
M  V30 8700 O 812.485 -0.41561 -1.76472 0
M  V30 8701 C 812.533 -3.59518 -0.279188 0
M  V30 8702 O 811.637 -3.89542 -1.3539 0
M  V30 8703 H 810.978 -0.663482 0.0262207 0
M  V30 8704 H 813.508 -1.92231 0.700607 0
M  V30 8705 H 813.518 -4.04791 -0.5107 0
M  V30 8706 H 812.193 -4.10946 0.640009 0
M  V30 8707 H 810.77 -3.56079 -1.10734 0
M  V30 8708 N 812.955 -0.234822 -1.55841 0
M  V30 8709 C 814.201 0.393843 -1.98939 0
M  V30 8710 C 814.534 1.58466 -1.1226 0
M  V30 8711 O 813.809 1.93635 -0.183242 0
M  V30 8712 C 814.092 0.815492 -3.50745 0
M  V30 8713 C 813.945 -0.379878 -4.48193 0
M  V30 8714 C 815.264 1.66687 -4.07312 0
M  V30 8715 H 812.383 0.141681 -0.723253 0
M  V30 8716 H 815.025 -0.333716 -1.87046 0
M  V30 8717 H 813.175 1.43541 -3.6101 0
M  V30 8718 H 814.847 -1.0182 -4.49923 0
M  V30 8719 H 813.09 -1.02507 -4.21515 0
M  V30 8720 H 813.761 -0.0417069 -5.51984 0
M  V30 8721 H 816.237 1.14369 -4.00074 0
M  V30 8722 H 815.113 1.93078 -5.13821 0
M  V30 8723 H 815.374 2.63468 -3.55017 0
M  V30 8724 N 814.433 1.57553 0.0384317 0
M  V30 8725 C 815.68 1.88841 0.731116 0
M  V30 8726 C 816.008 0.83093 1.75857 0
M  V30 8727 O 815.263 -0.169248 1.94967 0
M  V30 8728 C 815.562 3.26862 1.44554 0
M  V30 8729 C 815.228 4.47472 0.554946 0
M  V30 8730 C 813.89 4.80203 0.309621 0
M  V30 8731 C 816.242 5.21165 -0.0605204 0
M  V30 8732 C 813.57 5.8402 -0.560101 0
M  V30 8733 C 815.922 6.25905 -0.91789 0
M  V30 8734 C 814.586 6.57117 -1.17277 0
M  V30 8735 H 813.856 0.691018 0.267534 0
M  V30 8736 H 816.503 1.91498 -0.00883195 0
M  V30 8737 H 814.808 3.2015 2.25856 0
M  V30 8738 H 816.505 3.48316 1.98688 0
M  V30 8739 H 813.095 4.21874 0.756304 0
M  V30 8740 H 817.279 4.96164 0.116064 0
M  V30 8741 H 812.535 6.06583 -0.765974 0
M  V30 8742 H 816.709 6.82155 -1.40136 0
M  V30 8743 H 814.336 7.37385 -1.84843 0
M  V30 8744 N 815.911 -0.310526 1.54511 0
M  V30 8745 C 816.844 -1.40693 1.79668 0
M  V30 8746 C 817.822 -1.49159 0.64734 0
M  V30 8747 O 819.006 -1.66367 0.886239 0
M  V30 8748 C 816.133 -2.78685 1.92491 0
M  V30 8749 C 815.179 -2.87688 3.14861 0
M  V30 8750 S 816.012 -2.50759 4.7316 0
M  V30 8751 C 817.168 -3.90797 4.88906 0
M  V30 8752 H 817.401 -1.19142 2.72383 0
M  V30 8753 H 814.934 -0.508103 1.458 0
M  V30 8754 H 816.892 -3.58168 2.00563 0
M  V30 8755 H 815.553 -2.9751 1.00731 0
M  V30 8756 H 814.746 -3.8888 3.20607 0
M  V30 8757 H 814.348 -2.16189 3.05186 0
M  V30 8758 H 816.64 -4.85693 4.72344 0
M  V30 8759 H 817.583 -3.90027 5.91003 0
M  V30 8760 H 817.991 -3.80357 4.1712 0
M  V30 8761 N 817.389 -1.46805 -0.573248 0
M  V30 8762 C 818.637 -1.52302 -1.32847 0
M  V30 8763 C 818.958 -0.180159 -1.94166 0
M  V30 8764 O 818.228 0.794291 -1.79075 0
M  V30 8765 H 816.808 -0.56097 -0.493276 0
M  V30 8766 H 819.47 -1.82998 -0.670642 0
M  V30 8767 H 818.566 -2.28089 -2.13031 0
M  V30 8768 N 818.867 0.818669 -1.34668 0
M  V30 8769 C 820.114 1.57512 -1.27264 0
M  V30 8770 C 820.442 1.93871 0.156254 0
M  V30 8771 O 819.697 1.60582 1.11857 0
M  V30 8772 C 819.996 2.88245 -2.11304 0
M  V30 8773 C 819.662 2.71159 -3.60255 0
M  V30 8774 C 818.324 2.66207 -4.00858 0
M  V30 8775 C 820.676 2.54538 -4.54819 0
M  V30 8776 C 818.004 2.4256 -5.34211 0
M  V30 8777 C 820.356 2.32421 -5.88356 0
M  V30 8778 C 819.02 2.25884 -6.28118 0
M  V30 8779 H 818.29 0.576378 -0.465692 0
M  V30 8780 H 820.937 0.9469 -1.66451 0
M  V30 8781 H 819.242 3.55381 -1.64958 0
M  V30 8782 H 820.939 3.45869 -2.02919 0
M  V30 8783 H 817.529 2.75856 -3.28027 0
M  V30 8784 H 821.713 2.57384 -4.24343 0
M  V30 8785 H 816.969 2.35959 -5.64033 0
M  V30 8786 H 821.143 2.18548 -6.61218 0
M  V30 8787 H 818.77 2.07322 -7.31383 0
M  V30 8788 N 820.346 1.18468 1.03938 0
M  V30 8789 C 821.309 0.914944 2.10146 0
M  V30 8790 C 822.309 -0.10022 1.60487 0
M  V30 8791 O 823.499 0.133365 1.73689 0
M  V30 8792 C 820.631 0.372993 3.38853 0
M  V30 8793 H 821.824 1.85677 2.35508 0
M  V30 8794 H 819.377 0.996876 1.20383 0
M  V30 8795 H 820.112 -0.57538 3.19155 0
M  V30 8796 H 819.897 1.1048 3.76213 0
M  V30 8797 H 821.387 0.203014 4.17106 0
M  V30 8798 N 821.824 -1.22873 0.986916 0
M  V30 8799 C 823.235 -1.73264 0.695438 0
M  V30 8800 C 823.586 -1.79679 -0.788023 0
M  V30 8801 O 822.711 -1.43905 -1.61618 0
M  V30 8802 C 823.306 -3.14671 1.2557 0
M  V30 8803 C 821.865 -3.62492 1.01373 0
M  V30 8804 C 821.012 -2.40551 1.37951 0
M  V30 8805 H 823.963 -1.08304 1.15999 0
M  V30 8806 H 823.984 -3.75226 0.631322 0
M  V30 8807 H 823.496 -3.0997 2.33539 0
M  V30 8808 H 821.597 -3.72567 -0.0495917 0
M  V30 8809 H 821.71 -4.48944 1.67289 0
M  V30 8810 H 820.074 -2.41875 0.798033 0
M  V30 8811 H 820.857 -2.38516 2.46911 0
M  V30 8812 N 823.302 -0.75937 -1.38099 0
M  V30 8813 C 824.235 -0.0838362 -2.28046 0
M  V30 8814 C 825.213 0.722229 -1.4568 0
M  V30 8815 O 826.397 0.699629 -1.75036 0
M  V30 8816 C 823.524 0.887916 -3.26854 0
M  V30 8817 C 822.57 0.167374 -4.26171 0
M  V30 8818 S 823.403 -1.13592 -5.23314 0
M  V30 8819 C 824.559 -0.167385 -6.25676 0
M  V30 8820 H 824.792 -0.846564 -2.84992 0
M  V30 8821 H 822.325 -0.552206 -1.44188 0
M  V30 8822 H 824.283 1.44322 -3.84293 0
M  V30 8823 H 822.944 1.62366 -2.68879 0
M  V30 8824 H 822.137 0.903567 -4.95834 0
M  V30 8825 H 821.739 -0.316572 -3.72658 0
M  V30 8826 H 824.031 0.664598 -6.74232 0
M  V30 8827 H 824.974 -0.831836 -7.03197 0
M  V30 8828 H 825.382 0.21589 -5.64087 0
M  V30 8829 N 824.78 1.49157 -0.508906 0
M  V30 8830 C 825.728 2.30922 0.278906 0
M  V30 8831 C 826.722 1.39889 0.955382 0
M  V30 8832 O 827.928 1.56901 0.882169 0
M  V30 8833 H 824.303 0.744087 0.108805 0
M  V30 8834 H 826.274 2.95277 -0.430583 0
M  V30 8835 C 825.023 3.21432 1.32576 0
M  V30 8836 H 824.346 3.91413 0.814634 0
M  V30 8837 H 825.786 3.81568 1.84882 0
M  V30 8838 C 824.245 2.41583 2.34817 0
M  V30 8839 O 824.775 2.1256 3.40854 0
M  V30 8840 N 822.981 2.03462 2.07489 0
M  V30 8841 H 822.528 2.27265 1.21278 0
M  V30 8842 H 822.486 1.50345 2.76123 0
M  V30 8843 N 826.258 0.243083 1.55714 0
M  V30 8844 C 827.206 -0.674349 2.2261 0
M  V30 8845 C 828.2 -1.18307 1.21243 0
M  V30 8846 O 829.406 -1.1404 1.39265 0
M  V30 8847 H 825.781 -0.235941 0.714028 0
M  V30 8848 H 827.752 -0.0869446 2.98273 0
M  V30 8849 C 826.501 -1.86206 2.93637 0
M  V30 8850 H 825.824 -1.47975 3.71407 0
M  V30 8851 H 827.264 -2.4813 3.43813 0
M  V30 8852 C 825.723 -2.73084 1.97298 0
M  V30 8853 O 826.253 -3.72497 1.50361 0
M  V30 8854 N 824.459 -2.39571 1.64482 0
M  V30 8855 H 824.006 -1.5878 2.02846 0
M  V30 8856 H 823.964 -2.97976 1.00288 0
M  V30 8857 N 827.736 -1.57571 -0.0300757 0
M  V30 8858 C 829.147 -1.77567 -0.576802 0
M  V30 8859 C 829.498 -0.874034 -1.75656 0
M  V30 8860 O 828.623 -0.0686124 -2.16291 0
M  V30 8861 C 829.218 -3.22016 -1.05315 0
M  V30 8862 C 827.777 -3.43212 -1.5454 0
M  V30 8863 C 826.924 -2.73061 -0.483033 0
M  V30 8864 H 829.875 -1.57483 0.196151 0
M  V30 8865 H 829.896 -3.28474 -1.92055 0
M  V30 8866 H 829.408 -3.87613 -0.194298 0
M  V30 8867 H 827.509 -2.82788 -2.42615 0
M  V30 8868 H 827.622 -4.5182 -1.5936 0
M  V30 8869 H 825.986 -2.36805 -0.937835 0
M  V30 8870 H 826.769 -3.4134 0.366341 0
M  V30 8871 N 829.214 0.302327 -1.54673 0
M  V30 8872 C 830.161 1.37282 -1.85532 0
M  V30 8873 C 831.131 1.50437 -0.704129 0
M  V30 8874 O 832.316 1.65317 -0.952627 0
M  V30 8875 C 829.456 2.73309 -2.10704 0
M  V30 8876 C 828.569 2.68614 -3.38335 0
M  V30 8877 C 827.704 3.96626 -3.53357 0
M  V30 8878 C 826.743 3.86324 -4.74784 0
M  V30 8879 N 825.88 5.06109 -4.86619 0
M  V30 8880 H 830.72 1.10265 -2.76849 0
M  V30 8881 H 828.257 0.533346 -1.37091 0
M  V30 8882 H 830.215 3.52414 -2.23294 0
M  V30 8883 H 828.845 2.98589 -1.22656 0
M  V30 8884 H 827.897 1.81381 -3.34373 0
M  V30 8885 H 829.209 2.56891 -4.27561 0
M  V30 8886 H 828.363 4.84168 -3.65604 0
M  V30 8887 H 827.102 4.11182 -2.62261 0
M  V30 8888 H 826.107 2.97166 -4.62572 0
M  V30 8889 H 827.332 3.73315 -5.67286 0
M  V30 8890 H 825.278 5.2113 -3.98446 0
M  V30 8891 H 825.195 4.96804 -5.69844 0
M  V30 8892 H 826.463 5.95306 -5.03221 0
M  V30 8893 N 830.692 1.47107 0.565454 0
M  V30 8894 C 831.941 1.5257 1.31929 0
M  V30 8895 C 832.254 0.189092 1.94684 0
M  V30 8896 O 833.46 0.121657 2.71227 0
M  V30 8897 C 831.916 2.68914 2.39193 0
M  V30 8898 C 831.524 4.09069 1.82665 0
M  V30 8899 C 833.268 2.83663 3.1581 0
M  V30 8900 C 831.175 5.16726 2.87661 0
M  V30 8901 H 830.105 0.567869 0.496025 0
M  V30 8902 H 832.756 1.73361 0.60151 0
M  V30 8903 H 831.138 2.41486 3.13848 0
M  V30 8904 H 832.312 4.46364 1.14438 0
M  V30 8905 H 830.627 3.99135 1.1866 0
M  V30 8906 H 833.224 3.61261 3.94201 0
M  V30 8907 H 833.567 1.91804 3.69482 0
M  V30 8908 H 834.1 3.10821 2.48265 0
M  V30 8909 H 830.839 6.10433 2.38854 0
M  V30 8910 H 830.359 4.83957 3.54324 0
M  V30 8911 H 832.038 5.43319 3.51303 0
M  V30 8912 N 832.17 -0.811516 1.35101 0
M  V30 8913 C 833.133 -1.90467 1.27495 0
M  V30 8914 C 834.133 -1.59703 0.187516 0
M  V30 8915 O 835.323 -1.68528 0.440896 0
M  V30 8916 C 832.455 -3.26774 0.971154 0
M  V30 8917 H 833.648 -1.98631 2.2469 0
M  V30 8918 H 831.201 -1.00681 1.19553 0
M  V30 8919 H 831.936 -3.243 0.0028557 0
M  V30 8920 H 831.721 -3.50488 1.75785 0
M  V30 8921 H 833.211 -4.06804 0.943414 0
M  V30 8922 N 833.648 -1.19017 -1.03309 0
M  V30 8923 C 834.897 -0.984542 -1.76039 0
M  V30 8924 C 835.21 0.485937 -1.89468 0
M  V30 8925 O 836.416 0.810278 -2.59127 0
M  V30 8926 C 834.872 -1.71261 -3.1654 0
M  V30 8927 C 834.48 -3.22291 -3.11179 0
M  V30 8928 C 836.224 -1.59007 -3.93595 0
M  V30 8929 C 834.131 -3.87704 -4.46587 0
M  V30 8930 H 833.061 -0.364749 -0.659905 0
M  V30 8931 H 835.712 -1.4247 -1.15649 0
M  V30 8932 H 834.094 -1.20025 -3.77373 0
M  V30 8933 H 835.268 -3.80611 -2.59753 0
M  V30 8934 H 833.583 -3.34772 -2.47622 0
M  V30 8935 H 836.18 -2.05232 -4.93745 0
M  V30 8936 H 836.523 -0.543534 -4.12736 0
M  V30 8937 H 837.056 -2.07564 -3.39355 0
M  V30 8938 H 833.795 -4.92437 -4.3265 0
M  V30 8939 H 833.315 -3.34172 -4.98085 0
M  V30 8940 H 834.994 -3.91008 -5.15482 0
M  V30 8941 N 835.127 1.22348 -0.993418 0
M  V30 8942 C 836.09 2.22522 -0.549251 0
M  V30 8943 C 837.09 1.56529 0.368164 0
M  V30 8944 O 838.28 1.73463 0.16005 0
M  V30 8945 C 835.412 3.40307 0.201037 0
M  V30 8946 H 836.605 2.63332 -1.43515 0
M  V30 8947 H 834.158 1.35407 -0.78068 0
M  V30 8948 H 834.893 3.0497 1.10289 0
M  V30 8949 H 834.678 3.8942 -0.457685 0
M  V30 8950 H 836.168 4.14597 0.499946 0
M  V30 8951 N 836.605 0.766683 1.37694 0
M  V30 8952 C 837.851 0.329201 2.0011 0
M  V30 8953 C 838.184 -1.09004 1.60723 0
M  V30 8954 O 837.459 -1.74895 0.850989 0
M  V30 8955 C 837.742 0.466989 3.57059 0
M  V30 8956 C 837.595 1.92828 4.06371 0
M  V30 8957 C 838.914 -0.131792 4.39903 0
M  V30 8958 H 836.033 0.12109 0.726984 0
M  V30 8959 H 838.675 0.968779 1.63446 0
M  V30 8960 H 836.825 -0.0775023 3.88423 0
M  V30 8961 H 838.497 2.53208 3.85595 0
M  V30 8962 H 836.74 2.43884 3.58752 0
M  V30 8963 H 837.411 1.97577 5.15429 0
M  V30 8964 H 839.887 0.332731 4.14768 0
M  V30 8965 H 838.763 -0.005217 5.489 0
M  V30 8966 H 839.024 -1.22156 4.24889 0
M  V30 8967 N 838.083 -1.48885 0.516809 0
M  V30 8968 C 839.313 -2.06592 -0.018375 0
M  V30 8969 C 839.721 -1.37543 -1.29917 0
M  V30 8970 O 839.064 -0.452527 -1.78039 0
M  V30 8971 C 839.126 -3.58016 -0.326315 0
M  V30 8972 C 838.79 -4.48853 0.859072 0
M  V30 8973 C 839.787 -4.89422 1.75391 0
M  V30 8974 C 837.472 -4.90937 1.06235 0
M  V30 8975 C 839.466 -5.70831 2.83604 0
M  V30 8976 C 837.153 -5.72119 2.14763 0
M  V30 8977 C 838.151 -6.11972 3.03281 0
M  V30 8978 O 837.839 -6.91527 4.09934 0
M  V30 8979 H 837.571 -0.675559 0.0244023 0
M  V30 8980 H 840.125 -1.92442 0.718005 0
M  V30 8981 H 838.355 -3.70231 -1.1165 0
M  V30 8982 H 840.044 -3.97898 -0.801999 0
M  V30 8983 H 840.81 -4.57542 1.60875 0
M  V30 8984 H 836.689 -4.59409 0.382677 0
M  V30 8985 H 840.233 -6.01857 3.52724 0
M  V30 8986 H 836.13 -6.03412 2.29268 0
M  V30 8987 H 836.898 -7.0986 4.07482 0
M  V30 8988 N 839.561 -0.251338 -1.55583 0
M  V30 8989 C 840.807 0.37272 -1.99346 0
M  V30 8990 C 841.14 1.57266 -1.13934 0
M  V30 8991 O 840.415 1.9343 -0.20377 0
M  V30 8992 C 840.698 0.778245 -3.5159 0
M  V30 8993 C 840.551 -0.427394 -4.47765 0
M  V30 8994 C 841.87 1.62358 -4.09057 0
M  V30 8995 H 838.989 0.134002 -0.724715 0
M  V30 8996 H 841.631 -0.353536 -1.86682 0
M  V30 8997 H 839.781 1.39704 -3.62512 0
M  V30 8998 H 841.453 -1.06586 -4.48818 0
M  V30 8999 H 839.696 -1.06972 -4.20404 0
M  V30 9000 H 840.367 -0.10025 -5.51909 0
M  V30 9001 H 842.843 1.1012 -4.01264 0
M  V30 9002 H 841.719 1.87617 -5.1584 0
M  V30 9003 H 841.98 2.59688 -3.57791 0
M  V30 9004 N 841.039 1.57585 0.0217189 0
M  V30 9005 C 841.949 2.10444 1.03684 0
M  V30 9006 C 842.965 1.04472 1.39146 0
M  V30 9007 O 844.141 1.36249 1.48317 0
M  V30 9008 C 841.206 2.5794 2.31664 0
M  V30 9009 C 840.267 3.78425 2.02714 0
M  V30 9010 C 839.5 4.23646 3.24592 0
M  V30 9011 O 839.723 3.6834 4.35525 0
M  V30 9012 O 838.657 5.16013 3.09862 0
M  V30 9013 H 842.483 2.97354 0.617584 0
M  V30 9014 H 840.068 1.47473 0.239174 0
M  V30 9015 H 841.95 2.88785 3.06889 0
M  V30 9016 H 840.625 1.74138 2.7287 0
M  V30 9017 H 839.532 3.52587 1.25033 0
M  V30 9018 H 840.865 4.63234 1.66359 0
M  V30 9019 N 842.517 -0.29412 1.54831 0
M  V30 9020 C 843.465 -1.38296 1.87021 0
M  V30 9021 C 844.459 -1.5216 0.744557 0
M  V30 9022 O 845.665 -1.54196 0.92864 0
M  V30 9023 H 842.04 -0.462088 0.593278 0
M  V30 9024 H 844.011 -1.08386 2.7802 0
M  V30 9025 C 842.76 -2.74024 2.14023 0
M  V30 9026 H 842.083 -2.6414 3.00117 0
M  V30 9027 H 843.523 -3.49205 2.40482 0
M  V30 9028 C 841.982 -3.23492 0.940982 0
M  V30 9029 O 842.512 -4.01361 0.164937 0
M  V30 9030 N 840.718 -2.80902 0.744467 0
M  V30 9031 H 840.265 -2.17694 1.37721 0
M  V30 9032 H 840.223 -3.14349 -0.0563652 0
M  V30 9033 N 843.995 -1.47404 -0.557645 0
M  V30 9034 C 845.243 -1.53703 -1.31224 0
M  V30 9035 C 845.564 -0.200742 -1.93964 0
M  V30 9036 O 844.834 0.775253 -1.79907 0
M  V30 9037 H 843.414 -0.566171 -0.487299 0
M  V30 9038 H 846.076 -1.83699 -0.651195 0
M  V30 9039 H 845.172 -2.30335 -2.10599 0
M  V30 9040 N 845.473 0.80434 -1.35529 0
M  V30 9041 C 846.721 1.55845 -1.28673 0
M  V30 9042 C 847.042 1.94511 0.137976 0
M  V30 9043 O 846.312 1.63775 1.07492 0
M  V30 9044 H 844.892 0.577931 -0.473291 0
M  V30 9045 H 847.554 0.959293 -1.69657 0
M  V30 9046 H 846.65 2.47285 -1.90411 0
M  V30 9047 N 846.951 1.19563 1.02676 0
M  V30 9048 C 848.198 0.999568 1.7611 0
M  V30 9049 C 848.526 -0.469432 1.8875 0
M  V30 9050 O 847.781 -1.36481 1.40255 0
M  V30 9051 C 848.08 1.61619 3.18769 0
M  V30 9052 C 847.746 3.11366 3.26132 0
M  V30 9053 C 846.408 3.52234 3.27848 0
M  V30 9054 C 848.76 4.07374 3.25109 0
M  V30 9055 C 846.088 4.87658 3.26201 0
M  V30 9056 C 848.44 5.42731 3.25002 0
M  V30 9057 C 847.104 5.83027 3.25017 0
M  V30 9058 H 846.374 0.365768 0.644434 0
M  V30 9059 H 849.021 1.48838 1.20497 0
M  V30 9060 H 847.326 1.04974 3.77476 0
M  V30 9061 H 849.023 1.43975 3.74262 0
M  V30 9062 H 845.613 2.78804 3.25525 0
M  V30 9063 H 849.797 3.76842 3.22961 0
M  V30 9064 H 845.053 5.18156 3.24537 0
M  V30 9065 H 849.227 6.16879 3.23161 0
M  V30 9066 H 846.854 6.87936 3.23494 0
M  V30 9067 N 848.429 -1.21819 0.999893 0
M  V30 9068 C 849.677 -1.90375 0.678351 0
M  V30 9069 C 849.998 -1.78155 -0.792824 0
M  V30 9070 O 849.268 -1.17319 -1.56885 0
M  V30 9071 H 847.848 -0.704661 0.247915 0
M  V30 9072 H 850.51 -1.48021 1.2679 0
M  V30 9073 H 849.606 -2.97385 0.947023 0
M  V30 9074 N 849.908 -0.773975 -1.37286 0
M  V30 9075 C 850.871 -0.167974 -2.28584 0
M  V30 9076 C 851.871 0.625662 -1.48129 0
M  V30 9077 O 853.061 0.448924 -1.68316 0
M  V30 9078 C 850.193 0.769364 -3.32105 0
M  V30 9079 H 851.386 -0.972806 -2.83684 0
M  V30 9080 H 848.939 -0.542335 -1.46589 0
M  V30 9081 H 849.674 1.59912 -2.82132 0
M  V30 9082 H 849.459 0.202419 -3.91577 0
M  V30 9083 H 850.949 1.18872 -4.00324 0
M  V30 9084 N 851.386 1.48609 -0.524698 0
M  V30 9085 C 852.632 2.02797 0.0113382 0
M  V30 9086 C 852.965 1.40147 1.34433 0
M  V30 9087 O 852.24 0.545368 1.86698 0
M  V30 9088 C 852.523 3.59832 0.138931 0
M  V30 9089 C 852.376 4.32971 -1.21886 0
M  V30 9090 C 853.695 4.3145 0.868265 0
M  V30 9091 H 850.814 0.736995 0.00264645 0
M  V30 9092 H 853.456 1.77388 -0.680704 0
M  V30 9093 H 851.606 3.81612 0.72834 0
M  V30 9094 H 853.278 4.22624 -1.84897 0
M  V30 9095 H 851.521 3.94597 -1.80211 0
M  V30 9096 H 852.192 5.41279 -1.08263 0
M  V30 9097 H 854.668 4.14468 0.368145 0
M  V30 9098 H 853.544 5.41025 0.926428 0
M  V30 9099 H 853.805 3.98358 1.91737 0
M  V30 9100 N 852.864 0.259585 1.55447 0
M  V30 9101 C 854.094 -0.364863 2.03353 0
M  V30 9102 C 854.502 -1.5116 1.13786 0
M  V30 9103 O 853.845 -1.83109 0.147283 0
M  V30 9104 C 853.907 -0.922587 3.4746 0
M  V30 9105 C 853.571 0.0935207 4.56904 0
M  V30 9106 C 854.568 0.907571 5.11917 0
M  V30 9107 C 852.253 0.223276 5.01804 0
M  V30 9108 C 854.247 1.83771 6.10333 0
M  V30 9109 C 851.934 1.15691 6.00049 0
M  V30 9110 C 852.932 1.96264 6.54194 0
M  V30 9111 O 852.62 2.88052 7.50521 0
M  V30 9112 H 852.352 -0.0893313 0.670072 0
M  V30 9113 H 854.906 0.384821 2.01763 0
M  V30 9114 H 853.136 -1.72206 3.4624 0
M  V30 9115 H 854.825 -1.45846 3.78792 0
M  V30 9116 H 855.591 0.817979 4.78052 0
M  V30 9117 H 851.47 -0.393834 4.59315 0
M  V30 9118 H 855.014 2.46703 6.52521 0
M  V30 9119 H 850.911 1.24738 6.33333 0
M  V30 9120 H 851.679 2.82557 7.68182 0
M  V30 9121 N 854.342 -1.57594 -0.0133615 0
M  V30 9122 C 855.59 -1.89605 -0.699596 0
M  V30 9123 C 855.911 -0.85926 -1.75048 0
M  V30 9124 O 855.181 0.105112 -1.95618 0
M  V30 9125 H 853.761 -0.699776 -0.261385 0
M  V30 9126 H 856.423 -1.94885 0.0244044 0
M  V30 9127 H 855.519 -2.88962 -1.17928 0
M  V30 9128 N 855.82 0.285905 -1.54985 0
M  V30 9129 C 857.066 1.02071 -1.75241 0
M  V30 9130 C 857.399 1.864 -0.544842 0
M  V30 9131 O 856.674 1.89034 0.457844 0
M  V30 9132 C 856.957 1.91409 -3.05016 0
M  V30 9133 C 856.81 1.10158 -4.36102 0
M  V30 9134 C 858.129 2.90335 -3.30747 0
M  V30 9135 H 855.248 0.369663 -0.637588 0
M  V30 9136 H 857.89 0.294114 -1.8771 0
M  V30 9137 H 856.04 2.53362 -2.94517 0
M  V30 9138 H 857.712 0.503756 -4.58541 0
M  V30 9139 H 855.955 0.404675 -4.31908 0
M  V30 9140 H 856.626 1.75956 -5.23205 0
M  V30 9141 H 859.102 2.38514 -3.40955 0
M  V30 9142 H 857.978 3.49997 -4.2284 0
M  V30 9143 H 858.239 3.64787 -2.49765 0
M  V30 9144 N 857.298 1.47698 0.54982 0
M  V30 9145 C 858.709 1.48474 1.13191 0
M  V30 9146 C 859.06 0.243504 1.94683 0
M  V30 9147 O 858.185 -0.651009 2.06375 0
M  V30 9148 C 858.78 2.69022 2.05944 0
M  V30 9149 C 857.339 2.72733 2.5941 0
M  V30 9150 C 856.486 2.41691 1.35944 0
M  V30 9151 H 859.437 1.55101 0.336048 0
M  V30 9152 H 859.458 2.46412 2.89934 0
M  V30 9153 H 858.97 3.59345 1.46605 0
M  V30 9154 H 857.071 1.86568 3.22526 0
M  V30 9155 H 857.184 3.73628 2.99899 0
M  V30 9156 H 855.548 1.92428 1.66864 0
M  V30 9157 H 856.331 3.34231 0.783869 0
M  V30 9158 N 858.776 -0.797141 1.35954 0
M  V30 9159 C 860.025 -1.54983 1.29086 0
M  V30 9160 C 860.338 -1.95167 -0.130003 0
M  V30 9161 O 861.544 -2.69596 -0.32101 0
M  V30 9162 C 860 -2.79738 2.26439 0
M  V30 9163 C 859.608 -2.46753 3.73921 0
M  V30 9164 C 861.352 -3.57733 2.28533 0
M  V30 9165 C 859.259 -3.67858 4.63071 0
M  V30 9166 H 858.189 -0.581766 0.479651 0
M  V30 9167 H 860.84 -0.87541 1.61273 0
M  V30 9168 H 859.222 -3.48939 1.87236 0
M  V30 9169 H 860.396 -1.85499 4.21814 0
M  V30 9170 H 858.711 -1.81985 3.74527 0
M  V30 9171 H 861.308 -4.47699 2.92351 0
M  V30 9172 H 861.651 -3.95754 1.29169 0
M  V30 9173 H 862.184 -2.95504 2.66313 0
M  V30 9174 H 858.923 -3.34939 5.63468 0
M  V30 9175 H 858.443 -4.28305 4.19898 0
M  V30 9176 H 860.122 -4.34977 4.78961 0
M  V30 9177 N 860.254 -1.20106 -1.0204 0
M  V30 9178 C 861.502 -1.0069 -1.75231 0
M  V30 9179 C 861.823 0.462491 -1.89436 0
M  V30 9180 O 861.093 1.33455 -1.4341 0
M  V30 9181 H 859.673 -0.369576 -0.649171 0
M  V30 9182 H 862.335 -1.51149 -1.23044 0
M  V30 9183 H 861.431 -1.46205 -2.75736 0
M  V30 9184 N 861.732 1.21287 -1.00634 0
M  V30 9185 C 862.695 2.21927 -0.572821 0
M  V30 9186 C 863.695 1.5691 0.351541 0
M  V30 9187 O 864.885 1.73623 0.141643 0
M  V30 9188 C 862.017 3.40501 0.164932 0
M  V30 9189 H 863.21 2.61795 -1.463 0
M  V30 9190 H 860.763 1.34571 -0.794998 0
M  V30 9191 H 861.498 3.06123 1.07049 0
M  V30 9192 H 861.283 3.88912 -0.498962 0
M  V30 9193 H 862.773 4.15103 0.455945 0
M  V30 9194 N 863.21 0.781244 1.36873 0
M  V30 9195 C 864.14 0.188128 2.32741 0
M  V30 9196 C 865.121 -0.672326 1.56249 0
M  V30 9197 O 866.306 -0.607835 1.84442 0
M  V30 9198 C 863.436 -0.684341 3.40491 0
M  V30 9199 C 862.39 0.0755641 4.27933 0
M  V30 9200 C 861.716 -0.916968 5.26779 0
M  V30 9201 C 863.016 1.26006 5.06873 0
M  V30 9202 H 864.71 0.989016 2.82593 0
M  V30 9203 H 862.256 0.477038 1.35869 0
M  V30 9204 H 864.209 -1.10915 4.06541 0
M  V30 9205 H 862.933 -1.51785 2.89187 0
M  V30 9206 H 861.592 0.481258 3.63427 0
M  V30 9207 H 861.24 -1.74528 4.71751 0
M  V30 9208 H 860.94 -0.413 5.86147 0
M  V30 9209 H 862.464 -1.34052 5.95703 0
M  V30 9210 H 863.878 0.911425 5.66009 0
M  V30 9211 H 862.275 1.69676 5.75613 0
M  V30 9212 H 863.345 2.05948 4.38991 0
M  V30 9213 N 864.689 -1.48329 0.532571 0
M  V30 9214 C 865.622 -2.26524 -0.2761 0
M  V30 9215 C 866.6 -1.32498 -0.942496 0
M  V30 9216 O 867.784 -1.61844 -0.966376 0
M  V30 9217 C 864.911 -3.08808 -1.39124 0
M  V30 9218 C 863.957 -4.18227 -0.835984 0
M  V30 9219 S 864.79 -5.34669 0.298186 0
M  V30 9220 C 865.946 -6.20514 -0.81937 0
M  V30 9221 H 866.179 -2.94764 0.387502 0
M  V30 9222 H 863.712 -1.51081 0.318407 0
M  V30 9223 H 865.67 -3.56792 -2.03002 0
M  V30 9224 H 864.331 -2.39976 -2.02658 0
M  V30 9225 H 863.524 -4.75435 -1.67264 0
M  V30 9226 H 863.126 -3.72996 -0.27385 0
M  V30 9227 H 865.418 -6.55371 -1.7174 0
M  V30 9228 H 866.361 -7.07525 -0.285199 0
M  V30 9229 H 866.769 -5.5366 -1.10094 0
M  V30 9230 N 866.167 -0.267825 -1.55308 0
M  V30 9231 C 867.1 0.663973 -2.18327 0
M  V30 9232 C 868.078 1.15759 -1.14187 0
M  V30 9233 O 869.262 1.23189 -1.42677 0
M  V30 9234 C 866.389 1.9047 -2.8007 0
M  V30 9235 C 865.435 1.54718 -3.97447 0
M  V30 9236 S 866.268 0.631654 -5.31762 0
M  V30 9237 C 867.424 1.88092 -5.96969 0
M  V30 9238 H 867.657 0.128486 -2.97022 0
M  V30 9239 H 865.19 -0.052129 -1.54312 0
M  V30 9240 H 867.148 2.61688 -3.16275 0
M  V30 9241 H 865.809 2.41132 -2.01281 0
M  V30 9242 H 865.002 2.47022 -4.39313 0
M  V30 9243 H 864.604 0.915254 -3.62628 0
M  V30 9244 H 866.896 2.82572 -6.15759 0
M  V30 9245 H 867.839 1.50539 -6.91913 0
M  V30 9246 H 868.247 2.04254 -5.26252 0
M  V30 9247 N 867.645 1.57599 0.00500368 0
M  V30 9248 C 868.555 2.11532 1.01446 0
M  V30 9249 C 869.571 1.05941 1.3803 0
M  V30 9250 O 870.747 1.37815 1.46864 0
M  V30 9251 C 867.812 2.60382 2.28915 0
M  V30 9252 C 866.873 3.80554 1.98689 0
M  V30 9253 C 866.106 4.27064 3.20081 0
M  V30 9254 O 866.329 3.72939 4.31593 0
M  V30 9255 O 865.263 5.1927 3.04371 0
M  V30 9256 H 869.089 2.97993 0.586011 0
M  V30 9257 H 866.674 1.47718 0.223519 0
M  V30 9258 H 868.556 2.92024 3.03809 0
M  V30 9259 H 867.231 1.77022 2.71007 0
M  V30 9260 H 866.138 3.53893 1.21286 0
M  V30 9261 H 867.471 4.64972 1.61437 0
M  V30 9262 N 869.123 -0.277682 1.55134 0
M  V30 9263 C 870.055 -1.36531 1.84098 0
M  V30 9264 C 871.068 -1.45756 0.725194 0
M  V30 9265 O 872.257 -1.47656 1.00299 0
M  V30 9266 C 869.357 -2.74701 1.98476 0
M  V30 9267 C 868.53 -2.88125 3.29094 0
M  V30 9268 C 867.589 -4.0694 3.33596 0
M  V30 9269 O 866.615 -3.9792 4.06999 0
M  V30 9270 N 867.817 -5.18687 2.60661 0
M  V30 9271 H 870.582 -1.12032 2.77973 0
M  V30 9272 H 868.143 -0.467793 1.54995 0
M  V30 9273 H 870.135 -3.52471 1.98863 0
M  V30 9274 H 868.705 -2.92043 1.11488 0
M  V30 9275 H 867.925 -1.97277 3.41285 0
M  V30 9276 H 869.213 -2.94021 4.15246 0
M  V30 9277 H 868.611 -5.28901 2.00699 0
M  V30 9278 H 867.168 -5.94705 2.66776 0
M  V30 9279 N 870.601 -1.47988 -0.541979 0
M  V30 9280 C 871.831 -1.58804 -1.32155 0
M  V30 9281 C 872.239 -0.242893 -1.87634 0
M  V30 9282 O 871.582 0.776239 -1.66494 0
M  V30 9283 C 871.644 -2.56567 -2.51821 0
M  V30 9284 C 871.308 -4.01915 -2.17517 0
M  V30 9285 C 872.305 -4.89954 -1.73901 0
M  V30 9286 C 869.99 -4.47365 -2.28408 0
M  V30 9287 C 871.984 -6.21467 -1.41625 0
M  V30 9288 C 869.671 -5.78902 -1.95745 0
M  V30 9289 C 870.669 -6.65775 -1.52423 0
M  V30 9290 O 870.357 -7.94866 -1.20183 0
M  V30 9291 H 870.089 -0.538536 -0.408601 0
M  V30 9292 H 872.643 -1.94446 -0.661818 0
M  V30 9293 H 870.873 -2.16023 -3.20735 0
M  V30 9294 H 872.562 -2.57347 -3.13891 0
M  V30 9295 H 873.328 -4.56082 -1.64966 0
M  V30 9296 H 869.207 -3.79942 -2.61084 0
M  V30 9297 H 872.751 -6.8923 -1.07738 0
M  V30 9298 H 868.648 -6.12311 -2.04316 0
M  V30 9299 H 869.416 -8.07509 -1.33683 0
M  V30 9300 N 872.079 0.78992 -1.36375 0
M  V30 9301 C 873.009 1.91683 -1.33341 0
M  V30 9302 C 873.99 1.68861 -0.204965 0
M  V30 9303 O 875.175 1.89982 -0.402531 0
M  V30 9304 C 872.305 3.28696 -1.12143 0
M  V30 9305 C 871.259 3.66041 -2.21806 0
M  V30 9306 C 870.585 5.01399 -1.85751 0
M  V30 9307 C 871.885 3.74677 -3.63888 0
M  V30 9308 H 873.579 1.94478 -2.27637 0
M  V30 9309 H 871.125 0.934271 -1.09578 0
M  V30 9310 H 873.078 4.07151 -1.08656 0
M  V30 9311 H 871.802 3.26287 -0.142974 0
M  V30 9312 H 870.461 2.89883 -2.24418 0
M  V30 9313 H 870.109 4.9551 -0.864817 0
M  V30 9314 H 869.809 5.27355 -2.59173 0
M  V30 9315 H 871.333 5.82274 -1.83819 0
M  V30 9316 H 872.747 4.43324 -3.63506 0
M  V30 9317 H 871.144 4.12118 -4.3621 0
M  V30 9318 H 872.214 2.75795 -3.9883 0
M  V30 9319 N 873.557 1.20646 1.01402 0
M  V30 9320 C 874.504 0.957618 2.09996 0
M  V30 9321 C 875.474 -0.113115 1.65714 0
M  V30 9322 O 876.659 0.032142 1.90773 0
M  V30 9323 C 873.799 0.5186 3.41181 0
M  V30 9324 C 872.912 1.65777 3.98926 0
M  V30 9325 C 872.047 1.16881 5.18182 0
M  V30 9326 C 871.086 2.2809 5.68015 0
M  V30 9327 N 870.223 1.80392 6.7853 0
M  V30 9328 H 875.063 1.88732 2.30617 0
M  V30 9329 H 872.6 0.940703 1.13089 0
M  V30 9330 H 874.558 0.245367 4.16478 0
M  V30 9331 H 873.188 -0.3741 3.20625 0
M  V30 9332 H 872.24 2.04586 3.207 0
M  V30 9333 H 873.552 2.49507 4.31912 0
M  V30 9334 H 872.706 0.851694 6.00692 0
M  V30 9335 H 871.445 0.301434 4.86768 0
M  V30 9336 H 870.45 2.60614 4.84108 0
M  V30 9337 H 871.675 3.15308 6.01463 0
M  V30 9338 H 869.621 0.959856 6.4894 0
M  V30 9339 H 869.538 2.57701 7.10722 0
M  V30 9340 H 870.806 1.51688 7.64598 0
M  V30 9341 N 875.035 -1.20752 1.01276 0
M  V30 9342 C 876.283 -1.89645 0.698505 0
M  V30 9343 C 876.604 -1.78986 -0.773883 0
M  V30 9344 O 875.874 -1.18977 -1.55632 0
M  V30 9345 H 874.454 -0.701992 0.255375 0
M  V30 9346 H 877.116 -1.46668 1.28353 0
M  V30 9347 H 876.212 -2.96364 0.978512 0
M  V30 9348 N 876.513 -0.788492 -1.36457 0
M  V30 9349 C 877.46 -0.18435 -2.30063 0
M  V30 9350 C 878.43 0.67128 -1.51931 0
M  V30 9351 O 879.615 0.620152 -1.8044 0
M  V30 9352 C 876.755 0.675596 -3.38422 0
M  V30 9353 C 875.868 -0.198475 -4.31544 0
M  V30 9354 C 875.003 0.667757 -5.26986 0
M  V30 9355 C 874.042 -0.207825 -6.11747 0
M  V30 9356 N 873.179 0.617335 -6.99381 0
M  V30 9357 H 878.019 -0.988056 -2.81143 0
M  V30 9358 H 875.556 -0.498815 -1.38384 0
M  V30 9359 H 877.514 1.18916 -3.99894 0
M  V30 9360 H 876.144 1.44474 -2.88664 0
M  V30 9361 H 875.196 -0.829995 -3.71235 0
M  V30 9362 H 876.508 -0.873163 -4.91098 0
M  V30 9363 H 875.662 1.24716 -5.93743 0
M  V30 9364 H 874.401 1.37607 -4.67884 0
M  V30 9365 H 873.406 -0.799638 -5.43954 0
M  V30 9366 H 874.631 -0.913729 -6.72925 0
M  V30 9367 H 872.577 1.30996 -6.42788 0
M  V30 9368 H 872.494 0.000307255 -7.56 0
M  V30 9369 H 873.762 1.1806 -7.70508 0
M  V30 9370 N 877.991 1.48044 -0.54043 0
M  V30 9371 C 878.921 2.32597 0.205178 0
M  V30 9372 C 879.902 1.42748 0.925041 0
M  V30 9373 O 881.087 1.71624 0.908784 0
M  V30 9374 C 878.217 3.24175 1.24612 0
M  V30 9375 C 877.171 4.23131 0.64376 0
M  V30 9376 C 876.497 5.03915 1.78812 0
M  V30 9377 C 877.797 5.20831 -0.39144 0
M  V30 9378 H 879.491 2.95184 -0.500676 0
M  V30 9379 H 877.037 1.41948 -0.242225 0
M  V30 9380 H 878.99 3.82158 1.77576 0
M  V30 9381 H 877.714 2.59608 1.98169 0
M  V30 9382 H 876.373 3.66349 0.135554 0
M  V30 9383 H 876.021 4.35765 2.51232 0
M  V30 9384 H 875.721 5.709 1.39094 0
M  V30 9385 H 877.245 5.64753 2.32134 0
M  V30 9386 H 878.659 5.73277 0.0515064 0
M  V30 9387 H 877.056 5.95926 -0.706569 0
M  V30 9388 H 878.126 4.6733 -1.29345 0
M  V30 9389 N 879.47 0.276058 1.55163 0
M  V30 9390 C 880.695 -0.346648 2.04483 0
M  V30 9391 C 881.12 -1.48613 1.15308 0
M  V30 9392 O 880.478 -1.80663 0.151875 0
M  V30 9393 C 880.526 -0.804268 3.51517 0
M  V30 9394 O 879.63 -1.91143 3.65429 0
M  V30 9395 H 878.971 -0.0715251 0.660136 0
M  V30 9396 H 881.501 0.410631 2.00437 0
M  V30 9397 H 881.511 -1.09977 3.92898 0
M  V30 9398 H 880.186 0.0294123 4.1589 0
M  V30 9399 H 878.763 -1.61839 3.3595 0
M  V30 9400 N 880.948 -1.576 0.00335426 0
M  V30 9401 C 882.359 -1.7875 -0.539008 0
M  V30 9402 C 882.71 -0.911097 -1.73763 0
M  V30 9403 O 881.835 -0.114476 -2.16097 0
M  V30 9404 C 882.43 -3.24177 -0.984611 0
M  V30 9405 C 880.989 -3.46412 -1.47226 0
M  V30 9406 C 880.136 -2.74024 -0.425004 0
M  V30 9407 H 883.087 -1.57032 0.229511 0
M  V30 9408 H 883.108 -3.32474 -1.85044 0
M  V30 9409 H 882.62 -3.87938 -0.112035 0
M  V30 9410 H 880.721 -2.8787 -2.36562 0
M  V30 9411 H 880.834 -4.55098 -1.49741 0
M  V30 9412 H 879.198 -2.38741 -0.887394 0
M  V30 9413 H 879.981 -3.40486 0.438662 0
M  V30 9414 N 882.426 0.269451 -1.5528 0
M  V30 9415 C 883.336 1.35511 -1.91505 0
M  V30 9416 C 884.352 1.53854 -0.812712 0
M  V30 9417 O 885.528 1.67912 -1.1121 0
M  V30 9418 C 882.593 2.6937 -2.18267 0
M  V30 9419 C 881.654 2.59743 -3.41807 0
M  V30 9420 C 880.887 3.87219 -3.67283 0
M  V30 9421 O 881.11 4.88066 -2.95208 0
M  V30 9422 O 880.044 3.87209 -4.60818 0
M  V30 9423 H 883.87 1.07785 -2.8393 0
M  V30 9424 H 881.455 0.468282 -1.41871 0
M  V30 9425 H 883.337 3.48513 -2.36889 0
M  V30 9426 H 882.012 2.96874 -1.29024 0
M  V30 9427 H 880.919 1.78964 -3.28516 0
M  V30 9428 H 882.252 2.37188 -4.3128 0
M  V30 9429 N 883.904 1.48273 0.534124 0
M  V30 9430 C 884.852 1.62926 1.66005 0
M  V30 9431 C 885.846 0.495814 1.61982 0
M  V30 9432 O 887.052 0.6744 1.66889 0
M  V30 9433 H 883.427 0.513163 0.549698 0
M  V30 9434 H 885.398 2.57498 1.50789 0
M  V30 9435 C 884.147 1.68231 3.04292 0
M  V30 9436 H 883.47 2.54807 3.0808 0
M  V30 9437 H 884.91 1.82528 3.827 0
M  V30 9438 C 883.369 0.420154 3.3427 0
M  V30 9439 O 883.899 -0.468769 3.98955 0
M  V30 9440 N 882.105 0.293115 2.89118 0
M  V30 9441 H 881.652 1.01745 2.36655 0
M  V30 9442 H 881.61 -0.550376 3.09545 0
M  V30 9443 N 885.382 -0.782676 1.36792 0
M  V30 9444 C 886.292 -1.92679 1.33835 0
M  V30 9445 C 887.308 -1.72344 0.23952 0
M  V30 9446 O 888.484 -1.95766 0.473045 0
M  V30 9447 C 885.549 -3.27644 1.1336 0
M  V30 9448 C 884.61 -3.6071 2.32781 0
M  V30 9449 C 883.843 -4.89234 2.13273 0
M  V30 9450 O 884.066 -5.59468 1.11136 0
M  V30 9451 O 883 -5.21112 3.01208 0
M  V30 9452 H 886.826 -1.98124 2.30175 0
M  V30 9453 H 884.411 -0.923887 1.17408 0
M  V30 9454 H 886.293 -4.08394 1.03886 0
M  V30 9455 H 884.968 -3.23076 0.200868 0
M  V30 9456 H 883.875 -2.80238 2.47825 0
M  V30 9457 H 885.208 -3.70008 3.24584 0
M  V30 9458 N 886.86 -1.21182 -1.00761 0
M  V30 9459 C 888.109 -1.02166 -1.73911 0
M  V30 9460 C 888.422 0.445638 -1.90456 0
M  V30 9461 O 889.628 0.755132 -2.60787 0
M  V30 9462 C 888.084 -1.77936 -3.12837 0
M  V30 9463 C 887.692 -3.28819 -3.04273 0
M  V30 9464 C 889.436 -1.67319 -3.90134 0
M  V30 9465 C 887.343 -3.97089 -4.38262 0
M  V30 9466 H 886.273 -0.378665 -0.652019 0
M  V30 9467 H 888.924 -1.44891 -1.12601 0
M  V30 9468 H 887.306 -1.28003 -3.74742 0
M  V30 9469 H 888.48 -3.86035 -2.51622 0
M  V30 9470 H 886.795 -3.39949 -2.40465 0
M  V30 9471 H 889.392 -2.15659 -4.8928 0
M  V30 9472 H 889.735 -0.630959 -4.11491 0
M  V30 9473 H 890.268 -2.14716 -3.34876 0
M  V30 9474 H 887.007 -5.01503 -4.22107 0
M  V30 9475 H 886.527 -3.44662 -4.90885 0
M  V30 9476 H 888.206 -4.01854 -5.07072 0
M  V30 9477 N 888.338 1.20213 -1.01915 0
M  V30 9478 C 889.754 1.41696 -0.734459 0
M  V30 9479 C 889.954 1.89504 0.684867 0
M  V30 9480 O 889.01 2.06556 1.45227 0
M  V30 9481 C 890.323 2.43644 -1.76233 0
M  V30 9482 C 891.871 2.57406 -1.78076 0
M  V30 9483 C 892.346 3.626 -2.79796 0
M  V30 9484 N 893.837 3.70086 -2.78551 0
M  V30 9485 C 894.572 4.51145 -3.53915 0
M  V30 9486 N 894.068 5.35988 -4.38963 0
M  V30 9487 N 895.861 4.45702 -3.425 0
M  V30 9488 H 888.012 0.874976 -1.93541 0
M  V30 9489 H 890.275 0.446647 -0.836188 0
M  V30 9490 H 889.981 2.15519 -2.77929 0
M  V30 9491 H 889.855 3.42672 -1.57657 0
M  V30 9492 H 892.242 2.8486 -0.770634 0
M  V30 9493 H 892.323 1.58565 -2.00725 0
M  V30 9494 H 891.967 3.35889 -3.80973 0
M  V30 9495 H 891.897 4.61069 -2.54407 0
M  V30 9496 H 894.388 3.09484 -2.1686 0
M  V30 9497 H 894.701 5.94932 -4.9323 0
M  V30 9498 H 893.046 5.35482 -4.4304 0
M  V30 9499 H 896.237 3.78456 -2.75478 0
M  V30 9500 H 896.41 5.08637 -4.01487 0
M  V30 9501 N 889.816 0.795718 1.36037 0
M  V30 9502 C 890.779 0.204318 2.28287 0
M  V30 9503 C 891.779 -0.602017 1.49105 0
M  V30 9504 O 892.969 -0.422089 1.69009 0
M  V30 9505 C 890.101 -0.716431 3.33287 0
M  V30 9506 H 891.294 1.01781 2.821 0
M  V30 9507 H 888.847 0.565588 1.45708 0
M  V30 9508 H 889.582 -1.55403 2.84641 0
M  V30 9509 H 889.367 -0.140096 3.9185 0
M  V30 9510 H 890.857 -1.12488 4.02164 0
M  V30 9511 N 891.294 -1.47756 0.548274 0
M  V30 9512 C 892.204 -2.33678 -0.207773 0
M  V30 9513 C 893.22 -1.47636 -0.920843 0
M  V30 9514 O 894.396 -1.80583 -0.89173 0
M  V30 9515 C 891.461 -3.24147 -1.23003 0
M  V30 9516 C 890.522 -4.26073 -0.52535 0
M  V30 9517 C 889.755 -5.12219 -1.4989 0
M  V30 9518 O 889.978 -5.0066 -2.73305 0
M  V30 9519 O 888.912 -5.93051 -1.02828 0
M  V30 9520 H 892.738 -2.99609 0.496794 0
M  V30 9521 H 890.323 -1.4617 0.308982 0
M  V30 9522 H 892.205 -3.80055 -1.82034 0
M  V30 9523 H 890.88 -2.60855 -1.91668 0
M  V30 9524 H 889.787 -3.7395 0.105927 0
M  V30 9525 H 891.12 -4.92054 0.119686 0
M  V30 9526 N 892.772 -0.284283 -1.55015 0
M  V30 9527 C 893.682 0.60906 -2.26556 0
M  V30 9528 C 894.698 1.16246 -1.29472 0
M  V30 9529 O 895.874 1.1908 -1.62425 0
M  V30 9530 C 892.939 1.77246 -2.97968 0
M  V30 9531 C 892 1.25482 -4.10552 0
M  V30 9532 C 891.233 2.36277 -4.78549 0
M  V30 9533 O 891.456 3.55829 -4.45805 0
M  V30 9534 O 890.39 2.03914 -5.66306 0
M  V30 9535 H 894.216 0.0292298 -3.03686 0
M  V30 9536 H 891.801 -0.0513466 -1.49312 0
M  V30 9537 H 893.683 2.45062 -3.42815 0
M  V30 9538 H 892.358 2.33921 -2.23747 0
M  V30 9539 H 891.265 0.542859 -3.7014 0
M  V30 9540 H 892.598 0.733708 -4.86701 0
M  V30 9541 N 894.251 1.57596 -0.0117121 0
M  V30 9542 C 895.481 1.95077 0.680346 0
M  V30 9543 C 895.889 0.885793 1.67184 0
M  V30 9544 O 895.232 -0.142723 1.83145 0
M  V30 9545 C 895.294 3.28611 1.45791 0
M  V30 9546 C 894.958 4.52682 0.626706 0
M  V30 9547 C 895.955 5.19821 -0.0906223 0
M  V30 9548 C 893.64 4.99064 0.569229 0
M  V30 9549 C 895.634 6.31649 -0.854289 0
M  V30 9550 C 893.321 6.10779 -0.198155 0
M  V30 9551 C 894.319 6.76929 -0.908636 0
M  V30 9552 O 894.007 7.86501 -1.66348 0
M  V30 9553 H 893.739 0.647663 0.193672 0
M  V30 9554 H 896.293 2.05305 -0.0624969 0
M  V30 9555 H 894.523 3.14824 2.2455 0
M  V30 9556 H 896.212 3.51119 2.03642 0
M  V30 9557 H 896.978 4.84968 -0.0554421 0
M  V30 9558 H 892.857 4.47393 1.11178 0
M  V30 9559 H 896.401 6.83215 -1.40937 0
M  V30 9560 H 892.298 6.45072 -0.235114 0
M  V30 9561 H 893.066 8.03078 -1.58141 0
M  V30 9562 N 895.729 -0.261212 1.5542 0
M  V30 9563 C 896.954 -1.01341 1.80955 0
M  V30 9564 C 897.379 -1.78711 0.586849 0
M  V30 9565 O 896.737 -1.75266 -0.463837 0
M  V30 9566 C 896.785 -1.93835 3.04073 0
M  V30 9567 O 895.889 -3.02791 2.79985 0
M  V30 9568 H 895.23 -0.289123 0.597749 0
M  V30 9569 H 897.76 -0.286543 2.02584 0
M  V30 9570 H 897.77 -2.3557 3.33123 0
M  V30 9571 H 896.445 -1.36936 3.9271 0
M  V30 9572 H 895.022 -2.65287 2.62063 0
M  V30 9573 N 897.207 -1.48554 -0.526253 0
M  V30 9574 C 898.155 -1.63804 -1.65139 0
M  V30 9575 C 899.149 -0.504398 -1.61716 0
M  V30 9576 O 900.355 -0.683241 -1.66529 0
M  V30 9577 H 896.73 -0.516071 -0.546969 0
M  V30 9578 H 898.701 -2.58294 -1.49421 0
M  V30 9579 C 897.45 -1.69843 -3.03395 0
M  V30 9580 H 896.773 -2.56438 -3.06724 0
M  V30 9581 H 898.213 -1.84555 -3.81727 0
M  V30 9582 C 896.672 -0.437875 -3.34042 0
M  V30 9583 O 897.202 0.447604 -3.99198 0
M  V30 9584 N 895.408 -0.308444 -2.88958 0
M  V30 9585 H 894.955 -1.02998 -2.36112 0
M  V30 9586 H 894.913 0.533952 -3.09833 0
M  V30 9587 N 898.685 0.775411 -1.37205 0
M  V30 9588 C 900.101 1.07546 -1.17924 0
M  V30 9589 C 900.301 2.01496 -0.0128897 0
M  V30 9590 O 899.357 2.44039 0.64816 0
M  V30 9591 C 900.67 1.67647 -2.49629 0
M  V30 9592 C 902.218 1.79923 -2.56119 0
M  V30 9593 C 902.693 2.43438 -3.87946 0
M  V30 9594 N 904.184 2.50893 -3.89368 0
M  V30 9595 C 904.919 3.00881 -4.88117 0
M  V30 9596 N 904.415 3.5107 -5.97262 0
M  V30 9597 N 906.208 2.99722 -4.75524 0
M  V30 9598 H 898.359 0.151524 -2.11859 0
M  V30 9599 H 900.622 0.129845 -0.939066 0
M  V30 9600 H 900.328 1.06082 -3.3532 0
M  V30 9601 H 900.202 2.66988 -2.66453 0
M  V30 9602 H 902.589 2.40621 -1.70838 0
M  V30 9603 H 902.67 0.793482 -2.43182 0
M  V30 9604 H 902.314 1.8338 -4.73639 0
M  V30 9605 H 902.244 3.44611 -3.98184 0
M  V30 9606 H 904.735 2.1537 -3.10522 0
M  V30 9607 H 905.048 3.87604 -6.68568 0
M  V30 9608 H 903.393 3.49184 -6.00912 0
M  V30 9609 H 906.584 2.5981 -3.8938 0
M  V30 9610 H 906.757 3.38369 -5.52639 0
M  V30 9611 N 900.163 1.21714 1.00117 0
M  V30 9612 C 901.409 1.03823 1.74208 0
M  V30 9613 C 901.742 -0.426733 1.89454 0
M  V30 9614 O 901.017 -1.31658 1.43166 0
M  V30 9615 C 901.3 1.74047 3.15246 0
M  V30 9616 C 901.153 3.28087 3.077 0
M  V30 9617 C 902.472 1.48614 4.14249 0
M  V30 9618 H 899.591 0.378573 0.632338 0
M  V30 9619 H 902.233 1.49942 1.16694 0
M  V30 9620 H 900.383 1.3484 3.64349 0
M  V30 9621 H 902.055 3.76686 2.6628 0
M  V30 9622 H 900.298 3.58191 2.44707 0
M  V30 9623 H 900.969 3.72392 4.07466 0
M  V30 9624 H 903.445 1.82656 3.73866 0
M  V30 9625 H 902.321 2.00257 5.11066 0
M  V30 9626 H 902.582 0.416957 4.40129 0
M  V30 9627 N 901.641 -1.19671 1.02551 0
M  V30 9628 C 902.89 -1.88591 0.715272 0
M  V30 9629 C 903.203 -1.80274 -0.758982 0
M  V30 9630 O 904.409 -2.44413 -1.18213 0
M  V30 9631 C 902.865 -3.38264 1.22905 0
M  V30 9632 C 902.473 -3.55146 2.73084 0
M  V30 9633 C 904.217 -4.12683 0.994649 0
M  V30 9634 C 902.124 -4.98693 3.17897 0
M  V30 9635 H 901.054 -0.706326 0.263857 0
M  V30 9636 H 903.705 -1.35322 1.23936 0
M  V30 9637 H 902.087 -3.9091 0.632892 0
M  V30 9638 H 903.261 -3.12845 3.38326 0
M  V30 9639 H 901.576 -2.94112 2.94766 0
M  V30 9640 H 904.173 -5.18536 1.30478 0
M  V30 9641 H 904.516 -4.16243 -0.0686466 0
M  V30 9642 H 905.049 -3.66164 1.55464 0
M  V30 9643 H 901.788 -5.00293 4.23542 0
M  V30 9644 H 901.308 -5.4177 2.57381 0
M  V30 9645 H 902.987 -5.67327 3.11045 0
M  V30 9646 N 903.119 -0.802921 -1.35613 0
M  V30 9647 C 904.052 -0.156345 -2.27664 0
M  V30 9648 C 905.03 0.675517 -1.47904 0
M  V30 9649 O 906.214 0.643589 -1.77173 0
M  V30 9650 C 903.341 0.78348 -3.29514 0
M  V30 9651 C 902.387 0.0317062 -4.26488 0
M  V30 9652 S 903.22 -1.30183 -5.19435 0
M  V30 9653 C 904.376 -0.366354 -6.24827 0
M  V30 9654 H 904.609 -0.936803 -2.82155 0
M  V30 9655 H 902.142 -0.597799 -1.42358 0
M  V30 9656 H 904.1 1.32023 -3.8869 0
M  V30 9657 H 902.761 1.53729 -2.73909 0
M  V30 9658 H 901.954 0.745364 -4.98458 0
M  V30 9659 H 901.556 -0.43497 -3.71462 0
M  V30 9660 H 903.848 0.44976 -6.76005 0
M  V30 9661 H 904.791 -1.05513 -7.00195 0
M  V30 9662 H 905.199 0.0363203 -5.64488 0
M  V30 9663 N 904.597 1.47463 -0.556102 0
M  V30 9664 C 905.827 2.06568 -0.0364056 0
M  V30 9665 C 906.235 1.40939 1.26225 0
M  V30 9666 O 905.578 0.499572 1.76777 0
M  V30 9667 C 905.64 3.58755 0.231278 0
M  V30 9668 C 905.304 4.46417 -0.977776 0
M  V30 9669 C 906.301 4.846 -1.88305 0
M  V30 9670 C 903.986 4.87948 -1.19214 0
M  V30 9671 C 905.98 5.63111 -2.98639 0
M  V30 9672 C 903.667 5.66224 -2.29857 0
M  V30 9673 C 904.665 6.03716 -3.194 0
M  V30 9674 O 904.353 6.80415 -4.28125 0
M  V30 9675 H 904.085 0.674675 -0.042305 0
M  V30 9676 H 906.639 1.9047 -0.768775 0
M  V30 9677 H 904.869 3.73061 1.01794 0
M  V30 9678 H 906.558 3.99884 0.696221 0
M  V30 9679 H 907.324 4.53115 -1.72949 0
M  V30 9680 H 903.203 4.58233 -0.504347 0
M  V30 9681 H 906.747 5.92293 -3.68557 0
M  V30 9682 H 902.644 5.97121 -2.45186 0
M  V30 9683 H 903.412 6.98807 -4.26159 0
M  V30 9684 N 906.075 0.2925 1.54862 0
M  V30 9685 C 907.323 -0.318633 1.99572 0
M  V30 9686 C 907.644 -1.55062 1.1824 0
M  V30 9687 O 906.914 -1.93943 0.276226 0
M  V30 9688 H 905.494 -0.120722 0.737181 0
M  V30 9689 H 908.156 0.401862 1.90712 0
M  V30 9690 H 907.252 -0.596542 3.06346 0
M  V30 9691 N 907.553 -1.57587 0.0200696 0
M  V30 9692 C 908.501 -2.10814 -0.982868 0
M  V30 9693 C 909.495 -1.03263 -1.34287 0
M  V30 9694 O 910.701 -1.21708 -1.32617 0
M  V30 9695 H 907.076 -0.673409 -0.334701 0
M  V30 9696 H 909.047 -2.94034 -0.50856 0
M  V30 9697 C 907.796 -2.64301 -2.25921 0
M  V30 9698 H 907.119 -3.46703 -1.99091 0
M  V30 9699 H 908.559 -3.052 -2.94328 0
M  V30 9700 C 907.018 -1.56628 -2.98277 0
M  V30 9701 O 907.548 -0.960825 -3.9004 0
M  V30 9702 N 905.754 -1.28889 -2.60453 0
M  V30 9703 H 905.301 -1.7831 -1.85912 0
M  V30 9704 H 905.259 -0.570697 -3.09177 0
M  V30 9705 N 909.032 0.252966 -1.55557 0
M  V30 9706 C 909.942 1.33472 -1.92931 0
M  V30 9707 C 910.958 1.52983 -0.828985 0
M  V30 9708 O 912.134 1.66723 -1.12984 0
M  V30 9709 C 909.199 2.6704 -2.21112 0
M  V30 9710 C 908.26 2.56103 -3.44542 0
M  V30 9711 C 907.493 3.83302 -3.71369 0
M  V30 9712 O 907.716 4.84907 -3.00368 0
M  V30 9713 O 906.65 3.823 -4.64898 0
M  V30 9714 H 910.476 1.04768 -2.85057 0
M  V30 9715 H 908.061 0.453208 -1.4236 0
M  V30 9716 H 909.943 3.45981 -2.40572 0
M  V30 9717 H 908.618 2.95489 -1.32166 0
M  V30 9718 H 907.525 1.7547 -3.30396 0
M  V30 9719 H 908.858 2.32601 -4.33772 0
M  V30 9720 N 910.51 1.48831 0.518367 0
M  V30 9721 C 911.42 1.6692 1.64848 0
M  V30 9722 C 912.436 0.551711 1.65022 0
M  V30 9723 O 913.612 0.824251 1.83761 0
M  V30 9724 C 910.677 1.71559 3.01278 0
M  V30 9725 C 909.738 2.9502 3.11868 0
M  V30 9726 C 908.971 2.99428 4.4179 0
M  V30 9727 O 909.194 2.11914 5.29574 0
M  V30 9728 O 908.128 3.91719 4.5699 0
M  V30 9729 H 911.954 2.62623 1.52521 0
M  V30 9730 H 909.539 1.32368 0.692749 0
M  V30 9731 H 911.421 1.77064 3.82396 0
M  V30 9732 H 910.096 0.790316 3.13904 0
M  V30 9733 H 909.003 2.95042 2.30003 0
M  V30 9734 H 910.336 3.8697 3.04163 0
M  V30 9735 N 911.988 -0.768124 1.37614 0
M  V30 9736 C 913.404 -1.06919 1.18493 0
M  V30 9737 C 913.604 -2.01486 0.0235753 0
M  V30 9738 O 912.66 -2.4438 -0.635209 0
M  V30 9739 C 913.973 -1.66321 2.50515 0
M  V30 9740 C 915.521 -1.78562 2.57069 0
M  V30 9741 C 915.996 -2.41377 3.89231 0
M  V30 9742 N 917.487 -2.48824 3.90693 0
M  V30 9743 C 918.222 -2.98288 4.89706 0
M  V30 9744 N 917.718 -3.47897 5.99115 0
M  V30 9745 N 919.511 -2.97196 4.77107 0
M  V30 9746 H 911.662 -0.140286 2.11936 0
M  V30 9747 H 913.925 -0.124863 0.939741 0
M  V30 9748 H 913.631 -1.04303 3.35878 0
M  V30 9749 H 913.505 -2.65571 2.67866 0
M  V30 9750 H 915.892 -2.39712 1.72111 0
M  V30 9751 H 915.973 -0.780574 2.43599 0
M  V30 9752 H 915.617 -1.80866 4.74605 0
M  V30 9753 H 915.547 -3.42495 4.00006 0
M  V30 9754 H 918.038 -2.1372 3.1166 0
M  V30 9755 H 918.351 -3.84053 6.70614 0
M  V30 9756 H 916.696 -3.45993 6.02755 0
M  V30 9757 H 919.887 -2.57741 3.90752 0
M  V30 9758 H 920.06 -3.35434 5.54426 0
M  V30 9759 O 913.505 -1.33537 -0.908295 0
M  V30 9760 H 914.196 -1.17147 -1.5426 0
M  V30 END ATOM
M  V30 BEGIN BOND
M  V30 END BOND
M  V30 END CTAB
M  END
$$$$
