drugbank_target|Q72EF4 Cytochrome c-type protein (DB07918)
 OpenBabel12092120473D

  0  0  0     0  0            999 V3000
M  V30 BEGIN CTAB
M  V30 COUNTS 2403 2424 0 0 0
M  V30 BEGIN ATOM
M  V30 1 H -0.908 1.98254 -0.117106 0
M  V30 2 N 0 1.576 0 0
M  V30 3 C 0.933 2.03868 1.02534 0
M  V30 4 C 1.911 0.928543 1.3348 0
M  V30 5 O 3.095 1.19667 1.45644 0
M  V30 6 C 0.222 2.43627 2.35294 0
M  V30 7 C -0.732 3.65373 2.2001 0
M  V30 8 S 0.101 5.13292 1.52614 0
M  V30 9 C 1.257 5.56322 2.86805 0
M  V30 10 H 1.49 2.90518 0.631377 0
M  V30 11 H -0.977 1.52953 0.210867 0
M  V30 12 H 0.981 2.67203 3.11629 0
M  V30 13 H -0.358 1.57376 2.7183 0
M  V30 14 H -1.165 3.90944 3.18086 0
M  V30 15 H -1.563 3.418 1.51819 0
M  V30 16 H 0.729 5.58782 3.83104 0
M  V30 17 H 1.672 6.56266 2.65933 0
M  V30 18 H 2.08 4.83886 2.90714 0
M  V30 19 N 1.4781 -0.272755 1.55222 0
M  V30 20 C 2.7031 -1.02683 1.80197 0
M  V30 21 C 3.1281 -1.79142 0.573551 0
M  V30 22 O 2.4861 -1.74917 -0.476849 0
M  V30 23 C 2.5341 -1.9609 3.02624 0
M  V30 24 O 1.6381 -3.04863 2.77727 0
M  V30 25 H 0.9791 -0.293557 0.595584 0
M  V30 26 H 3.5091 -0.30159 2.02365 0
M  V30 27 H 3.5191 -2.38039 3.31363 0
M  V30 28 H 2.1941 -1.39851 3.91682 0
M  V30 29 H 0.7711 -2.67228 2.60084 0
M  V30 30 N 2.9562 -1.48159 -0.537278 0
M  V30 31 C 3.8662 -1.64807 -1.6696 0
M  V30 32 C 4.8822 -0.530651 -1.65711 0
M  V30 33 O 6.0582 -0.800784 -1.84796 0
M  V30 34 C 3.1232 -1.67708 -3.03438 0
M  V30 35 C 2.1842 -2.91025 -3.156 0
M  V30 36 C 1.4172 -2.93778 -4.45567 0
M  V30 37 O 1.6402 -2.05153 -5.3223 0
M  V30 38 O 0.5742 -3.85868 -4.61941 0
M  V30 39 H 4.4002 -2.6066 -1.55853 0
M  V30 40 H 1.9852 -1.31475 -0.709549 0
M  V30 41 H 3.8672 -1.7218 -3.84619 0
M  V30 42 H 2.5422 -0.750278 -3.14885 0
M  V30 43 H 1.4492 -2.92089 -2.33741 0
M  V30 44 H 2.7822 -3.83065 -3.09066 0
M  V30 45 N 4.4343 0.785586 -1.36625 0
M  V30 46 C 5.3443 1.92964 -1.33425 0
M  V30 47 C 6.3603 1.72394 -0.235851 0
M  V30 48 O 7.5363 1.95866 -0.468878 0
M  V30 49 C 4.6013 3.27884 -1.12662 0
M  V30 50 C 3.6623 3.61204 -2.32013 0
M  V30 51 C 2.8953 4.89687 -2.12231 0
M  V30 52 O 3.1183 5.59704 -1.09945 0
M  V30 53 O 2.0523 5.21752 -3.00098 0
M  V30 54 H 5.8783 1.98613 -2.29753 0
M  V30 55 H 3.4633 0.926384 -1.17211 0
M  V30 56 H 5.3453 4.08614 -1.03016 0
M  V30 57 H 4.0203 3.23118 -0.193991 0
M  V30 58 H 2.9273 2.80765 -2.47228 0
M  V30 59 H 4.2603 3.70698 -3.23796 0
M  V30 60 N 5.9124 1.20967 1.01018 0
M  V30 61 C 6.8594 0.964281 2.09691 0
M  V30 62 C 7.8294 -0.107853 1.65749 0
M  V30 63 O 9.0144 0.0381987 1.90762 0
M  V30 64 C 6.1544 0.52943 3.41015 0
M  V30 65 C 5.2674 1.67043 3.98398 0
M  V30 66 C 4.4024 1.18525 5.17808 0
M  V30 67 C 3.4414 2.29892 5.67288 0
M  V30 68 N 2.5784 1.82546 6.77954 0
M  V30 69 H 7.4184 1.89463 2.30017 0
M  V30 70 H 4.9554 0.944289 1.1279 0
M  V30 71 H 6.9134 0.258588 4.16398 0
M  V30 72 H 5.5434 -0.363919 3.20742 0
M  V30 73 H 4.5954 2.05603 3.20049 0
M  V30 74 H 5.9074 2.50877 4.31117 0
M  V30 75 H 5.0614 0.870762 6.00419 0
M  V30 76 H 3.8004 0.316887 4.86669 0
M  V30 77 H 2.8054 2.6215 4.83278 0
M  V30 78 H 4.0304 3.17216 6.00459 0
M  V30 79 H 1.9764 0.980454 6.48632 0
M  V30 80 H 1.8934 2.59956 7.09901 0
M  V30 81 H 3.1614 1.54115 7.64113 0
M  V30 82 N 7.3905 -1.2043 1.01659 0
M  V30 83 C 8.6155 -1.94318 0.724942 0
M  V30 84 C 9.0405 -1.74266 -0.708034 0
M  V30 85 O 8.3985 -1.03694 -1.48719 0
M  V30 86 C 8.4465 -3.44486 1.06591 0
M  V30 87 O 7.5505 -4.12017 0.177599 0
M  V30 88 H 6.8915 -0.60708 0.26898 0
M  V30 89 H 9.4215 -1.52861 1.35995 0
M  V30 90 H 9.4315 -3.95106 1.01762 0
M  V30 91 H 8.1065 -3.58404 2.10997 0
M  V30 92 H 6.6835 -3.71821 0.283421 0
M  V30 93 N 8.8686 -0.792821 -1.36206 0
M  V30 94 C 10.2846 -0.474903 -1.52371 0
M  V30 95 C 10.4846 1.00622 -1.74578 0
M  V30 96 O 9.5406 1.79162 -1.77924 0
M  V30 97 C 10.8536 -1.3083 -2.70747 0
M  V30 98 C 12.4016 -1.30234 -2.84619 0
M  V30 99 C 12.8766 -2.11956 -4.06004 0
M  V30 100 N 14.3676 -2.09419 -4.13156 0
M  V30 101 C 15.1026 -2.69419 -5.06163 0
M  V30 102 N 14.5986 -3.3829 -6.04592 0
M  V30 103 N 16.3916 -2.59134 -4.98804 0
M  V30 104 H 8.5426 -1.75222 -1.20046 0
M  V30 105 H 10.8056 -0.745024 -0.586211 0
M  V30 106 H 10.5116 -2.35881 -2.6087 0
M  V30 107 H 10.3856 -0.95196 -3.6499 0
M  V30 108 H 12.7726 -0.259748 -2.93955 0
M  V30 109 H 12.8536 -1.69847 -1.91274 0
M  V30 110 H 12.4976 -3.16248 -3.97429 0
M  V30 111 H 12.4276 -1.69711 -4.98503 0
M  V30 112 H 14.9186 -1.59297 -3.42685 0
M  V30 113 H 15.2316 -3.81394 -6.7213 0
M  V30 114 H 13.5766 -3.42393 -6.04807 0
M  V30 115 H 16.7676 -2.04927 -4.20859 0
M  V30 116 H 16.9406 -3.06185 -5.711 0
M  V30 117 N 10.3467 1.47872 -0.545128 0
M  V30 118 C 11.2947 2.31533 0.222512 0
M  V30 119 C 12.2887 1.42177 0.920985 0
M  V30 120 O 13.4947 1.59005 0.843645 0
M  V30 121 H 9.8697 0.746519 0.0906278 0
M  V30 122 H 11.8407 2.94139 -0.50246 0
M  V30 123 C 10.5897 3.2457 1.24699 0
M  V30 124 H 9.9127 3.93283 0.718944 0
M  V30 125 H 11.3527 3.85963 1.75523 0
M  V30 126 C 9.8117 2.47237 2.28856 0
M  V30 127 O 10.3417 2.20808 3.35569 0
M  V30 128 N 8.5477 2.08461 2.02466 0
M  V30 129 H 8.0947 2.30155 1.157 0
M  V30 130 H 8.0527 1.57033 2.72375 0
M  V30 131 N 11.8248 0.280983 1.55075 0
M  V30 132 C 13.0728 -0.333455 1.9933 0
M  V30 133 C 13.3938 -1.55937 1.17085 0
M  V30 134 O 12.6638 -1.94143 0.261805 0
M  V30 135 H 11.2438 -0.126197 0.736263 0
M  V30 136 H 13.9058 0.387678 1.91005 0
M  V30 137 H 13.0018 -0.619292 3.05894 0
M  V30 138 N 13.3029 -1.57598 0.00835791 0
M  V30 139 C 14.7139 -1.7892 -0.53333 0
M  V30 140 C 15.0649 -0.916609 -1.73473 0
M  V30 141 O 14.1899 -0.121336 -2.1606 0
M  V30 142 C 14.7849 -3.24488 -0.974313 0
M  V30 143 C 13.3439 -3.46878 -1.46125 0
M  V30 144 C 12.4909 -2.74157 -0.416302 0
M  V30 145 H 15.4419 -1.56958 0.234495 0
M  V30 146 H 15.4629 -3.3306 -1.83988 0
M  V30 147 H 14.9749 -3.87972 -0.099718 0
M  V30 148 H 13.0759 -2.8862 -2.35646 0
M  V30 149 H 13.1889 -4.55572 -1.48295 0
M  V30 150 H 11.5529 -2.39022 -0.87981 0
M  V30 151 H 12.3359 -3.40345 0.44947 0
M  V30 152 N 14.781 0.264519 -1.55364 0
M  V30 153 C 15.744 1.31046 -1.88042 0
M  V30 154 C 16.744 1.41943 -0.755569 0
M  V30 155 O 17.934 1.40947 -1.02369 0
M  V30 156 C 15.066 2.69067 -2.09323 0
M  V30 157 H 16.259 1.03297 -2.81549 0
M  V30 158 H 13.812 0.502989 -1.47986 0
M  V30 159 H 14.547 3.01982 -1.18226 0
M  V30 160 H 14.332 2.62542 -2.91229 0
M  V30 161 H 15.822 3.44623 -2.35848 0
M  V30 162 N 16.2591 1.48442 0.529413 0
M  V30 163 C 17.6751 1.34575 0.858004 0
M  V30 164 C 17.8751 0.3572 1.98309 0
M  V30 165 O 16.9311 -0.221379 2.51528 0
M  V30 166 C 18.2441 2.74617 1.22499 0
M  V30 167 C 19.7921 2.83109 1.33484 0
M  V30 168 C 20.2671 4.23854 1.73526 0
M  V30 169 N 21.7581 4.2653 1.80628 0
M  V30 170 C 22.4931 5.32372 2.12997 0
M  V30 171 N 21.9891 6.48491 2.43786 0
M  V30 172 N 23.7821 5.19766 2.14008 0
M  V30 173 H 15.9331 2.1133 -0.212925 0
M  V30 174 H 18.1961 0.947439 -0.0326199 0
M  V30 175 H 17.9021 3.4852 0.471905 0
M  V30 176 H 17.7761 3.08177 2.17501 0
M  V30 177 H 20.1631 2.09462 2.0787 0
M  V30 178 H 20.2441 2.53168 0.366027 0
M  V30 179 H 19.8881 4.98018 0.997013 0
M  V30 180 H 19.8181 4.5124 2.71459 0
M  V30 181 H 22.3091 3.42772 1.59108 0
M  V30 182 H 22.6221 7.24993 2.67592 0
M  V30 183 H 20.9671 6.51765 2.41304 0
M  V30 184 H 24.1581 4.28066 1.89412 0
M  V30 185 H 24.3311 6.02354 2.38902 0
M  V30 186 N 17.7372 -0.778329 1.37039 0
M  V30 187 C 18.6672 -1.90546 1.34962 0
M  V30 188 C 19.6482 -1.68681 0.219274 0
M  V30 189 O 20.8332 -1.89634 0.418624 0
M  V30 190 C 17.9632 -3.27734 1.14925 0
M  V30 191 C 16.9172 -3.64147 2.24902 0
M  V30 192 C 16.2432 -4.99806 1.89996 0
M  V30 193 C 17.5432 -3.71579 3.67051 0
M  V30 194 H 19.2372 -1.92541 2.29277 0
M  V30 195 H 16.7832 -0.924948 1.10366 0
M  V30 196 H 18.7362 -4.06215 1.12104 0
M  V30 197 H 17.4602 -3.26154 0.170631 0
M  V30 198 H 16.1192 -2.8797 2.26868 0
M  V30 199 H 15.7672 -4.94759 0.906796 0
M  V30 200 H 15.4672 -5.25139 2.63634 0
M  V30 201 H 16.9912 -5.80694 1.88749 0
M  V30 202 H 18.4052 -4.40227 3.67251 0
M  V30 203 H 16.8022 -4.08405 4.39688 0
M  V30 204 H 17.8722 -2.72404 4.01154 0
M  V30 205 N 19.2153 -1.21501 -1.00376 0
M  V30 206 C 20.1623 -0.975387 -2.09177 0
M  V30 207 C 21.1323 0.0990615 -1.65804 0
M  V30 208 O 22.3173 -0.0483147 -1.90739 0
M  V30 209 C 19.4573 -0.547507 -3.40729 0
M  V30 210 C 18.5703 -1.69153 -3.97506 0
M  V30 211 C 17.7053 -1.2127 -5.17172 0
M  V30 212 C 16.7443 -2.32897 -5.66061 0
M  V30 213 N 15.8813 -1.86138 -6.76976 0
M  V30 214 H 20.7213 -1.9068 -2.29009 0
M  V30 215 H 18.2583 -0.950257 -1.12288 0
M  V30 216 H 20.2163 -0.280667 -4.16255 0
M  V30 217 H 18.8463 0.346904 -3.20931 0
M  V30 218 H 17.8983 -2.07298 -3.18954 0
M  V30 219 H 19.2103 -2.5316 -4.29781 0
M  V30 220 H 18.3643 -0.902591 -5.99948 0
M  V30 221 H 17.1033 -0.342692 -4.86495 0
M  V30 222 H 16.1083 -2.64709 -4.81881 0
M  V30 223 H 17.3333 -3.20396 -5.98768 0
M  V30 224 H 15.2793 -1.01484 -6.48103 0
M  V30 225 H 15.1963 -2.63717 -7.08512 0
M  V30 226 H 16.4643 -1.58165 -7.63285 0
M  V30 227 N 20.6934 1.19889 -1.02296 0
M  V30 228 C 21.6234 2.25141 -0.619174 0
M  V30 229 C 22.6044 1.66051 0.368915 0
M  V30 230 O 23.7894 1.92546 0.252941 0
M  V30 231 C 20.9194 3.4728 0.0368783 0
M  V30 232 C 19.8734 4.19005 -0.872865 0
M  V30 233 C 19.1994 5.34637 -0.0822402 0
M  V30 234 C 20.4994 4.74452 -2.18387 0
M  V30 235 H 22.1934 2.59171 -1.49903 0
M  V30 236 H 19.7394 1.24579 -0.722222 0
M  V30 237 H 21.6924 4.20098 0.330958 0
M  V30 238 H 20.4164 3.12433 0.95149 0
M  V30 239 H 19.0754 3.48061 -1.15105 0
M  V30 240 H 18.7234 4.96034 0.83422 0
M  V30 241 H 18.4234 5.83557 -0.688149 0
M  V30 242 H 19.9474 6.10255 0.205238 0
M  V30 243 H 21.3614 5.39055 -1.95172 0
M  V30 244 H 19.7584 5.33834 -2.74119 0
M  V30 245 H 20.8284 3.92844 -2.84257 0
M  V30 246 N 22.1715 0.800033 1.35784 0
M  V30 247 C 23.4175 0.377901 1.99248 0
M  V30 248 C 23.7505 -1.05052 1.63333 0
M  V30 249 O 23.0255 -1.72768 0.893385 0
M  V30 250 C 23.3085 0.553922 3.55814 0
M  V30 251 C 23.1615 2.0268 4.01548 0
M  V30 252 C 24.4805 -0.0244802 4.40093 0
M  V30 253 H 21.5995 0.138782 0.723815 0
M  V30 254 H 24.2415 1.00835 1.61035 0
M  V30 255 H 22.3915 0.0172398 3.88496 0
M  V30 256 H 24.0635 2.62536 3.79305 0
M  V30 257 H 22.3065 2.5256 3.52698 0
M  V30 258 H 22.9775 2.10087 5.10458 0
M  V30 259 H 25.4535 0.433775 4.13833 0
M  V30 260 H 24.3295 0.128637 5.48749 0
M  V30 261 H 24.5905 -1.11758 4.27741 0
M  V30 262 N 23.6496 -1.47581 0.552962 0
M  V30 263 C 24.5796 -2.32762 -0.185451 0
M  V30 264 C 25.5606 -1.43527 -0.912905 0
M  V30 265 O 26.7456 -1.72388 -0.894201 0
M  V30 266 C 23.8756 -3.25219 -1.21859 0
M  V30 267 C 22.8296 -4.23661 -0.607864 0
M  V30 268 C 22.1556 -5.05413 -1.74533 0
M  V30 269 C 23.4556 -5.20481 0.435582 0
M  V30 270 H 25.1496 -2.94749 0.525684 0
M  V30 271 H 22.6956 -1.41738 0.254251 0
M  V30 272 H 24.6486 -3.8365 -1.7433 0
M  V30 273 H 23.3726 -2.61279 -1.95961 0
M  V30 274 H 22.0316 -3.66451 -0.104489 0
M  V30 275 H 21.6796 -4.3788 -2.47529 0
M  V30 276 H 21.3796 -5.72059 -1.34249 0
M  V30 277 H 22.9036 -5.66701 -2.27338 0
M  V30 278 H 24.3176 -5.733 -0.00290157 0
M  V30 279 H 22.7146 -5.95305 0.757067 0
M  V30 280 H 23.7846 -4.66217 1.33303 0
M  V30 281 N 25.1277 -0.289203 -1.54924 0
M  V30 282 C 26.3757 0.322879 -1.99504 0
M  V30 283 C 26.6967 1.55313 -1.1791 0
M  V30 284 O 25.9667 1.94001 -0.272097 0
M  V30 285 H 24.5467 0.122291 -0.736922 0
M  V30 286 H 27.2087 -0.397802 -1.90797 0
M  V30 287 H 26.3047 0.603061 -3.06218 0
M  V30 288 N 26.6058 1.57591 -0.0167156 0
M  V30 289 C 27.8538 1.90906 0.663285 0
M  V30 290 C 28.1748 0.892509 1.73376 0
M  V30 291 O 27.4448 -0.0677623 1.95783 0
M  V30 292 H 26.0248 0.704637 0.247983 0
M  V30 293 H 28.6868 1.94803 -0.0615909 0
M  V30 294 H 27.7828 2.9116 1.12393 0
M  V30 295 N 28.0839 -0.256276 1.55502 0
M  V30 296 C 29.0469 -1.30047 1.88734 0
M  V30 297 C 30.0469 -1.4154 0.763086 0
M  V30 298 O 31.2369 -1.40403 1.03115 0
M  V30 299 C 28.3689 -2.67953 2.10747 0
M  V30 300 H 29.5619 -1.01802 2.82093 0
M  V30 301 H 27.1149 -0.495134 1.4825 0
M  V30 302 H 27.8499 -3.01351 1.19825 0
M  V30 303 H 27.6349 -2.60993 2.92617 0
M  V30 304 H 29.1249 -3.43368 2.37673 0
M  V30 305 N 29.562 -1.4872 -0.521534 0
M  V30 306 C 30.79 -1.60843 -1.30142 0
M  V30 307 C 31.205 -0.271897 -1.86832 0
M  V30 308 O 30.562 0.739969 -1.66825 0
M  V30 309 C 30.613 -2.66155 -2.4463 0
M  V30 310 O 30.334 -3.94623 -1.90275 0
M  V30 311 C 31.835 -2.88795 -3.36322 0
M  V30 312 H 29.055 -0.542075 -0.395468 0
M  V30 313 H 31.599 -1.94609 -0.628285 0
M  V30 314 H 29.754 -2.35224 -3.07812 0
M  V30 315 H 30.168 -4.52468 -2.65279 0
M  V30 316 H 31.642 -3.66264 -4.12983 0
M  V30 317 H 32.119 -1.97934 -3.9207 0
M  V30 318 H 32.725 -3.21063 -2.78924 0
M  V30 319 N 31.0401 0.771051 -1.3745 0
M  V30 320 C 31.9701 1.89827 -1.3597 0
M  V30 321 C 32.9511 1.68562 -0.228216 0
M  V30 322 O 34.1361 1.8941 -0.428675 0
M  V30 323 C 31.2661 3.2712 -1.16662 0
M  V30 324 C 30.2201 3.6295 -2.2683 0
M  V30 325 C 29.5461 4.98791 -1.92644 0
M  V30 326 C 30.8461 3.69627 -3.69017 0
M  V30 327 H 32.5401 1.91323 -2.30295 0
M  V30 328 H 30.0861 0.919082 -1.10855 0
M  V30 329 H 32.0391 4.05615 -1.14256 0
M  V30 330 H 30.7631 3.26059 -0.187926 0
M  V30 331 H 29.4221 2.86763 -2.28392 0
M  V30 332 H 29.0701 4.94271 -0.933021 0
M  V30 333 H 28.7701 5.23733 -2.66416 0
M  V30 334 H 30.2941 5.79685 -1.91826 0
M  V30 335 H 31.7081 4.38273 -3.69581 0
M  V30 336 H 30.1051 4.06067 -4.41848 0
M  V30 337 H 31.1751 2.70273 -4.02592 0
M  V30 338 N 32.5182 1.22032 0.997298 0
M  V30 339 C 33.7662 1.04016 1.73278 0
M  V30 340 C 34.0872 -0.426255 1.90284 0
M  V30 341 O 33.3572 -1.30694 1.45931 0
M  V30 342 H 31.9372 0.381897 0.642 0
M  V30 343 H 34.5992 1.5347 1.20137 0
M  V30 344 H 33.6952 1.51441 2.72896 0
M  V30 345 N 33.9963 -1.19345 1.0293 0
M  V30 346 C 35.2423 -1.89318 0.727083 0
M  V30 347 C 35.5753 -1.79446 -0.742483 0
M  V30 348 O 34.8503 -1.1871 -1.54072 0
M  V30 349 C 35.1333 -3.40238 1.17942 0
M  V30 350 C 34.9863 -3.58979 2.71024 0
M  V30 351 C 36.3053 -4.33479 0.760548 0
M  V30 352 H 33.4243 -0.687475 0.265606 0
M  V30 353 H 36.0663 -1.40477 1.2793 0
M  V30 354 H 34.2163 -3.81964 0.709608 0
M  V30 355 H 35.8883 -3.26421 3.25955 0
M  V30 356 H 34.1313 -3.02018 3.11396 0
M  V30 357 H 34.8023 -4.64823 2.9773 0
M  V30 358 H 37.2783 -3.99469 1.16464 0
M  V30 359 H 36.1543 -5.37664 1.10493 0
M  V30 360 H 36.4153 -4.40813 -0.337063 0
M  V30 361 N 35.4744 -0.807222 -1.35358 0
M  V30 362 C 36.7204 -0.388463 -1.99045 0
M  V30 363 C 37.0534 1.04184 -1.63888 0
M  V30 364 O 36.3284 1.72292 -0.902535 0
M  V30 365 C 36.6114 -0.572783 -3.55515 0
M  V30 366 C 36.4644 -2.04807 -4.00468 0
M  V30 367 C 37.7834 0.00114064 -4.401 0
M  V30 368 H 34.9024 -0.142619 -0.723069 0
M  V30 369 H 37.5444 -1.01687 -1.60498 0
M  V30 370 H 35.6944 -0.0378425 -3.88482 0
M  V30 371 H 37.3664 -2.64544 -3.77908 0
M  V30 372 H 35.6094 -2.54427 -3.51353 0
M  V30 373 H 36.2804 -2.12792 -5.09337 0
M  V30 374 H 38.7564 -0.455716 -4.13597 0
M  V30 375 H 37.6324 -0.157737 -5.48673 0
M  V30 376 H 37.8934 1.09488 -4.28328 0
M  V30 377 N 36.9525 1.47285 -0.560781 0
M  V30 378 C 37.9155 2.28535 0.174488 0
M  V30 379 C 38.9155 1.37153 0.839388 0
M  V30 380 O 40.1055 1.59748 0.694702 0
M  V30 381 C 37.2375 3.16934 1.25561 0
M  V30 382 H 38.4305 2.95012 -0.539262 0
M  V30 383 H 35.9835 1.53034 -0.317865 0
M  V30 384 H 36.7185 2.55157 2.00164 0
M  V30 385 H 36.5035 3.8419 0.783604 0
M  V30 386 H 37.9935 3.78143 1.77193 0
M  V30 387 N 38.4306 0.297415 1.54768 0
M  V30 388 C 39.3606 -0.573494 2.26348 0
M  V30 389 C 40.3416 -1.14085 1.26169 0
M  V30 390 O 41.5266 -1.17086 1.54934 0
M  V30 391 C 38.6566 -1.74716 3.00153 0
M  V30 392 C 37.6106 -1.31032 4.07449 0
M  V30 393 C 36.9366 -2.56887 4.68949 0
M  V30 394 C 38.2366 -0.444183 5.20408 0
M  V30 395 H 39.9306 0.0235131 2.99391 0
M  V30 396 H 37.4766 0.0127488 1.43994 0
M  V30 397 H 39.4296 -2.3625 3.48947 0
M  V30 398 H 38.1536 -2.37035 2.24682 0
M  V30 399 H 36.8126 -0.718066 3.59499 0
M  V30 400 H 36.4606 -3.17512 3.90122 0
M  V30 401 H 36.1606 -2.2836 5.41411 0
M  V30 402 H 37.6846 -3.19229 5.20505 0
M  V30 403 H 39.0986 -0.9651 5.65118 0
M  V30 404 H 37.4956 -0.252846 5.99567 0
M  V30 405 H 38.5656 0.531609 4.81977 0
M  V30 406 N 39.9087 -1.5758 0.0250728 0
M  V30 407 C 40.8717 -2.08896 -0.943139 0
M  V30 408 C 41.8717 -1.00321 -1.25668 0
M  V30 409 O 43.0617 -1.26495 -1.19769 0
M  V30 410 C 40.1937 -2.55143 -2.26086 0
M  V30 411 H 41.3867 -2.95723 -0.498775 0
M  V30 412 H 38.9397 -1.54703 -0.222888 0
M  V30 413 H 39.6747 -1.71633 -2.75159 0
M  V30 414 H 39.4597 -3.34461 -2.04641 0
M  V30 415 H 40.9497 -2.95083 -2.95492 0
M  V30 416 N 41.3868 0.248026 -1.55636 0
M  V30 417 C 42.6148 0.993808 -1.81469 0
M  V30 418 C 43.0298 1.78991 -0.60064 0
M  V30 419 O 42.3868 1.77345 0.430682 0
M  V30 420 C 42.4378 1.93258 -3.05506 0
M  V30 421 O 42.1588 1.16869 -4.22224 0
M  V30 422 C 43.6598 2.79444 -3.4413 0
M  V30 423 H 40.8798 0.292486 -0.603898 0
M  V30 424 H 43.4238 0.271253 -2.02693 0
M  V30 425 H 41.5788 2.60943 -2.86335 0
M  V30 426 H 41.9928 1.80359 -4.92515 0
M  V30 427 H 43.4668 3.41066 -4.34026 0
M  V30 428 H 43.9438 3.50499 -2.64665 0
M  V30 429 H 44.5498 2.17214 -3.65648 0
M  V30 430 N 42.8649 1.48995 0.513639 0
M  V30 431 C 44.1109 1.58076 1.27042 0
M  V30 432 C 44.4439 0.261026 1.92438 0
M  V30 433 O 43.7189 -0.734393 1.80103 0
M  V30 434 C 44.0019 2.73091 2.34719 0
M  V30 435 C 43.8549 4.14821 1.73907 0
M  V30 436 C 45.1739 2.83796 3.36375 0
M  V30 437 H 42.2929 0.575391 0.460536 0
M  V30 438 H 44.9349 1.81232 0.570516 0
M  V30 439 H 43.0849 2.53479 2.94416 0
M  V30 440 H 44.7569 4.45917 1.18135 0
M  V30 441 H 42.9999 4.21058 1.0437 0
M  V30 442 H 43.6709 4.91147 2.51949 0
M  V30 443 H 46.1469 3.01611 2.86653 0
M  V30 444 H 45.0229 3.65971 4.09093 0
M  V30 445 H 45.2839 1.92624 3.9793 0
M  V30 446 N 44.343 -0.763751 1.37857 0
M  V30 447 C 45.306 -1.85889 1.34081 0
M  V30 448 C 46.306 -1.58949 0.243277 0
M  V30 449 O 47.496 -1.66882 0.499589 0
M  V30 450 C 44.628 -3.23176 1.08489 0
M  V30 451 H 45.821 -1.90648 2.31502 0
M  V30 452 H 43.374 -0.964367 1.23003 0
M  V30 453 H 44.109 -3.24091 0.116318 0
M  V30 454 H 43.894 -3.44124 1.8794 0
M  V30 455 H 45.384 -4.03254 1.08517 0
M  V30 456 N 45.8211 -1.22559 -0.990812 0
M  V30 457 C 47.0681 -1.05141 -1.73065 0
M  V30 458 C 47.3961 0.413191 -1.9006 0
M  V30 459 O 46.6511 1.32257 -1.44245 0
M  V30 460 C 46.9501 -1.71011 -3.13831 0
M  V30 461 C 46.6161 -3.20911 -3.16745 0
M  V30 462 C 45.2781 -3.61812 -3.17247 0
M  V30 463 C 47.6301 -4.16846 -3.12872 0
M  V30 464 C 44.9581 -4.97127 -3.1158 0
M  V30 465 C 47.3101 -5.5214 -3.08746 0
M  V30 466 C 45.9741 -5.92419 -3.07565 0
M  V30 467 H 45.2441 -0.384738 -0.633291 0
M  V30 468 H 47.8911 -1.5235 -1.16025 0
M  V30 469 H 46.1961 -1.16133 -3.74193 0
M  V30 470 H 47.8931 -1.55023 -3.69823 0
M  V30 471 H 44.4831 -2.88344 -3.17105 0
M  V30 472 H 48.6671 -3.86263 -3.11632 0
M  V30 473 H 43.9231 -5.27562 -3.09012 0
M  V30 474 H 48.0971 -6.26201 -3.04705 0
M  V30 475 H 45.7241 -6.97236 -3.02929 0
M  V30 476 N 47.2992 1.18797 -1.03562 0
M  V30 477 C 48.5472 1.88278 -0.734569 0
M  V30 478 C 48.8682 1.8043 0.739586 0
M  V30 479 O 48.1382 1.21925 1.53333 0
M  V30 480 H 46.7182 0.696991 -0.268725 0
M  V30 481 H 49.3802 1.44192 -1.31129 0
M  V30 482 H 48.4762 2.94443 -1.03489 0
M  V30 483 N 48.7773 0.814389 1.34928 0
M  V30 484 C 49.7103 0.175641 2.27523 0
M  V30 485 C 50.6883 -0.662953 1.48471 0
M  V30 486 O 51.8723 -0.628545 1.77712 0
M  V30 487 C 48.9993 -0.755516 3.30166 0
M  V30 488 C 48.0453 0.00445305 4.265 0
M  V30 489 S 48.8783 1.34582 5.18313 0
M  V30 490 C 50.0343 0.419315 6.24494 0
M  V30 491 H 50.2673 0.960691 2.8135 0
M  V30 492 H 47.8003 0.609846 1.41846 0
M  V30 493 H 49.7583 -1.28723 3.89796 0
M  V30 494 H 48.4193 -1.51402 2.75202 0
M  V30 495 H 47.6123 -0.703077 4.99072 0
M  V30 496 H 47.2143 0.466447 3.7108 0
M  V30 497 H 49.5063 -0.392432 6.76362 0
M  V30 498 H 50.4493 1.11446 6.99275 0
M  V30 499 H 50.8573 0.0115389 5.64499 0
M  V30 500 N 50.2554 -1.46986 0.568584 0
M  V30 501 C 51.2024 -2.30153 -0.172707 0
M  V30 502 C 52.1724 -1.39759 -0.897586 0
M  V30 503 O 53.3574 -1.68716 -0.891044 0
M  V30 504 C 50.4974 -3.23952 -1.1895 0
M  V30 505 C 49.6104 -4.29441 -0.469517 0
M  V30 506 C 48.7454 -5.1038 -1.47259 0
M  V30 507 C 47.7844 -6.07632 -0.738225 0
M  V30 508 N 46.9214 -6.8149 -1.68868 0
M  V30 509 H 51.7614 -2.93019 0.542596 0
M  V30 510 H 49.2984 -1.44422 0.279401 0
M  V30 511 H 51.2564 -3.76767 -1.79173 0
M  V30 512 H 49.8864 -2.62926 -1.87269 0
M  V30 513 H 48.9384 -3.79594 0.247467 0
M  V30 514 H 50.2504 -4.98689 0.105241 0
M  V30 515 H 49.4044 -5.67402 -2.14803 0
M  V30 516 H 48.1434 -4.4106 -2.08128 0
M  V30 517 H 47.1484 -5.49778 -0.0489293 0
M  V30 518 H 48.3734 -6.78966 -0.135129 0
M  V30 519 H 46.3194 -6.14891 -2.28573 0
M  V30 520 H 46.2364 -7.46948 -1.16636 0
M  V30 521 H 47.5044 -7.43078 -2.3549 0
M  V30 522 N 51.7335 -0.305618 -1.54608 0
M  V30 523 C 52.9635 0.304333 -2.04346 0
M  V30 524 C 53.3715 1.47715 -1.18224 0
M  V30 525 O 52.7145 1.82591 -0.201577 0
M  V30 526 C 52.7765 0.819031 -3.50046 0
M  V30 527 C 52.4405 -0.22912 -4.56425 0
M  V30 528 C 53.4375 -1.05914 -5.08997 0
M  V30 529 C 51.1225 -0.372148 -5.0092 0
M  V30 530 C 53.1165 -2.01809 -6.04609 0
M  V30 531 C 50.8035 -1.33454 -5.9635 0
M  V30 532 C 51.8015 -2.15599 -6.48079 0
M  V30 533 O 51.4895 -3.10205 -7.41639 0
M  V30 534 H 51.2215 0.0693996 -0.672428 0
M  V30 535 H 53.7755 -0.444548 -2.00532 0
M  V30 536 H 52.0055 1.61852 -3.51199 0
M  V30 537 H 53.6945 1.34537 -3.82955 0
M  V30 538 H 54.4605 -0.959538 -4.75413 0
M  V30 539 H 50.3395 0.257304 -4.60281 0
M  V30 540 H 53.8835 -2.65966 -6.44909 0
M  V30 541 H 49.7805 -1.43485 -6.29351 0
M  V30 542 H 50.5485 -3.05237 -7.59455 0
M  V30 543 N 53.2116 1.57565 -0.0334293 0
M  V30 544 C 54.4396 1.9628 0.654347 0
M  V30 545 C 54.8546 0.910138 1.65414 0
M  V30 546 O 54.2116 -0.107595 1.82183 0
M  V30 547 C 54.2626 3.35067 1.35693 0
M  V30 548 O 53.9836 4.36296 0.397191 0
M  V30 549 C 55.4846 3.88439 2.13613 0
M  V30 550 H 52.7046 0.646369 0.180132 0
M  V30 551 H 55.2486 2.04282 -0.0944721 0
M  V30 552 H 53.4036 3.2827 2.05712 0
M  V30 553 H 53.8176 5.1678 0.896597 0
M  V30 554 H 55.2916 4.8788 2.58219 0
M  V30 555 H 55.7686 3.22914 2.97696 0
M  V30 556 H 56.3746 3.98516 1.48543 0
M  V30 557 N 54.6897 -0.239769 1.55765 0
M  V30 558 C 55.9667 -0.990056 1.68693 0
M  V30 559 C 56.3467 -2.03107 0.5754 0
M  V30 560 O 55.6947 -2.24604 -0.42017 0
M  V30 561 C 55.9047 -1.61696 3.09282 0
M  V30 562 C 57.2527 -2.11613 3.6811 0
M  V30 563 O 58.2767 -1.71624 3.12127 0
M  V30 564 O 57.1357 -2.85057 4.66267 0
M  V30 565 H 54.2297 -0.461299 0.686391 0
M  V30 566 H 56.7757 -0.232991 1.68093 0
M  V30 567 H 55.5477 -0.864357 3.81634 0
M  V30 568 H 55.1707 -2.44005 3.13923 0
M  V30 569 N 56.1678 -1.49265 -0.50573 0
M  V30 570 C 57.0998 -1.617 -1.62437 0
M  V30 571 C 58.1128 -0.499924 -1.54934 0
M  V30 572 O 59.3018 -0.771785 -1.60953 0
M  V30 573 C 56.4018 -1.5533 -3.01207 0
M  V30 574 C 55.5748 -2.8249 -3.33943 0
M  V30 575 C 54.6338 -2.69238 -4.52103 0
M  V30 576 O 53.6598 -3.43167 -4.5412 0
M  V30 577 N 54.8618 -1.80468 -5.51735 0
M  V30 578 H 57.6268 -2.58177 -1.52199 0
M  V30 579 H 55.1878 -1.46294 -0.693511 0
M  V30 580 H 57.1798 -1.44125 -3.78167 0
M  V30 581 H 55.7498 -0.667297 -3.05395 0
M  V30 582 H 54.9698 -3.08081 -2.45926 0
M  V30 583 H 56.2578 -3.66802 -3.5261 0
M  V30 584 H 55.6558 -1.19653 -5.52901 0
M  V30 585 H 54.2128 -1.75188 -6.27816 0
M  V30 586 N 57.6459 0.756429 -1.3826 0
M  V30 587 C 59.0619 1.0591 -1.19395 0
M  V30 588 C 59.2619 2.01459 -0.0406567 0
M  V30 589 O 58.3179 2.44909 0.614467 0
M  V30 590 C 59.6309 1.64191 -2.51916 0
M  V30 591 C 61.1789 1.76376 -2.58574 0
M  V30 592 C 61.6539 2.38069 -3.91264 0
M  V30 593 N 63.1449 2.45503 -3.92788 0
M  V30 594 C 63.8799 2.94126 -4.92217 0
M  V30 595 N 63.3759 3.42805 -6.02043 0
M  V30 596 N 65.1689 2.9314 -4.7961 0
M  V30 597 H 57.3199 0.122313 -2.12048 0
M  V30 598 H 59.5829 0.116892 -0.940766 0
M  V30 599 H 59.2889 1.01451 -3.3675 0
M  V30 600 H 59.1629 2.6329 -2.70108 0
M  V30 601 H 61.5499 2.38244 -1.74137 0
M  V30 602 H 61.6309 0.759894 -2.44252 0
M  V30 603 H 61.2749 1.76835 -4.76121 0
M  V30 604 H 61.2049 3.39091 -4.02895 0
M  V30 605 H 63.6959 2.1107 -3.13461 0
M  V30 606 H 64.0089 3.78354 -6.73846 0
M  V30 607 H 62.3539 3.4087 -6.05667 0
M  V30 608 H 65.5449 2.54419 -3.92923 0
M  V30 609 H 65.7179 3.30721 -5.5725 0
M  V30 610 N 59.124 1.23083 0.984299 0
M  V30 611 C 60.535 1.05609 1.5396 0
M  V30 612 C 60.886 -0.377793 1.92528 0
M  V30 613 O 60.011 -1.26398 1.75649 0
M  V30 614 C 60.606 1.91087 2.7977 0
M  V30 615 C 59.165 1.77885 3.31713 0
M  V30 616 C 58.312 1.87028 2.04733 0
M  V30 617 H 61.263 1.36802 0.804419 0
M  V30 618 H 61.284 1.43336 3.5247 0
M  V30 619 H 60.796 2.9544 2.51668 0
M  V30 620 H 58.897 0.762995 3.64704 0
M  V30 621 H 59.01 2.61047 4.01735 0
M  V30 622 H 57.374 1.30565 2.18689 0
M  V30 623 H 58.157 2.92929 1.79017 0
M  V30 624 N 60.6021 -1.18246 1.0419 0
M  V30 625 C 61.8491 -1.88257 0.746017 0
M  V30 626 C 62.1771 -1.80429 -0.726331 0
M  V30 627 O 61.4321 -1.2 -1.54591 0
M  V30 628 C 61.7311 -3.38082 1.15911 0
M  V30 629 C 61.3971 -3.66114 2.63195 0
M  V30 630 C 60.0591 -3.73474 3.03432 0
M  V30 631 C 62.4111 -3.78398 3.5842 0
M  V30 632 C 59.7391 -3.90599 4.37778 0
M  V30 633 C 62.0911 -3.97039 4.92487 0
M  V30 634 C 60.7551 -4.02635 5.32392 0
M  V30 635 H 60.0251 -0.688883 0.272987 0
M  V30 636 H 62.6721 -1.3995 1.30715 0
M  V30 637 H 60.9771 -3.88377 0.516806 0
M  V30 638 H 62.6741 -3.90596 0.907516 0
M  V30 639 H 59.2641 -3.61003 2.3103 0
M  V30 640 H 63.4481 -3.72042 3.28479 0
M  V30 641 H 58.7041 -3.93175 4.68213 0
M  V30 642 H 62.8781 -4.05486 5.66175 0
M  V30 643 H 60.5051 -4.15657 6.36501 0
M  V30 644 N 62.0802 -0.821533 -1.34494 0
M  V30 645 C 63.3202 -0.414785 -2.00147 0
M  V30 646 C 63.6842 1.00299 -1.6372 0
M  V30 647 O 64.8852 1.51255 -2.22206 0
M  V30 648 C 63.1562 -0.609403 -3.52166 0
M  V30 649 S 64.7152 -0.295297 -4.37805 0
M  V30 650 H 61.5332 -0.15679 -0.693497 0
M  V30 651 H 64.1352 -1.06705 -1.63812 0
M  V30 652 H 62.8392 -1.64096 -3.76166 0
M  V30 653 H 62.3702 0.0576414 -3.93358 0
M  V30 654 H 64.3852 0.891531 -4.88125 0
M  V30 655 N 63.5583 1.46682 -0.576371 0
M  V30 656 C 64.7863 2.06798 -0.0649635 0
M  V30 657 C 65.2013 1.42612 1.23723 0
M  V30 658 O 64.5583 0.529203 1.74659 0
M  V30 659 C 64.6093 3.6132 0.114202 0
M  V30 660 O 64.3303 4.23104 -1.13644 0
M  V30 661 C 65.8313 4.38349 0.66069 0
M  V30 662 H 63.0513 0.668778 -0.0545616 0
M  V30 663 H 65.5953 1.88404 -0.795237 0
M  V30 664 H 63.7503 3.79162 0.794673 0
M  V30 665 H 64.1643 5.15894 -0.946253 0
M  V30 666 H 65.6383 5.47081 0.73526 0
M  V30 667 H 66.1153 4.05953 1.67627 0
M  V30 668 H 66.7213 4.25297 0.0152951 0
M  V30 669 N 65.0364 0.313813 1.54444 0
M  V30 670 C 66.2614 -0.296681 2.05267 0
M  V30 671 C 66.6864 -1.45757 1.18897 0
M  V30 672 O 66.0444 -1.80239 0.195886 0
M  V30 673 C 66.0924 -0.71831 3.53373 0
M  V30 674 O 65.1964 -1.82175 3.69981 0
M  V30 675 H 64.5374 -0.0554061 0.661684 0
M  V30 676 H 67.0674 0.459387 1.99376 0
M  V30 677 H 67.0774 -1.00364 3.95463 0
M  V30 678 H 65.7524 0.130821 4.15694 0
M  V30 679 H 64.3294 -1.53598 3.39797 0
M  V30 680 N 66.5145 -1.57545 0.0417849 0
M  V30 681 C 67.7545 -1.94185 -0.63809 0
M  V30 682 C 68.1185 -0.919339 -1.68559 0
M  V30 683 O 69.3195 -1.17236 -2.41886 0
M  V30 684 C 67.5905 -3.35672 -1.22714 0
M  V30 685 S 69.1495 -3.94256 -1.92633 0
M  V30 686 H 65.9675 -0.679353 -0.209764 0
M  V30 687 H 68.5695 -1.95199 0.108479 0
M  V30 688 H 67.2735 -4.07898 -0.452503 0
M  V30 689 H 66.8045 -3.38132 -2.01073 0
M  V30 690 H 68.8195 -3.7872 -3.20602 0
M  V30 691 N 67.9926 0.231505 -1.5589 0
M  V30 692 C 68.9426 1.29007 -1.87993 0
M  V30 693 C 69.9266 1.42764 -0.742102 0
M  V30 694 O 71.1186 1.45747 -1.00433 0
M  V30 695 C 68.2476 2.6425 -2.1915 0
M  V30 696 C 67.3336 2.54435 -3.39299 0
M  V30 697 N 67.7246 2.14262 -4.58176 0
M  V30 698 C 66.0226 2.85416 -3.42715 0
M  V30 699 C 66.7236 2.15455 -5.40328 0
M  V30 700 N 65.6996 2.55558 -4.79783 0
M  V30 701 H 69.5016 0.970213 -2.77424 0
M  V30 702 H 67.0156 0.440097 -1.56323 0
M  V30 703 H 69.0126 3.40665 -2.40319 0
M  V30 704 H 67.6726 2.9709 -1.31025 0
M  V30 705 H 68.6836 1.85554 -4.83518 0
M  V30 706 H 65.3606 3.22693 -2.64906 0
M  V30 707 H 66.7506 1.86605 -6.45467 0
M  V30 708 N 69.4707 1.49531 0.497807 0
M  V30 709 C 70.7197 1.58426 1.24837 0
M  V30 710 C 71.0327 0.277643 1.93619 0
M  V30 711 O 72.2387 0.24517 2.70391 0
M  V30 712 C 70.6947 2.79538 2.26686 0
M  V30 713 C 70.3027 4.16971 1.63828 0
M  V30 714 C 72.0467 2.97764 3.0255 0
M  V30 715 C 69.9537 5.29301 2.63807 0
M  V30 716 H 68.8837 0.58989 0.469623 0
M  V30 717 H 71.5347 1.75923 0.521857 0
M  V30 718 H 69.9167 2.55542 3.02514 0
M  V30 719 H 71.0907 4.51116 0.939711 0
M  V30 720 H 69.4057 4.04129 1.00342 0
M  V30 721 H 72.0027 3.78856 3.77323 0
M  V30 722 H 72.3457 2.08448 3.60354 0
M  V30 723 H 72.8787 3.21815 2.33838 0
M  V30 724 H 69.6177 6.20687 2.10779 0
M  V30 725 H 69.1377 4.99606 3.31894 0
M  V30 726 H 70.8167 5.58768 3.2617 0
M  V30 727 N 70.9488 -0.749086 1.3866 0
M  V30 728 C 71.8818 -1.87111 1.30631 0
M  V30 729 C 72.8598 -1.61572 0.18251 0
M  V30 730 O 74.0438 -1.85019 0.360592 0
M  V30 731 C 71.1708 -3.22815 1.02511 0
M  V30 732 C 70.2168 -3.67234 2.1689 0
M  V30 733 S 71.0498 -3.78245 3.79066 0
M  V30 734 C 72.2058 -5.16761 3.53142 0
M  V30 735 H 72.4388 -1.93636 2.25594 0
M  V30 736 H 69.9718 -0.912525 1.24549 0
M  V30 737 H 71.9298 -4.01181 0.869701 0
M  V30 738 H 70.5908 -3.13964 0.0925884 0
M  V30 739 H 69.7838 -4.65677 1.92771 0
M  V30 740 H 69.3858 -2.96034 2.28561 0
M  V30 741 H 71.6778 -6.02656 3.09534 0
M  V30 742 H 72.6208 -5.45902 4.50995 0
M  V30 743 H 73.0288 -4.85771 2.87554 0
M  V30 744 N 72.4269 -1.23603 -0.977757 0
M  V30 745 C 73.3749 -1.01704 -2.09187 0
M  V30 746 C 74.3689 0.0448214 -1.69341 0
M  V30 747 O 75.5749 -0.108902 -1.7967 0
M  V30 748 H 71.9499 -0.311803 -0.684312 0
M  V30 749 H 73.9209 -1.96207 -2.24823 0
M  V30 750 C 72.6699 -0.627746 -3.41986 0
M  V30 751 H 71.9929 -1.43656 -3.73099 0
M  V30 752 H 73.4329 -0.514053 -4.20872 0
M  V30 753 C 71.8919 0.664238 -3.30287 0
M  V30 754 O 72.4219 1.71268 -3.6336 0
M  V30 755 N 70.6279 0.641156 -2.83439 0
M  V30 756 H 70.1749 -0.212376 -2.56723 0
M  V30 757 H 70.1329 1.50583 -2.75993 0
M  V30 758 N 73.905 1.17692 -1.04816 0
M  V30 759 C 75.316 1.69501 -0.782698 0
M  V30 760 C 75.667 1.83456 0.695577 0
M  V30 761 O 74.792 1.51942 1.54086 0
M  V30 762 C 75.387 3.07874 -1.41419 0
M  V30 763 C 73.946 3.56864 -1.19686 0
M  V30 764 C 73.093 2.3322 -1.50012 0
M  V30 765 H 76.044 1.02262 -1.2136 0
M  V30 766 H 76.065 3.71528 -0.821428 0
M  V30 767 H 75.577 2.97685 -2.49009 0
M  V30 768 H 73.678 3.72337 -0.140043 0
M  V30 769 H 73.791 4.39851 -1.89916 0
M  V30 770 H 72.155 2.37501 -0.920071 0
M  V30 771 H 72.938 2.25644 -2.58727 0
M  V30 772 N 75.3831 0.828654 1.34056 0
M  V30 773 C 76.6291 0.42008 1.98402 0
M  V30 774 C 76.9621 -1.01564 1.65525 0
M  V30 775 O 76.2371 -1.70834 0.929831 0
M  V30 776 C 76.5201 0.62927 3.54559 0
M  V30 777 C 76.3731 2.11152 3.97159 0
M  V30 778 C 77.6921 0.0688756 4.40046 0
M  V30 779 H 74.8111 0.154104 0.720709 0
M  V30 780 H 77.4531 1.04228 1.5886 0
M  V30 781 H 75.6031 0.0996418 3.88372 0
M  V30 782 H 77.2751 2.70522 3.73651 0
M  V30 783 H 75.5181 2.59985 3.47261 0
M  V30 784 H 76.1891 2.20868 5.05887 0
M  V30 785 H 78.6651 0.521458 4.1282 0
M  V30 786 H 77.5411 0.245006 5.48353 0
M  V30 787 H 77.8021 -1.0266 4.30015 0
M  V30 788 N 76.8612 -1.46375 0.584142 0
M  V30 789 C 78.1092 -2.01978 0.0701287 0
M  V30 790 C 78.4302 -1.4579 -1.295 0
M  V30 791 O 77.7002 -0.64314 -1.85042 0
M  V30 792 H 76.2802 -0.746648 0.0229345 0
M  V30 793 H 78.9422 -1.79461 0.760245 0
M  V30 794 H 78.0382 -3.121 0.0022064 0
M  V30 795 N 78.3393 -0.321999 -1.54275 0
M  V30 796 C 79.5853 0.281461 -2.00837 0
M  V30 797 C 79.9183 1.51909 -1.20985 0
M  V30 798 O 79.1933 1.923 -0.291733 0
M  V30 799 C 79.4763 0.617162 -3.54772 0
M  V30 800 C 79.3293 -0.631064 -4.45351 0
M  V30 801 C 80.6483 1.43542 -4.16033 0
M  V30 802 H 77.7673 0.100826 -0.730071 0
M  V30 803 H 80.4093 -0.438268 -1.84876 0
M  V30 804 H 78.5593 1.23034 -3.68504 0
M  V30 805 H 80.2313 -1.26934 -4.43492 0
M  V30 806 H 78.4743 -1.26025 -4.15091 0
M  V30 807 H 79.1453 -0.351735 -5.50878 0
M  V30 808 H 81.6213 0.917134 -4.05867 0
M  V30 809 H 80.4973 1.63907 -5.23856 0
M  V30 810 H 80.7583 2.43108 -3.69257 0
M  V30 811 N 79.8174 1.5752 -0.0501392 0
M  V30 812 C 81.0454 1.96963 0.633492 0
M  V30 813 C 81.4604 0.927631 1.6444 0
M  V30 814 O 80.8174 -0.0882665 1.82286 0
M  V30 815 C 80.8684 3.36487 1.32132 0
M  V30 816 O 80.5894 4.36693 0.350894 0
M  V30 817 C 82.0904 3.90682 2.09481 0
M  V30 818 H 79.3104 0.648244 0.173266 0
M  V30 819 H 81.8544 2.0417 -0.116134 0
M  V30 820 H 80.0094 3.30434 2.02218 0
M  V30 821 H 80.4234 5.17702 0.841735 0
M  V30 822 H 81.8974 4.90591 2.5303 0
M  V30 823 H 82.3744 3.26053 2.94255 0
M  V30 824 H 82.9804 4.00069 1.44307 0
M  V30 825 N 81.2955 -0.223234 1.56011 0
M  V30 826 C 82.2455 -1.28008 1.88674 0
M  V30 827 C 83.2295 -1.42369 0.749663 0
M  V30 828 O 84.4215 -1.45212 1.01205 0
M  V30 829 C 81.5505 -2.63084 2.20548 0
M  V30 830 C 80.6365 -2.52632 3.40643 0
M  V30 831 N 81.0275 -2.11829 4.59306 0
M  V30 832 C 79.3255 -2.83594 3.44224 0
M  V30 833 C 80.0265 -2.12587 5.41463 0
M  V30 834 N 79.0025 -2.5301 4.81131 0
M  V30 835 H 82.8045 -0.955487 2.77935 0
M  V30 836 H 80.3185 -0.431801 1.56554 0
M  V30 837 H 82.3155 -3.39385 2.42122 0
M  V30 838 H 80.9755 -2.96391 1.32599 0
M  V30 839 H 81.9865 -1.82988 4.84496 0
M  V30 840 H 78.6635 -3.21284 2.66614 0
M  V30 841 H 80.0535 -1.83179 6.46448 0
M  V30 842 N 82.7736 -1.49793 -0.48987 0
M  V30 843 C 83.7206 -1.67281 -1.59014 0
M  V30 844 C 84.6906 -0.514177 -1.57941 0
M  V30 845 O 85.8756 -0.742533 -1.75759 0
M  V30 846 C 83.0156 -1.75569 -2.97102 0
M  V30 847 C 82.1286 -3.0281 -3.08107 0
M  V30 848 C 81.2636 -3.02008 -4.36995 0
M  V30 849 C 80.3026 -4.23782 -4.41673 0
M  V30 850 N 79.4396 -4.20826 -5.62005 0
M  V30 851 H 84.2796 -2.61224 -1.43409 0
M  V30 852 H 81.8166 -1.29508 -0.697565 0
M  V30 853 H 83.7746 -1.78354 -3.77155 0
M  V30 854 H 82.4046 -0.850827 -3.11385 0
M  V30 855 H 81.4566 -3.09584 -2.21047 0
M  V30 856 H 82.7686 -3.92801 -3.07423 0
M  V30 857 H 81.9226 -3.03418 -5.25378 0
M  V30 858 H 80.6616 -2.09815 -4.4026 0
M  V30 859 H 79.6666 -4.22604 -3.5169 0
M  V30 860 H 80.8916 -5.17181 -4.40115 0
M  V30 861 H 78.8376 -3.31476 -5.66091 0
M  V30 862 H 78.7546 -5.04564 -5.62984 0
M  V30 863 H 80.0226 -4.26355 -6.52565 0
M  V30 864 N 84.2517 0.741722 -1.39055 0
M  V30 865 C 85.1817 1.869 -1.39966 0
M  V30 866 C 86.1627 1.6804 -0.26392 0
M  V30 867 O 87.3477 1.88458 -0.468755 0
M  V30 868 C 84.4777 3.24572 -1.23574 0
M  V30 869 C 83.4317 3.58056 -2.34477 0
M  V30 870 C 82.7577 4.94593 -2.0318 0
M  V30 871 C 84.0577 3.61716 -3.76774 0
M  V30 872 H 85.7517 1.86395 -2.34302 0
M  V30 873 H 83.2977 0.895361 -1.1278 0
M  V30 874 H 85.2507 4.031 -1.22834 0
M  V30 875 H 83.9747 3.25587 -0.257045 0
M  V30 876 H 82.6337 2.81854 -2.34423 0
M  V30 877 H 82.2817 4.92181 -1.03765 0
M  V30 878 H 81.9817 5.17964 -2.77465 0
M  V30 879 H 83.5057 5.75486 -2.04079 0
M  V30 880 H 84.9197 4.30335 -3.78794 0
M  V30 881 H 83.3167 3.96603 -4.50362 0
M  V30 882 H 84.3867 2.61672 -4.08235 0
M  V30 883 N 85.7298 1.2412 0.971189 0
M  V30 884 C 86.9548 1.10667 1.75407 0
M  V30 885 C 87.3798 -0.337048 1.85056 0
M  V30 886 O 86.7378 -1.24396 1.31892 0
M  V30 887 C 86.7858 1.74726 3.15441 0
M  V30 888 O 85.8898 1.01566 3.99697 0
M  V30 889 H 85.2308 0.387341 0.539317 0
M  V30 890 H 87.7608 1.64358 1.2185 0
M  V30 891 H 87.7708 1.80341 3.6598 0
M  V30 892 H 86.4458 2.79773 3.07734 0
M  V30 893 H 85.0228 1.03713 3.58187 0
M  V30 894 N 87.2079 -1.17134 1.05439 0
M  V30 895 C 88.4559 -1.87085 0.764429 0
M  V30 896 C 88.7769 -1.81584 -0.710787 0
M  V30 897 O 88.0469 -1.24349 -1.51374 0
M  V30 898 H 86.6269 -0.692627 0.279779 0
M  V30 899 H 89.2889 -1.42087 1.33406 0
M  V30 900 H 88.3849 -2.92759 1.0816 0
M  V30 901 N 88.686 -0.835752 -1.33615 0
M  V30 902 C 89.636 -0.238856 -2.26745 0
M  V30 903 C 90.62 0.604343 -1.49119 0
M  V30 904 O 91.812 0.456822 -1.71003 0
M  V30 905 C 88.941 0.587725 -3.38232 0
M  V30 906 C 88.027 -0.266811 -4.2326 0
M  V30 907 N 88.418 -1.34403 -4.87616 0
M  V30 908 C 86.716 -0.0533131 -4.45968 0
M  V30 909 C 87.417 -1.86819 -5.50884 0
M  V30 910 N 86.393 -1.17013 -5.30857 0
M  V30 911 H 90.195 -1.06266 -2.74016 0
M  V30 912 H 87.709 -0.679881 -1.47483 0
M  V30 913 H 89.706 1.03161 -4.03935 0
M  V30 914 H 88.366 1.40954 -2.9251 0
M  V30 915 H 89.377 -1.7269 -4.88261 0
M  V30 916 H 86.054 0.735312 -4.10974 0
M  V30 917 H 87.444 -2.7701 -6.1214 0
M  V30 918 N 90.1641 1.46063 -0.591896 0
M  V30 919 C 91.1271 2.28854 0.125973 0
M  V30 920 C 92.1271 1.38903 0.810107 0
M  V30 921 O 93.3171 1.61186 0.66066 0
M  V30 922 C 90.4491 3.19526 1.1881 0
M  V30 923 H 91.6421 2.93802 -0.601717 0
M  V30 924 H 89.1951 1.52325 -0.350254 0
M  V30 925 H 89.9301 2.59345 1.94707 0
M  V30 926 H 89.7151 3.85766 0.701936 0
M  V30 927 H 91.2051 3.81817 1.69132 0
M  V30 928 N 91.6422 0.330177 1.54103 0
M  V30 929 C 92.5902 -0.548226 2.26047 0
M  V30 930 C 93.5842 -1.11309 1.27698 0
M  V30 931 O 94.7902 -1.06036 1.45452 0
M  V30 932 H 91.1652 -0.195456 0.726155 0
M  V30 933 H 93.1362 0.0807567 2.98291 0
M  V30 934 C 91.8852 -1.69415 3.03634 0
M  V30 935 H 91.2082 -1.26876 3.79134 0
M  V30 936 H 92.6482 -2.28423 3.5721 0
M  V30 937 C 91.1072 -2.61569 2.12328 0
M  V30 938 O 91.6372 -3.63462 1.7105 0
M  V30 939 N 89.8432 -2.29952 1.77681 0
M  V30 940 H 89.3902 -1.47134 2.11446 0
M  V30 941 H 89.3482 -2.91871 1.16869 0
M  V30 942 N 93.1203 -1.57491 0.0584922 0
M  V30 943 C 94.3693 -1.92155 -0.613146 0
M  V30 944 C 94.6823 -0.939334 -1.71569 0
M  V30 945 O 95.8883 -1.17829 -2.44599 0
M  V30 946 C 94.3443 -3.41303 -1.14195 0
M  V30 947 C 93.9523 -4.47944 -0.0711265 0
M  V30 948 C 95.6963 -3.84988 -1.78841 0
M  V30 949 C 93.6033 -5.88212 -0.613225 0
M  V30 950 H 92.5333 -0.717162 -0.232796 0
M  V30 951 H 95.1843 -1.83049 0.12857 0
M  V30 952 H 93.5663 -3.45437 -1.93621 0
M  V30 953 H 94.7403 -4.55408 0.702836 0
M  V30 954 H 93.0553 -4.13644 0.478313 0
M  V30 955 H 95.6523 -4.87159 -2.20408 0
M  V30 956 H 95.9953 -3.21632 -2.64308 0
M  V30 957 H 96.5283 -3.83401 -1.06059 0
M  V30 958 H 93.2673 -6.55183 0.203978 0
M  V30 959 H 92.7873 -5.84294 -1.35501 0
M  V30 960 H 94.4663 -6.37687 -1.09383 0
M  V30 961 N 94.5984 0.214957 -1.56127 0
M  V30 962 C 95.8234 0.95924 -1.83884 0
M  V30 963 C 96.2484 1.7689 -0.639644 0
M  V30 964 O 95.6064 1.76566 0.411601 0
M  V30 965 C 95.6544 1.84723 -3.09693 0
M  V30 966 O 94.7584 2.94346 -2.8885 0
M  V30 967 H 94.0994 0.27125 -0.606069 0
M  V30 968 H 96.6294 0.226276 -2.03345 0
M  V30 969 H 96.6394 2.25576 -3.39969 0
M  V30 970 H 95.3144 1.25218 -3.96602 0
M  V30 971 H 93.8914 2.57391 -2.69823 0
M  V30 972 N 96.0765 1.50051 0.48192 0
M  V30 973 C 97.3165 1.62128 1.24474 0
M  V30 974 C 97.6805 0.309742 1.89485 0
M  V30 975 O 98.8815 0.305854 2.67054 0
M  V30 976 C 97.1525 2.76151 2.26882 0
M  V30 977 S 98.7115 3.08297 3.12247 0
M  V30 978 H 95.5295 0.571661 0.422759 0
M  V30 979 H 98.1315 1.87791 0.54359 0
M  V30 980 H 96.8355 3.69942 1.77683 0
M  V30 981 H 96.3665 2.52541 3.0164 0
M  V30 982 H 98.3815 2.51287 4.27866 0
M  V30 983 N 97.5546 -0.734337 1.39446 0
M  V30 984 C 98.5026 -1.86971 1.38364 0
M  V30 985 C 99.4966 -1.67288 0.266687 0
M  V30 986 O 100.703 -1.74621 0.436755 0
M  V30 987 H 97.0776 -0.615474 0.432082 0
M  V30 988 H 99.0486 -1.85 2.34132 0
M  V30 989 C 97.7976 -3.2466 1.24465 0
M  V30 990 H 97.1206 -3.40402 2.09682 0
M  V30 991 H 98.5606 -4.04292 1.27764 0
M  V30 992 C 97.0196 -3.36867 -0.0468674 0
M  V30 993 O 97.5496 -3.88618 -1.01681 0
M  V30 994 N 95.7556 -2.90391 -0.110145 0
M  V30 995 H 95.3026 -2.48466 0.679868 0
M  V30 996 H 95.2606 -2.98939 -0.973799 0
M  V30 997 N 99.0327 -1.24633 -0.964593 0
M  V30 998 C 100.31 -0.995809 -1.68354 0
M  V30 999 C 100.69 0.480964 -2.05548 0
M  V30 1000 O 100.038 1.45599 -1.76105 0
M  V30 1001 C 100.248 -1.92177 -2.91323 0
M  V30 1002 C 101.596 -2.19446 -3.63495 0
M  V30 1003 O 102.62 -1.89855 -3.01386 0
M  V30 1004 O 101.479 -2.69714 -4.75307 0
M  V30 1005 H 98.5727 -0.376854 -0.736146 0
M  V30 1006 H 101.119 -1.35745 -1.0184 0
M  V30 1007 H 99.8907 -2.91938 -2.60553 0
M  V30 1008 H 99.5137 -1.56349 -3.65569 0
M  V30 1009 N 100.511 1.16574 -1.06058 0
M  V30 1010 C 101.751 1.88723 -0.78504 0
M  V30 1011 C 102.115 1.79706 0.676006 0
M  V30 1012 O 103.316 2.46757 1.06603 0
M  V30 1013 C 101.587 3.34338 -1.26304 0
M  V30 1014 S 103.146 4.24366 -1.1162 0
M  V30 1015 H 99.9638 0.651448 -0.284846 0
M  V30 1016 H 102.566 1.40732 -1.35701 0
M  V30 1017 H 101.27 3.38439 -2.32136 0
M  V30 1018 H 100.801 3.87378 -0.685719 0
M  V30 1019 H 102.816 4.96179 -0.0456539 0
M  V30 1020 N 101.989 0.842826 1.3317 0
M  V30 1021 C 102.939 0.250877 2.26616 0
M  V30 1022 C 103.923 -0.596427 1.49437 0
M  V30 1023 O 105.115 -0.447747 1.71243 0
M  V30 1024 C 102.244 -0.569779 3.38539 0
M  V30 1025 C 101.33 0.289254 4.23112 0
M  V30 1026 N 101.721 1.36987 4.86897 0
M  V30 1027 C 100.019 0.0769631 4.45934 0
M  V30 1028 C 100.72 1.89737 5.49886 0
M  V30 1029 N 99.6959 1.19827 5.30229 0
M  V30 1030 H 103.498 1.07718 2.73448 0
M  V30 1031 H 101.012 0.687693 1.47121 0
M  V30 1032 H 103.009 -1.01018 4.04476 0
M  V30 1033 H 101.669 -1.39401 2.93253 0
M  V30 1034 H 102.68 1.75277 4.87338 0
M  V30 1035 H 99.3569 -0.713507 4.11358 0
M  V30 1036 H 100.747 2.80253 6.10662 0
M  V30 1037 N 103.467 -1.45747 0.599634 0
M  V30 1038 C 104.43 -2.28917 -0.113835 0
M  V30 1039 C 105.43 -1.3933 -0.802729 0
M  V30 1040 O 106.62 -1.61534 -0.652103 0
M  V30 1041 C 103.752 -3.20152 -1.17114 0
M  V30 1042 H 104.945 -2.93478 0.617289 0
M  V30 1043 H 102.498 -1.52137 0.358327 0
M  V30 1044 H 103.233 -2.60374 -1.93329 0
M  V30 1045 H 103.018 -3.86133 -0.681468 0
M  V30 1046 H 104.508 -3.82708 -1.67105 0
M  V30 1047 N 104.945 -0.338344 -1.53925 0
M  V30 1048 C 106.356 0.146651 -1.86123 0
M  V30 1049 C 106.707 1.5042 -1.2597 0
M  V30 1050 O 105.832 2.08723 -0.571294 0
M  V30 1051 C 106.427 0.272879 -3.37699 0
M  V30 1052 C 104.986 0.702103 -3.69794 0
M  V30 1053 C 104.133 -0.167304 -2.76795 0
M  V30 1054 H 107.084 -0.558123 -1.48562 0
M  V30 1055 H 107.105 1.10128 -3.64214 0
M  V30 1056 H 106.617 -0.715307 -3.81451 0
M  V30 1057 H 104.718 1.6995 -3.31584 0
M  V30 1058 H 104.831 0.495604 -4.7653 0
M  V30 1059 H 103.195 0.359527 -2.5215 0
M  V30 1060 H 103.978 -1.15253 -3.23375 0
M  V30 1061 N 106.423 1.57458 -0.0668435 0
M  V30 1062 C 107.373 2.0896 0.912119 0
M  V30 1063 C 108.357 0.998186 1.26195 0
M  V30 1064 O 109.549 1.26133 1.24175 0
M  V30 1065 C 106.678 2.6508 2.18145 0
M  V30 1066 C 105.764 3.81218 1.85832 0
M  V30 1067 N 106.155 4.90378 1.23948 0
M  V30 1068 C 104.453 3.9042 2.15612 0
M  V30 1069 C 105.154 5.71279 1.09616 0
M  V30 1070 N 104.13 5.19389 1.60423 0
M  V30 1071 H 107.932 2.90749 0.42924 0
M  V30 1072 H 105.446 1.6182 0.137184 0
M  V30 1073 H 107.443 3.0029 2.89192 0
M  V30 1074 H 106.103 1.84736 2.67025 0
M  V30 1075 H 107.114 5.09847 0.909731 0
M  V30 1076 H 103.791 3.21043 2.66903 0
M  V30 1077 H 105.181 6.69085 0.614425 0
M  V30 1078 N 107.901 -0.206675 1.56239 0
M  V30 1079 C 108.849 -1.27571 1.94495 0
M  V30 1080 C 109.843 -1.47737 0.828862 0
M  V30 1081 O 111.049 -1.48735 1.0138 0
M  V30 1082 H 107.424 -0.428029 0.6183 0
M  V30 1083 H 109.395 -0.925961 2.8367 0
M  V30 1084 C 108.144 -2.61568 2.29079 0
M  V30 1085 H 107.467 -2.46863 3.14482 0
M  V30 1086 H 108.907 -3.35144 2.5972 0
M  V30 1087 C 107.366 -3.17695 1.12123 0
M  V30 1088 O 107.896 -3.99801 0.390153 0
M  V30 1089 N 106.102 -2.76276 0.901097 0
M  V30 1090 H 105.649 -2.09613 1.49733 0
M  V30 1091 H 105.607 -3.1417 0.120319 0
M  V30 1092 N 109.379 -1.50304 -0.473955 0
M  V30 1093 C 110.309 -1.71886 -1.58042 0
M  V30 1094 C 111.29 -0.567799 -1.60344 0
M  V30 1095 O 112.475 -0.806623 -1.76656 0
M  V30 1096 C 109.605 -1.81036 -2.96384 0
M  V30 1097 C 108.559 -2.962 -3.08949 0
M  V30 1098 C 107.885 -2.9049 -4.48909 0
M  V30 1099 C 109.185 -4.36752 -2.86434 0
M  V30 1100 H 110.879 -2.64527 -1.40234 0
M  V30 1101 H 108.425 -1.27295 -0.673201 0
M  V30 1102 H 110.378 -1.94719 -3.73714 0
M  V30 1103 H 109.102 -0.850147 -3.15341 0
M  V30 1104 H 107.761 -2.82164 -2.3405 0
M  V30 1105 H 107.409 -1.92321 -4.64781 0
M  V30 1106 H 107.109 -3.67802 -4.58253 0
M  V30 1107 H 108.633 -3.06218 -5.28264 0
M  V30 1108 H 110.047 -4.5133 -3.53517 0
M  V30 1109 H 108.444 -5.15493 -3.07225 0
M  V30 1110 H 109.514 -4.49321 -1.82316 0
M  V30 1111 N 110.857 0.726932 -1.39834 0
M  V30 1112 C 111.787 1.85405 -1.41941 0
M  V30 1113 C 112.768 1.67751 -0.281728 0
M  V30 1114 O 113.953 1.8795 -0.488717 0
M  V30 1115 C 111.083 3.23243 -1.2701 0
M  V30 1116 C 110.037 3.55549 -2.38262 0
M  V30 1117 C 109.363 4.9241 -2.08415 0
M  V30 1118 C 110.663 3.577 -3.80589 0
M  V30 1119 H 112.357 1.83899 -2.36266 0
M  V30 1120 H 109.903 0.883349 -1.13723 0
M  V30 1121 H 111.856 4.01775 -1.27103 0
M  V30 1122 H 110.58 3.25296 -0.291564 0
M  V30 1123 H 109.239 2.79351 -2.37399 0
M  V30 1124 H 108.887 4.91052 -1.0898 0
M  V30 1125 H 108.587 5.14992 -2.82943 0
M  V30 1126 H 110.111 5.73289 -2.10171 0
M  V30 1127 H 111.525 4.26293 -3.83337 0
M  V30 1128 H 109.922 3.91804 -4.54543 0
M  V30 1129 H 110.992 2.57328 -4.10987 0
M  V30 1130 N 112.336 1.25143 0.95797 0
M  V30 1131 C 113.299 1.05321 2.03569 0
M  V30 1132 C 114.299 0.007152 1.60798 0
M  V30 1133 O 115.489 0.24903 1.72411 0
M  V30 1134 C 112.621 0.598394 3.35607 0
M  V30 1135 H 113.814 2.00986 2.22586 0
M  V30 1136 H 111.367 1.07502 1.13459 0
M  V30 1137 H 112.102 -0.361014 3.22284 0
M  V30 1138 H 111.887 1.35351 3.67998 0
M  V30 1139 H 113.377 0.48104 4.1482 0
M  V30 1140 N 113.814 -1.1601 1.06675 0
M  V30 1141 C 114.761 -2.20525 0.680967 0
M  V30 1142 C 115.731 -1.62904 -0.324283 0
M  V30 1143 O 116.916 -1.89615 -0.212294 0
M  V30 1144 C 114.056 -3.45013 0.0776551 0
M  V30 1145 C 113.169 -4.16863 1.13355 0
M  V30 1146 C 112.304 -5.2888 0.49597 0
M  V30 1147 C 111.343 -5.92537 1.53513 0
M  V30 1148 N 110.48 -6.96038 0.920631 0
M  V30 1149 H 115.32 -2.52876 1.57663 0
M  V30 1150 H 112.857 -1.24199 0.788223 0
M  V30 1151 H 114.815 -4.16193 -0.289704 0
M  V30 1152 H 113.445 -3.132 -0.781393 0
M  V30 1153 H 112.497 -3.44248 1.61857 0
M  V30 1154 H 113.809 -4.60294 1.92174 0
M  V30 1155 H 112.963 -6.06653 0.0758604 0
M  V30 1156 H 111.702 -4.86622 -0.324062 0
M  V30 1157 H 110.707 -5.13482 1.9651 0
M  V30 1158 H 111.932 -6.36873 2.35733 0
M  V30 1159 H 109.878 -6.55888 0.12138 0
M  V30 1160 H 109.795 -7.3786 1.64616 0
M  V30 1161 H 111.063 -7.77725 0.525795 0
M  V30 1162 N 115.292 -0.849877 -1.32721 0
M  V30 1163 C 116.222 -0.306308 -2.31482 0
M  V30 1164 C 117.203 0.591952 -1.59468 0
M  V30 1165 O 118.388 0.513199 -1.87296 0
M  V30 1166 C 115.518 0.510204 -3.43532 0
M  V30 1167 C 114.472 -0.293209 -4.26994 0
M  V30 1168 C 113.798 0.647743 -5.30762 0
M  V30 1169 C 115.098 -1.51634 -4.99804 0
M  V30 1170 H 116.792 -1.13153 -2.77195 0
M  V30 1171 H 114.338 -0.545553 -1.33266 0
M  V30 1172 H 116.291 0.900856 -4.11658 0
M  V30 1173 H 115.015 1.36874 -2.96535 0
M  V30 1174 H 113.674 -0.665555 -3.60508 0
M  V30 1175 H 113.322 1.50299 -4.8002 0
M  V30 1176 H 113.022 0.11422 -5.87489 0
M  V30 1177 H 114.546 1.03567 -6.01753 0
M  V30 1178 H 115.96 -1.19824 -5.60638 0
M  V30 1179 H 114.357 -1.98745 -5.66234 0
M  V30 1180 H 115.427 -2.28018 -4.27943 0
M  V30 1181 N 116.77 1.45427 -0.607355 0
M  V30 1182 C 118.181 1.85756 -0.187535 0
M  V30 1183 C 118.532 1.5077 1.25551 0
M  V30 1184 O 117.657 0.93427 1.95193 0
M  V30 1185 C 118.252 3.37154 -0.333572 0
M  V30 1186 C 116.811 3.76387 0.0315542 0
M  V30 1187 C 115.958 2.69377 -0.658117 0
M  V30 1188 H 118.909 1.36231 -0.81405 0
M  V30 1189 H 118.93 3.78014 0.43428 0
M  V30 1190 H 118.442 3.62586 -1.38393 0
M  V30 1191 H 116.543 3.56571 1.0811 0
M  V30 1192 H 116.656 4.77731 -0.361935 0
M  V30 1193 H 115.02 2.5452 -0.0957873 0
M  V30 1194 H 115.803 2.97646 -1.7106 0
M  V30 1195 N 118.248 0.346503 1.53744 0
M  V30 1196 C 119.495 -0.249104 2.00962 0
M  V30 1197 C 119.823 -1.5032 1.23426 0
M  V30 1198 O 119.078 -1.93217 0.310761 0
M  V30 1199 C 119.377 -0.605809 3.52228 0
M  V30 1200 C 119.043 0.551747 4.47512 0
M  V30 1201 C 117.705 0.86941 4.73281 0
M  V30 1202 C 120.057 1.32818 5.03993 0
M  V30 1203 C 117.385 1.96582 5.52786 0
M  V30 1204 C 119.737 2.41486 5.84694 0
M  V30 1205 C 118.401 2.73808 6.08757 0
M  V30 1206 H 117.671 -0.0911538 0.735372 0
M  V30 1207 H 120.318 0.475027 1.85515 0
M  V30 1208 H 118.623 -1.4107 3.65522 0
M  V30 1209 H 120.32 -1.07858 3.86222 0
M  V30 1210 H 116.91 0.294102 4.2759 0
M  V30 1211 H 121.094 1.09602 4.84047 0
M  V30 1212 H 116.35 2.22045 5.69654 0
M  V30 1213 H 120.524 3.02078 6.27473 0
M  V30 1214 H 118.151 3.58892 6.7015 0
M  V30 1215 N 119.726 -1.57421 0.075193 0
M  V30 1216 C 120.673 -2.12915 -0.890843 0
M  V30 1217 C 121.643 -1.04252 -1.29309 0
M  V30 1218 O 122.828 -1.31933 -1.37834 0
M  V30 1219 C 119.968 -2.69795 -2.15186 0
M  V30 1220 C 119.081 -3.92624 -1.80194 0
M  V30 1221 C 118.216 -4.37736 -3.00933 0
M  V30 1222 C 117.255 -5.53205 -2.61974 0
M  V30 1223 N 116.392 -5.9326 -3.75483 0
M  V30 1224 H 121.232 -2.95156 -0.410735 0
M  V30 1225 H 118.769 -1.45854 -0.191086 0
M  V30 1226 H 120.727 -3.00883 -2.89008 0
M  V30 1227 H 119.357 -1.90313 -2.60731 0
M  V30 1228 H 118.409 -3.67977 -0.964218 0
M  V30 1229 H 119.721 -4.76482 -1.47534 0
M  V30 1230 H 118.875 -4.70503 -3.8303 0
M  V30 1231 H 117.614 -3.52739 -3.36789 0
M  V30 1232 H 116.619 -5.20086 -1.783 0
M  V30 1233 H 117.844 -6.39936 -2.27284 0
M  V30 1234 H 115.79 -5.11212 -4.11094 0
M  V30 1235 H 115.707 -6.71865 -3.46602 0
M  V30 1236 H 116.975 -6.30651 -4.58148 0
M  V30 1237 N 121.204 0.198386 -1.56346 0
M  V30 1238 C 122.167 1.22952 -1.93431 0
M  V30 1239 C 123.167 1.38611 -0.815092 0
M  V30 1240 O 124.357 1.36479 -1.08255 0
M  V30 1241 C 121.489 2.59946 -2.20546 0
M  V30 1242 H 122.682 0.912626 -2.85677 0
M  V30 1243 H 120.235 0.43977 -1.49986 0
M  V30 1244 H 120.97 2.96696 -1.30927 0
M  V30 1245 H 120.755 2.49953 -3.02102 0
M  V30 1246 H 122.245 3.3431 -2.50253 0
M  V30 1247 N 122.682 1.50554 0.465978 0
M  V30 1248 C 123.931 1.61038 1.21448 0
M  V30 1249 C 124.244 0.31865 1.92987 0
M  V30 1250 O 125.45 0.302469 2.6981 0
M  V30 1251 C 123.906 2.84283 2.20706 0
M  V30 1252 C 123.514 4.20352 1.54946 0
M  V30 1253 C 125.258 3.04115 2.96166 0
M  V30 1254 C 123.165 5.34778 2.5252 0
M  V30 1255 H 122.095 0.599718 0.457005 0
M  V30 1256 H 124.746 1.7699 0.484424 0
M  V30 1257 H 123.128 2.61901 2.97025 0
M  V30 1258 H 124.302 4.53008 0.843811 0
M  V30 1259 H 122.617 4.06167 0.917475 0
M  V30 1260 H 125.214 3.86774 3.69202 0
M  V30 1261 H 125.557 2.16045 3.55852 0
M  V30 1262 H 126.09 3.26702 2.26959 0
M  V30 1263 H 122.829 6.25018 1.97566 0
M  V30 1264 H 122.349 5.06534 3.21222 0
M  V30 1265 H 124.028 5.65561 3.14245 0
M  V30 1266 N 124.16 -0.719506 1.40217 0
M  V30 1267 C 125.123 -1.8153 1.39927 0
M  V30 1268 C 126.123 -1.58095 0.293723 0
M  V30 1269 O 127.313 -1.65209 0.552429 0
M  V30 1270 C 124.445 -3.19561 1.18716 0
M  V30 1271 H 125.638 -1.83186 2.37451 0
M  V30 1272 H 123.191 -0.924746 1.26008 0
M  V30 1273 H 123.926 -3.23557 0.219366 0
M  V30 1274 H 123.711 -3.3797 1.98793 0
M  V30 1275 H 125.201 -3.99598 1.21291 0
M  V30 1276 N 125.638 -1.25649 -0.95132 0
M  V30 1277 C 126.886 -1.10375 -1.69298 0
M  V30 1278 C 127.207 0.355339 -1.91735 0
M  V30 1279 O 126.477 1.25188 -1.50681 0
M  V30 1280 H 125.057 -0.405461 -0.627384 0
M  V30 1281 H 127.719 -1.57823 -1.14358 0
M  V30 1282 H 126.815 -1.61465 -2.67087 0
M  V30 1283 N 127.117 1.15442 -1.07289 0
M  V30 1284 C 128.08 2.18358 -0.696591 0
M  V30 1285 C 129.08 1.58637 0.262837 0
M  V30 1286 O 130.27 1.74145 0.0438809 0
M  V30 1287 C 127.402 3.4089 -0.0266151 0
M  V30 1288 H 128.595 2.53162 -1.60776 0
M  V30 1289 H 126.148 1.29893 -0.869342 0
M  V30 1290 H 126.883 3.11653 0.896822 0
M  V30 1291 H 126.668 3.85495 -0.716657 0
M  V30 1292 H 128.158 4.17009 0.222028 0
M  V30 1293 N 128.595 0.856903 1.32268 0
M  V30 1294 C 130.011 0.547061 1.49931 0
M  V30 1295 C 130.211 -0.921781 1.7918 0
M  V30 1296 O 129.267 -1.70469 1.8627 0
M  V30 1297 C 130.58 1.43599 2.64196 0
M  V30 1298 C 132.128 1.43665 2.78081 0
M  V30 1299 C 132.603 2.31085 3.95428 0
M  V30 1300 N 134.094 2.28893 4.02694 0
M  V30 1301 C 134.829 2.93262 4.92732 0
M  V30 1302 N 134.325 3.66751 5.87763 0
M  V30 1303 N 136.118 2.82638 4.85873 0
M  V30 1304 H 128.269 1.8075 1.11549 0
M  V30 1305 H 130.532 0.772144 0.549997 0
M  V30 1306 H 130.238 2.48058 2.49319 0
M  V30 1307 H 130.112 1.12502 3.60032 0
M  V30 1308 H 132.499 0.399701 2.92381 0
M  V30 1309 H 132.58 1.7878 1.82952 0
M  V30 1310 H 132.224 3.34849 3.81888 0
M  V30 1311 H 132.154 1.93302 4.89839 0
M  V30 1312 H 134.645 1.75466 3.34694 0
M  V30 1313 H 134.958 4.13027 6.53168 0
M  V30 1314 H 133.303 3.70859 5.87783 0
M  V30 1315 H 136.494 2.24774 4.10602 0
M  V30 1316 H 136.667 3.33084 5.55841 0
M  V30 1317 N 130.073 -1.45103 0.615059 0
M  V30 1318 C 131.35 -1.95549 0.0448276 0
M  V30 1319 C 131.73 -1.55737 -1.4251 0
M  V30 1320 O 131.078 -0.823556 -2.13143 0
M  V30 1321 C 131.288 -3.48098 0.250785 0
M  V30 1322 C 132.636 -4.24384 0.135509 0
M  V30 1323 O 133.66 -3.55738 0.181299 0
M  V30 1324 O 132.519 -5.46493 0.0268878 0
M  V30 1325 H 129.613 -0.8264 -0.0314845 0
M  V30 1326 H 132.159 -1.55232 0.685642 0
M  V30 1327 H 130.931 -3.7007 1.27139 0
M  V30 1328 H 130.554 -3.95323 -0.424937 0
M  V30 1329 N 131.551 -0.354651 -1.53558 0
M  V30 1330 C 132.797 0.238797 -2.01389 0
M  V30 1331 C 133.13 1.49309 -1.2418 0
M  V30 1332 O 132.405 1.91638 -0.332457 0
M  V30 1333 C 132.688 0.541771 -3.56001 0
M  V30 1334 C 132.541 -0.725388 -4.43912 0
M  V30 1335 C 133.86 1.34685 -4.18984 0
M  V30 1336 H 130.979 0.0853177 -0.732045 0
M  V30 1337 H 133.621 -0.477384 -1.83905 0
M  V30 1338 H 131.771 1.15189 -3.71031 0
M  V30 1339 H 133.443 -1.36313 -4.407 0
M  V30 1340 H 131.686 -1.34801 -4.12324 0
M  V30 1341 H 132.357 -0.468505 -5.50008 0
M  V30 1342 H 134.833 0.830837 -4.07721 0
M  V30 1343 H 133.709 1.52759 -5.27215 0
M  V30 1344 H 133.97 2.35221 -3.74331 0
M  V30 1345 N 133.029 1.57378 -0.0835403 0
M  V30 1346 C 134.259 1.97975 0.590713 0
M  V30 1347 C 134.667 0.961083 1.62972 0
M  V30 1348 O 134.01 -0.0590879 1.83605 0
M  V30 1349 C 134.072 3.34915 1.3066 0
M  V30 1350 C 133.736 4.55069 0.419698 0
M  V30 1351 C 134.733 5.18868 -0.32749 0
M  V30 1352 C 132.418 5.0114 0.341137 0
M  V30 1353 C 134.412 6.27098 -1.14134 0
M  V30 1354 C 132.099 6.0924 -0.476374 0
M  V30 1355 C 133.097 6.72083 -1.21627 0
M  V30 1356 O 132.785 7.781 -2.02028 0
M  V30 1357 H 132.517 0.655818 0.163947 0
M  V30 1358 H 135.071 2.04807 -0.156021 0
M  V30 1359 H 133.301 3.24733 2.09966 0
M  V30 1360 H 134.99 3.60037 1.87424 0
M  V30 1361 H 135.756 4.84211 -0.276459 0
M  V30 1362 H 131.635 4.51996 0.90668 0
M  V30 1363 H 135.179 6.7608 -1.71935 0
M  V30 1364 H 131.076 6.43329 -0.528927 0
M  V30 1365 H 131.844 7.95034 -1.94586 0
M  V30 1366 N 134.507 -0.190092 1.56449 0
M  V30 1367 C 135.44 -1.26375 1.90012 0
M  V30 1368 C 136.418 -1.43705 0.760765 0
M  V30 1369 O 137.602 -1.59014 1.01226 0
M  V30 1370 C 134.729 -2.62962 2.13468 0
M  V30 1371 C 133.775 -2.62474 3.36169 0
M  V30 1372 S 134.608 -2.13412 4.91137 0
M  V30 1373 C 135.764 -3.51812 5.17667 0
M  V30 1374 H 135.997 -0.977181 2.80782 0
M  V30 1375 H 133.53 -0.393814 1.49293 0
M  V30 1376 H 135.488 -3.41583 2.27664 0
M  V30 1377 H 134.149 -2.88828 1.23439 0
M  V30 1378 H 133.342 -3.62918 3.49723 0
M  V30 1379 H 132.944 -1.91937 3.20992 0
M  V30 1380 H 135.236 -4.47706 5.08494 0
M  V30 1381 H 136.179 -3.43148 6.19399 0
M  V30 1382 H 136.587 -3.46956 4.45288 0
M  V30 1383 N 135.985 -1.50799 -0.457987 0
M  V30 1384 C 136.933 -1.71162 -1.575 0
M  V30 1385 C 137.927 -0.577592 -1.59249 0
M  V30 1386 O 139.133 -0.758443 -1.63241 0
M  V30 1387 H 135.508 -0.540468 -0.522875 0
M  V30 1388 H 137.479 -2.64837 -1.37492 0
M  V30 1389 C 136.228 -1.83496 -2.95338 0
M  V30 1390 H 135.551 -2.70153 -2.94716 0
M  V30 1391 H 136.991 -2.01765 -3.72917 0
M  V30 1392 C 135.45 -0.589694 -3.31699 0
M  V30 1393 O 135.98 0.265163 -4.00824 0
M  V30 1394 N 134.186 -0.439845 -2.87252 0
M  V30 1395 H 133.733 -1.13655 -2.31172 0
M  V30 1396 H 133.691 0.392159 -3.11945 0
M  V30 1397 N 137.463 0.71206 -1.40597 0
M  V30 1398 C 138.691 1.50111 -1.42388 0
M  V30 1399 C 139.106 1.88784 -0.0245395 0
M  V30 1400 O 138.463 1.55681 0.952351 0
M  V30 1401 C 138.514 2.7742 -2.31776 0
M  V30 1402 O 138.235 2.40382 -3.66262 0
M  V30 1403 C 139.736 3.7129 -2.42196 0
M  V30 1404 H 136.956 0.46314 -0.485533 0
M  V30 1405 H 139.5 0.878068 -1.8469 0
M  V30 1406 H 137.655 3.36001 -1.92827 0
M  V30 1407 H 138.069 3.22324 -4.13772 0
M  V30 1408 H 139.543 4.57448 -3.08943 0
M  V30 1409 H 140.02 4.14641 -1.44809 0
M  V30 1410 H 140.626 3.18619 -2.81712 0
M  V30 1411 N 138.941 1.26152 0.944643 0
M  V30 1412 C 139.871 1.09902 2.06019 0
M  V30 1413 C 140.852 0.00519538 1.70099 0
M  V30 1414 O 142.037 0.176583 1.93396 0
M  V30 1415 C 139.167 0.727562 3.39594 0
M  V30 1416 C 138.121 1.77274 3.89561 0
M  V30 1417 C 137.447 1.25569 5.19747 0
M  V30 1418 C 138.747 3.17357 4.14827 0
M  V30 1419 H 140.441 2.03217 2.19871 0
M  V30 1420 H 137.987 0.978452 1.05652 0
M  V30 1421 H 139.94 0.600777 4.17095 0
M  V30 1422 H 138.664 -0.241287 3.25707 0
M  V30 1423 H 137.323 1.88814 3.14237 0
M  V30 1424 H 136.971 0.276783 5.02238 0
M  V30 1425 H 136.671 1.95433 5.54148 0
M  V30 1426 H 138.195 1.1415 5.99835 0
M  V30 1427 H 139.609 3.08914 4.82954 0
M  V30 1428 H 138.006 3.84781 4.60504 0
M  V30 1429 H 139.076 3.63673 3.20734 0
M  V30 1430 N 140.419 -1.14872 1.07899 0
M  V30 1431 C 141.667 -1.85422 0.803941 0
M  V30 1432 C 141.988 -1.83051 -0.67211 0
M  V30 1433 O 141.258 -1.27532 -1.48703 0
M  V30 1434 H 139.838 -0.686537 0.294408 0
M  V30 1435 H 142.5 -1.39226 1.3639 0
M  V30 1436 H 141.596 -2.90399 1.14346 0
M  V30 1437 N 141.898 -0.863906 -1.31812 0
M  V30 1438 C 142.848 -0.286898 -2.26188 0
M  V30 1439 C 143.832 0.572577 -1.50367 0
M  V30 1440 O 145.024 0.420447 -1.71934 0
M  V30 1441 C 142.153 0.515849 -3.39402 0
M  V30 1442 C 141.239 -0.356531 -4.22599 0
M  V30 1443 N 141.63 -1.44716 -4.84656 0
M  V30 1444 C 139.928 -0.147898 -4.45755 0
M  V30 1445 C 140.629 -1.98462 -5.46798 0
M  V30 1446 N 139.605 -1.28247 -5.28255 0
M  V30 1447 H 143.407 -1.12055 -2.717 0
M  V30 1448 H 140.921 -0.711012 -1.46008 0
M  V30 1449 H 142.918 0.945701 -4.06032 0
M  V30 1450 H 141.578 1.34718 -2.95434 0
M  V30 1451 H 142.589 -1.83008 -4.84488 0
M  V30 1452 H 139.266 0.647973 -4.12441 0
M  V30 1453 H 140.656 -2.89932 -6.06126 0
M  V30 1454 N 143.376 1.44774 -0.622745 0
M  V30 1455 C 144.787 1.85546 -0.207226 0
M  V30 1456 C 145.138 1.52093 1.23944 0
M  V30 1457 O 144.263 0.95492 1.94191 0
M  V30 1458 C 144.858 3.36781 -0.369313 0
M  V30 1459 C 143.417 3.76399 -0.00836847 0
M  V30 1460 C 142.564 2.68664 -0.686651 0
M  V30 1461 H 145.515 1.3536 -0.828454 0
M  V30 1462 H 145.536 3.78453 0.394162 0
M  V30 1463 H 145.048 3.61098 -1.42231 0
M  V30 1464 H 143.149 3.57698 1.04322 0
M  V30 1465 H 143.262 4.7732 -0.412584 0
M  V30 1466 H 141.626 2.54404 -0.122777 0
M  V30 1467 H 142.409 2.95815 -1.74208 0
M  V30 1468 N 144.854 0.36279 1.53368 0
M  V30 1469 C 146.102 -0.227326 2.00817 0
M  V30 1470 C 146.423 -1.49511 1.25186 0
M  V30 1471 O 145.693 -1.92482 0.364348 0
M  V30 1472 H 144.273 -0.0869923 0.741917 0
M  V30 1473 H 146.935 0.488381 1.88682 0
M  V30 1474 H 146.031 -0.456273 3.08747 0
M  V30 1475 N 146.332 -1.57332 0.0918853 0
M  V30 1476 C 147.609 -1.85691 -0.614668 0
M  V30 1477 C 147.989 -0.988146 -1.86545 0
M  V30 1478 O 147.337 -0.0597055 -2.28422 0
M  V30 1479 C 147.547 -3.36294 -0.933126 0
M  V30 1480 C 148.895 -4.04275 -1.29796 0
M  V30 1481 O 149.919 -3.41157 -1.02424 0
M  V30 1482 O 148.778 -5.1564 -1.81047 0
M  V30 1483 H 145.872 -0.767802 -0.307261 0
M  V30 1484 H 148.418 -1.69244 0.12434 0
M  V30 1485 H 147.19 -3.91273 -0.0456404 0
M  V30 1486 H 146.813 -3.58076 -1.72822 0
M  V30 1487 N 147.81 0.181792 -1.56548 0
M  V30 1488 C 148.74 1.22765 -1.98623 0
M  V30 1489 C 149.721 1.46747 -0.860189 0
M  V30 1490 O 150.906 1.58259 -1.12551 0
M  V30 1491 C 148.036 2.56894 -2.33715 0
M  V30 1492 C 146.99 2.475 -3.49182 0
M  V30 1493 C 146.316 3.86023 -3.69986 0
M  V30 1494 C 147.616 1.98866 -4.82959 0
M  V30 1495 H 149.31 0.877942 -2.86239 0
M  V30 1496 H 146.856 0.42088 -1.37712 0
M  V30 1497 H 148.809 3.30253 -2.61746 0
M  V30 1498 H 147.533 2.93632 -1.42997 0
M  V30 1499 H 146.192 1.76596 -3.21262 0
M  V30 1500 H 145.84 4.20136 -2.76576 0
M  V30 1501 H 145.54 3.80609 -4.47672 0
M  V30 1502 H 147.064 4.60984 -4.00407 0
M  V30 1503 H 148.478 2.61992 -5.09934 0
M  V30 1504 H 146.875 2.04424 -5.64208 0
M  V30 1505 H 147.945 0.942465 -4.75653 0
M  V30 1506 N 149.288 1.51039 0.449983 0
M  V30 1507 C 150.537 1.62317 1.19733 0
M  V30 1508 C 150.85 0.339101 1.92638 0
M  V30 1509 O 152.056 0.331069 2.69474 0
M  V30 1510 C 150.512 2.86608 2.17678 0
M  V30 1511 C 150.12 4.21972 1.50479 0
M  V30 1512 C 151.864 3.07239 2.92924 0
M  V30 1513 C 149.771 5.37426 2.46834 0
M  V30 1514 H 148.701 0.604532 0.450619 0
M  V30 1515 H 151.352 1.77494 0.465625 0
M  V30 1516 H 149.734 2.65037 2.94231 0
M  V30 1517 H 150.908 4.53878 0.795716 0
M  V30 1518 H 149.223 4.07117 0.874344 0
M  V30 1519 H 151.82 3.90668 3.65079 0
M  V30 1520 H 152.163 2.19807 3.5354 0
M  V30 1521 H 152.696 3.29091 2.23481 0
M  V30 1522 H 149.435 6.27079 1.90926 0
M  V30 1523 H 148.955 5.09912 3.15832 0
M  V30 1524 H 150.634 5.68862 3.08228 0
M  V30 1525 N 150.766 -0.704594 1.40972 0
M  V30 1526 C 151.696 -1.83124 1.44872 0
M  V30 1527 C 152.677 -1.67281 0.30838 0
M  V30 1528 O 153.862 -1.87149 0.518556 0
M  V30 1529 C 150.992 -3.21181 1.32136 0
M  V30 1530 C 149.946 -3.51714 2.43888 0
M  V30 1531 C 149.272 -4.89032 2.16222 0
M  V30 1532 C 150.572 -3.516 3.86232 0
M  V30 1533 H 152.266 -1.80117 2.39161 0
M  V30 1534 H 149.812 -0.865145 1.15114 0
M  V30 1535 H 151.765 -3.99702 1.33479 0
M  V30 1536 H 150.489 -3.24791 0.343279 0
M  V30 1537 H 149.148 -2.75539 2.41813 0
M  V30 1538 H 148.796 -4.89256 1.16778 0
M  V30 1539 H 148.496 -5.10426 2.911 0
M  V30 1540 H 150.02 -5.69873 2.19265 0
M  V30 1541 H 151.434 -4.2014 3.9007 0
M  V30 1542 H 149.831 -3.84523 4.60719 0
M  V30 1543 H 150.901 -2.50757 4.15029 0
M  V30 1544 N 152.244 -1.26651 -0.937939 0
M  V30 1545 C 153.207 -1.08546 -2.01867 0
M  V30 1546 C 154.207 -0.0327327 -1.60767 0
M  V30 1547 O 155.397 -0.276427 -1.71993 0
M  V30 1548 C 152.529 -0.651711 -3.34613 0
M  V30 1549 H 153.722 -2.04502 -2.1936 0
M  V30 1550 H 151.275 -1.09294 -1.11734 0
M  V30 1551 H 152.01 0.309696 -3.22818 0
M  V30 1552 H 151.795 -1.41189 -3.65798 0
M  V30 1553 H 153.285 -0.546973 -4.14002 0
M  V30 1554 N 153.722 1.14298 -1.08507 0
M  V30 1555 C 154.97 1.84993 -0.813763 0
M  V30 1556 C 155.291 1.83405 0.662393 0
M  V30 1557 O 154.561 1.28319 1.48024 0
M  V30 1558 H 153.141 0.684966 -0.298045 0
M  V30 1559 H 155.803 1.385 -1.37126 0
M  V30 1560 H 154.899 2.89788 -1.15884 0
M  V30 1561 N 155.201 0.870884 1.31352 0
M  V30 1562 C 156.134 0.271983 2.26573 0
M  V30 1563 C 157.112 -0.599385 1.51149 0
M  V30 1564 O 158.296 -0.552605 1.80218 0
M  V30 1565 C 155.423 -0.614801 3.33073 0
M  V30 1566 C 154.469 0.185342 4.26097 0
M  V30 1567 S 155.302 1.56444 5.12138 0
M  V30 1568 C 156.458 0.683807 6.22153 0
M  V30 1569 H 156.691 1.07916 2.77023 0
M  V30 1570 H 154.224 0.669459 1.39132 0
M  V30 1571 H 156.182 -1.12074 3.94905 0
M  V30 1572 H 154.843 -1.39593 2.81376 0
M  V30 1573 H 154.036 -0.490771 5.01605 0
M  V30 1574 H 153.638 0.623415 3.68768 0
M  V30 1575 H 155.93 -0.10521 6.77418 0
M  V30 1576 H 156.873 1.41004 6.93919 0
M  V30 1577 H 157.281 0.250952 5.63942 0
M  V30 1578 N 156.679 -1.44442 0.630414 0
M  V30 1579 C 157.589 -2.34476 -0.0761693 0
M  V30 1580 C 158.605 -1.52576 -0.836449 0
M  V30 1581 O 159.781 -1.85307 -0.788874 0
M  V30 1582 C 156.846 -3.30545 -1.04599 0
M  V30 1583 C 155.907 -4.28352 -0.28516 0
M  V30 1584 C 155.14 -5.19831 -1.20878 0
M  V30 1585 O 155.363 -5.15223 -2.44747 0
M  V30 1586 O 154.297 -5.97892 -0.693491 0
M  V30 1587 H 158.123 -2.96345 0.664324 0
M  V30 1588 H 155.708 -1.44203 0.39061 0
M  V30 1589 H 157.59 -3.89681 -1.60396 0
M  V30 1590 H 156.265 -2.7121 -1.76711 0
M  V30 1591 H 155.172 -3.72764 0.315837 0
M  V30 1592 H 156.505 -4.90605 0.395924 0
M  V30 1593 N 158.157 -0.370918 -1.53173 0
M  V30 1594 C 159.385 0.217704 -2.05751 0
M  V30 1595 C 159.8 1.42018 -1.24404 0
M  V30 1596 O 159.157 1.80245 -0.286033 0
M  V30 1597 C 159.208 0.605954 -3.56385 0
M  V30 1598 O 158.929 -0.548734 -4.3465 0
M  V30 1599 C 160.43 1.2524 -4.25241 0
M  V30 1600 H 157.65 0.0371659 -0.66997 0
M  V30 1601 H 160.194 -0.530832 -1.9749 0
M  V30 1602 H 158.349 1.3044 -3.6478 0
M  V30 1603 H 158.763 -0.23376 -5.23979 0
M  V30 1604 H 160.237 1.47458 -5.3194 0
M  V30 1605 H 160.714 2.2143 -3.79296 0
M  V30 1606 H 161.32 0.595233 -4.21114 0
M  V30 1607 N 159.635 1.57281 -0.100228 0
M  V30 1608 C 160.582 2.14305 0.856858 0
M  V30 1609 C 161.552 1.06296 1.27634 0
M  V30 1610 O 162.737 1.34109 1.35718 0
M  V30 1611 C 159.877 2.73184 2.10866 0
M  V30 1612 C 158.99 3.95442 1.73925 0
M  V30 1613 C 158.125 4.42468 2.93931 0
M  V30 1614 C 157.164 5.57303 2.5314 0
M  V30 1615 N 156.301 5.99158 3.65997 0
M  V30 1616 H 161.141 2.95772 0.363726 0
M  V30 1617 H 158.678 1.46139 0.167858 0
M  V30 1618 H 160.636 3.05442 2.84185 0
M  V30 1619 H 159.266 1.94437 2.57671 0
M  V30 1620 H 158.318 3.69464 0.905554 0
M  V30 1621 H 159.63 4.78769 1.39935 0
M  V30 1622 H 158.784 4.76537 3.75496 0
M  V30 1623 H 157.523 3.58052 3.31134 0
M  V30 1624 H 156.528 5.22857 1.70003 0
M  V30 1625 H 157.753 6.43471 2.17075 0
M  V30 1626 H 155.699 5.17687 4.02909 0
M  V30 1627 H 155.616 6.77295 3.35869 0
M  V30 1628 H 156.884 6.3786 4.48057 0
M  V30 1629 N 161.113 -0.173488 1.56642 0
M  V30 1630 C 162.023 -1.23482 1.99473 0
M  V30 1631 C 163.039 -1.48567 0.905752 0
M  V30 1632 O 164.215 -1.60758 1.21321 0
M  V30 1633 C 161.28 -2.55444 2.34413 0
M  V30 1634 C 160.341 -2.38241 3.57127 0
M  V30 1635 C 159.574 -3.63909 3.90392 0
M  V30 1636 O 159.797 -4.68996 3.24653 0
M  V30 1637 O 158.731 -3.58149 4.83749 0
M  V30 1638 H 162.557 -0.901279 2.90018 0
M  V30 1639 H 160.142 -0.380185 1.44482 0
M  V30 1640 H 162.024 -3.33292 2.57865 0
M  V30 1641 H 160.699 -2.88382 1.4703 0
M  V30 1642 H 159.606 -1.58431 3.38896 0
M  V30 1643 H 160.939 -2.10228 4.45045 0
M  V30 1644 N 162.591 -1.51276 -0.441967 0
M  V30 1645 C 163.837 -1.63958 -1.19355 0
M  V30 1646 C 164.17 -0.352543 -1.90973 0
M  V30 1647 O 163.445 0.647627 -1.83401 0
M  V30 1648 C 163.728 -2.83979 -2.21422 0
M  V30 1649 C 163.581 -4.22646 -1.53918 0
M  V30 1650 C 164.9 -2.99521 -3.22451 0
M  V30 1651 H 162.019 -0.596709 -0.432559 0
M  V30 1652 H 164.661 -1.83748 -0.483398 0
M  V30 1653 H 162.811 -2.67237 -2.81987 0
M  V30 1654 H 164.483 -4.51045 -0.967256 0
M  V30 1655 H 162.726 -4.25558 -0.841615 0
M  V30 1656 H 163.397 -5.02609 -2.28229 0
M  V30 1657 H 165.873 -3.14944 -2.71937 0
M  V30 1658 H 164.749 -3.85072 -3.91166 0
M  V30 1659 H 165.01 -2.11391 -3.88287 0
M  V30 1660 N 164.069 0.697108 -1.41344 0
M  V30 1661 C 165.315 1.4593 -1.40827 0
M  V30 1662 C 165.648 1.94193 -0.0167098 0
M  V30 1663 O 164.923 1.69425 0.955263 0
M  V30 1664 C 165.206 2.67229 -2.41373 0
M  V30 1665 C 165.059 2.24741 -3.8963 0
M  V30 1666 C 166.378 3.69423 -2.39196 0
M  V30 1667 H 163.497 0.529303 -0.512842 0
M  V30 1668 H 166.139 0.794112 -1.72609 0
M  V30 1669 H 164.289 3.23982 -2.14401 0
M  V30 1670 H 165.961 1.73327 -4.27499 0
M  V30 1671 H 164.204 1.56542 -4.0457 0
M  V30 1672 H 164.875 3.1177 -4.55525 0
M  V30 1673 H 167.351 3.2234 -2.63128 0
M  V30 1674 H 166.227 4.51907 -3.11563 0
M  V30 1675 H 166.488 4.19012 -1.41001 0
M  V30 1676 N 165.547 1.27147 0.931209 0
M  V30 1677 C 166.495 1.09398 2.05268 0
M  V30 1678 C 167.489 0.0180591 1.6939 0
M  V30 1679 O 168.695 0.17551 1.79142 0
M  V30 1680 H 165.07 0.336986 0.672268 0
M  V30 1681 H 167.041 2.04416 2.17386 0
M  V30 1682 C 165.79 0.75424 3.39421 0
M  V30 1683 H 165.113 1.57404 3.67511 0
M  V30 1684 H 166.553 0.669903 4.18674 0
M  V30 1685 C 165.012 -0.541197 3.32525 0
M  V30 1686 O 165.542 -1.57664 3.69466 0
M  V30 1687 N 163.748 -0.535517 2.85623 0
M  V30 1688 H 163.295 0.307511 2.55758 0
M  V30 1689 H 163.253 -1.40236 2.81392 0
M  V30 1690 N 167.025 -1.13721 1.09112 0
M  V30 1691 C 167.988 -2.17222 0.731241 0
M  V30 1692 C 168.988 -1.59035 -0.237566 0
M  V30 1693 O 170.178 -1.74192 -0.0161704 0
M  V30 1694 C 167.31 -3.40804 0.0808443 0
M  V30 1695 H 168.503 -2.50573 1.64783 0
M  V30 1696 H 166.056 -1.28493 0.889897 0
M  V30 1697 H 166.791 -3.1304 -0.847127 0
M  V30 1698 H 166.576 -3.84306 0.777896 0
M  V30 1699 H 168.066 -4.1731 -0.155657 0
M  V30 1700 N 168.503 -0.877838 -1.30888 0
M  V30 1701 C 169.451 -0.328662 -2.30266 0
M  V30 1702 C 170.445 0.560496 -1.59859 0
M  V30 1703 O 171.651 0.445722 -1.74394 0
M  V30 1704 H 168.026 -0.0876142 -0.746879 0
M  V30 1705 H 169.997 -1.18061 -2.74051 0
M  V30 1706 C 168.746 0.448071 -3.44801 0
M  V30 1707 H 168.069 -0.226859 -3.99156 0
M  V30 1708 H 169.509 0.797541 -4.16432 0
M  V30 1709 C 167.968 1.64239 -2.94155 0
M  V30 1710 O 168.498 2.74175 -2.93583 0
M  V30 1711 N 166.704 1.47716 -2.50256 0
M  V30 1712 H 166.251 0.582821 -2.5092 0
M  V30 1713 H 166.209 2.27765 -2.16727 0
M  V30 1714 N 169.982 1.44106 -0.638065 0
M  V30 1715 C 171.222 2.03858 -0.148733 0
M  V30 1716 C 171.586 1.49153 1.20903 0
M  V30 1717 O 172.787 2.00452 1.79088 0
M  V30 1718 C 171.058 3.57117 -0.142314 0
M  V30 1719 S 172.617 4.37897 0.281385 0
M  V30 1720 H 169.435 0.708069 -0.0644912 0
M  V30 1721 H 172.037 1.7639 -0.843009 0
M  V30 1722 H 170.741 3.94436 -1.13349 0
M  V30 1723 H 170.272 3.89205 0.572988 0
M  V30 1724 H 172.287 4.72218 1.52395 0
M  V30 1725 N 171.46 0.379036 1.52974 0
M  V30 1726 C 172.407 -0.461048 2.26148 0
M  V30 1727 C 173.377 -1.06637 1.27349 0
M  V30 1728 O 174.562 -1.09633 1.56157 0
M  V30 1729 C 171.702 -1.58782 3.06402 0
M  V30 1730 C 170.815 -1.00636 4.20115 0
M  V30 1731 C 169.95 -2.10334 4.87784 0
M  V30 1732 C 168.989 -1.49724 5.93506 0
M  V30 1733 N 168.126 -2.5331 6.54812 0
M  V30 1734 H 172.966 0.169429 2.97518 0
M  V30 1735 H 170.503 0.0953806 1.4679 0
M  V30 1736 H 172.461 -2.25174 3.51215 0
M  V30 1737 H 171.091 -2.18876 2.37261 0
M  V30 1738 H 170.143 -0.232332 3.7969 0
M  V30 1739 H 171.455 -0.523343 4.96047 0
M  V30 1740 H 170.609 -2.84519 5.35849 0
M  V30 1741 H 169.348 -2.61992 4.11353 0
M  V30 1742 H 168.353 -0.740598 5.44789 0
M  V30 1743 H 169.578 -0.988732 6.71864 0
M  V30 1744 H 167.524 -3.04156 5.81227 0
M  V30 1745 H 167.441 -2.09734 7.26325 0
M  V30 1746 H 168.709 -3.27155 7.07524 0
M  V30 1747 N 172.938 -1.57226 0.108567 0
M  V30 1748 C 173.901 -2.13602 -0.831082 0
M  V30 1749 C 174.901 -1.06841 -1.20173 0
M  V30 1750 O 176.091 -1.32666 -1.12895 0
M  V30 1751 C 173.223 -2.66769 -2.12243 0
M  V30 1752 H 174.416 -2.97951 -0.341317 0
M  V30 1753 H 171.969 -1.55667 -0.14057 0
M  V30 1754 H 172.704 -1.85977 -2.65675 0
M  V30 1755 H 172.489 -3.44839 -1.86625 0
M  V30 1756 H 173.979 -3.10332 -2.79435 0
M  V30 1757 N 174.416 0.165178 -1.56732 0
M  V30 1758 C 175.656 0.887231 -1.8414 0
M  V30 1759 C 176.02 1.79159 -0.690353 0
M  V30 1760 O 177.221 2.55172 -0.845032 0
M  V30 1761 C 175.492 1.65674 -3.16681 0
M  V30 1762 S 177.051 2.42671 -3.6559 0
M  V30 1763 H 173.869 0.297042 -0.645978 0
M  V30 1764 H 176.471 0.148439 -1.94936 0
M  V30 1765 H 175.175 0.983507 -3.98441 0
M  V30 1766 H 174.706 2.43679 -3.08843 0
M  V30 1767 H 176.721 3.67499 -3.33406 0
M  V30 1768 N 175.894 1.51508 0.433938 0
M  V30 1769 C 176.844 1.69451 1.52546 0
M  V30 1770 C 177.828 0.548474 1.51263 0
M  V30 1771 O 179.02 0.804529 1.57659 0
M  V30 1772 C 176.149 1.82604 2.90707 0
M  V30 1773 C 175.235 3.03002 2.96733 0
M  V30 1774 N 175.626 4.26121 2.72496 0
M  V30 1775 C 173.924 3.02327 3.27894 0
M  V30 1776 C 174.625 5.07407 2.84452 0
M  V30 1777 N 173.601 4.42126 3.16269 0
M  V30 1778 H 177.403 2.62305 1.32564 0
M  V30 1779 H 174.917 1.49202 0.641297 0
M  V30 1780 H 176.914 1.93569 3.69238 0
M  V30 1781 H 175.574 0.909339 3.11707 0
M  V30 1782 H 176.585 4.55009 2.4736 0
M  V30 1783 H 173.262 2.20301 3.54646 0
M  V30 1784 H 174.652 6.15422 2.69639 0
M  V30 1785 N 177.372 -0.689602 1.41712 0
M  V30 1786 C 178.6 -1.47827 1.44758 0
M  V30 1787 C 179.015 -1.88721 0.0545703 0
M  V30 1788 O 178.372 -1.57176 -0.927463 0
M  V30 1789 C 178.423 -2.73698 2.3616 0
M  V30 1790 O 178.144 -2.34524 3.7004 0
M  V30 1791 C 179.645 -3.67389 2.48072 0
M  V30 1792 H 176.865 -0.455357 0.49284 0
M  V30 1793 H 179.409 -0.848574 1.86063 0
M  V30 1794 H 177.564 -3.32891 1.98148 0
M  V30 1795 H 177.978 -3.15701 4.18847 0
M  V30 1796 H 179.452 -4.52475 3.16181 0
M  V30 1797 H 179.929 -4.12284 1.51388 0
M  V30 1798 H 180.535 -3.14097 2.86746 0
M  V30 1799 N 178.85 -1.27639 -0.924453 0
M  V30 1800 C 179.783 -1.04966 -2.02626 0
M  V30 1801 C 180.761 0.0309505 -1.62571 0
M  V30 1802 O 181.945 -0.114846 -1.8815 0
M  V30 1803 C 179.072 -0.59292 -3.3347 0
M  V30 1804 C 178.118 -1.66858 -3.92506 0
M  V30 1805 S 178.951 -3.2619 -4.24689 0
M  V30 1806 C 180.107 -2.82325 -5.58609 0
M  V30 1807 H 180.34 -1.98252 -2.21547 0
M  V30 1808 H 177.873 -1.11506 -1.06798 0
M  V30 1809 H 179.831 -0.336086 -4.09122 0
M  V30 1810 H 178.492 0.319939 -3.12466 0
M  V30 1811 H 177.685 -1.30038 -4.86935 0
M  V30 1812 H 177.287 -1.87766 -3.2345 0
M  V30 1813 H 179.579 -2.2783 -6.38044 0
M  V30 1814 H 180.522 -3.75511 -6.00331 0
M  V30 1815 H 180.93 -2.21367 -5.19285 0
M  V30 1816 N 180.328 1.1314 -1.09713 0
M  V30 1817 C 181.556 1.88321 -0.856898 0
M  V30 1818 C 181.971 1.79276 0.592073 0
M  V30 1819 O 181.328 1.16142 1.40774 0
M  V30 1820 C 181.379 3.37812 -1.28706 0
M  V30 1821 O 181.1 3.46627 -2.67921 0
M  V30 1822 C 182.601 4.29952 -1.07964 0
M  V30 1823 H 179.821 0.596094 -0.308079 0
M  V30 1824 H 182.365 1.43205 -1.45988 0
M  V30 1825 H 180.52 3.805 -0.727912 0
M  V30 1826 H 180.934 4.39579 -2.8613 0
M  V30 1827 H 182.408 5.33159 -1.42986 0
M  V30 1828 H 182.885 4.39196 -0.0176577 0
M  V30 1829 H 183.491 3.93036 -1.62489 0
M  V30 1830 N 181.806 0.884767 1.30421 0
M  V30 1831 C 182.754 0.340869 2.30089 0
M  V30 1832 C 183.748 -0.55201 1.60154 0
M  V30 1833 O 184.954 -0.436467 1.74628 0
M  V30 1834 H 181.329 0.0915739 0.746404 0
M  V30 1835 H 183.3 1.19513 2.73421 0
M  V30 1836 C 182.049 -0.429779 3.45034 0
M  V30 1837 H 181.372 0.248024 3.9903 0
M  V30 1838 H 182.812 -0.775445 4.16849 0
M  V30 1839 C 181.271 -1.62677 2.95022 0
M  V30 1840 O 181.801 -2.72614 2.95033 0
M  V30 1841 N 180.007 -1.46387 2.51036 0
M  V30 1842 H 179.554 -0.569506 2.51226 0
M  V30 1843 H 179.512 -2.26612 2.17932 0
M  V30 1844 N 183.284 -1.43765 0.645699 0
M  V30 1845 C 184.53 -2.02197 0.156271 0
M  V30 1846 C 184.863 -1.50776 -1.22393 0
M  V30 1847 O 184.138 -0.697771 -1.81553 0
M  V30 1848 C 184.421 -3.59749 0.158872 0
M  V30 1849 C 184.274 -4.21419 1.57245 0
M  V30 1850 C 185.593 -4.37149 -0.50879 0
M  V30 1851 H 182.712 -0.734694 0.0582602 0
M  V30 1852 H 185.354 -1.71157 0.824951 0
M  V30 1853 H 183.504 -3.86325 -0.410525 0
M  V30 1854 H 185.176 -4.059 2.19186 0
M  V30 1855 H 183.419 -3.78356 2.122 0
M  V30 1856 H 184.09 -5.30482 1.52619 0
M  V30 1857 H 186.566 -4.16093 -0.024412 0
M  V30 1858 H 185.442 -5.4683 -0.476213 0
M  V30 1859 H 185.703 -4.12839 -1.58165 0
M  V30 1860 N 184.763 -0.387143 -1.52771 0
M  V30 1861 C 185.673 0.456442 -2.30117 0
M  V30 1862 C 186.689 1.07342 -1.36944 0
M  V30 1863 O 187.865 1.07971 -1.70013 0
M  V30 1864 C 184.93 1.56957 -3.09136 0
M  V30 1865 C 183.991 0.977916 -4.18014 0
M  V30 1866 C 183.224 2.038 -4.93256 0
M  V30 1867 O 183.447 3.25271 -4.68567 0
M  V30 1868 O 182.381 1.6565 -5.78657 0
M  V30 1869 H 186.207 -0.17359 -3.03203 0
M  V30 1870 H 183.792 -0.150919 -1.48636 0
M  V30 1871 H 185.674 2.21628 -3.58412 0
M  V30 1872 H 184.349 2.18461 -2.38865 0
M  V30 1873 H 183.256 0.294525 -3.72939 0
M  V30 1874 H 184.589 0.407128 -4.90513 0
M  V30 1875 N 186.241 1.57166 -0.116904 0
M  V30 1876 C 187.487 1.95412 0.542405 0
M  V30 1877 C 187.82 1.00019 1.66463 0
M  V30 1878 O 187.095 0.0370346 1.94465 0
M  V30 1879 C 187.378 3.43615 1.07708 0
M  V30 1880 C 187.231 4.49781 -0.0415868 0
M  V30 1881 C 188.55 3.93616 1.96861 0
M  V30 1882 H 185.669 0.710543 0.195696 0
M  V30 1883 H 188.311 1.89027 -0.192038 0
M  V30 1884 H 186.461 3.49187 1.70296 0
M  V30 1885 H 188.133 4.56308 -0.676793 0
M  V30 1886 H 186.376 4.28033 -0.705019 0
M  V30 1887 H 187.047 5.50733 0.373717 0
M  V30 1888 H 189.523 3.90335 1.44146 0
M  V30 1889 H 188.399 4.97838 2.3119 0
M  V30 1890 H 188.66 3.34188 2.89432 0
M  V30 1891 N 187.719 -0.156864 1.56817 0
M  V30 1892 C 188.682 -1.17781 1.96622 0
M  V30 1893 C 189.682 -1.36401 0.851555 0
M  V30 1894 O 190.872 -1.33561 1.11836 0
M  V30 1895 C 188.004 -2.54008 2.27361 0
M  V30 1896 H 189.197 -0.836564 2.87996 0
M  V30 1897 H 186.75 -0.39985 1.51099 0
M  V30 1898 H 187.485 -2.9312 1.38748 0
M  V30 1899 H 187.27 -2.41856 3.08623 0
M  V30 1900 H 188.76 -3.27558 2.59029 0
M  V30 1901 N 189.197 -1.51736 -0.425897 0
M  V30 1902 C 190.422 -1.69082 -1.20108 0
M  V30 1903 C 190.847 -0.392398 -1.83962 0
M  V30 1904 O 190.205 0.64858 -1.69302 0
M  V30 1905 C 190.253 -2.81604 -2.25237 0
M  V30 1906 O 189.357 -2.46004 -3.30992 0
M  V30 1907 H 188.698 -0.563408 -0.35138 0
M  V30 1908 H 191.228 -1.98358 -0.501512 0
M  V30 1909 H 191.238 -3.06025 -2.69838 0
M  V30 1910 H 189.913 -3.75817 -1.78142 0
M  V30 1911 H 188.49 -2.32195 -2.91787 0
M  V30 1912 N 190.675 0.682077 -1.42076 0
M  V30 1913 C 191.608 1.80666 -1.3941 0
M  V30 1914 C 192.586 1.60518 -0.25939 0
M  V30 1915 O 193.77 1.83088 -0.448456 0
M  V30 1916 C 190.897 3.17556 -1.17796 0
M  V30 1917 C 189.943 3.56468 -2.34164 0
M  V30 1918 S 190.776 3.59729 -3.96681 0
M  V30 1919 C 191.932 4.99323 -3.77395 0
M  V30 1920 H 192.165 1.82652 -2.34575 0
M  V30 1921 H 189.698 0.852062 -1.2876 0
M  V30 1922 H 191.656 3.96575 -1.06012 0
M  V30 1923 H 190.317 3.13164 -0.242279 0
M  V30 1924 H 189.51 4.5595 -2.1477 0
M  V30 1925 H 189.112 2.84792 -2.42425 0
M  V30 1926 H 191.404 5.87202 -3.37935 0
M  V30 1927 H 192.347 5.23763 -4.76527 0
M  V30 1928 H 192.755 4.71498 -3.10403 0
M  V30 1929 N 192.153 1.28127 0.917671 0
M  V30 1930 C 193.063 1.13556 2.05286 0
M  V30 1931 C 194.079 0.0630914 1.73886 0
M  V30 1932 O 195.255 0.271598 1.9956 0
M  V30 1933 C 192.32 0.794676 3.3747 0
M  V30 1934 C 191.381 1.94909 3.82504 0
M  V30 1935 C 190.614 1.62437 5.0838 0
M  V30 1936 O 190.837 0.536905 5.67867 0
M  V30 1937 O 189.771 2.46677 5.4903 0
M  V30 1938 H 193.597 2.08844 2.20495 0
M  V30 1939 H 191.182 1.07409 1.03845 0
M  V30 1940 H 193.064 0.618344 4.16839 0
M  V30 1941 H 191.739 -0.128581 3.23445 0
M  V30 1942 H 190.646 2.18055 3.03978 0
M  V30 1943 H 191.979 2.85291 4.01086 0
M  V30 1944 N 193.631 -1.12557 1.10312 0
M  V30 1945 C 194.594 -2.16434 0.75424 0
M  V30 1946 C 195.594 -1.59278 -0.220685 0
M  V30 1947 O 196.784 -1.742 0.00230591 0
M  V30 1948 C 193.916 -3.40699 0.116987 0
M  V30 1949 H 195.109 -2.48811 1.67431 0
M  V30 1950 H 192.662 -1.27542 0.903475 0
M  V30 1951 H 193.397 -3.13921 -0.813877 0
M  V30 1952 H 193.182 -3.83459 0.818613 0
M  V30 1953 H 194.672 -4.17451 -0.111387 0
M  V30 1954 N 195.109 -0.891671 -1.2995 0
M  V30 1955 C 196.056 -0.361736 -2.27948 0
M  V30 1956 C 197.026 0.551761 -1.56668 0
M  V30 1957 O 198.211 0.478736 -1.84696 0
M  V30 1958 C 195.351 0.411825 -3.42634 0
M  V30 1959 C 194.464 -0.531651 -4.28716 0
M  V30 1960 C 193.599 0.258167 -5.30572 0
M  V30 1961 C 192.638 -0.680349 -6.08307 0
M  V30 1962 N 191.775 0.0745613 -7.0206 0
M  V30 1963 H 196.615 -1.20254 -2.72659 0
M  V30 1964 H 194.152 -0.604352 -1.34112 0
M  V30 1965 H 196.11 0.876304 -4.07893 0
M  V30 1966 H 194.74 1.21715 -2.98974 0
M  V30 1967 H 193.792 -1.11463 -3.63703 0
M  V30 1968 H 195.104 -1.25038 -4.82874 0
M  V30 1969 H 194.258 0.784204 -6.0161 0
M  V30 1970 H 192.997 1.01008 -4.77126 0
M  V30 1971 H 192.002 -1.21796 -5.3614 0
M  V30 1972 H 193.227 -1.43145 -6.63842 0
M  V30 1973 H 191.173 0.808883 -6.50994 0
M  V30 1974 H 191.09 -0.584409 -7.53738 0
M  V30 1975 H 192.358 0.581123 -7.77331 0
M  V30 1976 N 196.587 1.43421 -0.653314 0
M  V30 1977 C 197.534 2.30768 0.0382271 0
M  V30 1978 C 198.504 1.44755 0.814576 0
M  V30 1979 O 199.689 1.73624 0.791162 0
M  V30 1980 C 196.829 3.30336 0.998599 0
M  V30 1981 C 195.942 4.31448 0.218342 0
M  V30 1982 C 195.077 5.18098 1.17252 0
M  V30 1983 C 194.116 6.10902 0.382702 0
M  V30 1984 N 193.253 6.90176 1.28848 0
M  V30 1985 H 198.093 2.89357 -0.712511 0
M  V30 1986 H 195.63 1.42548 -0.363128 0
M  V30 1987 H 197.588 3.86572 1.56901 0
M  V30 1988 H 196.218 2.73397 1.71621 0
M  V30 1989 H 195.27 3.77506 -0.46836 0
M  V30 1990 H 196.582 4.97227 -0.395812 0
M  V30 1991 H 195.736 5.7896 1.81356 0
M  V30 1992 H 194.475 4.52444 1.82058 0
M  V30 1993 H 193.48 5.49128 -0.27169 0
M  V30 1994 H 194.705 6.78598 -0.260957 0
M  V30 1995 H 192.651 6.27171 1.92334 0
M  V30 1996 H 192.568 7.52478 0.728887 0
M  V30 1997 H 193.836 7.55543 1.91766 0
M  V30 1998 N 198.065 0.39524 1.52563 0
M  V30 1999 C 199.295 -0.184675 2.05773 0
M  V30 2000 C 199.703 -1.40571 1.26635 0
M  V30 2001 O 199.046 -1.81105 0.30769 0
M  V30 2002 C 199.108 -0.613551 3.54226 0
M  V30 2003 C 198.772 0.49484 4.54313 0
M  V30 2004 C 199.769 1.3541 5.01956 0
M  V30 2005 C 197.454 0.663565 4.97898 0
M  V30 2006 C 199.448 2.36716 5.91814 0
M  V30 2007 C 197.135 1.67996 5.87555 0
M  V30 2008 C 198.133 2.53017 6.34406 0
M  V30 2009 O 197.821 3.52917 7.22291 0
M  V30 2010 H 197.553 -0.030077 0.675331 0
M  V30 2011 H 200.107 0.560708 1.97599 0
M  V30 2012 H 198.337 -1.411 3.60038 0
M  V30 2013 H 200.026 -1.11981 3.90148 0
M  V30 2014 H 200.792 1.23509 4.6901 0
M  V30 2015 H 196.671 0.0114913 4.60999 0
M  V30 2016 H 200.215 3.03113 6.28306 0
M  V30 2017 H 196.112 1.79933 6.19915 0
M  V30 2018 H 196.88 3.48996 7.40367 0
M  V30 2019 N 199.544 -1.57102 0.125237 0
M  V30 2020 C 200.784 -1.97294 -0.534259 0
M  V30 2021 C 201.148 -1.0074 -1.63449 0
M  V30 2022 O 202.349 -1.29893 -2.35332 0
M  V30 2023 C 200.62 -3.41705 -1.04748 0
M  V30 2024 S 202.179 -4.03913 -1.71463 0
M  V30 2025 H 198.997 -0.689517 -0.173458 0
M  V30 2026 H 201.599 -1.94349 0.211797 0
M  V30 2027 H 200.303 -4.09723 -0.235649 0
M  V30 2028 H 199.834 -3.48315 -1.82867 0
M  V30 2029 H 201.849 -3.95182 -3.00077 0
M  V30 2030 N 201.022 0.148545 -1.56898 0
M  V30 2031 C 202.25 0.876389 -1.87422 0
M  V30 2032 C 202.665 1.74809 -0.713256 0
M  V30 2033 O 202.022 1.79725 0.317025 0
M  V30 2034 C 202.073 1.73438 -3.17178 0
M  V30 2035 O 201.794 0.897809 -4.28802 0
M  V30 2036 C 203.295 2.56993 -3.61205 0
M  V30 2037 H 200.515 0.253489 -0.621277 0
M  V30 2038 H 203.059 0.141798 -2.04008 0
M  V30 2039 H 201.214 2.42205 -3.0235 0
M  V30 2040 H 201.628 1.48672 -5.02988 0
M  V30 2041 H 203.102 3.12773 -4.54838 0
M  V30 2042 H 203.579 3.32958 -2.86419 0
M  V30 2043 H 204.185 1.9352 -3.78722 0
M  V30 2044 N 202.5 1.5196 0.417844 0
M  V30 2045 C 203.777 1.56146 1.17803 0
M  V30 2046 C 204.157 0.337275 2.08388 0
M  V30 2047 O 203.505 -0.676447 2.18258 0
M  V30 2048 C 203.715 2.88566 1.96293 0
M  V30 2049 C 205.063 3.41244 2.52662 0
M  V30 2050 O 206.087 2.90247 2.06483 0
M  V30 2051 O 204.946 4.30273 3.36938 0
M  V30 2052 H 202.04 0.628598 0.537395 0
M  V30 2053 H 204.586 1.64283 0.425331 0
M  V30 2054 H 203.358 3.69116 1.2988 0
M  V30 2055 H 202.981 2.83681 2.78587 0
M  V30 2056 N 203.978 -0.674533 1.42435 0
M  V30 2057 C 205.218 -1.4466 1.44405 0
M  V30 2058 C 205.582 -1.91911 0.0585784 0
M  V30 2059 O 206.783 -2.68759 -0.0469991 0
M  V30 2060 C 205.054 -2.61136 2.44013 0
M  V30 2061 S 206.613 -3.49981 2.64687 0
M  V30 2062 H 203.431 -0.494074 0.511284 0
M  V30 2063 H 206.033 -0.785162 1.7904 0
M  V30 2064 H 204.737 -2.24662 3.43446 0
M  V30 2065 H 204.268 -3.32153 2.10803 0
M  V30 2066 H 206.283 -4.57124 1.93007 0
M  V30 2067 N 205.456 -1.28612 -0.910864 0
M  V30 2068 C 206.406 -1.09423 -2.00026 0
M  V30 2069 C 207.39 -0.0170079 -1.60891 0
M  V30 2070 O 208.582 -0.237472 -1.754 0
M  V30 2071 C 205.711 -0.76114 -3.34756 0
M  V30 2072 C 204.797 -1.87735 -3.80285 0
M  V30 2073 N 205.188 -3.11938 -3.98156 0
M  V30 2074 C 203.486 -1.76786 -4.09467 0
M  V30 2075 C 204.187 -3.84687 -4.36338 0
M  V30 2076 N 203.163 -3.12555 -4.44759 0
M  V30 2077 H 206.965 -2.03658 -2.11898 0
M  V30 2078 H 204.479 -1.19573 -1.09891 0
M  V30 2079 H 206.476 -0.604743 -4.12491 0
M  V30 2080 H 205.136 0.173403 -3.24237 0
M  V30 2081 H 206.147 -3.47516 -3.83996 0
M  V30 2082 H 202.824 -0.905284 -4.07567 0
M  V30 2083 H 204.214 -4.91518 -4.58104 0
M  V30 2084 N 206.934 1.1197 -1.10907 0
M  V30 2085 C 208.35 1.35591 -0.841852 0
M  V30 2086 C 208.55 1.94233 0.536246 0
M  V30 2087 O 207.606 2.1717 1.28816 0
M  V30 2088 C 208.919 2.29284 -1.94549 0
M  V30 2089 C 210.467 2.42862 -1.97451 0
M  V30 2090 C 210.942 3.39873 -3.07002 0
M  V30 2091 N 212.433 3.47433 -3.06341 0
M  V30 2092 C 213.168 4.22421 -3.87748 0
M  V30 2093 N 212.664 5.00432 -4.79103 0
M  V30 2094 N 214.457 4.17876 -3.75946 0
M  V30 2095 H 206.608 0.722664 -1.99728 0
M  V30 2096 H 208.871 0.380635 -0.868229 0
M  V30 2097 H 208.577 1.93378 -2.93765 0
M  V30 2098 H 208.451 3.29452 -1.83688 0
M  V30 2099 H 210.838 2.78046 -0.988645 0
M  V30 2100 H 210.919 1.42566 -2.12388 0
M  V30 2101 H 210.563 3.05417 -4.05811 0
M  V30 2102 H 210.493 4.40011 -2.89306 0
M  V30 2103 H 212.984 2.91784 -2.40147 0
M  V30 2104 H 213.297 5.55002 -5.37766 0
M  V30 2105 H 211.642 4.99612 -4.83128 0
M  V30 2106 H 214.833 3.56016 -3.03924 0
M  V30 2107 H 215.006 4.76061 -4.39624 0
M  V30 2108 N 208.412 0.89855 1.29475 0
M  V30 2109 C 209.36 0.365253 2.29714 0
M  V30 2110 C 210.354 -0.534993 1.6073 0
M  V30 2111 O 211.56 -0.417921 1.75081 0
M  V30 2112 H 207.935 0.0994853 0.74539 0
M  V30 2113 H 209.906 1.22406 2.72138 0
M  V30 2114 C 208.655 -0.393159 3.4547 0
M  V30 2115 H 207.978 0.290332 3.98744 0
M  V30 2116 H 209.418 -0.731189 4.17648 0
M  V30 2117 C 207.877 -1.59539 2.9673 0
M  V30 2118 O 208.407 -2.69469 2.97908 0
M  V30 2119 N 206.613 -1.43716 2.52575 0
M  V30 2120 H 206.16 -0.542828 2.51816 0
M  V30 2121 H 206.118 -2.24288 2.20323 0
M  V30 2122 N 209.89 -1.43072 0.660911 0
M  V30 2123 C 211.136 -2.0202 0.177708 0
M  V30 2124 C 211.469 -1.52066 -1.20787 0
M  V30 2125 O 210.744 -0.716987 -1.80802 0
M  V30 2126 C 211.027 -3.59561 0.197019 0
M  V30 2127 C 210.88 -4.19727 1.61706 0
M  V30 2128 C 212.199 -4.37664 -0.462396 0
M  V30 2129 H 209.318 -0.734034 0.0660494 0
M  V30 2130 H 211.96 -1.70272 0.843058 0
M  V30 2131 H 210.11 -3.86739 -0.369527 0
M  V30 2132 H 211.782 -4.03553 2.23479 0
M  V30 2133 H 210.025 -3.76084 2.16201 0
M  V30 2134 H 210.696 -5.28834 1.58237 0
M  V30 2135 H 213.172 -4.16095 0.0197215 0
M  V30 2136 H 212.048 -5.47305 -0.418188 0
M  V30 2137 H 212.309 -4.14493 -1.53778 0
M  V30 2138 N 211.368 -0.403325 -1.52352 0
M  V30 2139 C 212.3 0.4603 -2.2453 0
M  V30 2140 C 213.313 1.01505 -1.27282 0
M  V30 2141 O 214.502 0.914982 -1.53266 0
M  V30 2142 C 211.602 1.65208 -2.95905 0
M  V30 2143 C 210.775 1.22224 -4.19976 0
M  V30 2144 C 209.834 2.28028 -4.74226 0
M  V30 2145 O 208.86 1.88857 -5.36956 0
M  V30 2146 N 210.062 3.6012 -4.55295 0
M  V30 2147 H 212.827 -0.158156 -2.99282 0
M  V30 2148 H 210.388 -0.230402 -1.60252 0
M  V30 2149 H 212.38 2.35541 -3.29093 0
M  V30 2150 H 210.95 2.17658 -2.24374 0
M  V30 2151 H 210.17 0.34725 -3.92668 0
M  V30 2152 H 211.458 0.911924 -5.00561 0
M  V30 2153 H 210.856 3.94698 -4.05253 0
M  V30 2154 H 209.413 4.26447 -4.92936 0
M  V30 2155 N 212.846 1.57033 -0.133567 0
M  V30 2156 C 213.796 2.12641 0.822671 0
M  V30 2157 C 214.78 1.05081 1.21847 0
M  V30 2158 O 215.972 1.31287 1.18713 0
M  V30 2159 C 213.101 2.74094 2.06706 0
M  V30 2160 C 212.187 3.88757 1.69497 0
M  V30 2161 N 212.578 4.95194 1.03037 0
M  V30 2162 C 210.876 3.99213 1.98859 0
M  V30 2163 C 211.577 5.75414 0.852873 0
M  V30 2164 N 210.553 5.25726 1.3825 0
M  V30 2165 H 214.355 2.92308 0.305537 0
M  V30 2166 H 211.869 1.62256 0.0684276 0
M  V30 2167 H 213.866 3.12285 2.76195 0
M  V30 2168 H 212.526 1.95896 2.5895 0
M  V30 2169 H 213.537 5.13247 0.692669 0
M  V30 2170 H 210.214 3.32075 2.53047 0
M  V30 2171 H 211.604 6.71089 0.330091 0
M  V30 2172 N 214.325 -0.140222 1.56975 0
M  V30 2173 C 215.258 -1.20266 1.93936 0
M  V30 2174 C 216.236 -1.41212 0.806099 0
M  V30 2175 O 217.42 -1.55713 1.06234 0
M  V30 2176 C 214.547 -2.56037 2.21726 0
M  V30 2177 C 213.593 -2.51646 3.44349 0
M  V30 2178 S 214.426 -1.97678 4.97678 0
M  V30 2179 C 215.582 -3.35165 5.28597 0
M  V30 2180 H 215.815 -0.887358 2.83749 0
M  V30 2181 H 213.348 -0.346119 1.50471 0
M  V30 2182 H 215.306 -3.34167 2.38416 0
M  V30 2183 H 213.967 -2.84755 1.32566 0
M  V30 2184 H 213.16 -3.51608 3.61092 0
M  V30 2185 H 212.762 -1.81628 3.26936 0
M  V30 2186 H 215.054 -4.31302 5.2248 0
M  V30 2187 H 215.997 -3.23269 6.30002 0
M  V30 2188 H 216.405 -3.32614 4.56101 0
M  V30 2189 N 215.803 -1.52179 -0.40978 0
M  V30 2190 C 217.219 -1.40968 -0.74835 0
M  V30 2191 C 217.419 -0.513657 -1.94843 0
M  V30 2192 O 216.475 0.0208026 -2.52491 0
M  V30 2193 C 217.788 -2.83483 -1.0029 0
M  V30 2194 C 219.336 -2.92821 -1.10565 0
M  V30 2195 C 219.811 -4.36303 -1.39296 0
M  V30 2196 N 221.302 -4.39535 -1.46162 0
M  V30 2197 C 222.037 -5.47614 -1.70018 0
M  V30 2198 N 221.533 -6.65812 -1.91483 0
M  V30 2199 N 223.326 -5.35129 -1.72027 0
M  V30 2200 H 215.477 -2.0897 0.380186 0
M  V30 2201 H 217.74 -0.94185 0.107805 0
M  V30 2202 H 217.446 -3.51168 -0.193461 0
M  V30 2203 H 217.32 -3.24487 -1.92323 0
M  V30 2204 H 219.707 -2.25318 -1.90568 0
M  V30 2205 H 219.788 -2.55276 -0.16369 0
M  V30 2206 H 219.432 -5.04366 -0.598109 0
M  V30 2207 H 219.362 -4.71385 -2.34743 0
M  V30 2208 H 221.853 -3.54332 -1.31367 0
M  V30 2209 H 222.166 -7.43964 -2.09134 0
M  V30 2210 H 220.511 -6.68879 -1.88749 0
M  V30 2211 H 223.702 -4.41764 -1.54796 0
M  V30 2212 H 223.875 -6.19433 -1.9028 0
M  V30 2213 N 217.281 0.66697 -1.42791 0
M  V30 2214 C 218.214 1.79177 -1.41318 0
M  V30 2215 C 219.192 1.60234 -0.276401 0
M  V30 2216 O 220.376 1.82602 -0.46785 0
M  V30 2217 C 217.503 3.16289 -1.21157 0
M  V30 2218 C 216.549 3.53964 -2.37932 0
M  V30 2219 S 217.382 3.55501 -4.00474 0
M  V30 2220 C 218.538 4.95292 -3.8267 0
M  V30 2221 H 218.771 1.80153 -2.365 0
M  V30 2222 H 216.304 0.838357 -1.29657 0
M  V30 2223 H 218.262 3.95428 -1.10212 0
M  V30 2224 H 216.923 3.1289 -0.275481 0
M  V30 2225 H 216.116 4.53646 -2.19594 0
M  V30 2226 H 215.718 2.82204 -2.45432 0
M  V30 2227 H 218.01 5.83584 -3.44145 0
M  V30 2228 H 218.953 5.18679 -4.82055 0
M  V30 2229 H 219.361 4.68179 -3.15386 0
M  V30 2230 N 218.759 1.29093 0.90403 0
M  V30 2231 C 219.706 1.13853 2.00764 0
M  V30 2232 C 220.676 0.0330084 1.66067 0
M  V30 2233 O 221.861 0.199733 1.89752 0
M  V30 2234 C 219.001 0.816537 3.35301 0
M  V30 2235 C 218.114 2.00206 3.82807 0
M  V30 2236 C 217.249 1.61983 5.059 0
M  V30 2237 C 216.288 2.77143 5.45764 0
M  V30 2238 N 215.425 2.39346 6.60044 0
M  V30 2239 H 220.265 2.08276 2.13132 0
M  V30 2240 H 217.802 1.03648 1.04381 0
M  V30 2241 H 219.76 0.610557 4.12708 0
M  V30 2242 H 218.39 -0.090779 3.22672 0
M  V30 2243 H 217.442 2.31988 3.01473 0
M  V30 2244 H 218.754 2.86512 4.08304 0
M  V30 2245 H 217.908 1.37649 5.90879 0
M  V30 2246 H 216.647 0.728202 4.82233 0
M  V30 2247 H 215.652 3.02165 4.59322 0
M  V30 2248 H 216.877 3.66964 5.71414 0
M  V30 2249 H 214.823 1.52665 6.37989 0
M  V30 2250 H 214.74 3.19185 6.85315 0
M  V30 2251 H 216.008 2.1832 7.48303 0
M  V30 2252 N 220.237 -1.11381 1.11499 0
M  V30 2253 C 221.648 -1.6465 0.880191 0
M  V30 2254 C 221.999 -1.87199 -0.587434 0
M  V30 2255 O 221.124 -1.60667 -1.44966 0
M  V30 2256 C 221.719 -2.99105 1.59128 0
M  V30 2257 C 220.278 -3.49279 1.40289 0
M  V30 2258 C 219.425 -2.24077 1.63354 0
M  V30 2259 H 222.376 -0.950123 1.27116 0
M  V30 2260 H 222.397 -3.66107 1.03664 0
M  V30 2261 H 221.909 -2.82661 2.65941 0
M  V30 2262 H 220.01 -3.70887 0.356888 0
M  V30 2263 H 220.123 -4.2803 2.15238 0
M  V30 2264 H 218.487 -2.31733 1.05698 0
M  V30 2265 H 219.27 -2.10175 2.71443 0
M  V30 2266 N 221.715 -0.905404 -1.28997 0
M  V30 2267 C 222.964 -0.530191 -1.94607 0
M  V30 2268 C 223.277 0.929185 -1.72121 0
M  V30 2269 O 224.483 1.41218 -2.31883 0
M  V30 2270 C 222.939 -0.897333 -3.48534 0
M  V30 2271 C 222.547 -2.37587 -3.79811 0
M  V30 2272 C 224.291 -0.592304 -4.20347 0
M  V30 2273 C 222.198 -2.68357 -5.27009 0
M  V30 2274 H 221.128 -0.194558 -0.728466 0
M  V30 2275 H 223.779 -1.10318 -1.46636 0
M  V30 2276 H 222.161 -0.253214 -3.9519 0
M  V30 2277 H 223.335 -3.06602 -3.43994 0
M  V30 2278 H 221.65 -2.6505 -3.2115 0
M  V30 2279 H 224.247 -0.798975 -5.28697 0
M  V30 2280 H 224.59 0.469474 -4.13644 0
M  V30 2281 H 225.123 -1.19452 -3.79442 0
M  V30 2282 H 221.862 -3.73355 -5.38782 0
M  V30 2283 H 221.382 -2.03971 -5.64053 0
M  V30 2284 H 223.061 -2.54922 -5.94663 0
M  V30 2285 N 223.193 1.4272 -0.668489 0
M  V30 2286 C 224.418 2.06484 -0.194758 0
M  V30 2287 C 224.843 1.49862 1.13679 0
M  V30 2288 O 224.201 0.614582 1.70565 0
M  V30 2289 C 224.249 3.60353 -0.133546 0
M  V30 2290 O 223.353 4.02464 0.899806 0
M  V30 2291 H 222.694 0.656137 -0.10188 0
M  V30 2292 H 225.224 1.82964 -0.915722 0
M  V30 2293 H 225.234 4.07976 0.0447041 0
M  V30 2294 H 223.909 4.00938 -1.1055 0
M  V30 2295 H 222.486 3.66402 0.693109 0
M  V30 2296 N 224.671 0.411399 1.52136 0
M  V30 2297 C 225.899 -0.163076 2.06256 0
M  V30 2298 C 226.314 -1.3867 1.28125 0
M  V30 2299 O 225.671 -1.79423 0.333721 0
M  V30 2300 C 225.722 -0.511252 3.57867 0
M  V30 2301 O 225.443 0.66378 4.33042 0
M  V30 2302 C 226.944 -1.13921 4.28412 0
M  V30 2303 H 224.164 -0.0193897 0.67072 0
M  V30 2304 H 226.708 0.583007 1.96013 0
M  V30 2305 H 224.863 -1.20723 3.6811 0
M  V30 2306 H 225.277 0.372601 5.23175 0
M  V30 2307 H 226.751 -1.33302 5.35663 0
M  V30 2308 H 227.228 -2.11296 3.85033 0
M  V30 2309 H 227.834 -0.483373 4.22544 0
M  V30 2310 N 226.149 -1.5696 0.141893 0
M  V30 2311 C 227.565 -1.58151 -0.21456 0
M  V30 2312 C 227.765 -1.1559 -1.65049 0
M  V30 2313 O 226.821 -0.853832 -2.37626 0
M  V30 2314 C 228.134 -3.00674 0.0395576 0
M  V30 2315 C 229.682 -3.1299 -0.0245529 0
M  V30 2316 C 230.157 -4.57554 0.202167 0
M  V30 2317 N 231.648 -4.62961 0.148919 0
M  V30 2318 C 232.383 -5.7262 0.298924 0
M  V30 2319 N 231.879 -6.90947 0.50637 0
M  V30 2320 N 233.672 -5.61601 0.236886 0
M  V30 2321 H 225.823 -1.8292 1.07953 0
M  V30 2322 H 228.086 -0.846425 0.42693 0
M  V30 2323 H 227.792 -3.36183 1.03315 0
M  V30 2324 H 227.666 -3.70981 -0.682143 0
M  V30 2325 H 230.053 -2.77326 -1.00869 0
M  V30 2326 H 230.134 -2.4518 0.729396 0
M  V30 2327 H 229.778 -4.93922 1.18338 0
M  V30 2328 H 229.708 -5.23484 -0.572044 0
M  V30 2329 H 232.199 -3.77899 -0.00697015 0
M  V30 2330 H 232.512 -7.7038 0.611076 0
M  V30 2331 H 230.857 -6.92878 0.542628 0
M  V30 2332 H 234.048 -4.68039 0.0756209 0
M  V30 2333 H 234.221 -6.47015 0.357227 0
M  V30 2334 N 227.627 0.131896 -1.57047 0
M  V30 2335 C 228.537 1.1815 -2.02676 0
M  V30 2336 C 229.553 1.46113 -0.944824 0
M  V30 2337 O 230.729 1.57485 -1.25541 0
M  V30 2338 C 227.794 2.49139 -2.41103 0
M  V30 2339 C 226.855 2.28688 -3.63318 0
M  V30 2340 C 226.088 3.53431 -3.99903 0
M  V30 2341 O 226.311 4.60223 -3.36973 0
M  V30 2342 O 225.245 3.45198 -4.93074 0
M  V30 2343 H 229.071 0.824069 -2.92306 0
M  V30 2344 H 226.656 0.341745 -1.45439 0
M  V30 2345 H 228.538 3.26338 -2.66611 0
M  V30 2346 H 227.213 2.84382 -1.54624 0
M  V30 2347 H 226.12 1.4939 -3.42977 0
M  V30 2348 H 227.453 1.98355 -4.50462 0
M  V30 2349 N 229.106 1.52395 0.401703 0
M  V30 2350 C 230.352 1.67065 1.14966 0
M  V30 2351 C 230.685 0.403052 1.89971 0
M  V30 2352 O 229.96 -0.598774 1.85054 0
M  V30 2353 C 230.243 2.8975 2.13815 0
M  V30 2354 C 230.096 4.26578 1.42658 0
M  V30 2355 C 231.415 3.07965 3.14397 0
M  V30 2356 H 228.534 0.607968 0.416587 0
M  V30 2357 H 231.176 1.84965 0.434511 0
M  V30 2358 H 229.326 2.74619 2.74803 0
M  V30 2359 H 230.998 4.53451 0.847329 0
M  V30 2360 H 229.241 4.27639 0.72849 0
M  V30 2361 H 229.912 5.08483 2.14823 0
M  V30 2362 H 232.388 3.22043 2.63491 0
M  V30 2363 H 231.264 3.95308 3.80819 0
M  V30 2364 H 231.525 2.21611 3.82545 0
M  V30 2365 N 230.584 -0.659388 1.43143 0
M  V30 2366 C 231.547 -1.75432 1.47501 0
M  V30 2367 C 232.547 -1.56707 0.360512 0
M  V30 2368 O 233.737 -1.62717 0.622002 0
M  V30 2369 C 230.869 -3.14239 1.32162 0
M  V30 2370 H 232.062 -1.7295 2.45006 0
M  V30 2371 H 229.615 -0.870469 1.29817 0
M  V30 2372 H 230.35 -3.22336 0.356401 0
M  V30 2373 H 230.135 -3.29235 2.12948 0
M  V30 2374 H 231.625 -3.94094 1.3813 0
M  V30 2375 N 232.062 -1.29571 -0.897171 0
M  V30 2376 C 233.339 -1.08365 -1.62839 0
M  V30 2377 C 233.719 0.371331 -2.07808 0
M  V30 2378 O 233.067 1.3606 -1.83576 0
M  V30 2379 C 233.277 -2.0735 -2.80726 0
M  V30 2380 C 234.625 -2.38406 -3.51351 0
M  V30 2381 O 235.649 -2.05564 -2.90898 0
M  V30 2382 O 234.508 -2.9453 -4.60341 0
M  V30 2383 H 231.602 -0.415345 -0.715134 0
M  V30 2384 H 234.148 -1.40952 -0.945018 0
M  V30 2385 H 232.92 -3.05339 -2.44711 0
M  V30 2386 H 232.543 -1.75507 -3.56767 0
M  V30 2387 N 233.54 1.10788 -1.12088 0
M  V30 2388 C 234.45 2.20599 -0.798338 0
M  V30 2389 C 235.466 1.72712 0.21135 0
M  V30 2390 O 236.642 2.01348 0.0458477 0
M  V30 2391 C 233.707 3.45771 -0.253674 0
M  V30 2392 C 232.768 4.08411 -1.32283 0
M  V30 2393 C 232.001 5.27608 -0.80406 0
M  V30 2394 O 232.224 5.69241 0.363478 0
M  V30 2395 O 231.158 5.8101 -1.57198 0
M  V30 2396 H 234.984 2.50614 -1.7154 0
M  V30 2397 H 232.569 1.19454 -0.897275 0
M  V30 2398 H 234.451 4.21376 0.0453691 0
M  V30 2399 H 233.126 3.1739 0.636005 0
M  V30 2400 H 232.033 3.34507 -1.67499 0
M  V30 2401 H 233.366 4.40986 -2.18614 0
M  V30 2402 O 235.057 1.04415 1.23206 0
M  V30 2403 H 235.748 0.716727 1.79952 0
M  V30 END ATOM
M  V30 BEGIN BOND
M  V30 END BOND
M  V30 END CTAB
M  END
$$$$
