drugbank_target|Q72EF3 Cytochrome c-552 (DB07918)
 OpenBabel12092120473D

  0  0  0     0  0            999 V3000
M  V30 BEGIN CTAB
M  V30 COUNTS 8333 8449 0 0 0
M  V30 BEGIN ATOM
M  V30 1 H -0.908 1.98254 -0.117106 0
M  V30 2 N 0 1.576 0 0
M  V30 3 C 0.933 2.03868 1.02534 0
M  V30 4 C 1.911 0.928543 1.3348 0
M  V30 5 O 3.095 1.19667 1.45644 0
M  V30 6 C 0.222 2.43627 2.35294 0
M  V30 7 C -0.732 3.65373 2.2001 0
M  V30 8 S 0.101 5.13292 1.52614 0
M  V30 9 C 1.257 5.56322 2.86805 0
M  V30 10 H 1.49 2.90518 0.631377 0
M  V30 11 H -0.977 1.52953 0.210867 0
M  V30 12 H 0.981 2.67203 3.11629 0
M  V30 13 H -0.358 1.57376 2.7183 0
M  V30 14 H -1.165 3.90944 3.18086 0
M  V30 15 H -1.563 3.418 1.51819 0
M  V30 16 H 0.729 5.58782 3.83104 0
M  V30 17 H 1.672 6.56266 2.65933 0
M  V30 18 H 2.08 4.83886 2.90714 0
M  V30 19 N 1.4781 -0.272755 1.55222 0
M  V30 20 C 2.4261 -1.35705 1.88909 0
M  V30 21 C 3.4201 -1.5112 0.765456 0
M  V30 22 O 4.6261 -1.52901 0.949802 0
M  V30 23 H 1.0011 -0.453868 0.59959 0
M  V30 24 H 2.9721 -1.04544 2.79487 0
M  V30 25 C 1.7211 -2.71049 2.17779 0
M  V30 26 H 1.0441 -2.59979 3.03728 0
M  V30 27 H 2.4841 -3.45858 2.45272 0
M  V30 28 C 0.9431 -3.22165 0.985473 0
M  V30 29 O 1.4731 -4.01096 0.220233 0
M  V30 30 N -0.3209 -2.7985 0.783108 0
M  V30 31 H -0.7739 -2.15775 1.40708 0
M  V30 32 H -0.8159 -3.14397 -0.0130392 0
M  V30 33 N 2.9562 -1.48159 -0.537278 0
M  V30 34 C 3.9042 -1.62573 -1.66352 0
M  V30 35 C 4.8982 -0.492366 -1.62087 0
M  V30 36 O 6.1042 -0.670847 -1.67032 0
M  V30 37 H 2.4792 -0.511992 -0.550789 0
M  V30 38 H 4.4502 -2.57176 -1.51337 0
M  V30 39 C 3.1992 -1.67583 -3.04649 0
M  V30 40 H 2.5222 -2.54151 -3.08622 0
M  V30 41 H 3.9622 -1.81713 -3.83088 0
M  V30 42 C 2.4212 -0.413039 -3.34358 0
M  V30 43 O 2.9512 0.477259 -3.98855 0
M  V30 44 N 1.1572 -0.286961 -2.8918 0
M  V30 45 H 0.7042 -1.01241 -2.36871 0
M  V30 46 H 0.6622 0.556963 -3.09427 0
M  V30 47 N 4.4343 0.785586 -1.36625 0
M  V30 48 C 5.3663 1.90711 -1.2713 0
M  V30 49 C 6.3793 1.61688 -0.189986 0
M  V30 50 O 7.5683 1.72864 -0.445014 0
M  V30 51 C 4.6683 3.25611 -0.939713 0
M  V30 52 C 3.8413 3.82385 -2.12369 0
M  V30 53 C 2.9003 4.95732 -1.76456 0
M  V30 54 O 1.9263 5.12047 -2.48589 0
M  V30 55 N 3.1283 5.76258 -0.700492 0
M  V30 56 H 5.8933 1.99376 -2.23762 0
M  V30 57 H 3.4543 0.964041 -1.30069 0
M  V30 58 H 5.4463 3.98937 -0.680554 0
M  V30 59 H 4.0163 3.12538 -0.0624074 0
M  V30 60 H 3.2363 3.01001 -2.54543 0
M  V30 61 H 4.5243 4.17047 -2.9146 0
M  V30 62 H 3.9223 5.65609 -0.101624 0
M  V30 63 H 2.4793 6.4987 -0.501165 0
M  V30 64 N 5.9124 1.20967 1.01018 0
M  V30 65 C 6.8594 0.964281 2.09691 0
M  V30 66 C 7.8294 -0.107853 1.65749 0
M  V30 67 O 9.0144 0.0381987 1.90762 0
M  V30 68 C 6.1544 0.52943 3.41015 0
M  V30 69 C 5.2674 1.67043 3.98398 0
M  V30 70 C 4.4024 1.18525 5.17808 0
M  V30 71 C 3.4414 2.29892 5.67288 0
M  V30 72 N 2.5784 1.82546 6.77954 0
M  V30 73 H 7.4184 1.89463 2.30017 0
M  V30 74 H 4.9554 0.944289 1.1279 0
M  V30 75 H 6.9134 0.258588 4.16398 0
M  V30 76 H 5.5434 -0.363919 3.20742 0
M  V30 77 H 4.5954 2.05603 3.20049 0
M  V30 78 H 5.9074 2.50877 4.31117 0
M  V30 79 H 5.0614 0.870762 6.00419 0
M  V30 80 H 3.8004 0.316887 4.86669 0
M  V30 81 H 2.8054 2.6215 4.83278 0
M  V30 82 H 4.0304 3.17216 6.00459 0
M  V30 83 H 1.9764 0.980454 6.48632 0
M  V30 84 H 1.8934 2.59956 7.09901 0
M  V30 85 H 3.1614 1.54115 7.64113 0
M  V30 86 N 7.3905 -1.2043 1.01659 0
M  V30 87 C 8.6185 -1.93777 0.725132 0
M  V30 88 C 9.0335 -1.74772 -0.714166 0
M  V30 89 O 8.3905 -1.06169 -1.4844 0
M  V30 90 C 8.4415 -3.45876 1.05129 0
M  V30 91 O 8.1625 -3.6426 2.43406 0
M  V30 92 C 9.6635 -4.36368 0.780891 0
M  V30 93 H 6.8835 -0.615901 0.266284 0
M  V30 94 H 9.4275 -1.52922 1.35776 0
M  V30 95 H 7.5825 -3.8461 0.464065 0
M  V30 96 H 7.9965 -4.58246 2.55169 0
M  V30 97 H 9.4705 -5.41743 1.05918 0
M  V30 98 H 9.9475 -4.38275 -0.284937 0
M  V30 99 H 10.5535 -4.03296 1.35027 0
M  V30 100 N 8.8686 -0.792821 -1.36206 0
M  V30 101 C 10.1156 -0.366786 -1.99151 0
M  V30 102 C 10.4436 1.06243 -1.62919 0
M  V30 103 O 9.6986 1.74927 -0.877442 0
M  V30 104 C 9.9976 -0.481501 -3.54142 0
M  V30 105 C 9.6636 -1.87202 -4.10203 0
M  V30 106 C 8.3256 -2.25248 -4.25226 0
M  V30 107 C 10.6776 -2.78237 -4.40719 0
M  V30 108 C 8.0056 -3.53723 -4.68078 0
M  V30 109 C 10.3576 -4.06144 -4.85005 0
M  V30 110 C 9.0216 -4.44207 -4.98234 0
M  V30 111 H 8.2916 -0.134217 -0.728743 0
M  V30 112 H 10.9386 -1.01094 -1.62641 0
M  V30 113 H 9.2436 0.246146 -3.91026 0
M  V30 114 H 10.9406 -0.132844 -4.0078 0
M  V30 115 H 7.5306 -1.56639 -3.98951 0
M  V30 116 H 11.7146 -2.50097 -4.28679 0
M  V30 117 H 6.9706 -3.8308 -4.76508 0
M  V30 118 H 11.1446 -4.76796 -5.07581 0
M  V30 119 H 8.7716 -5.43814 -5.31197 0
M  V30 120 N 10.3467 1.47872 -0.545128 0
M  V30 121 C 11.2937 2.29849 0.2093 0
M  V30 122 C 12.2637 1.38313 0.919707 0
M  V30 123 O 13.4487 1.67277 0.917772 0
M  V30 124 C 10.5887 3.22019 1.24088 0
M  V30 125 C 9.7017 4.2864 0.537778 0
M  V30 126 C 8.8367 5.07973 1.5536 0
M  V30 127 C 7.8757 6.06381 0.8348 0
M  V30 128 N 7.0127 6.78717 1.79688 0
M  V30 129 H 11.8527 2.93845 -0.49591 0
M  V30 130 H 9.3897 1.44848 -0.256389 0
M  V30 131 H 11.3477 3.73868 1.85144 0
M  V30 132 H 9.9777 2.59914 1.91428 0
M  V30 133 H 9.0297 3.7994 -0.187046 0
M  V30 134 H 10.3417 4.98793 -0.0258907 0
M  V30 135 H 9.4957 5.63912 2.23803 0
M  V30 136 H 8.2347 4.37693 2.15118 0
M  V30 137 H 7.2397 5.49631 0.136388 0
M  V30 138 H 8.4647 6.78665 0.24313 0
M  V30 139 H 6.4107 6.11177 2.38326 0
M  V30 140 H 6.3277 7.44998 1.28505 0
M  V30 141 H 7.5957 7.39237 2.47282 0
M  V30 142 N 11.8248 0.280983 1.55075 0
M  V30 143 C 13.0728 -0.333455 1.9933 0
M  V30 144 C 13.3938 -1.55937 1.17085 0
M  V30 145 O 12.6638 -1.94143 0.261805 0
M  V30 146 H 11.2438 -0.126197 0.736263 0
M  V30 147 H 13.9058 0.387678 1.91005 0
M  V30 148 H 13.0018 -0.619292 3.05894 0
M  V30 149 N 13.3029 -1.57598 0.00835791 0
M  V30 150 C 14.2329 -2.1198 -0.979113 0
M  V30 151 C 15.2139 -1.03091 -1.35301 0
M  V30 152 O 16.3989 -1.30818 -1.43528 0
M  V30 153 C 13.5289 -2.62995 -2.26828 0
M  V30 154 C 12.4829 -3.76485 -2.03576 0
M  V30 155 C 11.8089 -4.13846 -3.38579 0
M  V30 156 C 13.1089 -5.0342 -1.39161 0
M  V30 157 H 14.8029 -2.94738 -0.526281 0
M  V30 158 H 12.3489 -1.41783 -0.251704 0
M  V30 159 H 14.3019 -2.99669 -2.96271 0
M  V30 160 H 13.0259 -1.7737 -2.7424 0
M  V30 161 H 11.6849 -3.40217 -1.36557 0
M  V30 162 H 11.3329 -3.25232 -3.83709 0
M  V30 163 H 11.0329 -4.90312 -3.23834 0
M  V30 164 H 12.5569 -4.53086 -4.09323 0
M  V30 165 H 13.9709 -5.37812 -1.98573 0
M  V30 166 H 12.3679 -5.84746 -1.34878 0
M  V30 167 H 13.4379 -4.83548 -0.361868 0
M  V30 168 N 14.781 0.264519 -1.55364 0
M  V30 169 C 16.197 0.61215 -1.47394 0
M  V30 170 C 16.397 1.89134 -0.695018 0
M  V30 171 O 15.453 2.51563 -0.217275 0
M  V30 172 C 16.766 0.731235 -2.91674 0
M  V30 173 C 18.314 0.82473 -3.01939 0
M  V30 174 C 18.789 0.975522 -4.4749 0
M  V30 175 N 20.28 1.04083 -4.51354 0
M  V30 176 C 21.015 1.17646 -5.61201 0
M  V30 177 N 20.511 1.27874 -6.80896 0
M  V30 178 N 22.304 1.20823 -5.48961 0
M  V30 179 H 14.455 -0.575456 -2.04456 0
M  V30 180 H 16.718 -0.196099 -0.927496 0
M  V30 181 H 16.424 -0.138392 -3.51428 0
M  V30 182 H 16.298 1.60883 -3.41169 0
M  V30 183 H 18.685 1.68482 -2.42276 0
M  V30 184 H 18.766 -0.0776479 -2.55682 0
M  V30 185 H 18.41 0.120058 -5.07758 0
M  V30 186 H 18.34 1.89268 -4.91412 0
M  V30 187 H 20.831 0.973846 -3.65136 0
M  V30 188 H 21.144 1.38081 -7.60364 0
M  V30 189 H 19.489 1.24863 -6.83692 0
M  V30 190 H 22.68 1.12469 -4.54388 0
M  V30 191 H 22.853 1.31049 -6.3461 0
M  V30 192 N 16.2591 1.48442 0.529413 0
M  V30 193 C 17.1891 1.65902 1.64313 0
M  V30 194 C 18.1701 0.507897 1.6234 0
M  V30 195 O 19.3551 0.740503 1.79528 0
M  V30 196 C 16.4851 1.69911 3.02898 0
M  V30 197 C 15.4391 2.8453 3.19729 0
M  V30 198 C 14.7651 2.73629 4.59381 0
M  V30 199 C 16.0651 4.25821 3.02447 0
M  V30 200 H 17.7591 2.5914 1.49955 0
M  V30 201 H 15.3051 1.24709 0.719982 0
M  V30 202 H 17.2581 1.80715 3.80684 0
M  V30 203 H 15.9821 0.732524 3.18279 0
M  V30 204 H 14.6411 2.73283 2.44361 0
M  V30 205 H 14.2891 1.74938 4.71599 0
M  V30 206 H 13.9891 3.50541 4.71588 0
M  V30 207 H 15.5131 2.86401 5.39265 0
M  V30 208 H 16.9271 4.37898 3.70024 0
M  V30 209 H 15.3241 5.03735 3.26146 0
M  V30 210 H 16.3941 4.42244 1.98867 0
M  V30 211 N 17.7372 -0.778329 1.37039 0
M  V30 212 C 18.7002 -1.87301 1.32102 0
M  V30 213 C 19.7002 -1.59198 0.226405 0
M  V30 214 O 20.8902 -1.67403 0.481861 0
M  V30 215 C 18.0222 -3.24309 1.05055 0
M  V30 216 H 19.2152 -1.93093 2.29467 0
M  V30 217 H 16.7682 -0.977358 1.21973 0
M  V30 218 H 17.5032 -3.24196 0.0819373 0
M  V30 219 H 17.2882 -3.46098 1.84279 0
M  V30 220 H 18.7782 -4.04382 1.04234 0
M  V30 221 N 19.2153 -1.21501 -1.00376 0
M  V30 222 C 20.1783 -0.976927 -2.07337 0
M  V30 223 C 21.1783 0.0525322 -1.60714 0
M  V30 224 O 22.3683 -0.184869 -1.73216 0
M  V30 225 C 19.5003 -0.473423 -3.37597 0
M  V30 226 H 20.6933 -1.92587 -2.29892 0
M  V30 227 H 18.2463 -1.03217 -1.17371 0
M  V30 228 H 18.9813 0.480379 -3.20722 0
M  V30 229 H 18.7663 -1.216 -3.72768 0
M  V30 230 H 20.2563 -0.32675 -4.1632 0
M  V30 231 N 20.6934 1.19889 -1.02296 0
M  V30 232 C 21.6234 2.25141 -0.619174 0
M  V30 233 C 22.6044 1.66051 0.368915 0
M  V30 234 O 23.7894 1.92546 0.252941 0
M  V30 235 C 20.9194 3.4728 0.0368783 0
M  V30 236 C 19.8734 4.19005 -0.872865 0
M  V30 237 C 19.1994 5.34637 -0.0822402 0
M  V30 238 C 20.4994 4.74452 -2.18387 0
M  V30 239 H 22.1934 2.59171 -1.49903 0
M  V30 240 H 19.7394 1.24579 -0.722222 0
M  V30 241 H 21.6924 4.20098 0.330958 0
M  V30 242 H 20.4164 3.12433 0.95149 0
M  V30 243 H 19.0754 3.48061 -1.15105 0
M  V30 244 H 18.7234 4.96034 0.83422 0
M  V30 245 H 18.4234 5.83557 -0.688149 0
M  V30 246 H 19.9474 6.10255 0.205238 0
M  V30 247 H 21.3614 5.39055 -1.95172 0
M  V30 248 H 19.7584 5.33834 -2.74119 0
M  V30 249 H 20.8284 3.92844 -2.84257 0
M  V30 250 N 22.1715 0.800033 1.35784 0
M  V30 251 C 23.4195 0.376597 1.9856 0
M  V30 252 C 23.7405 -1.05812 1.63795 0
M  V30 253 O 23.0105 -1.73103 0.917171 0
M  V30 254 H 21.5905 0.136261 0.734467 0
M  V30 255 H 24.2525 1.02442 1.65806 0
M  V30 256 H 23.3485 0.477002 3.08433 0
M  V30 257 N 23.6496 -1.47581 0.552962 0
M  V30 258 C 24.5796 -2.32762 -0.185451 0
M  V30 259 C 25.5606 -1.43527 -0.912905 0
M  V30 260 O 26.7456 -1.72388 -0.894201 0
M  V30 261 C 23.8756 -3.25219 -1.21859 0
M  V30 262 C 22.8296 -4.23661 -0.607864 0
M  V30 263 C 22.1556 -5.05413 -1.74533 0
M  V30 264 C 23.4556 -5.20481 0.435582 0
M  V30 265 H 25.1496 -2.94749 0.525684 0
M  V30 266 H 22.6956 -1.41738 0.254251 0
M  V30 267 H 24.6486 -3.8365 -1.7433 0
M  V30 268 H 23.3726 -2.61279 -1.95961 0
M  V30 269 H 22.0316 -3.66451 -0.104489 0
M  V30 270 H 21.6796 -4.3788 -2.47529 0
M  V30 271 H 21.3796 -5.72059 -1.34249 0
M  V30 272 H 22.9036 -5.66701 -2.27338 0
M  V30 273 H 24.3176 -5.733 -0.00290157 0
M  V30 274 H 22.7146 -5.95305 0.757067 0
M  V30 275 H 23.7846 -4.66217 1.33303 0
M  V30 276 N 25.1277 -0.289203 -1.54924 0
M  V30 277 C 26.3737 0.323998 -2.00195 0
M  V30 278 C 26.7067 1.54441 -1.17735 0
M  V30 279 O 25.9817 1.92875 -0.250878 0
M  V30 280 C 26.2647 0.692276 -3.53383 0
M  V30 281 C 26.1177 -0.536457 -4.46589 0
M  V30 282 C 27.4367 1.52335 -4.12895 0
M  V30 283 H 24.5557 0.116289 -0.727768 0
M  V30 284 H 27.1977 -0.398954 -1.85764 0
M  V30 285 H 25.3477 1.30822 -3.65811 0
M  V30 286 H 27.0197 -1.17499 -4.46085 0
M  V30 287 H 25.2627 -1.17192 -4.1767 0
M  V30 288 H 25.9337 -0.234806 -5.515 0
M  V30 289 H 28.4097 1.00302 -4.0383 0
M  V30 290 H 27.2857 1.74982 -5.20262 0
M  V30 291 H 27.5467 2.50886 -3.64018 0
M  V30 292 N 26.6058 1.57591 -0.0167156 0
M  V30 293 C 27.5688 2.08393 0.954204 0
M  V30 294 C 28.5688 0.996531 1.26198 0
M  V30 295 O 29.7588 1.25858 1.20438 0
M  V30 296 C 26.8908 2.5394 2.27436 0
M  V30 297 H 28.0838 2.95455 0.514451 0
M  V30 298 H 25.6368 1.54582 0.231089 0
M  V30 299 H 26.3718 1.70171 2.76066 0
M  V30 300 H 26.1568 3.33371 2.06412 0
M  V30 301 H 27.6468 2.93512 2.97053 0
M  V30 302 N 28.0839 -0.256276 1.55502 0
M  V30 303 C 29.3299 -0.987079 1.77157 0
M  V30 304 C 29.6629 -1.85327 0.580315 0
M  V30 305 O 28.9379 -1.89874 -0.421686 0
M  V30 306 C 29.2209 -1.85553 3.08613 0
M  V30 307 C 29.0739 -1.01816 4.38125 0
M  V30 308 C 30.3929 -2.8397 3.36228 0
M  V30 309 H 27.5119 -0.357428 0.644526 0
M  V30 310 H 30.1539 -0.258239 1.88237 0
M  V30 311 H 28.3039 -2.47695 2.99298 0
M  V30 312 H 29.9759 -0.416159 4.59419 0
M  V30 313 H 28.2189 -0.322178 4.32602 0
M  V30 314 H 28.8899 -1.65939 5.26468 0
M  V30 315 H 31.3659 -2.31964 3.45445 0
M  V30 316 H 30.2419 -3.41864 4.29442 0
M  V30 317 H 30.5029 -3.59955 2.56681 0
M  V30 318 N 29.562 -1.4872 -0.521534 0
M  V30 319 C 30.525 -1.63379 -1.60748 0
M  V30 320 C 31.525 -0.50661 -1.52611 0
M  V30 321 O 32.715 -0.772601 -1.5613 0
M  V30 322 C 29.847 -1.61192 -3.00383 0
M  V30 323 H 31.04 -2.60217 -1.49087 0
M  V30 324 H 28.593 -1.37444 -0.744235 0
M  V30 325 H 29.328 -0.65863 -3.17541 0
M  V30 326 H 29.113 -2.43032 -3.07698 0
M  V30 327 H 30.603 -1.7466 -3.7932 0
M  V30 328 N 31.0401 0.771051 -1.3745 0
M  V30 329 C 32.0031 1.86598 -1.33093 0
M  V30 330 C 33.0031 1.59076 -0.234845 0
M  V30 331 O 34.1931 1.67145 -0.490732 0
M  V30 332 C 31.3251 3.23747 -1.06773 0
M  V30 333 H 32.5181 1.91873 -2.30488 0
M  V30 334 H 30.0711 0.970876 -1.2249 0
M  V30 335 H 30.8061 3.24148 -0.099129 0
M  V30 336 H 30.5911 3.45115 -1.86112 0
M  V30 337 H 32.0811 4.03824 -1.06377 0
M  V30 338 N 32.5182 1.22032 0.997298 0
M  V30 339 C 33.7652 1.04222 1.73621 0
M  V30 340 C 34.0932 -0.423264 1.89839 0
M  V30 341 O 33.3482 -1.3302 1.43542 0
M  V30 342 C 33.6472 1.69345 3.14733 0
M  V30 343 C 33.3132 3.19226 3.18442 0
M  V30 344 C 31.9752 3.60124 3.19161 0
M  V30 345 C 34.3272 4.15181 3.15078 0
M  V30 346 C 31.6552 4.95467 3.14212 0
M  V30 347 C 34.0072 5.50495 3.1167 0
M  V30 348 C 32.6712 5.90779 3.10703 0
M  V30 349 H 31.9412 0.381374 0.635323 0
M  V30 350 H 34.5882 1.51732 1.16831 0
M  V30 351 H 32.8932 1.14147 3.74803 0
M  V30 352 H 34.5902 1.53059 3.7064 0
M  V30 353 H 31.1802 2.86659 3.18629 0
M  V30 354 H 35.3642 3.84605 3.13676 0
M  V30 355 H 30.6202 5.25916 3.11805 0
M  V30 356 H 34.7942 6.24576 3.08022 0
M  V30 357 H 32.4212 6.9562 3.06622 0
M  V30 358 N 33.9963 -1.19345 1.0293 0
M  V30 359 C 35.2243 -1.92997 0.745644 0
M  V30 360 C 35.6393 -1.75519 -0.695589 0
M  V30 361 O 34.9963 -1.07737 -1.47306 0
M  V30 362 C 35.0473 -3.44741 1.08792 0
M  V30 363 O 34.7683 -3.61658 2.47256 0
M  V30 364 C 36.2693 -4.35515 0.827129 0
M  V30 365 H 33.4893 -0.613042 0.272801 0
M  V30 366 H 36.0333 -1.51473 1.3739 0
M  V30 367 H 34.1883 -3.84097 0.504832 0
M  V30 368 H 34.6023 -4.55514 2.60015 0
M  V30 369 H 36.0763 -5.40589 1.11658 0
M  V30 370 H 36.5533 -4.38552 -0.238436 0
M  V30 371 H 37.1593 -4.01841 1.39297 0
M  V30 372 N 35.4744 -0.807222 -1.35358 0
M  V30 373 C 36.4374 -0.223665 -2.28106 0
M  V30 374 C 37.4374 0.589354 -1.4961 0
M  V30 375 O 38.6274 0.407745 -1.69361 0
M  V30 376 C 35.7594 0.688149 -3.33882 0
M  V30 377 H 36.9524 -1.04169 -2.81227 0
M  V30 378 H 34.5054 -0.577921 -1.45223 0
M  V30 379 H 35.2404 1.52984 -2.85948 0
M  V30 380 H 35.0254 0.10687 -3.91954 0
M  V30 381 H 36.5154 1.09075 -4.03104 0
M  V30 382 N 36.9525 1.47285 -0.560781 0
M  V30 383 C 38.2005 2.02064 -0.0379868 0
M  V30 384 C 38.5215 1.43711 1.31803 0
M  V30 385 O 37.7915 0.61362 1.86042 0
M  V30 386 H 36.3715 0.746918 -0.0110531 0
M  V30 387 H 39.0335 1.80648 -0.731598 0
M  V30 388 H 38.1295 3.12064 0.0474463 0
M  V30 389 N 38.4306 0.297415 1.54768 0
M  V30 390 C 39.6706 -0.313829 2.01976 0
M  V30 391 C 40.0346 -1.51366 1.1812 0
M  V30 392 O 41.2356 -2.19603 1.5501 0
M  V30 393 C 39.5066 -0.664964 3.51159 0
M  V30 394 S 41.0656 -1.25958 4.20333 0
M  V30 395 H 37.8836 -0.0965014 0.704421 0
M  V30 396 H 40.4856 0.424451 1.90837 0
M  V30 397 H 39.1896 0.21681 4.09827 0
M  V30 398 H 38.7206 -1.43413 3.66328 0
M  V30 399 H 40.7356 -2.54751 4.25813 0
M  V30 400 N 39.9087 -1.5758 0.0250728 0
M  V30 401 C 41.1337 -1.96337 -0.668317 0
M  V30 402 C 41.5587 -0.901314 -1.651 0
M  V30 403 O 40.9167 0.138187 -1.80773 0
M  V30 404 C 40.9647 -3.34191 -1.35457 0
M  V30 405 O 40.0687 -3.30269 -2.46974 0
M  V30 406 H 39.4097 -0.640281 -0.175887 0
M  V30 407 H 41.9397 -2.0442 0.0857224 0
M  V30 408 H 41.9497 -3.70331 -1.71228 0
M  V30 409 H 40.6247 -4.11036 -0.634218 0
M  V30 410 H 39.2017 -3.05841 -2.13344 0
M  V30 411 N 41.3868 0.248026 -1.55636 0
M  V30 412 C 42.6638 0.998988 -1.68165 0
M  V30 413 C 43.0438 2.03409 -0.564621 0
M  V30 414 O 42.3918 2.24378 0.432076 0
M  V30 415 C 42.6018 1.63334 -3.0842 0
M  V30 416 C 43.9498 2.13562 -3.66983 0
M  V30 417 O 44.9738 1.73277 -3.11213 0
M  V30 418 O 43.8328 2.87526 -4.64749 0
M  V30 419 H 40.9268 0.464933 -0.683935 0
M  V30 420 H 43.4728 0.241902 -1.67967 0
M  V30 421 H 42.2448 0.884583 -3.8117 0
M  V30 422 H 41.8678 2.45666 -3.12624 0
M  V30 423 N 42.8649 1.48995 0.513639 0
M  V30 424 C 44.1109 1.58076 1.27042 0
M  V30 425 C 44.4439 0.261026 1.92438 0
M  V30 426 O 43.7189 -0.734393 1.80103 0
M  V30 427 C 44.0019 2.73091 2.34719 0
M  V30 428 C 43.8549 4.14821 1.73907 0
M  V30 429 C 45.1739 2.83796 3.36375 0
M  V30 430 H 42.2929 0.575391 0.460536 0
M  V30 431 H 44.9349 1.81232 0.570516 0
M  V30 432 H 43.0849 2.53479 2.94416 0
M  V30 433 H 44.7569 4.45917 1.18135 0
M  V30 434 H 42.9999 4.21058 1.0437 0
M  V30 435 H 43.6709 4.91147 2.51949 0
M  V30 436 H 46.1469 3.01611 2.86653 0
M  V30 437 H 45.0229 3.65971 4.09093 0
M  V30 438 H 45.2839 1.92624 3.9793 0
M  V30 439 N 44.343 -0.763751 1.37857 0
M  V30 440 C 45.568 -1.55805 1.36893 0
M  V30 441 C 45.993 -1.88054 -0.0416135 0
M  V30 442 O 45.351 -1.49825 -1.02089 0
M  V30 443 C 45.399 -2.84012 2.22192 0
M  V30 444 O 44.503 -3.78732 1.63204 0
M  V30 445 H 43.844 -0.471638 0.46739 0
M  V30 446 H 46.374 -0.944657 1.81487 0
M  V30 447 H 46.384 -3.33037 2.35691 0
M  V30 448 H 45.059 -2.59869 3.24716 0
M  V30 449 H 43.636 -3.37402 1.58791 0
M  V30 450 N 45.8211 -1.22559 -0.990812 0
M  V30 451 C 47.0491 -1.07779 -1.76611 0
M  V30 452 C 47.4641 0.371513 -1.85109 0
M  V30 453 O 46.8211 1.25737 -1.32274 0
M  V30 454 C 46.8721 -1.68512 -3.19822 0
M  V30 455 O 46.5931 -3.07774 -3.1178 0
M  V30 456 C 48.0941 -1.59035 -4.13791 0
M  V30 457 H 45.3141 -0.377729 -0.554583 0
M  V30 458 H 47.8581 -1.62195 -1.24551 0
M  V30 459 H 46.0131 -1.18154 -3.68942 0
M  V30 460 H 46.4271 -3.37062 -4.01858 0
M  V30 461 H 47.9011 -2.0625 -5.1202 0
M  V30 462 H 48.3781 -0.547273 -4.35777 0
M  V30 463 H 48.9841 -2.08709 -3.70568 0
M  V30 464 N 47.2992 1.18797 -1.03562 0
M  V30 465 C 48.2092 2.25913 -0.632505 0
M  V30 466 C 49.2252 1.70668 0.338882 0
M  V30 467 O 50.4012 2.00453 0.195076 0
M  V30 468 C 47.4662 3.467 0.00350942 0
M  V30 469 C 46.5272 4.17098 -1.01624 0
M  V30 470 C 45.7602 5.32119 -0.410478 0
M  V30 471 O 45.9832 5.64976 0.784725 0
M  V30 472 O 44.9172 5.9107 -1.13667 0
M  V30 473 H 48.7432 2.62648 -1.52478 0
M  V30 474 H 46.3282 1.25781 -0.806195 0
M  V30 475 H 48.2102 4.19878 0.35781 0
M  V30 476 H 46.8852 3.11798 0.869686 0
M  V30 477 H 45.7922 3.4601 -1.42224 0
M  V30 478 H 47.1252 4.55987 -1.85301 0
M  V30 479 N 48.7773 0.814389 1.34928 0
M  V30 480 C 49.7073 0.244827 2.32213 0
M  V30 481 C 50.6883 -0.634024 1.57842 0
M  V30 482 O 51.8733 -0.562676 1.8587 0
M  V30 483 C 49.0033 -0.601106 3.42058 0
M  V30 484 C 47.9573 0.179896 4.27622 0
M  V30 485 C 47.2833 -0.788237 5.28858 0
M  V30 486 C 48.5833 1.38329 5.03649 0
M  V30 487 H 50.2773 1.05763 2.80097 0
M  V30 488 H 47.8233 0.510029 1.34665 0
M  V30 489 H 49.7763 -1.00968 4.09125 0
M  V30 490 H 48.5003 -1.44688 2.92802 0
M  V30 491 H 47.1593 0.569739 3.62146 0
M  V30 492 H 46.8073 -1.62973 4.75866 0
M  V30 493 H 46.5073 -0.269942 5.8698 0
M  V30 494 H 48.0313 -1.19485 5.98795 0
M  V30 495 H 49.4453 1.04918 5.63618 0
M  V30 496 H 47.8423 1.83662 5.71304 0
M  V30 497 H 48.9123 2.16592 4.33839 0
M  V30 498 N 50.2554 -1.46986 0.568584 0
M  V30 499 C 51.2024 -2.30153 -0.172707 0
M  V30 500 C 52.1724 -1.39759 -0.897586 0
M  V30 501 O 53.3574 -1.68716 -0.891044 0
M  V30 502 C 50.4974 -3.23952 -1.1895 0
M  V30 503 C 49.6104 -4.29441 -0.469517 0
M  V30 504 C 48.7454 -5.1038 -1.47259 0
M  V30 505 C 47.7844 -6.07632 -0.738225 0
M  V30 506 N 46.9214 -6.8149 -1.68868 0
M  V30 507 H 51.7614 -2.93019 0.542596 0
M  V30 508 H 49.2984 -1.44422 0.279401 0
M  V30 509 H 51.2564 -3.76767 -1.79173 0
M  V30 510 H 49.8864 -2.62926 -1.87269 0
M  V30 511 H 48.9384 -3.79594 0.247467 0
M  V30 512 H 50.2504 -4.98689 0.105241 0
M  V30 513 H 49.4044 -5.67402 -2.14803 0
M  V30 514 H 48.1434 -4.4106 -2.08128 0
M  V30 515 H 47.1484 -5.49778 -0.0489293 0
M  V30 516 H 48.3734 -6.78966 -0.135129 0
M  V30 517 H 46.3194 -6.14891 -2.28573 0
M  V30 518 H 46.2364 -7.46948 -1.16636 0
M  V30 519 H 47.5044 -7.43078 -2.3549 0
M  V30 520 N 51.7335 -0.305618 -1.54608 0
M  V30 521 C 52.9615 0.304775 -2.04643 0
M  V30 522 C 53.3765 1.47167 -1.18268 0
M  V30 523 O 52.7335 1.81296 -0.209328 0
M  V30 524 C 52.7845 0.756564 -3.53495 0
M  V30 525 O 52.5055 -0.36389 -4.36586 0
M  V30 526 C 54.0065 1.43163 -4.19546 0
M  V30 527 H 51.2265 0.0655481 -0.667791 0
M  V30 528 H 53.7705 -0.446592 -1.99564 0
M  V30 529 H 51.9255 1.45794 -3.58919 0
M  V30 530 H 52.3395 -0.0113121 -5.24499 0
M  V30 531 H 53.8135 1.69886 -5.25207 0
M  V30 532 H 54.2905 2.37318 -3.69563 0
M  V30 533 H 54.8965 0.773307 -4.18211 0
M  V30 534 N 53.2116 1.57565 -0.0334293 0
M  V30 535 C 54.6226 1.79746 0.504798 0
M  V30 536 C 54.9736 0.944091 1.71992 0
M  V30 537 O 54.0986 0.155694 2.15839 0
M  V30 538 C 54.6936 3.25997 0.922567 0
M  V30 539 C 53.2526 3.49159 1.40588 0
M  V30 540 C 52.3996 2.74785 0.372633 0
M  V30 541 H 55.3506 1.56565 -0.259436 0
M  V30 542 H 55.3716 3.35945 1.78666 0
M  V30 543 H 54.8836 3.88081 0.0379825 0
M  V30 544 H 52.9846 2.92332 2.31025 0
M  V30 545 H 53.0976 4.57873 1.41028 0
M  V30 546 H 51.4616 2.40391 0.841672 0
M  V30 547 H 52.2446 3.39587 -0.503559 0
M  V30 548 N 54.6897 -0.239769 1.55765 0
M  V30 549 C 55.9357 -0.968234 1.78194 0
M  V30 550 C 56.2687 -1.84701 0.599938 0
M  V30 551 O 55.5437 -1.9031 -0.401524 0
M  V30 552 C 55.8267 -1.8227 3.10564 0
M  V30 553 C 55.6797 -0.971633 4.3918 0
M  V30 554 C 56.9987 -2.80388 3.39221 0
M  V30 555 H 54.1177 -0.350572 0.648281 0
M  V30 556 H 56.7597 -0.238259 1.885 0
M  V30 557 H 54.9097 -2.44507 3.01908 0
M  V30 558 H 56.5817 -0.367408 4.59835 0
M  V30 559 H 54.8247 -0.276276 4.32919 0
M  V30 560 H 55.4957 -1.60346 5.28198 0
M  V30 561 H 57.9717 -2.28287 3.47885 0
M  V30 562 H 56.8477 -3.3729 4.33044 0
M  V30 563 H 57.1087 -3.57212 2.60484 0
M  V30 564 N 56.1678 -1.49265 -0.50573 0
M  V30 565 C 57.3978 -1.61979 -1.28243 0
M  V30 566 C 57.8058 -0.288576 -1.86986 0
M  V30 567 O 57.1488 0.735408 -1.68337 0
M  V30 568 C 57.2108 -2.62632 -2.45489 0
M  V30 569 C 56.8748 -4.071 -2.07651 0
M  V30 570 C 57.8718 -4.94049 -1.61901 0
M  V30 571 C 55.5568 -4.52801 -2.17431 0
M  V30 572 C 57.5508 -6.24736 -1.26428 0
M  V30 573 C 55.2378 -5.83503 -1.8157 0
M  V30 574 C 56.2358 -6.69294 -1.36142 0
M  V30 575 O 55.9238 -7.9756 -1.00764 0
M  V30 576 H 55.6558 -0.54834 -0.395347 0
M  V30 577 H 58.2098 -1.96002 -0.614204 0
M  V30 578 H 56.4398 -2.2378 -3.15372 0
M  V30 579 H 58.1288 -2.64925 -3.07522 0
M  V30 580 H 58.8948 -4.5997 -1.53795 0
M  V30 581 H 54.7738 -3.86196 -2.51742 0
M  V30 582 H 58.3178 -6.91652 -0.908992 0
M  V30 583 H 54.2148 -6.17112 -1.89324 0
M  V30 584 H 54.9828 -8.10529 -1.13952 0
M  V30 585 N 57.6459 0.756429 -1.3826 0
M  V30 586 C 58.5929 1.87011 -1.35261 0
M  V30 587 C 59.5629 1.64695 -0.215616 0
M  V30 588 O 60.7479 1.864 -0.407399 0
M  V30 589 C 57.8879 3.24275 -1.18068 0
M  V30 590 C 57.0009 3.58442 -2.41129 0
M  V30 591 C 56.1359 4.84994 -2.16689 0
M  V30 592 C 55.1749 5.11939 -3.35537 0
M  V30 593 N 54.3119 6.29685 -3.10549 0
M  V30 594 H 59.1519 1.8891 -2.30472 0
M  V30 595 H 56.6889 0.923373 -1.14509 0
M  V30 596 H 58.6469 4.03479 -1.06116 0
M  V30 597 H 57.2769 3.21711 -0.264973 0
M  V30 598 H 56.3289 2.74103 -2.63764 0
M  V30 599 H 57.6409 3.74283 -3.29717 0
M  V30 600 H 56.7949 5.72135 -2.01857 0
M  V30 601 H 55.5339 4.71286 -1.25462 0
M  V30 602 H 54.5389 4.23268 -3.50891 0
M  V30 603 H 55.7639 5.27546 -4.27635 0
M  V30 604 H 53.7099 6.17306 -2.21967 0
M  V30 605 H 53.6269 6.46014 -3.92686 0
M  V30 606 H 54.8949 7.19722 -2.99367 0
M  V30 607 N 59.124 1.23083 0.984299 0
M  V30 608 C 60.352 1.08714 1.76037 0
M  V30 609 C 60.767 -0.361691 1.85303 0
M  V30 610 O 60.124 -1.25034 1.32939 0
M  V30 611 C 60.175 1.70206 3.18923 0
M  V30 612 O 59.896 3.09423 3.10144 0
M  V30 613 C 61.397 1.61227 4.12941 0
M  V30 614 H 58.617 0.380664 0.552572 0
M  V30 615 H 61.161 1.62853 1.23689 0
M  V30 616 H 59.316 1.20109 3.6831 0
M  V30 617 H 59.73 3.39188 4.00065 0
M  V30 618 H 61.204 2.08962 5.10919 0
M  V30 619 H 61.681 0.570375 4.35481 0
M  V30 620 H 62.287 2.10671 3.69456 0
M  V30 621 N 60.6021 -1.18246 1.0419 0
M  V30 622 C 61.5491 -2.2192 0.634037 0
M  V30 623 C 62.5191 -1.62179 -0.358765 0
M  V30 624 O 63.7041 -1.89122 -0.252466 0
M  V30 625 C 60.8441 -3.451 0.00445535 0
M  V30 626 C 59.9571 -4.19174 1.04487 0
M  V30 627 C 59.0921 -5.29813 0.383676 0
M  V30 628 C 58.1311 -5.9566 1.4091 0
M  V30 629 N 57.2681 -6.97834 0.772784 0
M  V30 630 H 62.1081 -2.56164 1.52263 0
M  V30 631 H 59.6451 -1.25843 0.761701 0
M  V30 632 H 61.6031 -4.15485 -0.377919 0
M  V30 633 H 60.2331 -3.11472 -0.847652 0
M  V30 634 H 59.2851 -3.47604 1.54518 0
M  V30 635 H 60.5971 -4.64267 1.82368 0
M  V30 636 H 59.7511 -6.06677 -0.0528366 0
M  V30 637 H 58.4901 -4.85825 -0.427208 0
M  V30 638 H 57.4951 -5.17535 1.85574 0
M  V30 639 H 58.7201 -6.4173 2.22171 0
M  V30 640 H 56.6661 -6.55998 -0.0177708 0
M  V30 641 H 56.5831 -7.41186 1.48928 0
M  V30 642 H 57.8511 -7.78665 0.36071 0
M  V30 643 N 62.0802 -0.821533 -1.34494 0
M  V30 644 C 63.0102 -0.257138 -2.3208 0
M  V30 645 C 63.9912 0.625645 -1.58176 0
M  V30 646 O 65.1762 0.552811 -1.86166 0
M  V30 647 C 62.3062 0.582958 -3.42372 0
M  V30 648 C 61.2602 -0.202571 -4.2752 0
M  V30 649 C 60.5862 0.760179 -5.29269 0
M  V30 650 C 61.8862 -1.40998 -5.02908 0
M  V30 651 H 63.5802 -1.07247 -2.79532 0
M  V30 652 H 61.1262 -0.517163 -1.34393 0
M  V30 653 H 63.0792 0.987972 -4.09655 0
M  V30 654 H 61.8032 1.43133 -2.93565 0
M  V30 655 H 60.4622 -0.588936 -3.61838 0
M  V30 656 H 60.1102 1.60447 -4.76724 0
M  V30 657 H 59.8102 0.238809 -5.87115 0
M  V30 658 H 61.3342 1.16308 -5.9942 0
M  V30 659 H 62.7482 -1.07905 -5.63054 0
M  V30 660 H 61.1452 -1.86689 -5.70322 0
M  V30 661 H 62.2152 -2.1889 -4.32684 0
M  V30 662 N 63.5583 1.46682 -0.576371 0
M  V30 663 C 64.7863 2.06798 -0.0649635 0
M  V30 664 C 65.2013 1.42612 1.23723 0
M  V30 665 O 64.5583 0.529203 1.74659 0
M  V30 666 C 64.6093 3.6132 0.114202 0
M  V30 667 O 64.3303 4.23104 -1.13644 0
M  V30 668 C 65.8313 4.38349 0.66069 0
M  V30 669 H 63.0513 0.668778 -0.0545616 0
M  V30 670 H 65.5953 1.88404 -0.795237 0
M  V30 671 H 63.7503 3.79162 0.794673 0
M  V30 672 H 64.1643 5.15894 -0.946253 0
M  V30 673 H 65.6383 5.47081 0.73526 0
M  V30 674 H 66.1153 4.05953 1.67627 0
M  V30 675 H 66.7213 4.25297 0.0152951 0
M  V30 676 N 65.0364 0.313813 1.54444 0
M  V30 677 C 65.9994 -0.54379 2.22656 0
M  V30 678 C 66.9994 -1.05124 1.21678 0
M  V30 679 O 68.1894 -0.945225 1.46325 0
M  V30 680 C 65.3214 -1.75427 2.92298 0
M  V30 681 H 66.5144 0.0523599 2.99854 0
M  V30 682 H 64.0674 0.0647834 1.56166 0
M  V30 683 H 64.8024 -2.38991 2.19211 0
M  V30 684 H 64.5874 -1.39791 3.66334 0
M  V30 685 H 66.0774 -2.36325 3.44297 0
M  V30 686 N 66.5145 -1.57545 0.0417849 0
M  V30 687 C 67.4245 -2.14451 -0.951213 0
M  V30 688 C 68.4405 -1.09992 -1.34825 0
M  V30 689 O 69.6165 -1.42114 -1.42708 0
M  V30 690 C 66.6815 -2.67063 -2.21084 0
M  V30 691 C 65.7425 -3.86284 -1.87304 0
M  V30 692 C 64.9755 -4.36378 -3.07261 0
M  V30 693 O 65.1985 -3.85587 -4.20332 0
M  V30 694 O 64.1325 -5.28077 -2.88822 0
M  V30 695 H 67.9585 -2.99601 -0.497287 0
M  V30 696 H 65.5435 -1.48317 -0.179567 0
M  V30 697 H 67.4255 -3.00914 -2.95006 0
M  V30 698 H 66.1005 -1.84989 -2.65633 0
M  V30 699 H 65.0075 -3.57338 -1.10727 0
M  V30 700 H 66.3405 -4.6956 -1.47562 0
M  V30 701 N 67.9926 0.231505 -1.5589 0
M  V30 702 C 68.9026 1.308 -1.94752 0
M  V30 703 C 69.9186 1.51826 -0.849989 0
M  V30 704 O 71.0946 1.6515 -1.15271 0
M  V30 705 C 68.1596 2.63968 -2.24771 0
M  V30 706 C 67.2206 2.51331 -3.48039 0
M  V30 707 C 66.4536 3.78148 -3.76616 0
M  V30 708 O 66.6766 4.80722 -3.07022 0
M  V30 709 O 65.6106 3.75857 -4.70123 0
M  V30 710 H 69.4366 1.0083 -2.86474 0
M  V30 711 H 67.0216 0.433547 -1.42971 0
M  V30 712 H 68.9036 3.42633 -2.45318 0
M  V30 713 H 67.5786 2.9364 -1.36225 0
M  V30 714 H 66.4856 1.709 -3.32782 0
M  V30 715 H 67.8186 2.26601 -4.36936 0
M  V30 716 N 69.4707 1.49531 0.497807 0
M  V30 717 C 70.7197 1.58426 1.24837 0
M  V30 718 C 71.0327 0.277643 1.93619 0
M  V30 719 O 72.2387 0.24517 2.70391 0
M  V30 720 C 70.6947 2.79538 2.26686 0
M  V30 721 C 70.3027 4.16971 1.63828 0
M  V30 722 C 72.0467 2.97764 3.0255 0
M  V30 723 C 69.9537 5.29301 2.63807 0
M  V30 724 H 68.8837 0.58989 0.469623 0
M  V30 725 H 71.5347 1.75923 0.521857 0
M  V30 726 H 69.9167 2.55542 3.02514 0
M  V30 727 H 71.0907 4.51116 0.939711 0
M  V30 728 H 69.4057 4.04129 1.00342 0
M  V30 729 H 72.0027 3.78856 3.77323 0
M  V30 730 H 72.3457 2.08448 3.60354 0
M  V30 731 H 72.8787 3.21815 2.33838 0
M  V30 732 H 69.6177 6.20687 2.10779 0
M  V30 733 H 69.1377 4.99606 3.31894 0
M  V30 734 H 70.8167 5.58768 3.2617 0
M  V30 735 N 70.9488 -0.749086 1.3866 0
M  V30 736 C 72.3648 -1.05276 1.19955 0
M  V30 737 C 72.5648 -2.01435 0.05134 0
M  V30 738 O 71.6208 -2.45232 -0.60147 0
M  V30 739 C 72.9338 -1.62853 2.52783 0
M  V30 740 C 74.4818 -1.75002 2.59506 0
M  V30 741 C 74.9568 -2.35991 3.92521 0
M  V30 742 N 76.4478 -2.43416 3.94085 0
M  V30 743 C 77.1828 -2.91511 4.9377 0
M  V30 744 N 76.6788 -3.39608 6.03853 0
M  V30 745 N 78.4718 -2.90592 4.81157 0
M  V30 746 H 70.6228 -0.111066 2.12109 0
M  V30 747 H 72.8858 -0.111901 0.941373 0
M  V30 748 H 72.5918 -0.99664 3.37283 0
M  V30 749 H 72.4658 -2.61854 2.715 0
M  V30 750 H 74.8528 -2.37317 1.75398 0
M  V30 751 H 74.9338 -0.74693 2.44652 0
M  V30 752 H 74.5778 -1.74308 4.77053 0
M  V30 753 H 74.5078 -3.3695 4.04688 0
M  V30 754 H 76.9988 -2.09405 3.14576 0
M  V30 755 H 77.3118 -3.74775 6.75843 0
M  V30 756 H 75.6568 -3.37653 6.07466 0
M  V30 757 H 78.8478 -2.52332 3.94267 0
M  V30 758 H 79.0208 -3.27762 5.58996 0
M  V30 759 N 72.4269 -1.23603 -0.977757 0
M  V30 760 C 73.3749 -1.01704 -2.09187 0
M  V30 761 C 74.3689 0.0448214 -1.69341 0
M  V30 762 O 75.5749 -0.108902 -1.7967 0
M  V30 763 H 71.9499 -0.311803 -0.684312 0
M  V30 764 H 73.9209 -1.96207 -2.24823 0
M  V30 765 C 72.6699 -0.627746 -3.41986 0
M  V30 766 H 71.9929 -1.43656 -3.73099 0
M  V30 767 H 73.4329 -0.514053 -4.20872 0
M  V30 768 C 71.8919 0.664238 -3.30287 0
M  V30 769 O 72.4219 1.71268 -3.6336 0
M  V30 770 N 70.6279 0.641156 -2.83439 0
M  V30 771 H 70.1749 -0.212376 -2.56723 0
M  V30 772 H 70.1329 1.50583 -2.75993 0
M  V30 773 N 73.905 1.17692 -1.04816 0
M  V30 774 C 75.13 1.92327 -0.776207 0
M  V30 775 C 75.555 1.76082 0.661581 0
M  V30 776 O 74.913 1.076 1.45917 0
M  V30 777 C 74.961 3.41539 -1.15687 0
M  V30 778 O 74.065 4.11402 -0.286775 0
M  V30 779 H 73.406 0.599735 -0.284981 0
M  V30 780 H 75.936 1.49201 -1.4 0
M  V30 781 H 75.946 3.92269 -1.12202 0
M  V30 782 H 74.621 3.52684 -2.20425 0
M  V30 783 H 73.198 3.70939 -0.381903 0
M  V30 784 N 75.3831 0.828654 1.34056 0
M  V30 785 C 76.3461 0.259927 2.27721 0
M  V30 786 C 77.3461 -0.565478 1.50529 0
M  V30 787 O 78.5361 -0.38075 1.69988 0
M  V30 788 C 75.6681 -0.634944 3.34935 0
M  V30 789 H 76.8611 1.0863 2.79534 0
M  V30 790 H 74.4141 0.600951 1.44285 0
M  V30 791 H 75.1491 -1.48416 2.88346 0
M  V30 792 H 74.9341 -0.0444999 3.92075 0
M  V30 793 H 76.4241 -1.02648 4.04788 0
M  V30 794 N 76.8612 -1.46375 0.584142 0
M  V30 795 C 78.1082 -2.02378 0.0702675 0
M  V30 796 C 78.4362 -1.45545 -1.29023 0
M  V30 797 O 77.6912 -0.610967 -1.85918 0
M  V30 798 C 77.9902 -3.57373 -0.0439342 0
M  V30 799 C 77.6562 -4.33252 1.24915 0
M  V30 800 C 76.3182 -4.53701 1.60341 0
M  V30 801 C 78.6702 -4.7681 2.1048 0
M  V30 802 C 75.9982 -5.1496 2.81128 0
M  V30 803 C 78.3502 -5.39404 3.30494 0
M  V30 804 C 77.0142 -5.5808 3.66201 0
M  V30 805 H 76.2842 -0.740554 0.0257127 0
M  V30 806 H 78.9312 -1.75727 0.761065 0
M  V30 807 H 77.2362 -3.83169 -0.817869 0
M  V30 808 H 78.9332 -3.98384 -0.457318 0
M  V30 809 H 75.5232 -4.17633 0.963364 0
M  V30 810 H 79.7072 -4.60766 1.84414 0
M  V30 811 H 74.9632 -5.27611 3.08928 0
M  V30 812 H 79.1372 -5.72114 3.97063 0
M  V30 813 H 76.7642 -6.05318 4.59885 0
M  V30 814 N 78.3393 -0.321999 -1.54275 0
M  V30 815 C 79.2863 0.544664 -2.24281 0
M  V30 816 C 80.2563 1.1129 -1.23303 0
M  V30 817 O 81.4413 1.15354 -1.51981 0
M  V30 818 C 78.5813 1.70045 -3.00298 0
M  V30 819 C 77.6943 1.16159 -4.1609 0
M  V30 820 C 76.8293 2.28293 -4.79641 0
M  V30 821 C 75.8683 1.71648 -5.8754 0
M  V30 822 N 75.0053 2.77438 -6.44959 0
M  V30 823 H 79.8453 -0.0588907 -2.97942 0
M  V30 824 H 77.3823 -0.0408345 -1.47043 0
M  V30 825 H 79.3403 2.38054 -3.42616 0
M  V30 826 H 77.9703 2.27531 -2.28975 0
M  V30 827 H 77.0223 0.373092 -3.78566 0
M  V30 828 H 78.3343 0.707087 -4.93763 0
M  V30 829 H 77.4883 3.0421 -5.2492 0
M  V30 830 H 76.2273 2.77079 -4.01346 0
M  V30 831 H 75.2323 0.942282 -5.41665 0
M  V30 832 H 76.4573 1.23741 -6.67731 0
M  V30 833 H 74.4033 3.25519 -5.69538 0
M  V30 834 H 74.3203 2.36547 -7.1804 0
M  V30 835 H 75.5883 3.53189 -6.94894 0
M  V30 836 N 79.8174 1.5752 -0.0501392 0
M  V30 837 C 81.2284 1.80271 0.485705 0
M  V30 838 C 81.5794 0.96228 1.70981 0
M  V30 839 O 80.7044 0.178578 2.15662 0
M  V30 840 C 81.2994 3.26957 0.887938 0
M  V30 841 C 79.8584 3.5063 1.36877 0
M  V30 842 C 79.0054 2.75165 0.343468 0
M  V30 843 H 81.9564 1.56281 -0.276028 0
M  V30 844 H 81.9774 3.37821 1.75093 0
M  V30 845 H 81.4894 3.881 -0.0031809 0
M  V30 846 H 79.5904 2.94766 2.27911 0
M  V30 847 H 79.7034 4.59343 1.36164 0
M  V30 848 H 78.0674 2.4127 0.816128 0
M  V30 849 H 78.8504 3.39034 -0.539548 0
M  V30 850 N 81.2955 -0.223234 1.56011 0
M  V30 851 C 82.2055 -1.29766 1.95443 0
M  V30 852 C 83.2215 -1.51373 0.858028 0
M  V30 853 O 84.3975 -1.64536 1.16146 0
M  V30 854 C 81.4625 -2.62772 2.26167 0
M  V30 855 C 80.5235 -2.49482 3.49367 0
M  V30 856 C 79.7565 -3.76145 3.78616 0
M  V30 857 O 79.9795 -4.79087 3.09568 0
M  V30 858 O 78.9135 -3.73358 4.72109 0
M  V30 859 H 82.7395 -0.99309 2.87004 0
M  V30 860 H 80.3245 -0.425958 1.43199 0
M  V30 861 H 82.2065 -3.41327 2.47131 0
M  V30 862 H 80.8815 -2.92913 1.37781 0
M  V30 863 H 79.7885 -1.69133 3.33684 0
M  V30 864 H 81.1215 -2.2428 4.38131 0
M  V30 865 N 82.7736 -1.49793 -0.48987 0
M  V30 866 C 84.0206 -1.59841 -1.24327 0
M  V30 867 C 84.3486 -0.290135 -1.92324 0
M  V30 868 O 83.6036 0.722749 -1.81865 0
M  V30 869 C 83.9026 -2.71488 -2.32441 0
M  V30 870 C 83.5686 -4.12614 -1.81826 0
M  V30 871 C 82.2306 -4.51017 -1.67742 0
M  V30 872 C 84.5826 -5.00892 -1.4407 0
M  V30 873 C 81.9106 -5.75459 -1.14297 0
M  V30 874 C 84.2626 -6.25863 -0.920742 0
M  V30 875 C 82.9266 -6.63086 -0.766383 0
M  V30 876 H 82.1966 -0.584899 -0.454944 0
M  V30 877 H 84.8436 -1.83663 -0.542215 0
M  V30 878 H 83.1486 -2.4168 -3.0838 0
M  V30 879 H 84.8456 -2.76469 -2.90458 0
M  V30 880 H 81.4356 -3.82307 -1.93751 0
M  V30 881 H 85.6196 -4.7187 -1.53794 0
M  V30 882 H 80.8756 -6.02989 -1.01068 0
M  V30 883 H 85.0496 -6.9364 -0.619448 0
M  V30 884 H 82.6766 -7.59393 -0.350083 0
M  V30 885 N 84.2517 0.741722 -1.39055 0
M  V30 886 C 85.6627 1.31966 -1.32068 0
M  V30 887 C 86.0137 1.96192 0.0180797 0
M  V30 888 O 85.1387 1.95861 0.920196 0
M  V30 889 C 85.7337 2.39954 -2.39181 0
M  V30 890 C 84.2927 2.93438 -2.35735 0
M  V30 891 C 83.4397 1.66936 -2.21422 0
M  V30 892 H 86.3907 0.539721 -1.4924 0
M  V30 893 H 86.4117 3.20182 -2.05581 0
M  V30 894 H 85.9237 1.9318 -3.36605 0
M  V30 895 H 84.0247 3.4451 -1.41929 0
M  V30 896 H 84.1377 3.4701 -3.30335 0
M  V30 897 H 82.5017 1.91016 -1.68478 0
M  V30 898 H 83.2847 1.22224 -3.20806 0
M  V30 899 N 85.7298 1.2412 0.971189 0
M  V30 900 C 86.6768 1.0305 2.06517 0
M  V30 901 C 87.6468 -0.0550666 1.66009 0
M  V30 902 O 88.8318 0.0988688 1.90544 0
M  V30 903 C 85.9718 0.637653 3.39158 0
M  V30 904 C 85.0848 1.79633 3.92882 0
M  V30 905 C 84.2198 1.34939 5.13775 0
M  V30 906 C 83.2588 2.47823 5.59687 0
M  V30 907 N 82.3958 2.04022 6.71803 0
M  V30 908 H 87.2358 1.96685 2.23873 0
M  V30 909 H 84.7728 0.979694 1.09729 0
M  V30 910 H 86.7308 0.390931 4.15364 0
M  V30 911 H 85.3608 -0.261693 3.21737 0
M  V30 912 H 84.4128 2.15681 3.13346 0
M  V30 913 H 85.7248 2.64466 4.22918 0
M  V30 914 H 84.8788 1.06134 5.97345 0
M  V30 915 H 83.6178 0.471557 4.85415 0
M  V30 916 H 82.6228 2.77392 4.74693 0
M  V30 917 H 83.8478 3.36158 5.90063 0
M  V30 918 H 81.7938 1.18632 6.45184 0
M  V30 919 H 81.7108 2.82409 7.01271 0
M  V30 920 H 82.9788 1.78347 7.58823 0
M  V30 921 N 87.2079 -1.17134 1.05439 0
M  V30 922 C 88.1399 -2.2078 0.615539 0
M  V30 923 C 89.1529 -1.59584 -0.322001 0
M  V30 924 O 90.3419 -1.78133 -0.114344 0
M  V30 925 C 87.4419 -3.38691 -0.118938 0
M  V30 926 C 86.6149 -4.29454 0.829924 0
M  V30 927 C 85.6739 -5.26024 0.136258 0
M  V30 928 O 84.6999 -5.63952 0.77115 0
M  V30 929 N 85.9019 -5.69487 -1.1254 0
M  V30 930 H 88.6669 -2.59052 1.50705 0
M  V30 931 H 86.2279 -1.32058 0.936603 0
M  V30 932 H 88.2199 -4.00329 -0.593179 0
M  V30 933 H 86.7899 -2.98996 -0.91215 0
M  V30 934 H 86.0099 -3.65211 1.48373 0
M  V30 935 H 87.2979 -4.86984 1.47392 0
M  V30 936 H 86.6959 -5.4075 -1.6615 0
M  V30 937 H 85.2529 -6.33257 -1.54366 0
M  V30 938 N 88.686 -0.835752 -1.33615 0
M  V30 939 C 89.916 -0.442701 -2.01801 0
M  V30 940 C 90.324 0.959807 -1.63047 0
M  V30 941 O 89.667 1.63468 -0.838088 0
M  V30 942 C 89.729 -0.480125 -3.56279 0
M  V30 943 C 89.393 -1.8382 -4.18401 0
M  V30 944 C 90.39 -2.80097 -4.37998 0
M  V30 945 C 88.075 -2.13019 -4.54894 0
M  V30 946 C 90.069 -4.03736 -4.9323 0
M  V30 947 C 87.756 -3.36916 -5.09834 0
M  V30 948 C 88.754 -4.32091 -5.28948 0
M  V30 949 O 88.442 -5.53797 -5.82721 0
M  V30 950 H 88.174 -0.17441 -0.653114 0
M  V30 951 H 90.728 -1.129 -1.71589 0
M  V30 952 H 88.958 0.262931 -3.85805 0
M  V30 953 H 90.647 -0.105335 -4.05763 0
M  V30 954 H 91.413 -2.58838 -4.10156 0
M  V30 955 H 87.292 -1.39733 -4.39313 0
M  V30 956 H 90.836 -4.78034 -5.08064 0
M  V30 957 H 86.733 -3.58033 -5.37106 0
M  V30 958 H 87.501 -5.55494 -6.0114 0
M  V30 959 N 90.1641 1.46063 -0.591896 0
M  V30 960 C 91.1271 2.28854 0.125973 0
M  V30 961 C 92.1271 1.38903 0.810107 0
M  V30 962 O 93.3171 1.61186 0.66066 0
M  V30 963 C 90.4491 3.19526 1.1881 0
M  V30 964 H 91.6421 2.93802 -0.601717 0
M  V30 965 H 89.1951 1.52325 -0.350254 0
M  V30 966 H 89.9301 2.59345 1.94707 0
M  V30 967 H 89.7151 3.85766 0.701936 0
M  V30 968 H 91.2051 3.81817 1.69132 0
M  V30 969 N 91.6422 0.330177 1.54103 0
M  V30 970 C 92.8672 -0.274893 2.0557 0
M  V30 971 C 93.2922 -1.44487 1.20437 0
M  V30 972 O 92.6502 -1.80021 0.214991 0
M  V30 973 C 92.6982 -0.68079 3.54115 0
M  V30 974 O 91.8022 -1.7824 3.71893 0
M  V30 975 H 91.1432 -0.0483849 0.662235 0
M  V30 976 H 93.6732 0.480508 1.98878 0
M  V30 977 H 93.6832 -0.961635 3.96505 0
M  V30 978 H 92.3582 0.174903 4.15532 0
M  V30 979 H 90.9352 -1.49985 3.41407 0
M  V30 980 N 93.1203 -1.57491 0.0584922 0
M  V30 981 C 94.3503 -1.9701 -0.622134 0
M  V30 982 C 94.7583 -0.935034 -1.6448 0
M  V30 983 O 94.1013 0.0882904 -1.83488 0
M  V30 984 C 94.1633 -3.32794 -1.35972 0
M  V30 985 C 93.8273 -4.54343 -0.492043 0
M  V30 986 C 94.8243 -5.19323 0.244901 0
M  V30 987 C 92.5093 -5.00534 -0.420821 0
M  V30 988 C 94.5033 -6.28835 1.04143 0
M  V30 989 C 92.1903 -6.09921 0.379389 0
M  V30 990 C 93.1883 -6.73933 1.10919 0
M  V30 991 O 92.8763 -7.81216 1.89623 0
M  V30 992 H 92.6083 -0.653127 -0.174359 0
M  V30 993 H 95.1623 -2.05029 0.123418 0
M  V30 994 H 93.3923 -3.21351 -2.15105 0
M  V30 995 H 95.0813 -3.5701 -1.93129 0
M  V30 996 H 95.8473 -4.8459 0.19939 0
M  V30 997 H 91.7263 -4.50496 -0.978474 0
M  V30 998 H 95.2703 -6.7873 1.61157 0
M  V30 999 H 91.1673 -6.44089 0.426512 0
M  V30 1000 H 91.9353 -7.98029 1.81913 0
M  V30 1001 N 94.5984 0.214957 -1.56127 0
M  V30 1002 C 95.5084 1.28727 -1.96129 0
M  V30 1003 C 96.5244 1.50916 -0.866044 0
M  V30 1004 O 97.7004 1.63918 -1.17016 0
M  V30 1005 C 94.7654 2.61569 -2.27558 0
M  V30 1006 C 93.8264 2.47625 -3.50685 0
M  V30 1007 C 93.0594 3.74132 -3.80606 0
M  V30 1008 O 93.2824 4.77438 -3.12104 0
M  V30 1009 O 92.2164 3.70849 -4.74083 0
M  V30 1010 H 96.0424 0.977855 -2.87527 0
M  V30 1011 H 93.6274 0.418358 -1.43423 0
M  V30 1012 H 95.5094 3.40012 -2.48938 0
M  V30 1013 H 94.1844 2.92178 -1.39332 0
M  V30 1014 H 93.0914 1.67361 -3.34576 0
M  V30 1015 H 94.4244 2.21954 -4.39315 0
M  V30 1016 N 96.0765 1.50051 0.48192 0
M  V30 1017 C 97.4925 1.37237 0.814756 0
M  V30 1018 C 97.6925 0.420109 1.97072 0
M  V30 1019 O 96.7485 -0.141246 2.52105 0
M  V30 1020 C 98.0615 2.78375 1.13701 0
M  V30 1021 C 99.6095 2.87213 1.2441 0
M  V30 1022 C 100.084 4.29161 1.59954 0
M  V30 1023 N 101.575 4.32061 1.66967 0
M  V30 1024 C 102.31 5.38879 1.95952 0
M  V30 1025 N 101.806 6.55918 2.23031 0
M  V30 1026 N 103.599 5.26312 1.97363 0
M  V30 1027 H 95.7505 2.10546 -0.28005 0
M  V30 1028 H 98.0135 0.945921 -0.0627454 0
M  V30 1029 H 97.7195 3.49845 0.360787 0
M  V30 1030 H 97.5935 3.14941 2.07586 0
M  V30 1031 H 99.9805 2.15969 2.01101 0
M  V30 1032 H 100.061 2.54204 0.285299 0
M  V30 1033 H 99.7055 5.00938 0.838067 0
M  V30 1034 H 99.6355 4.59648 2.56966 0
M  V30 1035 H 102.126 3.47661 1.48123 0
M  V30 1036 H 102.439 7.33139 2.44391 0
M  V30 1037 H 100.784 6.59112 2.20447 0
M  V30 1038 H 103.975 4.33876 1.75697 0
M  V30 1039 H 104.148 6.09649 2.19618 0
M  V30 1040 N 97.5546 -0.734337 1.39446 0
M  V30 1041 C 98.5026 -1.86971 1.38364 0
M  V30 1042 C 99.4966 -1.67288 0.266687 0
M  V30 1043 O 100.703 -1.74621 0.436755 0
M  V30 1044 H 97.0776 -0.615474 0.432082 0
M  V30 1045 H 99.0486 -1.85 2.34132 0
M  V30 1046 C 97.7976 -3.2466 1.24465 0
M  V30 1047 H 97.1206 -3.40402 2.09682 0
M  V30 1048 H 98.5606 -4.04292 1.27764 0
M  V30 1049 C 97.0196 -3.36867 -0.0468674 0
M  V30 1050 O 97.5496 -3.88618 -1.01681 0
M  V30 1051 N 95.7556 -2.90391 -0.110145 0
M  V30 1052 H 95.3026 -2.48466 0.679868 0
M  V30 1053 H 95.2606 -2.98939 -0.973799 0
M  V30 1054 N 99.0327 -1.24633 -0.964593 0
M  V30 1055 C 100.31 -0.995809 -1.68354 0
M  V30 1056 C 100.69 0.480964 -2.05548 0
M  V30 1057 O 100.038 1.45599 -1.76105 0
M  V30 1058 C 100.248 -1.92177 -2.91323 0
M  V30 1059 C 101.596 -2.19446 -3.63495 0
M  V30 1060 O 102.62 -1.89855 -3.01386 0
M  V30 1061 O 101.479 -2.69714 -4.75307 0
M  V30 1062 H 98.5727 -0.376854 -0.736146 0
M  V30 1063 H 101.119 -1.35745 -1.0184 0
M  V30 1064 H 99.8907 -2.91938 -2.60553 0
M  V30 1065 H 99.5137 -1.56349 -3.65569 0
M  V30 1066 N 100.511 1.16574 -1.06058 0
M  V30 1067 C 101.421 2.2452 -0.680282 0
M  V30 1068 C 102.437 1.71348 0.302604 0
M  V30 1069 O 103.613 2.00822 0.152513 0
M  V30 1070 C 100.678 3.46629 -0.0700315 0
M  V30 1071 C 99.7388 4.14849 -1.10448 0
M  V30 1072 C 98.9718 5.31129 -0.523256 0
M  V30 1073 O 99.1948 5.66514 0.664709 0
M  V30 1074 O 98.1288 5.88526 -1.26179 0
M  V30 1075 H 101.955 2.59355 -1.58015 0
M  V30 1076 H 99.5398 1.24043 -0.832694 0
M  V30 1077 H 101.422 4.20543 0.268667 0
M  V30 1078 H 100.097 3.13573 0.803353 0
M  V30 1079 H 99.0038 3.42916 -1.49532 0
M  V30 1080 H 100.337 4.51954 -1.94931 0
M  V30 1081 N 101.989 0.842826 1.3317 0
M  V30 1082 C 103.217 0.454055 2.01856 0
M  V30 1083 C 103.632 -0.94587 1.63397 0
M  V30 1084 O 102.989 -1.61534 0.849302 0
M  V30 1085 C 103.04 0.569715 3.56982 0
M  V30 1086 O 102.761 1.91448 3.94055 0
M  V30 1087 C 104.262 0.178412 4.42941 0
M  V30 1088 H 101.482 0.17979 0.646465 0
M  V30 1089 H 104.026 1.1365 1.70012 0
M  V30 1090 H 102.181 -0.0648587 3.87346 0
M  V30 1091 H 102.595 1.90282 4.88767 0
M  V30 1092 H 104.069 0.310376 5.51127 0
M  V30 1093 H 104.546 -0.880056 4.30293 0
M  V30 1094 H 105.152 0.787579 4.17944 0
M  V30 1095 N 103.467 -1.45747 0.599634 0
M  V30 1096 C 104.695 -2.06668 0.0978551 0
M  V30 1097 C 105.11 -1.44562 -1.21439 0
M  V30 1098 O 104.467 -0.556923 -1.73795 0
M  V30 1099 C 104.518 -3.61456 -0.0567044 0
M  V30 1100 O 104.239 -4.21242 1.20361 0
M  V30 1101 C 105.74 -4.39345 -0.590869 0
M  V30 1102 H 102.96 -0.667825 0.0651943 0
M  V30 1103 H 105.504 -1.87115 0.82511 0
M  V30 1104 H 103.659 -3.80378 -0.734251 0
M  V30 1105 H 104.073 -5.14323 1.02821 0
M  V30 1106 H 105.547 -5.48182 -0.648131 0
M  V30 1107 H 106.024 -4.08568 -1.61147 0
M  V30 1108 H 106.63 -4.25268 0.0523679 0
M  V30 1109 N 104.945 -0.338344 -1.53925 0
M  V30 1110 C 106.191 0.260143 -2.01125 0
M  V30 1111 C 106.524 1.50617 -1.22589 0
M  V30 1112 O 105.799 1.91979 -0.312113 0
M  V30 1113 C 106.082 0.579499 -3.55407 0
M  V30 1114 C 105.935 -0.678264 -4.44657 0
M  V30 1115 C 107.254 1.39122 -4.17532 0
M  V30 1116 H 104.373 0.0930772 -0.731099 0
M  V30 1117 H 107.015 -0.457852 -1.84401 0
M  V30 1118 H 105.165 1.19118 -3.69788 0
M  V30 1119 H 106.837 -1.31631 -4.42121 0
M  V30 1120 H 105.08 -1.3042 -4.13731 0
M  V30 1121 H 105.751 -0.410143 -5.50474 0
M  V30 1122 H 108.227 0.874035 -4.06817 0
M  V30 1123 H 107.103 1.58342 -5.25565 0
M  V30 1124 H 107.364 2.39178 -3.71815 0
M  V30 1125 N 106.423 1.57458 -0.0668435 0
M  V30 1126 C 107.356 2.08033 0.93795 0
M  V30 1127 C 108.334 0.984321 1.29421 0
M  V30 1128 O 109.518 1.25736 1.40437 0
M  V30 1129 C 106.645 2.53388 2.24749 0
M  V30 1130 C 105.691 3.74376 2.04315 0
M  V30 1131 S 106.524 5.19303 1.30706 0
M  V30 1132 C 107.68 5.67986 2.62951 0
M  V30 1133 H 107.913 2.92935 0.50759 0
M  V30 1134 H 105.446 1.5371 0.145804 0
M  V30 1135 H 107.404 2.8018 3.00016 0
M  V30 1136 H 106.065 1.68763 2.64911 0
M  V30 1137 H 105.258 4.04083 3.01218 0
M  V30 1138 H 104.86 3.47931 1.37186 0
M  V30 1139 H 107.152 5.74528 3.5906 0
M  V30 1140 H 108.095 6.66955 2.3786 0
M  V30 1141 H 108.503 4.95781 2.69929 0
M  V30 1142 N 107.901 -0.206675 1.56239 0
M  V30 1143 C 109.129 -0.945345 1.8404 0
M  V30 1144 C 109.544 -1.77336 0.647885 0
M  V30 1145 O 108.901 -1.78425 -0.383511 0
M  V30 1146 C 108.952 -1.8509 3.10522 0
M  V30 1147 O 108.673 -1.05634 4.25174 0
M  V30 1148 C 110.174 -2.70222 3.51418 0
M  V30 1149 H 107.394 -0.276372 0.61144 0
M  V30 1150 H 109.938 -0.217417 2.03341 0
M  V30 1151 H 108.093 -2.53259 2.93153 0
M  V30 1152 H 108.507 -1.67238 4.97124 0
M  V30 1153 H 109.981 -3.29438 4.42916 0
M  V30 1154 H 110.458 -3.43358 2.73864 0
M  V30 1155 H 111.064 -2.07443 3.71278 0
M  V30 1156 N 109.379 -1.50304 -0.473955 0
M  V30 1157 C 110.289 -1.7174 -1.5982 0
M  V30 1158 C 111.305 -0.600457 -1.63311 0
M  V30 1159 O 112.481 -0.878441 -1.81233 0
M  V30 1160 C 109.546 -1.80427 -2.96052 0
M  V30 1161 C 108.607 -3.04148 -3.02972 0
M  V30 1162 C 107.84 -3.12411 -4.32706 0
M  V30 1163 O 108.063 -2.27542 -5.23049 0
M  V30 1164 O 106.997 -4.05113 -4.45159 0
M  V30 1165 H 110.823 -2.67035 -1.44657 0
M  V30 1166 H 108.408 -1.34366 -0.653148 0
M  V30 1167 H 110.29 -1.88338 -3.7697 0
M  V30 1168 H 108.965 -0.883156 -3.11419 0
M  V30 1169 H 107.872 -3.0174 -2.21142 0
M  V30 1170 H 109.205 -3.95829 -2.92541 0
M  V30 1171 N 110.857 0.726932 -1.39834 0
M  V30 1172 C 112.087 1.51393 -1.40583 0
M  V30 1173 C 112.495 1.892 -0.000740625 0
M  V30 1174 O 111.838 1.55189 0.982951 0
M  V30 1175 C 111.9 2.82588 -2.22226 0
M  V30 1176 C 111.564 2.67169 -3.70769 0
M  V30 1177 C 112.561 2.3518 -4.63666 0
M  V30 1178 C 110.246 2.83788 -4.14451 0
M  V30 1179 C 112.24 2.20002 -5.98229 0
M  V30 1180 C 109.927 2.68229 -5.49087 0
M  V30 1181 C 110.925 2.36382 -6.4079 0
M  V30 1182 O 110.613 2.2093 -7.72946 0
M  V30 1183 H 110.345 0.474168 -0.48181 0
M  V30 1184 H 112.899 0.905247 -1.84376 0
M  V30 1185 H 111.129 3.45746 -1.73195 0
M  V30 1186 H 112.818 3.44247 -2.15055 0
M  V30 1187 H 113.584 2.21984 -4.31217 0
M  V30 1188 H 109.463 3.07566 -3.43401 0
M  V30 1189 H 113.007 1.95067 -6.69772 0
M  V30 1190 H 108.904 2.81006 -5.81125 0
M  V30 1191 H 109.672 2.35937 -7.83757 0
M  V30 1192 N 112.336 1.25143 0.95797 0
M  V30 1193 C 113.283 1.05235 2.05412 0
M  V30 1194 C 114.253 -0.0374561 1.66058 0
M  V30 1195 O 115.438 0.119073 1.90428 0
M  V30 1196 C 112.578 0.673589 3.38462 0
M  V30 1197 C 111.691 1.8379 3.90954 0
M  V30 1198 C 110.826 1.40381 5.12315 0
M  V30 1199 C 109.865 2.53746 5.57027 0
M  V30 1200 N 109.002 2.11136 6.69601 0
M  V30 1201 H 113.842 1.99048 2.21774 0
M  V30 1202 H 111.379 0.991277 1.08683 0
M  V30 1203 H 113.337 0.434964 4.14926 0
M  V30 1204 H 111.967 -0.227554 3.21997 0
M  V30 1205 H 111.019 2.18992 3.11041 0
M  V30 1206 H 112.331 2.68937 4.20089 0
M  V30 1207 H 111.485 1.12464 5.96185 0
M  V30 1208 H 110.224 0.523015 4.84887 0
M  V30 1209 H 109.229 2.82412 4.71724 0
M  V30 1210 H 110.454 3.42398 5.86464 0
M  V30 1211 H 108.4 1.25468 6.4389 0
M  V30 1212 H 108.317 2.89832 6.98236 0
M  V30 1213 H 109.585 1.86385 7.56889 0
M  V30 1214 N 113.814 -1.1601 1.06675 0
M  V30 1215 C 115.062 -1.86264 0.784229 0
M  V30 1216 C 115.383 -1.82328 -0.691488 0
M  V30 1217 O 114.653 -1.25947 -1.50047 0
M  V30 1218 H 113.233 -0.689621 0.28711 0
M  V30 1219 H 115.895 -1.40664 1.34906 0
M  V30 1220 H 114.991 -2.91595 1.11259 0
M  V30 1221 N 115.292 -0.849877 -1.32721 0
M  V30 1222 C 116.517 -0.463856 -2.02146 0
M  V30 1223 C 116.942 0.930449 -1.63476 0
M  V30 1224 O 116.3 1.61033 -0.832952 0
M  V30 1225 C 116.348 -0.604955 -3.55489 0
M  V30 1226 O 115.452 0.36425 -4.10788 0
M  V30 1227 H 114.793 -0.187046 -0.637111 0
M  V30 1228 H 117.323 -1.14775 -1.69375 0
M  V30 1229 H 117.333 -0.490696 -4.05038 0
M  V30 1230 H 116.008 -1.62174 -3.82978 0
M  V30 1231 H 114.585 0.206628 -3.72327 0
M  V30 1232 N 116.77 1.45427 -0.607355 0
M  V30 1233 C 118.016 2.0254 -0.102607 0
M  V30 1234 C 118.349 1.47478 1.26348 0
M  V30 1235 O 117.624 0.64939 1.83339 0
M  V30 1236 C 117.907 3.60044 -0.0634347 0
M  V30 1237 C 117.76 4.2544 -1.46017 0
M  V30 1238 C 119.079 4.35646 0.624514 0
M  V30 1239 H 116.198 0.73598 -0.0387607 0
M  V30 1240 H 118.84 1.73284 -0.779282 0
M  V30 1241 H 116.99 3.85101 0.512808 0
M  V30 1242 H 118.662 4.11569 -2.08347 0
M  V30 1243 H 116.905 3.83849 -2.02094 0
M  V30 1244 H 117.576 5.34342 -1.385 0
M  V30 1245 H 120.052 4.15882 0.134723 0
M  V30 1246 H 118.928 5.45376 0.621028 0
M  V30 1247 H 119.189 4.08501 1.69055 0
M  V30 1248 N 118.248 0.346503 1.53744 0
M  V30 1249 C 119.659 -0.136779 1.86198 0
M  V30 1250 C 120.01 -1.49749 1.26766 0
M  V30 1251 O 119.135 -2.08417 0.582355 0
M  V30 1252 C 119.73 -0.254966 3.37839 0
M  V30 1253 C 118.289 -0.682482 3.70161 0
M  V30 1254 C 117.436 0.181981 2.76702 0
M  V30 1255 H 120.387 0.565994 1.48264 0
M  V30 1256 H 120.408 -1.08195 3.64793 0
M  V30 1257 H 119.92 0.735526 3.81066 0
M  V30 1258 H 118.021 -1.68189 3.3248 0
M  V30 1259 H 118.134 -0.470326 4.76786 0
M  V30 1260 H 116.498 -0.34615 2.52337 0
M  V30 1261 H 117.281 1.16966 3.2276 0
M  V30 1262 N 119.726 -1.57421 0.075193 0
M  V30 1263 C 120.973 -1.93618 -0.593146 0
M  V30 1264 C 121.301 -0.955484 -1.69413 0
M  V30 1265 O 120.556 0.0283251 -1.9568 0
M  V30 1266 C 120.855 -3.36428 -1.20626 0
M  V30 1267 C 120.521 -4.50307 -0.231078 0
M  V30 1268 C 119.183 -4.81186 0.0371936 0
M  V30 1269 C 121.535 -5.19374 0.435888 0
M  V30 1270 C 118.863 -5.78466 0.979461 0
M  V30 1271 C 121.215 -6.17665 1.3665 0
M  V30 1272 C 119.879 -6.46958 1.6432 0
M  V30 1273 H 119.149 -0.708499 -0.217047 0
M  V30 1274 H 121.796 -1.90937 0.146793 0
M  V30 1275 H 120.101 -3.35592 -2.02201 0
M  V30 1276 H 121.798 -3.61727 -1.73073 0
M  V30 1277 H 118.388 -4.26227 -0.450357 0
M  V30 1278 H 122.572 -4.95711 0.241748 0
M  V30 1279 H 117.828 -5.99487 1.20106 0
M  V30 1280 H 122.002 -6.70284 1.88924 0
M  V30 1281 H 119.629 -7.2215 2.37494 0
M  V30 1282 N 121.204 0.198386 -1.56346 0
M  V30 1283 C 122.152 1.26538 -1.95169 0
M  V30 1284 C 123.146 1.47295 -0.836685 0
M  V30 1285 O 124.352 1.48195 -1.02167 0
M  V30 1286 H 120.727 0.424744 -0.620561 0
M  V30 1287 H 122.698 0.910904 -2.84157 0
M  V30 1288 C 121.447 2.6035 -2.30463 0
M  V30 1289 H 120.77 2.45192 -3.15786 0
M  V30 1290 H 122.21 3.33762 -2.61494 0
M  V30 1291 C 120.669 3.17096 -1.13806 0
M  V30 1292 O 121.199 3.99588 -0.41135 0
M  V30 1293 N 119.405 2.75795 -0.915736 0
M  V30 1294 H 118.952 2.08816 -1.50843 0
M  V30 1295 H 118.91 3.14101 -0.136979 0
M  V30 1296 N 122.682 1.50554 0.465978 0
M  V30 1297 C 123.629 1.6979 1.56333 0
M  V30 1298 C 124.599 0.539239 1.57103 0
M  V30 1299 O 125.784 0.770401 1.74555 0
M  V30 1300 C 122.924 1.80273 2.94271 0
M  V30 1301 C 122.037 3.07674 3.0325 0
M  V30 1302 C 121.172 3.08922 4.32135 0
M  V30 1303 C 120.211 4.30755 4.34875 0
M  V30 1304 N 119.348 4.29714 5.55239 0
M  V30 1305 H 124.188 2.63472 1.39235 0
M  V30 1306 H 121.725 1.30602 0.676873 0
M  V30 1307 H 123.683 1.84332 3.74269 0
M  V30 1308 H 122.313 0.900258 3.09992 0
M  V30 1309 H 121.365 3.13062 2.16094 0
M  V30 1310 H 122.677 3.97642 3.01135 0
M  V30 1311 H 121.831 3.11738 5.20485 0
M  V30 1312 H 120.57 2.16792 4.36866 0
M  V30 1313 H 119.575 4.28146 3.44922 0
M  V30 1314 H 120.8 5.24117 4.31831 0
M  V30 1315 H 118.746 3.4044 5.60746 0
M  V30 1316 H 118.663 5.13456 5.54886 0
M  V30 1317 H 119.931 4.36683 6.457 0
M  V30 1318 N 124.16 -0.719506 1.40217 0
M  V30 1319 C 125.108 -1.85493 1.40339 0
M  V30 1320 C 126.102 -1.66995 0.284415 0
M  V30 1321 O 127.308 -1.74148 0.455252 0
M  V30 1322 H 123.683 -0.610857 0.438586 0
M  V30 1323 H 125.654 -1.82506 2.36081 0
M  V30 1324 C 124.403 -3.23321 1.27901 0
M  V30 1325 H 123.726 -3.38159 2.1328 0
M  V30 1326 H 125.166 -4.02914 1.32045 0
M  V30 1327 C 123.625 -3.36898 -0.0111355 0
M  V30 1328 O 124.155 -3.89674 -0.975538 0
M  V30 1329 N 122.361 -2.90492 -0.0793393 0
M  V30 1330 H 121.908 -2.47731 0.706183 0
M  V30 1331 H 121.866 -2.99955 -0.942038 0
M  V30 1332 N 125.638 -1.25649 -0.95132 0
M  V30 1333 C 126.915 -1.01361 -1.67288 0
M  V30 1334 C 127.295 0.459135 -2.06046 0
M  V30 1335 O 126.643 1.43723 -1.7764 0
M  V30 1336 C 126.853 -1.95256 -2.89268 0
M  V30 1337 C 128.201 -2.23289 -3.61147 0
M  V30 1338 O 129.225 -1.93041 -2.99355 0
M  V30 1339 O 128.084 -2.74741 -4.72419 0
M  V30 1340 H 125.178 -0.38464 -0.732107 0
M  V30 1341 H 127.724 -1.36817 -1.00395 0
M  V30 1342 H 126.496 -2.94685 -2.57442 0
M  V30 1343 H 126.119 -1.60218 -3.6389 0
M  V30 1344 N 127.117 1.15442 -1.07289 0
M  V30 1345 C 128.065 2.22225 -0.686952 0
M  V30 1346 C 129.059 1.66688 0.30193 0
M  V30 1347 O 130.265 1.79236 0.165712 0
M  V30 1348 H 126.64 0.723783 -0.204064 0
M  V30 1349 H 128.611 2.52056 -1.5972 0
M  V30 1350 C 127.36 3.47556 -0.100149 0
M  V30 1351 H 126.683 3.90612 -0.852211 0
M  V30 1352 H 128.123 4.23794 0.132235 0
M  V30 1353 C 126.582 3.16337 1.159 0
M  V30 1354 O 127.112 3.33074 2.24555 0
M  V30 1355 N 125.318 2.70385 1.06491 0
M  V30 1356 H 124.865 2.56966 0.180668 0
M  V30 1357 H 124.823 2.49871 1.90819 0
M  V30 1358 N 128.595 0.856903 1.32268 0
M  V30 1359 C 129.841 0.462069 1.97466 0
M  V30 1360 C 130.174 -0.980298 1.67642 0
M  V30 1361 O 129.449 -1.68824 0.965858 0
M  V30 1362 C 129.732 0.704336 3.53145 0
M  V30 1363 C 129.585 2.19529 3.9259 0
M  V30 1364 C 130.904 0.1622 4.39801 0
M  V30 1365 H 128.023 0.169357 0.717278 0
M  V30 1366 H 130.665 1.07574 1.56614 0
M  V30 1367 H 128.815 0.181999 3.88073 0
M  V30 1368 H 130.487 2.78387 3.67829 0
M  V30 1369 H 128.73 2.67292 3.41668 0
M  V30 1370 H 129.401 2.31549 5.01088 0
M  V30 1371 H 131.877 0.608905 4.11621 0
M  V30 1372 H 130.753 0.361265 5.4771 0
M  V30 1373 H 131.014 -0.935158 4.32096 0
M  V30 1374 N 130.073 -1.45103 0.615059 0
M  V30 1375 C 131.021 -2.32331 -0.111791 0
M  V30 1376 C 132.015 -1.46409 -0.852102 0
M  V30 1377 O 133.221 -1.62849 -0.766821 0
M  V30 1378 H 129.596 -0.749993 -0.0549072 0
M  V30 1379 H 131.567 -2.91407 0.642225 0
M  V30 1380 C 130.316 -3.3015 -1.09071 0
M  V30 1381 H 129.639 -3.96265 -0.530485 0
M  V30 1382 H 131.079 -3.93898 -1.56908 0
M  V30 1383 C 129.538 -2.57875 -2.168 0
M  V30 1384 O 130.068 -2.36567 -3.24652 0
M  V30 1385 N 128.274 -2.17884 -1.92289 0
M  V30 1386 H 127.821 -2.35413 -1.04587 0
M  V30 1387 H 127.779 -1.6985 -2.64572 0
M  V30 1388 N 131.551 -0.354651 -1.53558 0
M  V30 1389 C 132.962 0.126902 -1.86268 0
M  V30 1390 C 133.313 1.49075 -1.27558 0
M  V30 1391 O 132.438 2.08105 -0.5934 0
M  V30 1392 C 133.033 0.237046 -3.3797 0
M  V30 1393 C 131.592 0.662842 -3.70518 0
M  V30 1394 C 130.739 -0.196652 -2.76602 0
M  V30 1395 H 133.69 -0.573849 -1.47962 0
M  V30 1396 H 133.711 1.06259 -3.65362 0
M  V30 1397 H 133.223 -0.755725 -3.80671 0
M  V30 1398 H 131.324 1.66424 -3.33367 0
M  V30 1399 H 131.437 0.445034 -4.77029 0
M  V30 1400 H 129.801 0.332763 -2.52517 0
M  V30 1401 H 130.584 -1.18676 -3.22135 0
M  V30 1402 N 133.029 1.57378 -0.0835403 0
M  V30 1403 C 133.959 2.1641 0.87686 0
M  V30 1404 C 134.94 1.09429 1.30228 0
M  V30 1405 O 136.125 1.37516 1.37124 0
M  V30 1406 C 133.255 2.73517 2.14022 0
M  V30 1407 C 132.209 3.85769 1.85381 0
M  V30 1408 C 131.535 4.29529 3.18448 0
M  V30 1409 C 132.835 5.09486 1.14984 0
M  V30 1410 H 134.529 2.96914 0.385059 0
M  V30 1411 H 132.075 1.42823 0.18377 0
M  V30 1412 H 134.028 3.13463 2.81636 0
M  V30 1413 H 132.752 1.90252 2.65465 0
M  V30 1414 H 131.411 3.46345 1.20169 0
M  V30 1415 H 131.059 3.43169 3.67755 0
M  V30 1416 H 130.759 5.05204 3.00071 0
M  V30 1417 H 132.283 4.72099 3.8724 0
M  V30 1418 H 133.697 5.46674 1.72687 0
M  V30 1419 H 132.094 5.90515 1.06826 0
M  V30 1420 H 133.164 4.84724 0.130749 0
M  V30 1421 N 134.507 -0.190092 1.56449 0
M  V30 1422 C 135.918 -0.754312 1.70784 0
M  V30 1423 C 136.269 -1.83631 0.690951 0
M  V30 1424 O 135.394 -2.15868 -0.151604 0
M  V30 1425 C 135.989 -1.37503 3.09642 0
M  V30 1426 C 134.548 -1.88628 3.25725 0
M  V30 1427 C 133.695 -0.758098 2.66736 0
M  V30 1428 H 136.646 0.0350524 1.58661 0
M  V30 1429 H 136.667 -2.2445 3.0725 0
M  V30 1430 H 136.179 -0.587302 3.83631 0
M  V30 1431 H 134.28 -2.70103 2.56661 0
M  V30 1432 H 134.393 -2.04462 4.3328 0
M  V30 1433 H 132.757 -1.17369 2.26046 0
M  V30 1434 H 133.54 0.0174705 3.43296 0
M  V30 1435 N 135.985 -1.50799 -0.457987 0
M  V30 1436 C 136.895 -1.73426 -1.57989 0
M  V30 1437 C 137.911 -0.617745 -1.62665 0
M  V30 1438 O 139.087 -0.897614 -1.80291 0
M  V30 1439 C 136.152 -1.83557 -2.94122 0
M  V30 1440 C 135.213 -3.07345 -2.99729 0
M  V30 1441 C 134.446 -3.16983 -4.29368 0
M  V30 1442 O 134.669 -2.33077 -5.20607 0
M  V30 1443 O 133.603 -4.09812 -4.40837 0
M  V30 1444 H 137.429 -2.68555 -1.41817 0
M  V30 1445 H 135.014 -1.35052 -0.638859 0
M  V30 1446 H 136.896 -1.92326 -3.74952 0
M  V30 1447 H 135.571 -0.916137 -3.10465 0
M  V30 1448 H 134.478 -3.04068 -2.1793 0
M  V30 1449 H 135.811 -3.9891 -2.88326 0
M  V30 1450 N 137.463 0.71206 -1.40597 0
M  V30 1451 C 138.711 1.46907 -1.38791 0
M  V30 1452 C 139.032 1.94998 0.00780391 0
M  V30 1453 O 138.302 1.70587 0.963174 0
M  V30 1454 H 136.882 0.545043 -0.51082 0
M  V30 1455 H 139.544 0.843882 -1.75683 0
M  V30 1456 H 138.64 2.34021 -2.06496 0
M  V30 1457 N 138.941 1.26152 0.944643 0
M  V30 1458 C 140.171 1.14094 1.72239 0
M  V30 1459 C 140.579 -0.306931 1.86694 0
M  V30 1460 O 139.922 -1.22222 1.3714 0
M  V30 1461 C 139.984 1.73316 3.14963 0
M  V30 1462 C 139.648 3.2239 3.23904 0
M  V30 1463 C 140.645 4.19252 3.07447 0
M  V30 1464 C 138.33 3.62788 3.47405 0
M  V30 1465 C 140.324 5.54491 3.14353 0
M  V30 1466 C 138.011 4.98162 3.53947 0
M  V30 1467 C 139.009 5.93823 3.37436 0
M  V30 1468 O 138.697 7.26732 3.43679 0
M  V30 1469 H 138.429 0.398292 0.546205 0
M  V30 1470 H 140.983 1.67201 1.19301 0
M  V30 1471 H 139.213 1.14667 3.69308 0
M  V30 1472 H 140.902 1.56214 3.74636 0
M  V30 1473 H 141.668 3.8938 2.8915 0
M  V30 1474 H 137.547 2.88816 3.59313 0
M  V30 1475 H 141.091 6.29137 3.01384 0
M  V30 1476 H 136.988 5.27695 3.71763 0
M  V30 1477 H 137.756 7.3496 3.60245 0
M  V30 1478 N 140.419 -1.14872 1.07899 0
M  V30 1479 C 141.835 -1.37776 0.805606 0
M  V30 1480 C 142.035 -1.92743 -0.587555 0
M  V30 1481 O 141.091 -2.13678 -1.34528 0
M  V30 1482 C 142.404 -2.34361 1.88402 0
M  V30 1483 C 143.952 -2.48012 1.90942 0
M  V30 1484 C 144.427 -3.47893 2.97883 0
M  V30 1485 N 145.918 -3.55433 2.97021 0
M  V30 1486 C 146.653 -4.32553 3.76412 0
M  V30 1487 N 146.149 -5.12959 4.65666 0
M  V30 1488 N 147.942 -4.27697 3.64735 0
M  V30 1489 H 140.093 -0.775365 1.97742 0
M  V30 1490 H 142.356 -0.403521 0.857831 0
M  V30 1491 H 142.062 -2.01098 2.88535 0
M  V30 1492 H 141.936 -3.34206 1.74889 0
M  V30 1493 H 144.323 -2.8057 0.914579 0
M  V30 1494 H 144.404 -1.48147 2.08534 0
M  V30 1495 H 144.048 -3.16069 3.97571 0
M  V30 1496 H 143.978 -4.47527 2.77538 0
M  V30 1497 H 146.469 -2.98048 2.32326 0
M  V30 1498 H 146.782 -5.69065 5.22862 0
M  V30 1499 H 145.127 -5.12245 4.69712 0
M  V30 1500 H 148.318 -3.63949 2.94378 0
M  V30 1501 H 148.491 -4.8755 4.26848 0
M  V30 1502 N 141.898 -0.863906 -1.31812 0
M  V30 1503 C 142.848 -0.286898 -2.26188 0
M  V30 1504 C 143.832 0.572577 -1.50367 0
M  V30 1505 O 145.024 0.420447 -1.71934 0
M  V30 1506 C 142.153 0.515849 -3.39402 0
M  V30 1507 C 141.239 -0.356531 -4.22599 0
M  V30 1508 N 141.63 -1.44716 -4.84656 0
M  V30 1509 C 139.928 -0.147898 -4.45755 0
M  V30 1510 C 140.629 -1.98462 -5.46798 0
M  V30 1511 N 139.605 -1.28247 -5.28255 0
M  V30 1512 H 143.407 -1.12055 -2.717 0
M  V30 1513 H 140.921 -0.711012 -1.46008 0
M  V30 1514 H 142.918 0.945701 -4.06032 0
M  V30 1515 H 141.578 1.34718 -2.95434 0
M  V30 1516 H 142.589 -1.83008 -4.84488 0
M  V30 1517 H 139.266 0.647973 -4.12441 0
M  V30 1518 H 140.656 -2.89932 -6.06126 0
M  V30 1519 N 143.376 1.44774 -0.622745 0
M  V30 1520 C 144.339 2.29069 0.0774015 0
M  V30 1521 C 145.339 1.4059 0.780461 0
M  V30 1522 O 146.529 1.62551 0.626322 0
M  V30 1523 C 143.661 3.21974 1.12006 0
M  V30 1524 H 144.854 2.92459 -0.663901 0
M  V30 1525 H 142.407 1.51548 -0.382486 0
M  V30 1526 H 143.142 2.63417 1.89162 0
M  V30 1527 H 142.927 3.87168 0.619951 0
M  V30 1528 H 144.417 3.85318 1.60995 0
M  V30 1529 N 144.854 0.36279 1.53368 0
M  V30 1530 C 145.786 -0.519668 2.23231 0
M  V30 1531 C 146.799 -1.04844 1.24546 0
M  V30 1532 O 147.988 -0.955296 1.50786 0
M  V30 1533 C 145.088 -1.72995 2.9142 0
M  V30 1534 C 144.261 -1.33316 4.16588 0
M  V30 1535 C 143.32 -2.40521 4.68013 0
M  V30 1536 O 142.346 -2.03027 5.3176 0
M  V30 1537 N 143.548 -3.72065 4.45587 0
M  V30 1538 H 146.313 0.078751 2.99597 0
M  V30 1539 H 143.874 0.187833 1.60807 0
M  V30 1540 H 145.866 -2.44184 3.22733 0
M  V30 1541 H 144.436 -2.2353 2.18525 0
M  V30 1542 H 143.656 -0.451236 3.91609 0
M  V30 1543 H 144.944 -1.04432 4.97967 0
M  V30 1544 H 144.342 -4.05304 3.94646 0
M  V30 1545 H 142.899 -4.39366 4.81457 0
M  V30 1546 N 146.332 -1.57332 0.0918853 0
M  V30 1547 C 147.743 -1.81496 -0.437739 0
M  V30 1548 C 148.094 -1.00727 -1.6837 0
M  V30 1549 O 147.219 -0.235694 -2.15113 0
M  V30 1550 C 147.814 -3.29197 -0.800939 0
M  V30 1551 C 146.373 -3.54136 -1.27532 0
M  V30 1552 C 145.52 -2.75979 -0.270392 0
M  V30 1553 H 148.471 -1.55494 0.317366 0
M  V30 1554 H 148.492 -3.42344 -1.66074 0
M  V30 1555 H 148.004 -3.87955 0.106078 0
M  V30 1556 H 146.105 -3.00705 -2.20016 0
M  V30 1557 H 146.218 -4.62792 -1.23938 0
M  V30 1558 H 144.582 -2.43349 -0.751872 0
M  V30 1559 H 145.365 -3.37484 0.629248 0
M  V30 1560 N 147.81 0.181792 -1.56548 0
M  V30 1561 C 149.04 0.914618 -1.85252 0
M  V30 1562 C 149.448 1.76791 -0.673914 0
M  V30 1563 O 148.791 1.80009 0.366416 0
M  V30 1564 C 148.853 1.85019 -3.08234 0
M  V30 1565 C 148.517 1.17754 -4.41569 0
M  V30 1566 C 149.514 0.548035 -5.17003 0
M  V30 1567 C 147.199 1.17742 -4.88305 0
M  V30 1568 C 149.193 -0.0726128 -6.37359 0
M  V30 1569 C 146.88 0.552946 -6.08593 0
M  V30 1570 C 147.878 -0.070978 -6.82963 0
M  V30 1571 O 147.566 -0.685635 -8.00971 0
M  V30 1572 H 147.298 0.271695 -0.618998 0
M  V30 1573 H 149.852 0.189944 -2.0452 0
M  V30 1574 H 148.082 2.61491 -2.84885 0
M  V30 1575 H 149.771 2.45195 -3.23472 0
M  V30 1576 H 150.537 0.540174 -4.81982 0
M  V30 1577 H 146.416 1.65246 -4.30366 0
M  V30 1578 H 149.96 -0.560213 -6.95347 0
M  V30 1579 H 145.857 0.558354 -6.43081 0
M  V30 1580 H 146.625 -0.58385 -8.16415 0
M  V30 1581 N 149.288 1.51039 0.449983 0
M  V30 1582 C 150.218 1.74379 1.55288 0
M  V30 1583 C 151.199 0.593236 1.5942 0
M  V30 1584 O 152.384 0.834625 1.7535 0
M  V30 1585 C 149.514 1.85728 2.93466 0
M  V30 1586 C 148.468 3.01078 3.04197 0
M  V30 1587 C 147.794 2.97595 4.44231 0
M  V30 1588 C 149.094 4.41254 2.7945 0
M  V30 1589 H 150.788 2.66725 1.36008 0
M  V30 1590 H 148.334 1.2835 0.652864 0
M  V30 1591 H 150.287 2.0064 3.70569 0
M  V30 1592 H 149.011 0.900207 3.13949 0
M  V30 1593 H 147.67 2.85851 2.29531 0
M  V30 1594 H 147.318 1.99691 4.61663 0
M  V30 1595 H 147.018 3.75046 4.52343 0
M  V30 1596 H 148.542 3.14583 5.23326 0
M  V30 1597 H 149.956 4.56897 3.46292 0
M  V30 1598 H 148.353 5.20315 2.98985 0
M  V30 1599 H 149.423 4.52164 1.75144 0
M  V30 1600 N 150.766 -0.704594 1.40972 0
M  V30 1601 C 151.713 -1.81862 1.42109 0
M  V30 1602 C 152.683 -1.63781 0.276593 0
M  V30 1603 O 153.868 -1.84759 0.4763 0
M  V30 1604 C 151.008 -3.19669 1.30022 0
M  V30 1605 C 150.121 -3.49246 2.54267 0
M  V30 1606 C 149.256 -4.76618 2.3454 0
M  V30 1607 C 148.295 -4.99133 3.54306 0
M  V30 1608 N 147.432 -6.17726 3.33706 0
M  V30 1609 H 152.272 -1.80226 2.37324 0
M  V30 1610 H 149.809 -0.880238 1.17857 0
M  V30 1611 H 151.767 -3.99263 1.21018 0
M  V30 1612 H 150.397 -3.20506 0.384192 0
M  V30 1613 H 149.449 -2.64125 2.73756 0
M  V30 1614 H 150.761 -3.61788 3.43381 0
M  V30 1615 H 149.915 -5.64249 2.22952 0
M  V30 1616 H 148.654 -4.66305 1.42867 0
M  V30 1617 H 147.659 -4.09953 3.66359 0
M  V30 1618 H 148.884 -5.11311 4.4692 0
M  V30 1619 H 146.83 -6.08642 2.44725 0
M  V30 1620 H 146.747 -6.30995 4.16391 0
M  V30 1621 H 148.015 -7.08115 3.25873 0
M  V30 1622 N 152.244 -1.26651 -0.937939 0
M  V30 1623 C 153.192 -1.08308 -2.05845 0
M  V30 1624 C 154.186 -0.0090757 -1.69398 0
M  V30 1625 O 155.392 -0.166007 -1.79233 0
M  V30 1626 H 151.767 -0.333416 -0.674046 0
M  V30 1627 H 153.738 -2.03261 -2.18467 0
M  V30 1628 C 152.487 -0.736229 -3.39816 0
M  V30 1629 H 151.81 -1.55453 -3.6834 0
M  V30 1630 H 153.25 -0.64769 -4.19024 0
M  V30 1631 C 151.709 0.558824 -3.32233 0
M  V30 1632 O 152.239 1.59621 -3.68624 0
M  V30 1633 N 150.445 0.550657 -2.85335 0
M  V30 1634 H 149.992 -0.293943 -2.55917 0
M  V30 1635 H 149.95 1.41726 -2.80644 0
M  V30 1636 N 153.722 1.14298 -1.08507 0
M  V30 1637 C 154.652 2.21542 -0.737646 0
M  V30 1638 C 155.633 1.67773 0.280377 0
M  V30 1639 O 156.818 1.93616 0.150521 0
M  V30 1640 C 153.948 3.46988 -0.147259 0
M  V30 1641 C 152.902 4.13789 -1.09374 0
M  V30 1642 C 152.228 5.33449 -0.365524 0
M  V30 1643 C 153.528 4.62208 -2.4323 0
M  V30 1644 H 155.222 2.5086 -1.6343 0
M  V30 1645 H 152.768 1.20576 -0.787243 0
M  V30 1646 H 154.721 4.21262 0.107808 0
M  V30 1647 H 153.445 3.17037 0.784538 0
M  V30 1648 H 152.104 3.4147 -1.33393 0
M  V30 1649 H 151.752 4.99759 0.57011 0
M  V30 1650 H 151.452 5.79088 -0.996512 0
M  V30 1651 H 152.976 6.10485 -0.118534 0
M  V30 1652 H 154.39 5.27952 -2.23472 0
M  V30 1653 H 152.787 5.18553 -3.02031 0
M  V30 1654 H 153.857 3.77224 -3.04681 0
M  V30 1655 N 155.201 0.870884 1.31352 0
M  V30 1656 C 156.447 0.492314 1.97352 0
M  V30 1657 C 156.802 -0.945174 1.67583 0
M  V30 1658 O 156.095 -1.65674 0.962423 0
M  V30 1659 C 156.289 0.687157 3.50732 0
M  V30 1660 C 156.118 2.14203 3.95407 0
M  V30 1661 C 154.888 2.78382 4.21701 0
M  V30 1662 C 157.086 3.1144 4.09279 0
M  V30 1663 N 155.068 4.14611 4.52737 0
M  V30 1664 C 156.439 4.32702 4.44037 0
M  V30 1665 C 158.494 3.07418 3.91661 0
M  V30 1666 C 157.197 5.50463 4.63015 0
M  V30 1667 C 159.223 4.24438 4.11833 0
M  V30 1668 C 158.585 5.44463 4.46923 0
M  V30 1669 H 154.684 0.229206 0.747655 0
M  V30 1670 H 157.268 1.12568 1.5886 0
M  V30 1671 H 155.439 0.083384 3.8831 0
M  V30 1672 H 157.171 0.276883 4.03752 0
M  V30 1673 H 153.926 2.29326 4.14375 0
M  V30 1674 H 154.35 4.84928 4.72413 0
M  V30 1675 H 158.992 2.15732 3.6362 0
M  V30 1676 H 156.71 6.42666 4.89904 0
M  V30 1677 H 160.296 4.2278 3.99685 0
M  V30 1678 H 159.176 6.33504 4.62214 0
M  V30 1679 N 156.679 -1.44442 0.630414 0
M  V30 1680 C 157.609 -2.33418 -0.0618083 0
M  V30 1681 C 158.59 -1.48165 -0.835541 0
M  V30 1682 O 159.775 -1.76886 -0.801564 0
M  V30 1683 C 156.905 -3.31222 -1.04449 0
M  V30 1684 C 155.859 -4.26288 -0.382436 0
M  V30 1685 C 155.185 -5.13954 -1.47497 0
M  V30 1686 C 156.485 -5.1744 0.710865 0
M  V30 1687 H 158.179 -2.91548 0.681184 0
M  V30 1688 H 155.725 -1.40191 0.329026 0
M  V30 1689 H 157.678 -3.92351 -1.53748 0
M  V30 1690 H 156.402 -2.71299 -1.81836 0
M  V30 1691 H 155.061 -3.6649 0.0899054 0
M  V30 1692 H 154.709 -4.50385 -2.2397 0
M  V30 1693 H 154.409 -5.7837 -1.03737 0
M  V30 1694 H 155.933 -5.77955 -1.96979 0
M  V30 1695 H 157.347 -5.72509 0.300996 0
M  V30 1696 H 155.744 -5.90455 1.07156 0
M  V30 1697 H 156.814 -4.58496 1.57829 0
M  V30 1698 N 158.157 -0.370918 -1.53173 0
M  V30 1699 C 159.405 0.216673 -2.00935 0
M  V30 1700 C 159.726 1.48845 -1.25977 0
M  V30 1701 O 158.996 1.92286 -0.374551 0
M  V30 1702 H 157.576 0.0830565 -0.742368 0
M  V30 1703 H 160.238 -0.49838 -1.8842 0
M  V30 1704 H 159.334 0.439893 -3.08984 0
M  V30 1705 N 159.635 1.57281 -0.100228 0
M  V30 1706 C 160.865 1.98591 0.569681 0
M  V30 1707 C 161.273 0.978315 1.61943 0
M  V30 1708 O 160.616 -0.0396108 1.83657 0
M  V30 1709 C 160.678 3.36282 1.271 0
M  V30 1710 C 160.342 4.55488 0.371409 0
M  V30 1711 C 161.339 5.18491 -0.382504 0
M  V30 1712 C 159.024 5.01474 0.287965 0
M  V30 1713 C 161.018 6.25852 -1.20779 0
M  V30 1714 C 158.705 6.08701 -0.540965 0
M  V30 1715 C 159.703 6.70755 -1.28749 0
M  V30 1716 O 159.391 7.75914 -2.10269 0
M  V30 1717 H 159.123 0.65752 0.156982 0
M  V30 1718 H 161.677 2.0463 -0.177734 0
M  V30 1719 H 159.907 3.26941 2.0651 0
M  V30 1720 H 161.596 3.62005 1.83595 0
M  V30 1721 H 162.362 4.83891 -0.3278 0
M  V30 1722 H 158.241 4.52932 0.858689 0
M  V30 1723 H 161.785 6.74218 -1.79096 0
M  V30 1724 H 157.682 6.42732 -0.597131 0
M  V30 1725 H 158.45 7.92925 -2.03007 0
M  V30 1726 N 161.113 -0.173488 1.56642 0
M  V30 1727 C 162.524 -0.736155 1.71574 0
M  V30 1728 C 162.875 -1.82888 0.710389 0
M  V30 1729 O 162 -2.16017 -0.1287 0
M  V30 1730 C 162.595 -1.34211 3.11083 0
M  V30 1731 C 161.154 -1.85162 3.27707 0
M  V30 1732 C 160.301 -0.729765 2.67525 0
M  V30 1733 H 163.252 0.0518786 1.58615 0
M  V30 1734 H 163.273 -2.21178 3.09613 0
M  V30 1735 H 162.785 -0.546579 3.84232 0
M  V30 1736 H 160.886 -2.67366 2.59512 0
M  V30 1737 H 160.999 -1.99855 4.35425 0
M  V30 1738 H 159.363 -1.14965 2.27278 0
M  V30 1739 H 160.146 0.0538806 3.43258 0
M  V30 1740 N 162.591 -1.51276 -0.441967 0
M  V30 1741 C 163.838 -1.63715 -1.19179 0
M  V30 1742 C 164.166 -0.351175 -1.91303 0
M  V30 1743 O 163.421 0.664524 -1.84072 0
M  V30 1744 C 163.72 -2.78746 -2.23686 0
M  V30 1745 C 163.386 -4.18189 -1.68607 0
M  V30 1746 C 162.048 -4.56125 -1.53308 0
M  V30 1747 C 164.4 -5.05222 -1.28062 0
M  V30 1748 C 161.728 -5.78804 -0.959317 0
M  V30 1749 C 164.08 -6.28476 -0.721162 0
M  V30 1750 C 162.744 -6.65188 -0.55504 0
M  V30 1751 H 162.014 -0.599076 -0.436106 0
M  V30 1752 H 164.661 -1.85296 -0.48351 0
M  V30 1753 H 162.966 -2.51369 -3.00535 0
M  V30 1754 H 164.663 -2.8557 -2.81515 0
M  V30 1755 H 161.253 -3.88277 -1.8149 0
M  V30 1756 H 165.437 -4.76524 -1.38704 0
M  V30 1757 H 160.693 -6.05899 -0.81833 0
M  V30 1758 H 164.867 -6.95259 -0.398458 0
M  V30 1759 H 162.494 -7.60123 -0.108311 0
M  V30 1760 N 164.069 0.697108 -1.41344 0
M  V30 1761 C 165.002 1.82134 -1.37486 0
M  V30 1762 C 165.98 1.60784 -0.242351 0
M  V30 1763 O 167.164 1.83553 -0.429012 0
M  V30 1764 C 164.291 3.18788 -1.14421 0
M  V30 1765 C 163.337 3.58932 -2.3037 0
M  V30 1766 S 164.17 3.63916 -3.92843 0
M  V30 1767 C 165.326 5.03298 -3.72078 0
M  V30 1768 H 165.559 1.85129 -2.32625 0
M  V30 1769 H 163.092 0.865671 -1.2785 0
M  V30 1770 H 165.05 3.97677 -1.018 0
M  V30 1771 H 163.711 3.13404 -0.20905 0
M  V30 1772 H 162.904 4.58202 -2.09922 0
M  V30 1773 H 162.506 2.87347 -2.39391 0
M  V30 1774 H 164.798 5.90753 -3.31688 0
M  V30 1775 H 165.741 5.28788 -4.70945 0
M  V30 1776 H 166.149 4.74764 -3.05384 0
M  V30 1777 N 165.547 1.27147 0.931209 0
M  V30 1778 C 166.777 1.15914 1.71019 0
M  V30 1779 C 167.185 -0.287112 1.87009 0
M  V30 1780 O 166.528 -1.20761 1.38429 0
M  V30 1781 C 166.59 1.76647 3.13107 0
M  V30 1782 C 166.254 3.25807 3.20467 0
M  V30 1783 C 167.251 4.22489 3.02983 0
M  V30 1784 C 164.936 3.66452 3.43538 0
M  V30 1785 C 166.93 5.57794 3.08454 0
M  V30 1786 C 164.617 5.01888 3.48643 0
M  V30 1787 C 165.615 5.97369 3.31119 0
M  V30 1788 O 165.303 7.30337 3.35952 0
M  V30 1789 H 165.035 0.404062 0.54195 0
M  V30 1790 H 167.589 1.68457 1.17521 0
M  V30 1791 H 165.819 1.18578 3.68071 0
M  V30 1792 H 167.508 1.60179 3.72958 0
M  V30 1793 H 168.274 3.92425 2.85004 0
M  V30 1794 H 164.153 2.92611 3.5623 0
M  V30 1795 H 167.697 6.32298 2.94694 0
M  V30 1796 H 163.594 5.31609 3.66145 0
M  V30 1797 H 164.362 7.38739 3.5243 0
M  V30 1798 N 167.025 -1.13721 1.09112 0
M  V30 1799 C 167.935 -2.22638 0.73957 0
M  V30 1800 C 168.951 -1.72091 -0.257068 0
M  V30 1801 O 170.127 -2.01155 -0.0992154 0
M  V30 1802 C 167.192 -3.46322 0.16191 0
M  V30 1803 C 166.253 -4.11775 1.21408 0
M  V30 1804 C 165.486 -5.29555 0.663891 0
M  V30 1805 O 165.709 -5.68077 -0.514274 0
M  V30 1806 O 164.643 -5.84973 1.41738 0
M  V30 1807 H 168.469 -2.55074 1.64836 0
M  V30 1808 H 166.054 -1.21791 0.865289 0
M  V30 1809 H 167.936 -4.21107 -0.157073 0
M  V30 1810 H 166.611 -3.15593 -0.719932 0
M  V30 1811 H 165.518 -3.3883 1.58571 0
M  V30 1812 H 166.851 -4.46627 2.06845 0
M  V30 1813 N 168.503 -0.877838 -1.30888 0
M  V30 1814 C 169.733 -0.506678 -2.00291 0
M  V30 1815 C 170.141 0.907449 -1.66018 0
M  V30 1816 O 169.484 1.60719 -0.88967 0
M  V30 1817 C 169.546 -0.59323 -3.54572 0
M  V30 1818 C 169.21 -1.97038 -4.12341 0
M  V30 1819 C 170.207 -2.93889 -4.28865 0
M  V30 1820 C 167.892 -2.27383 -4.47886 0
M  V30 1821 C 169.886 -4.19224 -4.80136 0
M  V30 1822 C 167.573 -3.52965 -4.98857 0
M  V30 1823 C 168.571 -4.48701 -5.14934 0
M  V30 1824 O 168.259 -5.72056 -5.64808 0
M  V30 1825 H 167.991 -0.1951 -0.647234 0
M  V30 1826 H 170.545 -1.18301 -1.6791 0
M  V30 1827 H 168.775 0.140057 -3.86446 0
M  V30 1828 H 170.464 -0.234372 -4.05223 0
M  V30 1829 H 171.23 -2.71756 -4.01714 0
M  V30 1830 H 167.109 -1.53639 -4.34645 0
M  V30 1831 H 170.653 -4.93956 -4.92599 0
M  V30 1832 H 166.55 -3.74939 -5.25443 0
M  V30 1833 H 167.318 -5.74337 -5.83163 0
M  V30 1834 N 169.982 1.44106 -0.638065 0
M  V30 1835 C 171.398 1.56672 -0.304286 0
M  V30 1836 C 171.598 1.6244 1.19228 0
M  V30 1837 O 170.654 1.57121 1.9766 0
M  V30 1838 C 171.967 2.83503 -1.00231 0
M  V30 1839 C 173.515 2.97226 -0.981116 0
M  V30 1840 C 173.99 4.26868 -1.65974 0
M  V30 1841 N 175.481 4.33698 -1.62666 0
M  V30 1842 C 176.216 5.32745 -2.12063 0
M  V30 1843 N 175.712 6.38157 -2.6968 0
M  V30 1844 N 177.505 5.24299 -2.02651 0
M  V30 1845 H 169.656 1.38605 -1.60942 0
M  V30 1846 H 171.919 0.664661 -0.675965 0
M  V30 1847 H 171.625 2.85251 -2.0573 0
M  V30 1848 H 171.499 3.73251 -0.54439 0
M  V30 1849 H 173.886 2.95027 0.0654188 0
M  V30 1850 H 173.967 2.08808 -1.47759 0
M  V30 1851 H 173.611 4.29826 -2.70576 0
M  V30 1852 H 173.541 5.14156 -1.13804 0
M  V30 1853 H 176.032 3.58138 -1.20606 0
M  V30 1854 H 176.345 7.10029 -3.05087 0
M  V30 1855 H 174.69 6.38823 -2.73734 0
M  V30 1856 H 177.881 4.4086 -1.57353 0
M  V30 1857 H 178.054 6.01334 -2.41457 0
M  V30 1858 N 171.46 0.379036 1.52974 0
M  V30 1859 C 172.37 -0.468639 2.29872 0
M  V30 1860 C 173.386 -1.08067 1.36373 0
M  V30 1861 O 174.562 -1.08871 1.69438 0
M  V30 1862 C 171.627 -1.58594 3.083 0
M  V30 1863 C 170.688 -1.00007 4.17489 0
M  V30 1864 C 169.921 -2.06413 4.92168 0
M  V30 1865 O 170.144 -3.27751 4.66835 0
M  V30 1866 O 169.078 -1.68717 5.7777 0
M  V30 1867 H 172.904 0.157508 3.03291 0
M  V30 1868 H 170.489 0.143035 1.48714 0
M  V30 1869 H 172.371 -2.23525 3.57232 0
M  V30 1870 H 171.046 -2.19724 2.37703 0
M  V30 1871 H 169.953 -0.314299 3.72777 0
M  V30 1872 H 171.286 -0.433135 4.90291 0
M  V30 1873 N 172.938 -1.57226 0.108567 0
M  V30 1874 C 173.901 -2.13602 -0.831082 0
M  V30 1875 C 174.901 -1.06841 -1.20173 0
M  V30 1876 O 176.091 -1.32666 -1.12895 0
M  V30 1877 C 173.223 -2.66769 -2.12243 0
M  V30 1878 H 174.416 -2.97951 -0.341317 0
M  V30 1879 H 171.969 -1.55667 -0.14057 0
M  V30 1880 H 172.704 -1.85977 -2.65675 0
M  V30 1881 H 172.489 -3.44839 -1.86625 0
M  V30 1882 H 173.979 -3.10332 -2.79435 0
M  V30 1883 N 174.416 0.165178 -1.56732 0
M  V30 1884 C 175.832 0.517174 -1.50988 0
M  V30 1885 C 176.032 1.84331 -0.813894 0
M  V30 1886 O 175.088 2.49672 -0.37682 0
M  V30 1887 C 176.401 0.544261 -2.95733 0
M  V30 1888 C 177.949 0.631039 -3.06573 0
M  V30 1889 C 178.424 0.68896 -4.52788 0
M  V30 1890 N 179.915 0.751683 -4.5706 0
M  V30 1891 C 180.65 0.817177 -5.67547 0
M  V30 1892 N 180.146 0.843129 -6.8765 0
M  V30 1893 N 181.939 0.856668 -5.55534 0
M  V30 1894 H 174.09 -0.704318 -2.00382 0
M  V30 1895 H 176.353 -0.254687 -0.913148 0
M  V30 1896 H 176.059 -0.361607 -3.49836 0
M  V30 1897 H 175.933 1.3886 -3.5071 0
M  V30 1898 H 178.32 1.52733 -2.52501 0
M  V30 1899 H 178.401 -0.240095 -2.54671 0
M  V30 1900 H 178.045 -0.2031 -5.07494 0
M  V30 1901 H 177.975 1.57633 -5.02454 0
M  V30 1902 H 180.466 0.739661 -3.70591 0
M  V30 1903 H 180.779 0.894448 -7.67606 0
M  V30 1904 H 179.124 0.811304 -6.90248 0
M  V30 1905 H 182.315 0.833437 -4.60621 0
M  V30 1906 H 182.488 0.904247 -6.4166 0
M  V30 1907 N 175.894 1.51508 0.433938 0
M  V30 1908 C 177.142 1.6402 1.18075 0
M  V30 1909 C 177.463 0.360328 1.91642 0
M  V30 1910 O 176.733 -0.623945 1.85698 0
M  V30 1911 H 175.313 0.6045 0.43885 0
M  V30 1912 H 177.975 1.88452 0.497178 0
M  V30 1913 H 177.071 2.46949 1.90847 0
M  V30 1914 N 177.372 -0.689602 1.41712 0
M  V30 1915 C 178.322 -1.79571 1.40493 0
M  V30 1916 C 179.306 -1.58473 0.278409 0
M  V30 1917 O 180.498 -1.69204 0.519532 0
M  V30 1918 C 177.627 -3.17923 1.29536 0
M  V30 1919 C 176.713 -3.44695 2.47075 0
M  V30 1920 N 177.104 -3.42132 3.72531 0
M  V30 1921 C 175.402 -3.75269 2.41017 0
M  V30 1922 C 176.103 -3.67976 4.50521 0
M  V30 1923 N 175.079 -3.88014 3.80718 0
M  V30 1924 H 178.881 -1.75961 2.35404 0
M  V30 1925 H 176.395 -0.889839 1.35851 0
M  V30 1926 H 178.392 -3.97167 1.26745 0
M  V30 1927 H 177.052 -3.22741 0.356153 0
M  V30 1928 H 178.063 -3.22375 4.05333 0
M  V30 1929 H 174.74 -3.87421 1.55599 0
M  V30 1930 H 176.13 -3.7208 5.59469 0
M  V30 1931 N 178.85 -1.27639 -0.924453 0
M  V30 1932 C 180.078 -1.16989 -1.70649 0
M  V30 1933 C 180.493 0.272869 -1.86818 0
M  V30 1934 O 179.85 1.18549 -1.38753 0
M  V30 1935 C 179.901 -1.85229 -3.10439 0
M  V30 1936 O 179.622 -3.23868 -2.95028 0
M  V30 1937 C 181.123 -1.80746 -4.04779 0
M  V30 1938 H 178.343 -0.406595 -0.53378 0
M  V30 1939 H 180.887 -1.68569 -1.15778 0
M  V30 1940 H 179.042 -1.37545 -3.6216 0
M  V30 1941 H 179.456 -3.57889 -3.83426 0
M  V30 1942 H 180.93 -2.33101 -5.00368 0
M  V30 1943 H 181.407 -0.777499 -4.32263 0
M  V30 1944 H 182.013 -2.28059 -3.58984 0
M  V30 1945 N 180.328 1.1314 -1.09713 0
M  V30 1946 C 181.558 1.88048 -0.855656 0
M  V30 1947 C 181.966 1.79537 0.596919 0
M  V30 1948 O 181.309 1.16196 1.42282 0
M  V30 1949 C 181.371 3.38314 -1.21589 0
M  V30 1950 C 181.035 3.70605 -2.67397 0
M  V30 1951 C 182.032 3.69596 -3.65643 0
M  V30 1952 C 179.717 4.0017 -3.03593 0
M  V30 1953 C 181.711 3.977 -4.9811 0
M  V30 1954 C 179.398 4.27935 -4.36251 0
M  V30 1955 C 180.396 4.26685 -5.33318 0
M  V30 1956 O 180.084 4.53767 -6.63589 0
M  V30 1957 H 179.816 0.60208 -0.307368 0
M  V30 1958 H 182.37 1.44128 -1.46343 0
M  V30 1959 H 180.6 3.82752 -0.551177 0
M  V30 1960 H 182.289 3.94552 -0.953083 0
M  V30 1961 H 183.055 3.46826 -3.39023 0
M  V30 1962 H 178.934 4.00289 -2.2867 0
M  V30 1963 H 182.478 3.9664 -5.73866 0
M  V30 1964 H 178.375 4.50178 -4.62613 0
M  V30 1965 H 179.143 4.71422 -6.69107 0
M  V30 1966 N 181.806 0.884767 1.30421 0
M  V30 1967 C 182.769 0.356277 2.26414 0
M  V30 1968 C 183.769 -0.501124 1.52792 0
M  V30 1969 O 184.959 -0.30831 1.7145 0
M  V30 1970 C 182.091 -0.492316 3.37326 0
M  V30 1971 H 183.284 1.20389 2.74675 0
M  V30 1972 H 180.837 0.661607 1.41607 0
M  V30 1973 H 181.572 -1.36052 2.94381 0
M  V30 1974 H 181.357 0.121832 3.91911 0
M  V30 1975 H 182.847 -0.853871 4.08777 0
M  V30 1976 N 183.284 -1.43765 0.645699 0
M  V30 1977 C 184.533 -2.01116 0.153412 0
M  V30 1978 C 184.846 -1.51493 -1.23731 0
M  V30 1979 O 186.052 -2.01067 -1.8244 0
M  V30 1980 C 184.508 -3.59206 0.223473 0
M  V30 1981 C 184.116 -4.17823 1.61642 0
M  V30 1982 C 185.86 -4.23972 -0.211597 0
M  V30 1983 C 183.767 -5.68183 1.64081 0
M  V30 1984 H 182.697 -0.752093 0.0535891 0
M  V30 1985 H 185.348 -1.6482 0.806633 0
M  V30 1986 H 183.73 -3.92867 -0.497118 0
M  V30 1987 H 184.904 -3.95674 2.36176 0
M  V30 1988 H 183.219 -3.65399 1.99681 0
M  V30 1989 H 185.816 -5.34275 -0.213112 0
M  V30 1990 H 186.159 -3.97352 -1.24165 0
M  V30 1991 H 186.692 -3.95166 0.456988 0
M  V30 1992 H 183.431 -5.99559 2.64971 0
M  V30 1993 H 182.951 -5.9241 0.938611 0
M  V30 1994 H 184.63 -6.32085 1.3812 0
M  V30 1995 N 184.763 -0.387143 -1.52771 0
M  V30 1996 C 185.695 0.484089 -2.2403 0
M  V30 1997 C 186.708 1.02849 -1.26198 0
M  V30 1998 O 187.897 0.931186 -1.52286 0
M  V30 1999 C 184.997 1.68337 -2.94136 0
M  V30 2000 C 184.17 1.26672 -4.18656 0
M  V30 2001 C 183.229 2.33045 -4.7178 0
M  V30 2002 O 182.255 1.94541 -5.34923 0
M  V30 2003 N 183.457 3.64929 -4.5145 0
M  V30 2004 H 186.222 -0.126404 -2.99433 0
M  V30 2005 H 183.783 -0.213392 -1.60488 0
M  V30 2006 H 185.775 2.39019 -3.26577 0
M  V30 2007 H 184.345 2.20025 -2.22053 0
M  V30 2008 H 183.565 0.388878 -3.92277 0
M  V30 2009 H 184.853 0.964964 -4.99566 0
M  V30 2010 H 184.251 3.98974 -4.01044 0
M  V30 2011 H 182.808 4.31651 -4.88386 0
M  V30 2012 N 186.241 1.57166 -0.116904 0
M  V30 2013 C 187.518 1.86645 0.585049 0
M  V30 2014 C 187.898 1.0177 1.84949 0
M  V30 2015 O 187.246 0.0960379 2.28298 0
M  V30 2016 C 187.456 3.37736 0.879507 0
M  V30 2017 C 188.804 4.06289 1.23348 0
M  V30 2018 O 189.828 3.42743 0.969836 0
M  V30 2019 O 188.687 5.18455 1.7282 0
M  V30 2020 H 185.781 0.772593 0.295007 0
M  V30 2021 H 188.327 1.69025 -0.151249 0
M  V30 2022 H 187.099 3.91296 -0.0166136 0
M  V30 2023 H 186.722 3.6078 1.67103 0
M  V30 2024 N 187.719 -0.156864 1.56817 0
M  V30 2025 C 188.966 -0.871125 1.82805 0
M  V30 2026 C 189.294 -1.81611 0.696262 0
M  V30 2027 O 188.549 -1.93141 -0.315459 0
M  V30 2028 C 188.848 -1.68737 3.1506 0
M  V30 2029 C 188.514 -0.890045 4.42028 0
M  V30 2030 C 187.176 -0.670042 4.76512 0
M  V30 2031 C 189.528 -0.331769 5.20143 0
M  V30 2032 C 186.856 0.119104 5.86579 0
M  V30 2033 C 189.208 0.444365 6.31037 0
M  V30 2034 C 187.872 0.675035 6.64078 0
M  V30 2035 H 187.142 -0.318767 0.668931 0
M  V30 2036 H 189.789 -0.135274 1.91022 0
M  V30 2037 H 188.094 -2.49304 3.0225 0
M  V30 2038 H 189.791 -2.24331 3.3238 0
M  V30 2039 H 186.381 -1.07157 4.14988 0
M  V30 2040 H 190.565 -0.489043 4.93885 0
M  V30 2041 H 185.821 0.307417 6.10627 0
M  V30 2042 H 189.995 0.884139 6.90765 0
M  V30 2043 H 187.622 1.28839 7.49203 0
M  V30 2044 N 189.197 -1.51736 -0.425897 0
M  V30 2045 C 190.127 -1.76827 -1.52494 0
M  V30 2046 C 191.108 -0.618524 -1.58456 0
M  V30 2047 O 192.293 -0.862416 -1.74 0
M  V30 2048 C 189.423 -1.90374 -2.90474 0
M  V30 2049 C 188.377 -3.0588 -2.99369 0
M  V30 2050 C 187.703 -3.04625 -4.3944 0
M  V30 2051 C 189.003 -4.45644 -2.72394 0
M  V30 2052 H 190.697 -2.68855 -1.31748 0
M  V30 2053 H 188.243 -1.29372 -0.632362 0
M  V30 2054 H 190.196 -2.0651 -3.6733 0
M  V30 2055 H 188.92 -0.95004 -3.12477 0
M  V30 2056 H 187.579 -2.89467 -2.24954 0
M  V30 2057 H 187.227 -2.0701 -4.58428 0
M  V30 2058 H 186.927 -3.82195 -4.46319 0
M  V30 2059 H 188.451 -3.22869 -5.18255 0
M  V30 2060 H 189.865 -4.62348 -3.38979 0
M  V30 2061 H 188.262 -5.25006 -2.9067 0
M  V30 2062 H 189.332 -4.54893 -1.67929 0
M  V30 2063 N 190.675 0.682077 -1.42076 0
M  V30 2064 C 191.625 1.78823 -1.41444 0
M  V30 2065 C 192.609 1.58323 -0.28681 0
M  V30 2066 O 193.801 1.68926 -0.528498 0
M  V30 2067 C 190.93 3.17232 -1.3122 0
M  V30 2068 C 190.016 3.4338 -2.489 0
M  V30 2069 N 190.407 3.40152 -3.7434 0
M  V30 2070 C 188.705 3.73986 -2.43003 0
M  V30 2071 C 189.406 3.65581 -4.52466 0
M  V30 2072 N 188.382 3.85989 -3.8277 0
M  V30 2073 H 192.184 1.7471 -2.36334 0
M  V30 2074 H 189.698 0.882622 -1.36321 0
M  V30 2075 H 191.695 3.96489 -1.2885 0
M  V30 2076 H 190.355 3.22547 -0.373263 0
M  V30 2077 H 191.366 3.20221 -4.07037 0
M  V30 2078 H 188.043 3.86591 -1.57651 0
M  V30 2079 H 189.433 3.69108 -5.61435 0
M  V30 2080 N 192.153 1.28127 0.917671 0
M  V30 2081 C 193.402 1.14432 1.66097 0
M  V30 2082 C 193.715 -0.307247 1.93172 0
M  V30 2083 O 194.921 -0.565259 2.65551 0
M  V30 2084 C 193.377 2.00015 2.99202 0
M  V30 2085 C 192.985 3.49889 2.79789 0
M  V30 2086 C 194.729 1.94996 3.77064 0
M  V30 2087 C 192.636 4.27636 4.08511 0
M  V30 2088 H 191.566 0.424662 0.62304 0
M  V30 2089 H 194.217 1.52628 1.01868 0
M  V30 2090 H 192.599 1.54672 3.64544 0
M  V30 2091 H 193.773 4.03162 2.23152 0
M  V30 2092 H 192.088 3.56392 2.15345 0
M  V30 2093 H 194.685 2.50354 4.72469 0
M  V30 2094 H 195.028 0.925819 4.05875 0
M  V30 2095 H 195.561 2.38287 3.18534 0
M  V30 2096 H 192.3 5.30615 3.84874 0
M  V30 2097 H 191.82 3.79137 4.64774 0
M  V30 2098 H 193.499 4.37346 4.76799 0
M  V30 2099 N 193.631 -1.12557 1.10312 0
M  V30 2100 C 194.908 -1.80363 0.756878 0
M  V30 2101 C 195.288 -1.97067 -0.756824 0
M  V30 2102 O 194.636 -1.54601 -1.68259 0
M  V30 2103 C 194.846 -3.14812 1.50647 0
M  V30 2104 C 196.194 -3.90029 1.67817 0
M  V30 2105 O 197.218 -3.24464 1.46974 0
M  V30 2106 O 196.077 -5.07652 2.02365 0
M  V30 2107 H 193.171 -0.780667 0.272926 0
M  V30 2108 H 195.717 -1.19404 1.20586 0
M  V30 2109 H 194.489 -2.97936 2.53672 0
M  V30 2110 H 194.112 -3.83478 1.05026 0
M  V30 2111 N 195.109 -0.891671 -1.2995 0
M  V30 2112 C 196.525 -0.58662 -1.48428 0
M  V30 2113 C 196.725 0.873951 -1.81561 0
M  V30 2114 O 195.781 1.65471 -1.90724 0
M  V30 2115 C 197.094 -1.50553 -2.60296 0
M  V30 2116 C 198.642 -1.50988 -2.74175 0
M  V30 2117 C 199.117 -2.41488 -3.89163 0
M  V30 2118 N 200.608 -2.39489 -3.96483 0
M  V30 2119 C 201.343 -3.06223 -4.84784 0
M  V30 2120 N 200.839 -3.82206 -5.77833 0
M  V30 2121 N 202.632 -2.95421 -4.78208 0
M  V30 2122 H 194.783 -1.83644 -1.06718 0
M  V30 2123 H 197.046 -0.786455 -0.529332 0
M  V30 2124 H 196.752 -2.54581 -2.42654 0
M  V30 2125 H 196.626 -1.22008 -3.56923 0
M  V30 2126 H 199.013 -0.47708 -2.91218 0
M  V30 2127 H 199.094 -1.83567 -1.78148 0
M  V30 2128 H 198.738 -3.44857 -3.72876 0
M  V30 2129 H 198.668 -2.06222 -4.84541 0
M  V30 2130 H 201.159 -1.84278 -3.29924 0
M  V30 2131 H 201.472 -4.302 -6.41988 0
M  V30 2132 H 199.817 -3.86313 -5.77743 0
M  V30 2133 H 203.008 -2.35581 -4.04499 0
M  V30 2134 H 203.181 -3.47704 -5.46814 0
M  V30 2135 N 196.587 1.43421 -0.653314 0
M  V30 2136 C 197.836 2.01032 -0.164076 0
M  V30 2137 C 198.149 1.52147 1.22926 0
M  V30 2138 O 199.355 2.02031 1.81371 0
M  V30 2139 C 197.811 3.59082 -0.24252 0
M  V30 2140 C 197.419 4.1696 -1.63855 0
M  V30 2141 C 199.163 4.24079 0.18911 0
M  V30 2142 C 197.07 5.67304 -1.67092 0
M  V30 2143 H 196 0.751798 -0.0575769 0
M  V30 2144 H 198.651 1.6439 -0.815362 0
M  V30 2145 H 197.033 3.93125 0.476276 0
M  V30 2146 H 198.207 3.94416 -2.38271 0
M  V30 2147 H 196.522 3.64335 -2.01616 0
M  V30 2148 H 199.119 5.34381 0.184775 0
M  V30 2149 H 199.462 3.98005 1.22056 0
M  V30 2150 H 199.995 3.94918 -0.477938 0
M  V30 2151 H 196.734 5.98145 -2.68146 0
M  V30 2152 H 196.254 5.91904 -0.970014 0
M  V30 2153 H 197.933 6.31344 -1.4147 0
M  V30 2154 N 198.065 0.39524 1.52563 0
M  V30 2155 C 199.013 -0.451859 2.28169 0
M  V30 2156 C 200.007 -1.05792 1.32304 0
M  V30 2157 O 201.213 -0.997718 1.49818 0
M  V30 2158 H 197.588 -0.164481 0.733792 0
M  V30 2159 H 199.559 0.207199 2.9768 0
M  V30 2160 C 198.308 -1.56385 3.10546 0
M  V30 2161 H 197.631 -1.10682 3.84174 0
M  V30 2162 H 199.071 -2.13067 3.66577 0
M  V30 2163 C 197.53 -2.52328 2.23231 0
M  V30 2164 O 198.06 -3.5588 1.86312 0
M  V30 2165 N 196.266 -2.22209 1.87274 0
M  V30 2166 H 195.813 -1.38033 2.17496 0
M  V30 2167 H 195.771 -2.86652 1.29143 0
M  V30 2168 N 199.544 -1.57102 0.125237 0
M  V30 2169 C 200.96 -1.57915 -0.231322 0
M  V30 2170 C 201.16 -1.13833 -1.66266 0
M  V30 2171 O 200.216 -0.828581 -2.38518 0
M  V30 2172 C 201.529 -3.00699 0.00766489 0
M  V30 2173 C 203.077 -3.12947 -0.0577483 0
M  V30 2174 C 203.552 -4.57742 0.153626 0
M  V30 2175 N 205.043 -4.63092 0.0998073 0
M  V30 2176 C 205.778 -5.72905 0.238174 0
M  V30 2177 N 205.274 -6.91445 0.433057 0
M  V30 2178 N 207.067 -5.6182 0.177308 0
M  V30 2179 H 199.218 -1.84055 1.06007 0
M  V30 2180 H 201.481 -0.850905 0.417929 0
M  V30 2181 H 201.187 -3.3726 0.997431 0
M  V30 2182 H 201.061 -3.70236 -0.721452 0
M  V30 2183 H 203.448 -2.7624 -1.03804 0
M  V30 2184 H 203.529 -2.4594 0.70335 0
M  V30 2185 H 203.173 -4.95149 1.13092 0
M  V30 2186 H 203.103 -5.22848 -0.627534 0
M  V30 2187 H 205.594 -3.77871 -0.047051 0
M  V30 2188 H 205.907 -7.70985 0.529332 0
M  V30 2189 H 204.252 -6.93415 0.469109 0
M  V30 2190 H 207.443 -4.68093 0.0259748 0
M  V30 2191 H 207.616 -6.47357 0.288582 0
M  V30 2192 N 201.022 0.148545 -1.56898 0
M  V30 2193 C 202.252 0.875118 -1.8715 0
M  V30 2194 C 202.66 1.75322 -0.711262 0
M  V30 2195 O 202.003 1.80745 0.328151 0
M  V30 2196 C 202.065 1.7844 -3.12089 0
M  V30 2197 C 201.729 1.08361 -4.43967 0
M  V30 2198 C 202.726 0.438247 -5.1805 0
M  V30 2199 C 200.411 1.07358 -4.90693 0
M  V30 2200 C 202.405 -0.20779 -6.37061 0
M  V30 2201 C 200.092 0.42373 -6.09629 0
M  V30 2202 C 201.09 -0.215829 -6.82659 0
M  V30 2203 O 200.778 -0.855378 -7.99336 0
M  V30 2204 H 200.51 0.258504 -0.624621 0
M  V30 2205 H 203.064 0.14652 -2.04877 0
M  V30 2206 H 201.294 2.55389 -2.90367 0
M  V30 2207 H 202.983 2.38279 -3.286 0
M  V30 2208 H 203.749 0.437817 -4.8302 0
M  V30 2209 H 199.628 1.5608 -4.33774 0
M  V30 2210 H 203.172 -0.70758 -6.94002 0
M  V30 2211 H 199.069 0.421822 -6.4412 0
M  V30 2212 H 199.837 -0.756892 -8.14993 0
M  V30 2213 N 202.5 1.5196 0.417844 0
M  V30 2214 C 203.463 1.74065 1.49111 0
M  V30 2215 C 204.463 0.610537 1.48758 0
M  V30 2216 O 205.653 0.87832 1.50437 0
M  V30 2217 C 202.785 1.81502 2.88565 0
M  V30 2218 H 203.978 2.69869 1.30807 0
M  V30 2219 H 201.531 1.42244 0.647785 0
M  V30 2220 H 202.266 0.875813 3.1225 0
M  V30 2221 H 202.051 2.63651 2.90225 0
M  V30 2222 H 203.541 2.00376 3.66387 0
M  V30 2223 N 203.978 -0.674533 1.42435 0
M  V30 2224 C 204.888 -1.81751 1.48337 0
M  V30 2225 C 205.904 -1.69975 0.372099 0
M  V30 2226 O 207.08 -1.91521 0.62304 0
M  V30 2227 C 204.145 -3.17895 1.38361 0
M  V30 2228 C 203.206 -3.41625 2.59982 0
M  V30 2229 C 202.439 -4.71274 2.50473 0
M  V30 2230 O 202.662 -5.49197 1.54075 0
M  V30 2231 O 201.596 -4.96254 3.4061 0
M  V30 2232 H 205.422 -1.79728 2.44809 0
M  V30 2233 H 203.007 -0.830312 1.24202 0
M  V30 2234 H 204.889 -3.99136 1.35161 0
M  V30 2235 H 203.564 -3.20555 0.450144 0
M  V30 2236 H 202.471 -2.60231 2.68757 0
M  V30 2237 H 203.804 -3.43796 3.52229 0
M  V30 2238 N 205.456 -1.28612 -0.910864 0
M  V30 2239 C 206.403 -1.12786 -2.01365 0
M  V30 2240 C 207.373 -0.024201 -1.66082 0
M  V30 2241 O 208.558 -0.189667 -1.89855 0
M  V30 2242 C 205.698 -0.798743 -3.35729 0
M  V30 2243 C 204.811 -1.98173 -3.83864 0
M  V30 2244 C 203.946 -1.59298 -5.06752 0
M  V30 2245 C 202.985 -2.74245 -5.47226 0
M  V30 2246 N 202.122 -2.35842 -6.61304 0
M  V30 2247 H 206.962 -2.07142 -2.14234 0
M  V30 2248 H 204.499 -1.03093 -1.0493 0
M  V30 2249 H 206.457 -0.588662 -4.13026 0
M  V30 2250 H 205.087 0.10789 -3.2262 0
M  V30 2251 H 204.139 -2.30386 -3.02699 0
M  V30 2252 H 205.451 -2.84343 -4.09818 0
M  V30 2253 H 204.605 -1.34513 -5.916 0
M  V30 2254 H 203.344 -0.702618 -4.82612 0
M  V30 2255 H 202.349 -2.99725 -4.60918 0
M  V30 2256 H 203.574 -3.63928 -5.73353 0
M  V30 2257 H 201.52 -1.49279 -6.38789 0
M  V30 2258 H 201.437 -3.15546 -6.86998 0
M  V30 2259 H 202.705 -2.14348 -7.4945 0
M  V30 2260 N 206.934 1.1197 -1.10907 0
M  V30 2261 C 208.182 1.83225 -0.852819 0
M  V30 2262 C 208.503 1.84769 0.623341 0
M  V30 2263 O 207.773 1.3143 1.45269 0
M  V30 2264 H 206.353 0.67849 -0.312507 0
M  V30 2265 H 209.015 1.3556 -1.40033 0
M  V30 2266 H 208.111 2.87265 -1.22005 0
M  V30 2267 N 208.412 0.89855 1.29475 0
M  V30 2268 C 209.66 0.522847 1.9522 0
M  V30 2269 C 209.981 -0.93371 1.71192 0
M  V30 2270 O 209.251 -1.65823 1.04305 0
M  V30 2271 H 207.831 0.190366 0.722336 0
M  V30 2272 H 210.493 1.14459 1.5775 0
M  V30 2273 H 209.589 0.704476 3.04045 0
M  V30 2274 N 209.89 -1.43072 0.660911 0
M  V30 2275 C 210.82 -2.33497 -0.0122829 0
M  V30 2276 C 211.801 -1.49903 -0.803925 0
M  V30 2277 O 212.986 -1.78546 -0.763864 0
M  V30 2278 C 210.116 -3.33363 -0.973994 0
M  V30 2279 C 209.07 -4.27003 -0.291928 0
M  V30 2280 C 208.396 -5.16967 -1.36562 0
M  V30 2281 C 209.696 -5.15816 0.820462 0
M  V30 2282 H 211.39 -2.90038 0.742873 0
M  V30 2283 H 208.936 -1.39461 0.358688 0
M  V30 2284 H 210.889 -3.95524 -1.45392 0
M  V30 2285 H 209.613 -2.75095 -1.7604 0
M  V30 2286 H 208.272 -3.66217 0.167623 0
M  V30 2287 H 207.92 -4.55034 -2.14366 0
M  V30 2288 H 207.62 -5.80441 -0.914454 0
M  V30 2289 H 209.144 -5.82003 -1.84675 0
M  V30 2290 H 210.558 -5.71742 0.422366 0
M  V30 2291 H 208.955 -5.8805 1.19656 0
M  V30 2292 H 210.025 -4.55045 1.67518 0
M  V30 2293 N 211.368 -0.403325 -1.52352 0
M  V30 2294 C 212.779 0.0675782 -1.86578 0
M  V30 2295 C 213.13 1.44941 -1.32236 0
M  V30 2296 O 212.255 2.06112 -0.659307 0
M  V30 2297 C 212.85 0.129404 -3.38553 0
M  V30 2298 C 211.409 0.544629 -3.72439 0
M  V30 2299 C 210.556 -0.284551 -2.75836 0
M  V30 2300 H 213.507 -0.620631 -1.46061 0
M  V30 2301 H 213.528 0.94581 -3.68558 0
M  V30 2302 H 213.04 -0.87645 -3.78074 0
M  V30 2303 H 211.141 1.55734 -3.38493 0
M  V30 2304 H 211.254 0.293046 -4.78203 0
M  V30 2305 H 209.618 0.252258 -2.53448 0
M  V30 2306 H 210.401 -1.28865 -3.18196 0
M  V30 2307 N 212.846 1.57033 -0.133567 0
M  V30 2308 C 213.809 2.14897 0.796995 0
M  V30 2309 C 214.809 1.0874 1.18458 0
M  V30 2310 O 215.999 1.34446 1.1077 0
M  V30 2311 C 213.131 2.70112 2.07973 0
M  V30 2312 H 214.324 2.98457 0.293873 0
M  V30 2313 H 211.877 1.55871 0.115787 0
M  V30 2314 H 212.612 1.9018 2.62682 0
M  V30 2315 H 212.397 3.47764 1.81115 0
M  V30 2316 H 213.887 3.14738 2.74462 0
M  V30 2317 N 214.325 -0.140222 1.56975 0
M  V30 2318 C 215.553 -0.866437 1.87884 0
M  V30 2319 C 215.968 -1.74428 0.722517 0
M  V30 2320 O 215.325 -1.79891 -0.30749 0
M  V30 2321 C 215.376 -1.71753 3.18093 0
M  V30 2322 O 215.097 -0.875056 4.29272 0
M  V30 2323 C 216.598 -2.55074 3.62563 0
M  V30 2324 H 213.818 -0.25019 0.622612 0
M  V30 2325 H 216.362 -0.130977 2.0408 0
M  V30 2326 H 214.517 -2.40598 3.03631 0
M  V30 2327 H 214.931 -1.46002 5.03769 0
M  V30 2328 H 216.405 -3.10356 4.5649 0
M  V30 2329 H 216.882 -3.31434 2.88181 0
M  V30 2330 H 217.488 -1.91509 3.79743 0
M  V30 2331 N 215.803 -1.52179 -0.40978 0
M  V30 2332 C 217.043 -1.67882 -1.16597 0
M  V30 2333 C 217.407 -0.399795 -1.87791 0
M  V30 2334 O 218.608 -0.43292 -2.65291 0
M  V30 2335 C 216.879 -2.86662 -2.13448 0
M  V30 2336 S 218.438 -3.22843 -2.97183 0
M  V30 2337 H 215.256 -0.59118 -0.395002 0
M  V30 2338 H 217.858 -1.9017 -0.453373 0
M  V30 2339 H 216.562 -3.77998 -1.59831 0
M  V30 2340 H 216.093 -2.66645 -2.89247 0
M  V30 2341 H 218.108 -2.71415 -4.15389 0
M  V30 2342 N 217.281 0.66697 -1.42791 0
M  V30 2343 C 218.527 1.42754 -1.44889 0
M  V30 2344 C 218.882 1.92283 -0.0669755 0
M  V30 2345 O 218.175 1.68494 0.912154 0
M  V30 2346 C 218.369 2.6349 -2.4147 0
M  V30 2347 C 218.198 2.25776 -3.88915 0
M  V30 2348 C 216.968 2.1476 -4.57391 0
M  V30 2349 C 219.166 1.86927 -4.79127 0
M  V30 2350 N 217.148 1.70232 -5.89826 0
M  V30 2351 C 218.519 1.53378 -6.00729 0
M  V30 2352 C 220.574 1.73989 -4.66511 0
M  V30 2353 C 219.277 1.08187 -7.11117 0
M  V30 2354 C 221.303 1.30203 -5.76889 0
M  V30 2355 C 220.665 0.975818 -6.97608 0
M  V30 2356 H 216.764 0.518559 -0.585338 0
M  V30 2357 H 219.348 0.768906 -1.78874 0
M  V30 2358 H 217.519 3.27033 -2.09533 0
M  V30 2359 H 219.251 3.30123 -2.34096 0
M  V30 2360 H 216.006 2.3408 -4.11708 0
M  V30 2361 H 216.43 1.50369 -6.6009 0
M  V30 2362 H 221.072 1.97853 -3.7365 0
M  V30 2363 H 218.79 0.830701 -8.03819 0
M  V30 2364 H 222.376 1.20701 -5.69142 0
M  V30 2365 H 221.256 0.642157 -7.81566 0
M  V30 2366 N 218.759 1.29093 0.90403 0
M  V30 2367 C 219.707 1.13727 2.02901 0
M  V30 2368 C 220.701 0.0539853 1.69314 0
M  V30 2369 O 221.907 0.213469 1.7873 0
M  V30 2370 H 218.282 0.35117 0.664969 0
M  V30 2371 H 220.253 2.08982 2.13001 0
M  V30 2372 C 219.002 0.826066 3.37745 0
M  V30 2373 H 218.325 1.65164 3.64089 0
M  V30 2374 H 219.765 0.758559 4.17159 0
M  V30 2375 C 218.224 -0.470541 3.33598 0
M  V30 2376 O 218.754 -1.49792 3.72727 0
M  V30 2377 N 216.96 -0.474812 2.86695 0
M  V30 2378 H 216.507 0.361692 2.55048 0
M  V30 2379 H 216.465 -1.34236 2.84303 0
M  V30 2380 N 220.237 -1.11381 1.11499 0
M  V30 2381 C 221.477 -1.84763 0.874188 0
M  V30 2382 C 221.841 -1.82726 -0.589496 0
M  V30 2383 O 223.042 -2.51562 -0.947089 0
M  V30 2384 C 221.313 -3.27931 1.42112 0
M  V30 2385 S 222.872 -4.18557 1.31739 0
M  V30 2386 H 219.69 -0.637115 0.315603 0
M  V30 2387 H 222.292 -1.34097 1.42261 0
M  V30 2388 H 220.996 -3.26978 2.48019 0
M  V30 2389 H 220.527 -3.83665 0.869761 0
M  V30 2390 H 222.542 -4.95396 0.282335 0
M  V30 2391 N 221.715 -0.905404 -1.28997 0
M  V30 2392 C 222.662 -0.385892 -2.27551 0
M  V30 2393 C 223.632 0.535113 -1.57244 0
M  V30 2394 O 224.817 0.459119 -1.85194 0
M  V30 2395 C 221.957 0.375461 -3.43051 0
M  V30 2396 C 221.07 -0.577092 -4.28128 0
M  V30 2397 C 220.205 0.201879 -5.30816 0
M  V30 2398 C 219.244 -0.744829 -6.07551 0
M  V30 2399 N 218.381 9.42587e-05 -7.021 0
M  V30 2400 H 223.221 -1.23139 -2.71368 0
M  V30 2401 H 220.758 -0.618542 -1.33463 0
M  V30 2402 H 222.716 0.832992 -4.088 0
M  V30 2403 H 221.346 1.18537 -3.00248 0
M  V30 2404 H 220.398 -1.15315 -3.62501 0
M  V30 2405 H 221.71 -1.30152 -4.8152 0
M  V30 2406 H 220.864 0.720351 -6.02408 0
M  V30 2407 H 219.603 0.959413 -4.7817 0
M  V30 2408 H 218.608 -1.27475 -5.34818 0
M  V30 2409 H 219.833 -1.50178 -6.62286 0
M  V30 2410 H 217.779 0.739791 -6.51815 0
M  V30 2411 H 217.696 -0.664321 -7.53076 0
M  V30 2412 H 218.964 0.498644 -7.77903 0
M  V30 2413 N 223.193 1.4272 -0.668489 0
M  V30 2414 C 224.421 2.05966 -0.196348 0
M  V30 2415 C 224.836 1.50191 1.14403 0
M  V30 2416 O 224.193 0.639208 1.7094 0
M  V30 2417 C 224.244 3.61314 -0.115815 0
M  V30 2418 O 223.965 4.1502 -1.40322 0
M  V30 2419 C 225.466 4.41663 0.380579 0
M  V30 2420 H 222.686 0.663954 -0.0969829 0
M  V30 2421 H 225.23 1.82966 -0.913446 0
M  V30 2422 H 223.385 3.83448 0.551931 0
M  V30 2423 H 223.799 5.08832 -1.27243 0
M  V30 2424 H 225.273 5.5065 0.385848 0
M  V30 2425 H 225.75 4.15792 1.41471 0
M  V30 2426 H 226.356 4.24534 -0.255209 0
M  V30 2427 N 224.671 0.411399 1.52136 0
M  V30 2428 C 226.082 -0.0576826 1.86611 0
M  V30 2429 C 226.433 -1.44238 1.33003 0
M  V30 2430 O 225.558 -2.05759 0.670228 0
M  V30 2431 C 226.153 -0.111448 3.38617 0
M  V30 2432 C 224.712 -0.52487 3.72723 0
M  V30 2433 C 223.859 0.299176 2.75681 0
M  V30 2434 H 226.81 0.628368 1.4573 0
M  V30 2435 H 226.831 -0.926252 3.69054 0
M  V30 2436 H 226.343 0.896488 3.77604 0
M  V30 2437 H 224.444 -1.53936 3.39315 0
M  V30 2438 H 224.557 -0.267681 4.78352 0
M  V30 2439 H 222.921 -0.238814 2.53578 0
M  V30 2440 H 223.704 1.3055 3.17508 0
M  V30 2441 N 226.149 -1.5696 0.141893 0
M  V30 2442 C 227.096 -2.16501 -0.799737 0
M  V30 2443 C 228.066 -1.09643 -1.24771 0
M  V30 2444 O 229.251 -1.3766 -1.32115 0
M  V30 2445 C 226.391 -2.78679 -2.03549 0
M  V30 2446 C 225.504 -3.99914 -1.6338 0
M  V30 2447 C 224.639 -4.50106 -2.82096 0
M  V30 2448 C 223.678 -5.63819 -2.38275 0
M  V30 2449 N 222.815 -6.08651 -3.49983 0
M  V30 2450 H 227.655 -2.96632 -0.285179 0
M  V30 2451 H 225.192 -1.46533 -0.129053 0
M  V30 2452 H 227.15 -3.1287 -2.75986 0
M  V30 2453 H 225.78 -2.012 -2.52425 0
M  V30 2454 H 224.832 -3.71735 -0.807279 0
M  V30 2455 H 226.144 -4.82311 -1.27192 0
M  V30 2456 H 225.298 -4.86325 -3.62729 0
M  V30 2457 H 224.037 -3.66706 -3.21525 0
M  V30 2458 H 223.042 -5.2718 -1.56081 0
M  V30 2459 H 224.267 -6.49 -1.99938 0
M  V30 2460 H 222.213 -5.28188 -3.89042 0
M  V30 2461 H 222.13 -6.85961 -3.17794 0
M  V30 2462 H 223.398 -6.49515 -4.30988 0
M  V30 2463 N 227.627 0.131896 -1.57047 0
M  V30 2464 C 228.56 1.19236 -1.94571 0
M  V30 2465 C 229.538 1.40782 -0.813576 0
M  V30 2466 O 230.722 1.55148 -1.07058 0
M  V30 2467 C 227.849 2.54858 -2.23081 0
M  V30 2468 C 226.895 2.49817 -3.45679 0
M  V30 2469 S 227.728 1.95036 -4.98719 0
M  V30 2470 C 228.884 3.32357 -5.30367 0
M  V30 2471 H 229.117 0.872297 -2.84215 0
M  V30 2472 H 226.65 0.338134 -1.50652 0
M  V30 2473 H 228.608 3.32898 -2.40185 0
M  V30 2474 H 227.269 2.84047 -1.34074 0
M  V30 2475 H 226.462 3.49688 -3.62952 0
M  V30 2476 H 226.064 1.79892 -3.27895 0
M  V30 2477 H 228.356 4.28525 -5.2476 0
M  V30 2478 H 229.299 3.19923 -6.31708 0
M  V30 2479 H 229.707 3.3019 -4.57859 0
M  V30 2480 N 229.106 1.52395 0.401703 0
M  V30 2481 C 230.039 1.70999 1.51111 0
M  V30 2482 C 231.017 0.55765 1.52738 0
M  V30 2483 O 232.201 0.785912 1.71335 0
M  V30 2484 C 229.328 1.75607 2.8962 0
M  V30 2485 C 228.374 2.97227 3.05873 0
M  V30 2486 S 229.207 4.57439 2.78405 0
M  V30 2487 C 230.363 4.64844 4.19131 0
M  V30 2488 H 230.596 2.6483 1.35102 0
M  V30 2489 H 228.129 1.42527 0.593762 0
M  V30 2490 H 230.087 1.78947 3.69443 0
M  V30 2491 H 228.748 0.828914 3.02965 0
M  V30 2492 H 227.941 2.96955 4.07227 0
M  V30 2493 H 227.543 2.91813 2.33925 0
M  V30 2494 H 229.835 4.42677 5.12877 0
M  V30 2495 H 230.778 5.66807 4.24424 0
M  V30 2496 H 231.186 3.93804 4.04448 0
M  V30 2497 N 230.584 -0.659388 1.43143 0
M  V30 2498 C 231.494 -1.80167 1.50256 0
M  V30 2499 C 232.51 -1.69571 0.390106 0
M  V30 2500 O 233.686 -1.90849 0.643319 0
M  V30 2501 C 230.751 -3.16409 1.41725 0
M  V30 2502 C 229.812 -3.38848 2.63591 0
M  V30 2503 C 229.045 -4.68591 2.55458 0
M  V30 2504 O 229.268 -5.47532 1.59891 0
M  V30 2505 O 228.202 -4.92614 3.45854 0
M  V30 2506 H 232.028 -1.77121 2.46702 0
M  V30 2507 H 229.613 -0.817092 1.25076 0
M  V30 2508 H 231.495 -3.9768 1.39387 0
M  V30 2509 H 230.17 -3.20059 0.484118 0
M  V30 2510 H 229.077 -2.57366 2.71502 0
M  V30 2511 H 230.41 -3.4004 3.55856 0
M  V30 2512 N 232.062 -1.29571 -0.897171 0
M  V30 2513 C 233.308 -1.18873 -1.65048 0
M  V30 2514 C 233.663 0.256707 -1.9068 0
M  V30 2515 O 232.956 1.18202 -1.50794 0
M  V30 2516 C 233.15 -1.9382 -3.00281 0
M  V30 2517 C 232.979 -3.45503 -2.8785 0
M  V30 2518 C 231.749 -4.14856 -2.88483 0
M  V30 2519 C 233.947 -4.40956 -2.64693 0
M  V30 2520 N 231.929 -5.52886 -2.66815 0
M  V30 2521 C 233.3 -5.66464 -2.5203 0
M  V30 2522 C 235.355 -4.3069 -2.49821 0
M  V30 2523 C 234.058 -6.82871 -2.26008 0
M  V30 2524 C 236.084 -5.46852 -2.25182 0
M  V30 2525 C 235.446 -6.71333 -2.13286 0
M  V30 2526 H 231.545 -0.489998 -0.609447 0
M  V30 2527 H 234.129 -1.63431 -1.05822 0
M  V30 2528 H 232.3 -1.51671 -3.57562 0
M  V30 2529 H 234.032 -1.75366 -3.64731 0
M  V30 2530 H 230.787 -3.66579 -2.99861 0
M  V30 2531 H 231.211 -6.25487 -2.59027 0
M  V30 2532 H 235.853 -3.35141 -2.5776 0
M  V30 2533 H 233.571 -7.78473 -2.16806 0
M  V30 2534 H 237.157 -5.40809 -2.14515 0
M  V30 2535 H 236.037 -7.59701 -1.94485 0
M  V30 2536 N 233.54 1.10788 -1.12088 0
M  V30 2537 C 234.786 1.82942 -0.875226 0
M  V30 2538 C 235.119 1.84779 0.597538 0
M  V30 2539 O 234.394 1.30578 1.44152 0
M  V30 2540 C 234.677 3.29789 -1.44606 0
M  V30 2541 C 234.53 3.36307 -2.98693 0
M  V30 2542 C 235.849 4.26064 -1.10261 0
M  V30 2543 H 232.968 0.664195 -0.319397 0
M  V30 2544 H 235.61 1.29867 -1.38689 0
M  V30 2545 H 233.76 3.75118 -1.01089 0
M  V30 2546 H 235.432 2.99487 -3.50864 0
M  V30 2547 H 233.675 2.76318 -3.34411 0
M  V30 2548 H 234.346 4.39694 -3.33726 0
M  V30 2549 H 236.822 3.88951 -1.4784 0
M  V30 2550 H 235.698 5.27183 -1.52869 0
M  V30 2551 H 235.959 4.42098 -0.0142953 0
M  V30 2552 N 235.018 0.912232 1.28515 0
M  V30 2553 C 235.965 0.397954 2.27343 0
M  V30 2554 C 236.935 -0.526766 1.57526 0
M  V30 2555 O 238.12 -0.449292 1.85435 0
M  V30 2556 C 235.26 -0.357263 3.43246 0
M  V30 2557 C 234.373 0.599788 4.27816 0
M  V30 2558 C 233.508 -0.173725 5.30916 0
M  V30 2559 C 232.547 0.777039 6.07148 0
M  V30 2560 N 231.684 0.0371398 7.0209 0
M  V30 2561 H 236.524 1.24577 2.70711 0
M  V30 2562 H 234.061 0.625612 1.33133 0
M  V30 2563 H 236.019 -0.8113 4.09236 0
M  V30 2564 H 234.649 -1.16943 3.00872 0
M  V30 2565 H 233.701 1.17235 3.61884 0
M  V30 2566 H 235.013 1.32704 4.80823 0
M  V30 2567 H 234.167 -0.688394 6.02782 0
M  V30 2568 H 232.906 -0.934041 4.78672 0
M  V30 2569 H 231.911 1.3031 5.34134 0
M  V30 2570 H 233.136 1.53689 6.61481 0
M  V30 2571 H 231.082 -0.705213 6.52198 0
M  V30 2572 H 230.999 0.704249 7.52713 0
M  V30 2573 H 232.267 -0.457383 7.78157 0
M  V30 2574 N 236.496 -1.42363 0.676048 0
M  V30 2575 C 237.406 -2.346 -0.00153389 0
M  V30 2576 C 238.422 -1.5516 -0.787485 0
M  V30 2577 O 239.598 -1.87723 -0.729521 0
M  V30 2578 C 236.663 -3.33705 -0.940298 0
M  V30 2579 C 235.724 -4.29042 -0.148739 0
M  V30 2580 C 234.957 -5.23413 -1.04279 0
M  V30 2581 O 235.18 -5.22749 -2.28232 0
M  V30 2582 O 234.114 -5.99795 -0.502925 0
M  V30 2583 H 237.94 -2.94082 0.758268 0
M  V30 2584 H 235.525 -1.42888 0.436289 0
M  V30 2585 H 237.407 -3.94586 -1.47917 0
M  V30 2586 H 236.082 -2.76695 -1.67993 0
M  V30 2587 H 234.989 -3.71571 0.43427 0
M  V30 2588 H 236.322 -4.89097 0.551805 0
M  V30 2589 N 237.974 -0.419461 -1.51915 0
M  V30 2590 C 239.199 0.154572 -2.06823 0
M  V30 2591 C 239.624 1.3722 -1.28656 0
M  V30 2592 O 238.982 1.78461 -0.319583 0
M  V30 2593 C 239.03 0.473172 -3.57482 0
M  V30 2594 O 238.134 1.56255 -3.81652 0
M  V30 2595 H 237.475 0.0096924 -0.663929 0
M  V30 2596 H 240.005 -0.595642 -1.95738 0
M  V30 2597 H 240.015 0.728825 -4.01438 0
M  V30 2598 H 238.69 -0.416873 -4.13805 0
M  V30 2599 H 237.267 1.29825 -3.49571 0
M  V30 2600 N 239.452 1.56882 -0.150215 0
M  V30 2601 C 240.7 1.9584 0.499105 0
M  V30 2602 C 241.021 1.03623 1.65188 0
M  V30 2603 O 240.291 0.0984084 1.95653 0
M  V30 2604 H 238.871 0.723119 0.187373 0
M  V30 2605 H 241.533 1.9358 -0.226466 0
M  V30 2606 H 240.629 2.99638 0.873122 0
M  V30 2607 N 240.93 -0.123565 1.57115 0
M  V30 2608 C 242.207 -0.862196 1.75572 0
M  V30 2609 C 242.587 -1.98279 0.724475 0
M  V30 2610 O 241.935 -2.27102 -0.252407 0
M  V30 2611 C 242.145 -1.38309 3.20424 0
M  V30 2612 C 243.493 -1.83724 3.82793 0
M  V30 2613 O 244.517 -1.47999 3.23998 0
M  V30 2614 O 243.376 -2.49685 4.86127 0
M  V30 2615 H 240.47 -0.409113 0.718718 0
M  V30 2616 H 243.016 -0.107661 1.69358 0
M  V30 2617 H 241.788 -0.578889 3.86994 0
M  V30 2618 H 241.411 -2.20046 3.31158 0
M  V30 2619 N 242.408 -1.52605 -0.393616 0
M  V30 2620 C 243.656 -1.67093 -1.13685 0
M  V30 2621 C 243.977 -0.411011 -1.90619 0
M  V30 2622 O 243.247 0.574491 -1.87287 0
M  V30 2623 H 241.827 -0.615923 -0.422668 0
M  V30 2624 H 244.489 -1.89704 -0.447039 0
M  V30 2625 H 243.585 -2.51922 -1.84232 0
M  V30 2626 N 243.887 0.651787 -1.4349 0
M  V30 2627 C 245.134 1.41167 -1.45183 0
M  V30 2628 C 245.462 1.94349 -0.0766601 0
M  V30 2629 O 244.717 1.72804 0.918555 0
M  V30 2630 C 245.016 2.60914 -2.44251 0
M  V30 2631 C 244.682 2.26142 -3.9009 0
M  V30 2632 C 243.344 2.16371 -4.2981 0
M  V30 2633 C 245.696 1.98334 -4.81989 0
M  V30 2634 C 243.024 1.7695 -5.5938 0
M  V30 2635 C 245.376 1.6041 -6.11924 0
M  V30 2636 C 244.04 1.49166 -6.5062 0
M  V30 2637 H 243.31 0.516566 -0.531263 0
M  V30 2638 H 245.957 0.741099 -1.76579 0
M  V30 2639 H 244.262 3.3311 -2.06265 0
M  V30 2640 H 245.959 3.19127 -2.42815 0
M  V30 2641 H 242.549 2.34658 -3.58655 0
M  V30 2642 H 246.733 2.04803 -4.52072 0
M  V30 2643 H 241.989 1.66831 -5.88198 0
M  V30 2644 H 246.163 1.37925 -6.82605 0
M  V30 2645 H 243.79 1.1839 -7.50925 0
M  V30 2646 N 245.365 1.30045 0.890287 0
M  V30 2647 C 246.611 1.19747 1.64415 0
M  V30 2648 C 246.966 -0.246591 1.90813 0
M  V30 2649 O 246.259 -1.174 1.51419 0
M  V30 2650 C 246.453 1.95409 2.99249 0
M  V30 2651 C 246.282 3.47025 2.86013 0
M  V30 2652 C 245.052 4.1638 2.86279 0
M  V30 2653 C 247.25 4.42353 2.62351 0
M  V30 2654 N 245.232 5.54293 2.63879 0
M  V30 2655 C 246.603 5.67792 2.49022 0
M  V30 2656 C 248.658 4.32009 2.47533 0
M  V30 2657 C 247.361 6.8406 2.22383 0
M  V30 2658 C 249.387 5.48038 2.22279 0
M  V30 2659 C 248.749 6.72455 2.09722 0
M  V30 2660 H 244.848 0.493223 0.60684 0
M  V30 2661 H 247.432 1.6399 1.04954 0
M  V30 2662 H 245.603 1.53565 3.56752 0
M  V30 2663 H 247.335 1.77298 3.63796 0
M  V30 2664 H 244.09 3.68164 2.97913 0
M  V30 2665 H 244.514 6.26852 2.55706 0
M  V30 2666 H 249.156 3.36503 2.55979 0
M  V30 2667 H 246.874 7.79612 2.12675 0
M  V30 2668 H 250.46 5.41939 2.11643 0
M  V30 2669 H 249.34 7.60722 1.90453 0
M  V30 2670 N 246.843 -1.10192 1.12674 0
M  V30 2671 C 247.806 -2.14786 0.799979 0
M  V30 2672 C 248.806 -1.59711 -0.18685 0
M  V30 2673 O 249.996 -1.74156 0.0392558 0
M  V30 2674 C 247.128 -3.40374 0.189228 0
M  V30 2675 H 248.321 -2.45203 1.72671 0
M  V30 2676 H 245.874 -1.25597 0.930326 0
M  V30 2677 H 246.609 -3.15577 -0.747107 0
M  V30 2678 H 246.394 -3.81637 0.899766 0
M  V30 2679 H 247.884 -4.17594 -0.0228143 0
M  V30 2680 N 248.321 -0.919034 -1.28029 0
M  V30 2681 C 249.268 -0.410005 -2.27129 0
M  V30 2682 C 250.238 0.518405 -1.57803 0
M  V30 2683 O 251.423 0.439451 -1.8567 0
M  V30 2684 C 248.563 0.339054 -3.4343 0
M  V30 2685 C 247.676 -0.622468 -4.27492 0
M  V30 2686 C 246.811 0.145567 -5.31001 0
M  V30 2687 C 245.85 -0.809226 -6.06727 0
M  V30 2688 N 244.987 -0.0743728 -7.02061 0
M  V30 2689 H 249.827 -1.26011 -2.70047 0
M  V30 2690 H 247.364 -0.632663 -1.328 0
M  V30 2691 H 249.322 0.789586 -4.0966 0
M  V30 2692 H 247.952 1.15346 -3.01488 0
M  V30 2693 H 247.004 -1.19153 -3.61257 0
M  V30 2694 H 248.316 -1.35252 -4.80113 0
M  V30 2695 H 247.47 0.656417 -6.03139 0
M  V30 2696 H 246.209 0.908643 -4.79161 0
M  V30 2697 H 245.214 -1.3314 -5.33436 0
M  V30 2698 H 246.439 -1.57194 -6.60656 0
M  V30 2699 H 244.385 0.670616 -6.52563 0
M  V30 2700 H 244.302 -0.744157 -7.52329 0
M  V30 2701 H 245.57 0.416109 -7.78389 0
M  V30 2702 N 249.799 1.42003 -0.683588 0
M  V30 2703 C 251.076 1.95112 -0.138075 0
M  V30 2704 C 251.456 1.62359 1.34918 0
M  V30 2705 O 250.804 0.924311 2.08971 0
M  V30 2706 C 251.014 3.46505 -0.416581 0
M  V30 2707 C 252.362 4.23254 -0.337834 0
M  V30 2708 O 253.386 3.54468 -0.35082 0
M  V30 2709 O 252.245 5.45743 -0.287596 0
M  V30 2710 H 249.339 0.826961 -0.00797996 0
M  V30 2711 H 251.885 1.51784 -0.758924 0
M  V30 2712 H 250.657 3.63582 -1.4465 0
M  V30 2713 H 250.28 3.969 0.235839 0
M  V30 2714 N 251.277 0.427512 1.51691 0
M  V30 2715 C 252.523 -0.142439 2.02299 0
M  V30 2716 C 252.856 -1.43214 1.31162 0
M  V30 2717 O 252.131 -1.89833 0.423511 0
M  V30 2718 C 252.414 -0.371301 3.58181 0
M  V30 2719 C 252.267 0.936358 4.39946 0
M  V30 2720 C 253.586 -1.14542 4.24933 0
M  V30 2721 H 250.705 -0.0502937 0.735282 0
M  V30 2722 H 253.347 0.564584 1.81418 0
M  V30 2723 H 251.497 -0.973559 3.76104 0
M  V30 2724 H 253.169 1.57184 4.33694 0
M  V30 2725 H 251.412 1.5432 4.05423 0
M  V30 2726 H 252.083 0.730388 5.47147 0
M  V30 2727 H 254.559 -0.635362 4.11221 0
M  V30 2728 H 253.435 -1.27431 5.33903 0
M  V30 2729 H 253.696 -2.17093 3.85127 0
M  V30 2730 N 252.755 -1.56801 0.158532 0
M  V30 2731 C 253.703 -2.18638 -0.793729 0
M  V30 2732 C 254.697 -1.14669 -1.24689 0
M  V30 2733 O 255.903 -1.32895 -1.21403 0
M  V30 2734 H 252.278 -0.700226 -0.274204 0
M  V30 2735 H 254.249 -2.97367 -0.248095 0
M  V30 2736 C 252.998 -2.83139 -2.0181 0
M  V30 2737 H 252.321 -3.62863 -1.67841 0
M  V30 2738 H 253.761 -3.29894 -2.66357 0
M  V30 2739 C 252.22 -1.82244 -2.83353 0
M  V30 2740 O 252.75 -1.3 -3.80083 0
M  V30 2741 N 250.956 -1.51288 -2.48114 0
M  V30 2742 H 250.503 -1.93964 -1.69516 0
M  V30 2743 H 250.461 -0.840296 -3.02963 0
M  V30 2744 N 254.233 0.115231 -1.57178 0
M  V30 2745 C 255.143 1.15994 -2.03918 0
M  V30 2746 C 256.159 1.45103 -0.960268 0
M  V30 2747 O 257.335 1.56144 -1.27204 0
M  V30 2748 C 254.4 2.46568 -2.43732 0
M  V30 2749 C 253.461 2.24822 -3.65723 0
M  V30 2750 C 252.694 3.4917 -4.03629 0
M  V30 2751 O 252.917 4.56623 -3.41835 0
M  V30 2752 O 251.851 3.39949 -4.96708 0
M  V30 2753 H 255.677 0.793019 -2.93164 0
M  V30 2754 H 253.262 0.3263 -1.45793 0
M  V30 2755 H 255.144 3.23492 -2.70057 0
M  V30 2756 H 253.819 2.82726 -1.57631 0
M  V30 2757 H 252.726 1.45744 -3.44542 0
M  V30 2758 H 254.059 1.93566 -4.52541 0
M  V30 2759 N 255.711 1.52812 0.385517 0
M  V30 2760 C 256.958 1.68026 1.1302 0
M  V30 2761 C 257.286 0.421934 1.89868 0
M  V30 2762 O 256.541 -0.595749 1.86412 0
M  V30 2763 C 256.84 2.86856 2.13187 0
M  V30 2764 C 256.506 4.24159 1.5297 0
M  V30 2765 C 255.168 4.61501 1.36274 0
M  V30 2766 C 257.52 5.09627 1.09223 0
M  V30 2767 C 254.848 5.81966 0.743837 0
M  V30 2768 C 257.2 6.30719 0.487411 0
M  V30 2769 C 255.864 6.6679 0.307777 0
M  V30 2770 H 255.134 0.614849 0.413571 0
M  V30 2771 H 257.781 1.86962 0.414405 0
M  V30 2772 H 256.086 2.6235 2.90998 0
M  V30 2773 H 257.783 2.95821 2.70722 0
M  V30 2774 H 254.373 3.94746 1.66954 0
M  V30 2775 H 258.557 4.81343 1.20922 0
M  V30 2776 H 253.813 6.08519 0.592891 0
M  V30 2777 H 257.987 6.96259 0.140143 0
M  V30 2778 H 255.614 7.60001 -0.173879 0
M  V30 2779 N 257.189 -0.644168 1.43834 0
M  V30 2780 C 258.605 -0.960875 1.27434 0
M  V30 2781 C 258.805 -2.00499 0.200618 0
M  V30 2782 O 257.861 -2.49018 -0.417906 0
M  V30 2783 C 259.174 -1.43653 2.64167 0
M  V30 2784 C 260.722 -1.55271 2.71772 0
M  V30 2785 C 261.197 -2.06224 4.08944 0
M  V30 2786 N 262.688 -2.13513 4.11055 0
M  V30 2787 C 263.423 -2.54081 5.14033 0
M  V30 2788 N 262.919 -2.9388 6.27381 0
M  V30 2789 N 264.712 -2.54101 5.01387 0
M  V30 2790 H 256.863 0.0465779 2.12349 0
M  V30 2791 H 259.126 -0.0417638 0.94708 0
M  V30 2792 H 258.832 -0.743706 3.43747 0
M  V30 2793 H 258.706 -2.40993 2.90176 0
M  V30 2794 H 261.093 -2.23653 1.92519 0
M  V30 2795 H 261.174 -0.563395 2.49519 0
M  V30 2796 H 260.818 -1.38441 4.88668 0
M  V30 2797 H 260.748 -3.06003 4.28567 0
M  V30 2798 H 263.239 -1.85493 3.29242 0
M  V30 2799 H 263.552 -3.2361 7.01781 0
M  V30 2800 H 261.897 -2.91663 6.30839 0
M  V30 2801 H 265.088 -2.22391 4.11898 0
M  V30 2802 H 265.261 -2.85394 5.81768 0
M  V30 2803 N 258.668 -1.30515 -0.883378 0
M  V30 2804 C 259.945 -1.10086 -1.6168 0
M  V30 2805 C 260.325 0.349269 -2.08191 0
M  V30 2806 O 259.673 1.34105 -1.85008 0
M  V30 2807 C 259.883 -2.10315 -2.78511 0
M  V30 2808 C 261.231 -2.42119 -3.48803 0
M  V30 2809 O 262.255 -2.08638 -2.88702 0
M  V30 2810 O 261.114 -2.99396 -4.57192 0
M  V30 2811 H 258.208 -0.422907 -0.710689 0
M  V30 2812 H 260.754 -1.41947 -0.930015 0
M  V30 2813 H 259.526 -3.07917 -2.41459 0
M  V30 2814 H 259.149 -1.79282 -3.54886 0
M  V30 2815 N 260.146 1.09593 -1.13257 0
M  V30 2816 C 261.093 2.1618 -0.808381 0
M  V30 2817 C 262.063 1.64517 0.228754 0
M  V30 2818 O 263.248 1.9053 0.101381 0
M  V30 2819 C 260.388 3.43973 -0.278675 0
M  V30 2820 C 259.501 4.09545 -1.37466 0
M  V30 2821 C 258.636 5.25088 -0.803479 0
M  V30 2822 C 257.675 5.82579 -1.87799 0
M  V30 2823 N 256.812 6.89486 -1.32488 0
M  V30 2824 H 261.652 2.43254 -1.72138 0
M  V30 2825 H 259.189 1.19392 -0.859294 0
M  V30 2826 H 261.147 4.17174 0.0465583 0
M  V30 2827 H 259.777 3.17223 0.597459 0
M  V30 2828 H 258.829 3.34226 -1.81652 0
M  V30 2829 H 260.141 4.48307 -2.18684 0
M  V30 2830 H 259.295 6.05178 -0.429427 0
M  V30 2831 H 258.034 4.87684 0.0397956 0
M  V30 2832 H 257.039 5.01152 -2.26113 0
M  V30 2833 H 258.264 6.22045 -2.72463 0
M  V30 2834 H 256.21 6.54064 -0.503575 0
M  V30 2835 H 256.127 7.27007 -2.07355 0
M  V30 2836 H 257.395 7.73336 -0.978336 0
M  V30 2837 N 261.624 0.925811 1.2754 0
M  V30 2838 C 262.873 0.561084 1.93739 0
M  V30 2839 C 263.186 -0.901685 1.73577 0
M  V30 2840 O 264.392 -1.37511 2.34101 0
M  V30 2841 C 262.848 0.952668 3.47062 0
M  V30 2842 C 262.456 2.43599 3.75983 0
M  V30 2843 C 264.2 0.659103 4.19352 0
M  V30 2844 C 262.107 2.76707 5.22673 0
M  V30 2845 H 261.037 0.206122 0.725279 0
M  V30 2846 H 263.688 1.12637 1.44863 0
M  V30 2847 H 262.07 0.316053 3.94737 0
M  V30 2848 H 263.244 3.12035 3.39073 0
M  V30 2849 H 261.559 2.70125 3.16893 0
M  V30 2850 H 264.156 0.882985 5.27359 0
M  V30 2851 H 264.499 -0.403607 4.14339 0
M  V30 2852 H 265.032 1.25473 3.77494 0
M  V30 2853 H 261.771 3.8188 5.32774 0
M  V30 2854 H 261.291 2.12919 5.60737 0
M  V30 2855 H 262.97 2.6435 5.90532 0
M  V30 2856 N 263.102 -1.41638 0.69111 0
M  V30 2857 C 264.379 -1.95036 0.148421 0
M  V30 2858 C 264.759 -1.63072 -1.34055 0
M  V30 2859 O 264.107 -0.93538 -2.08478 0
M  V30 2860 C 264.317 -3.46279 0.434951 0
M  V30 2861 C 265.665 -4.23069 0.360275 0
M  V30 2862 O 266.689 -3.54277 0.369613 0
M  V30 2863 O 265.548 -5.45583 0.316534 0
M  V30 2864 H 262.642 -0.826908 0.0123654 0
M  V30 2865 H 265.188 -1.5138 0.766963 0
M  V30 2866 H 263.96 -3.6281 1.46576 0
M  V30 2867 H 263.583 -3.97019 -0.214787 0
M  V30 2868 N 264.58 -0.43555 -1.51462 0
M  V30 2869 C 265.513 0.421989 -2.24264 0
M  V30 2870 C 266.491 1.02619 -1.26127 0
M  V30 2871 O 267.675 1.069 -1.55257 0
M  V30 2872 C 264.802 1.588 -2.99166 0
M  V30 2873 C 263.848 1.10465 -4.11946 0
M  V30 2874 S 264.681 0.048146 -5.35478 0
M  V30 2875 C 265.837 1.21887 -6.13917 0
M  V30 2876 H 266.07 -0.196102 -2.96653 0
M  V30 2877 H 263.603 -0.220054 -1.52824 0
M  V30 2878 H 265.561 2.25647 -3.42919 0
M  V30 2879 H 264.222 2.1775 -2.26371 0
M  V30 2880 H 263.415 1.97654 -4.63626 0
M  V30 2881 H 263.017 0.51445 -3.70445 0
M  V30 2882 H 265.309 2.13756 -6.42895 0
M  V30 2883 H 266.252 0.742076 -7.04201 0
M  V30 2884 H 266.66 1.45663 -5.45383 0
M  V30 2885 N 266.058 1.56714 -0.166846 0
M  V30 2886 C 267.005 2.17746 0.765193 0
M  V30 2887 C 267.975 1.11614 1.23011 0
M  V30 2888 O 269.16 1.39745 1.29908 0
M  V30 2889 C 266.3 2.81882 1.9909 0
M  V30 2890 C 265.413 4.02462 1.56997 0
M  V30 2891 C 264.548 4.54537 2.749 0
M  V30 2892 C 263.587 5.67538 2.29275 0
M  V30 2893 N 262.724 6.14142 3.40255 0
M  V30 2894 H 267.564 2.97048 0.237952 0
M  V30 2895 H 265.101 1.4672 0.105725 0
M  V30 2896 H 267.059 3.17221 2.70974 0
M  V30 2897 H 265.689 2.05191 2.49192 0
M  V30 2898 H 264.741 3.72973 0.748037 0
M  V30 2899 H 266.053 4.84273 1.19503 0
M  V30 2900 H 265.207 4.92035 3.54946 0
M  V30 2901 H 263.946 3.71774 3.1565 0
M  V30 2902 H 262.951 5.29597 1.47674 0
M  V30 2903 H 264.176 6.52099 1.89588 0
M  V30 2904 H 262.122 5.3431 3.8059 0
M  V30 2905 H 262.039 6.9093 3.06841 0
M  V30 2906 H 263.307 6.56289 4.206 0
M  V30 2907 N 267.536 -0.106894 1.57237 0
M  V30 2908 C 268.813 -0.843526 1.76477 0
M  V30 2909 C 269.193 -1.97499 0.745464 0
M  V30 2910 O 268.541 -2.27357 -0.228306 0
M  V30 2911 C 268.751 -1.34903 3.21873 0
M  V30 2912 C 270.099 -1.79654 3.8472 0
M  V30 2913 O 271.123 -1.44554 3.2555 0
M  V30 2914 O 269.982 -2.44515 4.88748 0
M  V30 2915 H 267.076 -0.401468 0.723016 0
M  V30 2916 H 269.622 -0.0896927 1.69463 0
M  V30 2917 H 268.394 -0.53781 3.87586 0
M  V30 2918 H 268.017 -2.16522 3.33473 0
M  V30 2919 N 269.014 -1.53014 -0.377408 0
M  V30 2920 C 269.964 -1.74996 -1.46152 0
M  V30 2921 C 270.948 -0.604236 -1.49123 0
M  V30 2922 O 272.14 -0.862489 -1.54564 0
M  V30 2923 C 269.269 -1.93267 -2.8373 0
M  V30 2924 C 268.355 -3.13807 -2.85283 0
M  V30 2925 N 268.746 -4.35941 -2.56493 0
M  V30 2926 C 267.044 -3.14288 -3.16448 0
M  V30 2927 C 267.745 -5.17615 -2.65424 0
M  V30 2928 N 266.721 -4.53559 -2.99641 0
M  V30 2929 H 270.523 -2.67044 -1.22738 0
M  V30 2930 H 268.037 -1.51479 -0.585479 0
M  V30 2931 H 270.034 -2.0714 -3.61799 0
M  V30 2932 H 268.694 -1.0244 -3.08117 0
M  V30 2933 H 269.705 -4.63876 -2.30302 0
M  V30 2934 H 266.382 -2.33312 -3.46225 0
M  V30 2935 H 267.772 -6.25006 -2.46612 0
M  V30 2936 N 270.492 0.636531 -1.44174 0
M  V30 2937 C 271.72 1.42353 -1.50144 0
M  V30 2938 C 272.135 1.88389 -0.124575 0
M  V30 2939 O 271.492 1.6051 0.868489 0
M  V30 2940 C 271.543 2.64744 -2.46156 0
M  V30 2941 O 271.264 2.20629 -3.7849 0
M  V30 2942 C 272.765 3.57929 -2.61537 0
M  V30 2943 H 269.985 0.436752 -0.5094 0
M  V30 2944 H 272.529 0.778933 -1.89084 0
M  V30 2945 H 270.684 3.25307 -2.10366 0
M  V30 2946 H 271.098 2.99938 -4.30276 0
M  V30 2947 H 272.572 4.40428 -3.32757 0
M  V30 2948 H 273.049 4.06382 -1.66585 0
M  V30 2949 H 273.655 3.03238 -2.98206 0
M  V30 2950 N 271.97 1.30982 0.876444 0
M  V30 2951 C 273.219 1.19658 1.62373 0
M  V30 2952 C 273.532 -0.245636 1.94052 0
M  V30 2953 O 274.738 -0.48049 2.67214 0
M  V30 2954 C 273.194 2.09433 2.92687 0
M  V30 2955 C 272.802 3.58613 2.68516 0
M  V30 2956 C 274.546 2.06893 3.70669 0
M  V30 2957 C 272.453 4.40416 3.94699 0
M  V30 2958 H 271.383 0.444268 0.609214 0
M  V30 2959 H 274.034 1.55791 0.969605 0
M  V30 2960 H 272.416 1.66191 3.59439 0
M  V30 2961 H 273.59 4.10058 2.10212 0
M  V30 2962 H 271.905 3.63063 2.03898 0
M  V30 2963 H 274.502 2.65258 4.64265 0
M  V30 2964 H 274.845 1.05448 4.02724 0
M  V30 2965 H 275.378 2.48301 3.10792 0
M  V30 2966 H 272.117 5.42591 3.67798 0
M  V30 2967 H 271.637 3.93731 4.52477 0
M  V30 2968 H 273.316 4.52294 4.62644 0
M  V30 2969 N 273.449 -1.08991 1.13837 0
M  V30 2970 C 274.697 -1.80899 0.901098 0
M  V30 2971 C 275.018 -1.86356 -0.574134 0
M  V30 2972 O 274.288 -1.35235 -1.41733 0
M  V30 2973 H 272.868 -0.669966 0.330386 0
M  V30 2974 H 275.53 -1.318 1.43578 0
M  V30 2975 H 274.626 -2.83929 1.29578 0
M  V30 2976 N 274.927 -0.932562 -1.27047 0
M  V30 2977 C 276.167 -0.582919 -1.95912 0
M  V30 2978 C 276.531 0.860629 -1.71631 0
M  V30 2979 O 277.732 1.31878 -2.34225 0
M  V30 2980 C 276.003 -0.905673 -3.45734 0
M  V30 2981 S 277.562 -0.665277 -4.33727 0
M  V30 2982 H 274.38 -0.215 -0.677714 0
M  V30 2983 H 276.982 -1.20204 -1.54179 0
M  V30 2984 H 275.686 -1.95386 -3.60905 0
M  V30 2985 H 275.217 -0.275939 -3.92431 0
M  V30 2986 H 277.232 0.474635 -4.93925 0
M  V30 2987 N 276.405 1.4127 -0.698611 0
M  V30 2988 C 277.368 2.29158 -0.044132 0
M  V30 2989 C 278.368 1.44529 0.704841 0
M  V30 2990 O 279.558 1.65643 0.539276 0
M  V30 2991 C 276.69 3.27459 0.947809 0
M  V30 2992 H 277.883 2.88529 -0.817994 0
M  V30 2993 H 275.436 1.49307 -0.46228 0
M  V30 2994 H 276.171 2.73073 1.74933 0
M  V30 2995 H 275.956 3.8991 0.41385 0
M  V30 2996 H 277.446 3.93311 1.40344 0
M  V30 2997 N 277.883 0.443576 1.51229 0
M  V30 2998 C 279.111 -0.11929 2.06556 0
M  V30 2999 C 279.526 -1.35921 1.31038 0
M  V30 3000 O 278.883 -1.78675 0.371704 0
M  V30 3001 C 278.934 -0.435228 3.5887 0
M  V30 3002 O 278.655 0.755486 4.31537 0
M  V30 3003 C 280.156 -1.04808 4.30732 0
M  V30 3004 H 277.376 -0.0051584 0.67098 0
M  V30 3005 H 279.92 0.624453 1.94733 0
M  V30 3006 H 278.075 -1.12887 3.70588 0
M  V30 3007 H 278.489 0.483491 5.22267 0
M  V30 3008 H 279.963 -1.2191 5.3837 0
M  V30 3009 H 280.44 -2.03081 3.89429 0
M  V30 3010 H 281.046 -0.393637 4.23474 0
M  V30 3011 N 279.361 -1.56624 0.175154 0
M  V30 3012 C 280.601 -1.98894 -0.471221 0
M  V30 3013 C 280.965 -1.05889 -1.60161 0
M  V30 3014 O 282.166 -1.37315 -2.3108 0
M  V30 3015 C 280.437 -3.44865 -0.938241 0
M  V30 3016 S 281.996 -4.09164 -1.58526 0
M  V30 3017 H 278.814 -0.694686 -0.151434 0
M  V30 3018 H 281.416 -1.93577 0.27352 0
M  V30 3019 H 280.12 -4.10265 -0.10518 0
M  V30 3020 H 279.651 -3.53956 -1.71693 0
M  V30 3021 H 281.666 -4.04528 -2.87352 0
M  V30 3022 N 280.839 0.0985539 -1.57292 0
M  V30 3023 C 281.789 1.1261 -1.9825 0
M  V30 3024 C 282.773 1.35961 -0.860426 0
M  V30 3025 O 283.965 1.36711 -1.12424 0
M  V30 3026 C 281.094 2.44727 -2.40757 0
M  V30 3027 C 280.18 2.24764 -3.59642 0
M  V30 3028 N 280.571 1.74661 -4.74687 0
M  V30 3029 C 278.869 2.55344 -3.65672 0
M  V30 3030 C 279.57 1.68887 -5.56644 0
M  V30 3031 N 278.546 2.13976 -4.99715 0
M  V30 3032 H 282.348 0.731604 -2.84648 0
M  V30 3033 H 279.862 0.306029 -1.59491 0
M  V30 3034 H 281.859 3.19072 -2.68326 0
M  V30 3035 H 280.519 2.84917 -1.55733 0
M  V30 3036 H 281.53 1.43908 -4.97505 0
M  V30 3037 H 278.207 2.99081 -2.91302 0
M  V30 3038 H 279.597 1.3123 -6.5896 0
M  V30 3039 N 282.317 1.53212 0.369288 0
M  V30 3040 C 283.594 1.59815 1.12776 0
M  V30 3041 C 283.974 0.403402 2.0721 0
M  V30 3042 O 283.322 -0.606667 2.20299 0
M  V30 3043 C 283.532 2.94664 1.87013 0
M  V30 3044 C 284.88 3.49109 2.41677 0
M  V30 3045 O 285.904 2.96669 1.97144 0
M  V30 3046 O 284.763 4.40775 3.23079 0
M  V30 3047 H 281.857 0.645376 0.517125 0
M  V30 3048 H 284.403 1.65553 0.37285 0
M  V30 3049 H 283.175 3.73061 1.18071 0
M  V30 3050 H 282.798 2.92401 2.69421 0
M  V30 3051 N 283.795 -0.628877 1.44509 0
M  V30 3052 C 285.206 -1.21054 1.42137 0
M  V30 3053 C 285.557 -1.95715 0.137881 0
M  V30 3054 O 284.682 -2.02554 -0.761645 0
M  V30 3055 C 285.277 -2.20189 2.57493 0
M  V30 3056 C 283.836 -2.73777 2.58308 0
M  V30 3057 C 282.983 -1.48813 2.33987 0
M  V30 3058 H 285.934 -0.41942 1.53057 0
M  V30 3059 H 285.955 -3.02833 2.30375 0
M  V30 3060 H 285.467 -1.6582 3.50892 0
M  V30 3061 H 283.568 -3.32142 1.68856 0
M  V30 3062 H 283.681 -3.19662 3.56865 0
M  V30 3063 H 282.045 -1.77024 1.83124 0
M  V30 3064 H 282.828 -0.963442 3.29504 0
M  V30 3065 N 285.273 -1.31445 -0.869486 0
M  V30 3066 C 286.205 -1.14955 -1.98287 0
M  V30 3067 C 287.218 -0.0885037 -1.62559 0
M  V30 3068 O 288.407 -0.336044 -1.75308 0
M  V30 3069 C 285.507 -0.734255 -3.3085 0
M  V30 3070 C 284.68 -1.88042 -3.94917 0
M  V30 3071 C 283.739 -1.4511 -5.05796 0
M  V30 3072 O 282.765 -2.16082 -5.2659 0
M  V30 3073 N 283.967 -0.338763 -5.79511 0
M  V30 3074 H 286.732 -2.10856 -2.12979 0
M  V30 3075 H 284.293 -1.23786 -1.04349 0
M  V30 3076 H 286.285 -0.42975 -4.02412 0
M  V30 3077 H 284.855 0.133158 -3.12316 0
M  V30 3078 H 284.075 -2.35222 -3.1633 0
M  V30 3079 H 285.363 -2.6481 -4.34457 0
M  V30 3080 H 284.761 0.252274 -5.65137 0
M  V30 3081 H 283.318 -0.0937925 -6.51733 0
M  V30 3082 N 286.751 1.08385 -1.14413 0
M  V30 3083 C 287.979 1.84517 -0.936001 0
M  V30 3084 C 288.394 1.81626 0.515503 0
M  V30 3085 O 287.751 1.22008 1.35721 0
M  V30 3086 C 287.802 3.32049 -1.42918 0
M  V30 3087 O 287.523 3.34951 -2.82381 0
M  V30 3088 C 289.024 4.24986 -1.26103 0
M  V30 3089 H 286.244 0.582491 -0.333084 0
M  V30 3090 H 288.788 1.36885 -1.5193 0
M  V30 3091 H 286.943 3.7707 -0.888641 0
M  V30 3092 H 287.357 4.27048 -3.04517 0
M  V30 3093 H 288.831 5.26615 -1.6547 0
M  V30 3094 H 289.308 4.38726 -0.20392 0
M  V30 3095 H 289.914 3.85791 -1.79012 0
M  V30 3096 N 288.23 0.939286 1.26551 0
M  V30 3097 C 289.163 0.391702 2.24813 0
M  V30 3098 C 290.141 -0.518421 1.54114 0
M  V30 3099 O 291.325 -0.456299 1.82894 0
M  V30 3100 C 288.452 -0.437382 3.35864 0
M  V30 3101 C 287.498 0.410946 4.24516 0
M  V30 3102 S 288.331 1.83372 5.03125 0
M  V30 3103 C 289.487 1.01264 6.17654 0
M  V30 3104 H 289.72 1.22448 2.70913 0
M  V30 3105 H 287.253 0.742269 1.35387 0
M  V30 3106 H 289.211 -0.909837 4.0029 0
M  V30 3107 H 287.872 -1.24482 2.8838 0
M  V30 3108 H 287.065 -0.224191 5.03501 0
M  V30 3109 H 286.667 0.818014 3.64945 0
M  V30 3110 H 288.959 0.254023 6.77024 0
M  V30 3111 H 289.902 1.77589 6.85469 0
M  V30 3112 H 290.31 0.549532 5.61819 0
M  V30 3113 N 289.708 -1.40897 0.706093 0
M  V30 3114 C 290.618 -2.3455 0.0482286 0
M  V30 3115 C 291.634 -1.56796 -0.754396 0
M  V30 3116 O 292.81 -1.89228 -0.689538 0
M  V30 3117 C 289.875 -3.35625 -0.869303 0
M  V30 3118 C 288.936 -4.29261 -0.0576994 0
M  V30 3119 C 288.169 -5.25508 -0.931531 0
M  V30 3120 O 288.392 -5.27472 -2.17092 0
M  V30 3121 O 287.326 -6.00727 -0.375587 0
M  V30 3122 H 291.152 -2.92407 0.820476 0
M  V30 3123 H 288.737 -1.4193 0.4665 0
M  V30 3124 H 290.619 -3.97635 -1.39514 0
M  V30 3125 H 289.294 -2.80196 -1.62086 0
M  V30 3126 H 288.201 -3.70566 0.512988 0
M  V30 3127 H 289.534 -4.87817 0.655426 0
M  V30 3128 N 291.186 -0.45159 -1.50991 0
M  V30 3129 C 292.116 0.342898 -2.30969 0
M  V30 3130 C 293.097 1.00815 -1.37005 0
M  V30 3131 O 294.282 1.00907 -1.65926 0
M  V30 3132 C 291.412 1.43637 -3.16205 0
M  V30 3133 C 290.366 0.893818 -4.18563 0
M  V30 3134 C 289.692 2.08411 -4.92411 0
M  V30 3135 C 290.992 -0.0815568 -5.22236 0
M  V30 3136 H 292.686 -0.324556 -2.97636 0
M  V30 3137 H 290.232 -0.157531 -1.43136 0
M  V30 3138 H 292.185 1.9995 -3.70942 0
M  V30 3139 H 290.909 2.13232 -2.47386 0
M  V30 3140 H 289.568 0.352798 -3.64898 0
M  V30 3141 H 289.216 2.76658 -4.20082 0
M  V30 3142 H 288.916 1.72741 -5.61636 0
M  V30 3143 H 290.44 2.65251 -5.49976 0
M  V30 3144 H 291.854 0.391742 -5.7196 0
M  V30 3145 H 290.251 -0.351551 -5.99069 0
M  V30 3146 H 291.321 -1.01374 -4.74185 0
M  V30 3147 N 292.664 1.56529 -0.183458 0
M  V30 3148 C 294.08 1.58664 0.172554 0
M  V30 3149 C 294.28 1.19925 1.61926 0
M  V30 3150 O 293.336 0.916534 2.35278 0
M  V30 3151 C 294.649 3.00463 -0.119262 0
M  V30 3152 C 296.197 3.12945 -0.0584396 0
M  V30 3153 C 296.672 4.56857 -0.323408 0
M  V30 3154 N 298.163 4.62403 -0.271612 0
M  V30 3155 C 298.898 5.71626 -0.450639 0
M  V30 3156 N 298.394 6.89362 -0.689384 0
M  V30 3157 N 300.187 5.60775 -0.385701 0
M  V30 3158 H 292.338 1.79994 -1.12765 0
M  V30 3159 H 294.601 0.834808 -0.449222 0
M  V30 3160 H 294.307 3.33326 -1.12192 0
M  V30 3161 H 294.181 3.72659 0.583544 0
M  V30 3162 H 296.568 2.79902 0.934805 0
M  V30 3163 H 296.649 2.4316 -0.794144 0
M  V30 3164 H 296.293 4.9061 -1.31392 0
M  V30 3165 H 296.223 5.24816 0.43305 0
M  V30 3166 H 298.714 3.77785 -0.0932256 0
M  V30 3167 H 299.027 7.68489 -0.815113 0
M  V30 3168 H 297.372 6.91196 -0.726142 0
M  V30 3169 H 300.563 4.67674 -0.199687 0
M  V30 3170 H 300.736 6.4584 -0.528646 0
M  V30 3171 N 294.142 -0.090211 1.57342 0
M  V30 3172 C 295.391 -0.791531 1.8552 0
M  V30 3173 C 295.704 -1.79659 0.773441 0
M  V30 3174 O 296.91 -2.54616 0.942497 0
M  V30 3175 C 295.366 -1.45856 3.2902 0
M  V30 3176 C 294.974 -0.493017 4.45279 0
M  V30 3177 C 296.718 -2.14332 3.66418 0
M  V30 3178 C 294.625 -1.16491 5.79814 0
M  V30 3179 H 293.555 -0.299356 0.692027 0
M  V30 3180 H 296.206 -0.0445343 1.83446 0
M  V30 3181 H 294.588 -2.25318 3.2565 0
M  V30 3182 H 295.762 0.270464 4.60006 0
M  V30 3183 H 294.077 0.0863061 4.16311 0
M  V30 3184 H 296.674 -2.65344 4.64216 0
M  V30 3185 H 297.017 -2.93447 2.95287 0
M  V30 3186 H 297.55 -1.41724 3.71698 0
M  V30 3187 H 294.289 -0.41447 6.54188 0
M  V30 3188 H 293.809 -1.8997 5.68921 0
M  V30 3189 H 295.488 -1.69001 6.24538 0
M  V30 3190 N 295.62 -1.53406 -0.361157 0
M  V30 3191 C 296.848 -1.73717 -1.12383 0
M  V30 3192 C 297.263 -0.468161 -1.82904 0
M  V30 3193 O 296.62 0.559198 -1.73722 0
M  V30 3194 C 296.671 -2.90558 -2.15078 0
M  V30 3195 O 296.392 -4.12549 -1.47428 0
M  V30 3196 C 297.893 -3.22777 -3.03858 0
M  V30 3197 H 295.113 -0.580896 -0.335858 0
M  V30 3198 H 297.657 -2.00167 -0.418728 0
M  V30 3199 H 295.812 -2.66489 -2.8118 0
M  V30 3200 H 296.226 -4.78009 -2.15887 0
M  V30 3201 H 297.7 -4.07927 -3.71887 0
M  V30 3202 H 298.177 -2.38329 -3.68912 0
M  V30 3203 H 298.783 -3.48787 -2.43367 0
M  V30 3204 N 297.098 0.621204 -1.44841 0
M  V30 3205 C 298.323 1.41244 -1.51871 0
M  V30 3206 C 298.748 1.87519 -0.147764 0
M  V30 3207 O 298.106 1.59334 0.865 0
M  V30 3208 C 298.154 2.60221 -2.49634 0
M  V30 3209 O 297.258 3.60395 -2.00473 0
M  V30 3210 H 296.599 0.42223 -0.512463 0
M  V30 3211 H 299.129 0.757305 -1.90069 0
M  V30 3212 H 299.139 3.0764 -2.67996 0
M  V30 3213 H 297.814 2.25887 -3.4921 0
M  V30 3214 H 296.391 3.19717 -1.91925 0
M  V30 3215 N 298.576 1.31904 0.862503 0
M  V30 3216 C 299.822 1.22197 1.61851 0
M  V30 3217 C 300.155 -0.217641 1.92977 0
M  V30 3218 O 299.43 -1.15264 1.56666 0
M  V30 3219 C 299.713 2.07378 2.94391 0
M  V30 3220 C 299.566 3.59678 2.70096 0
M  V30 3221 C 300.885 1.92891 3.95577 0
M  V30 3222 H 298.004 0.445255 0.587296 0
M  V30 3223 H 300.646 1.6177 0.99651 0
M  V30 3224 H 298.796 1.73758 3.47477 0
M  V30 3225 H 300.468 4.03472 2.23625 0
M  V30 3226 H 298.711 3.82735 2.04197 0
M  V30 3227 H 299.382 4.14595 3.64438 0
M  V30 3228 H 301.858 2.22327 3.51724 0
M  V30 3229 H 300.734 2.54781 4.86187 0
M  V30 3230 H 300.995 0.894315 4.3296 0
M  V30 3231 N 300.054 -1.07777 1.14986 0
M  V30 3232 C 301.465 -1.61766 0.932127 0
M  V30 3233 C 301.816 -1.88974 -0.527581 0
M  V30 3234 O 300.941 -1.65198 -1.39781 0
M  V30 3235 C 301.536 -2.93891 1.68563 0
M  V30 3236 C 300.095 -3.44639 1.5133 0
M  V30 3237 C 299.242 -2.18767 1.704 0
M  V30 3238 H 302.193 -0.909201 1.30074 0
M  V30 3239 H 302.214 -3.62623 1.15259 0
M  V30 3240 H 301.726 -2.74057 2.74799 0
M  V30 3241 H 299.827 -3.69564 0.474702 0
M  V30 3242 H 299.94 -4.20966 2.28746 0
M  V30 3243 H 298.304 -2.28253 1.13016 0
M  V30 3244 H 299.087 -2.01433 2.77992 0
M  V30 3245 N 301.532 -0.945985 -1.26051 0
M  V30 3246 C 302.462 -0.477172 -2.28572 0
M  V30 3247 C 303.443 0.472032 -1.63419 0
M  V30 3248 O 304.628 0.372853 -1.90587 0
M  V30 3249 C 301.758 0.253975 -3.4637 0
M  V30 3250 C 300.712 -0.609135 -4.23643 0
M  V30 3251 C 300.038 0.252252 -5.34105 0
M  V30 3252 C 301.338 -1.8829 -4.8718 0
M  V30 3253 H 303.032 -1.33402 -2.68038 0
M  V30 3254 H 300.578 -0.642904 -1.28852 0
M  V30 3255 H 302.531 0.593016 -4.17207 0
M  V30 3256 H 301.255 1.145 -3.05871 0
M  V30 3257 H 299.914 -0.931138 -3.54578 0
M  V30 3258 H 299.562 1.14278 -4.89846 0
M  V30 3259 H 299.262 -0.32188 -5.86718 0
M  V30 3260 H 300.786 0.586454 -6.07777 0
M  V30 3261 H 302.2 -1.61081 -5.50205 0
M  V30 3262 H 300.597 -2.40199 -5.49931 0
M  V30 3263 H 301.667 -2.59134 -4.09851 0
M  V30 3264 N 303.011 1.40521 -0.713556 0
M  V30 3265 C 304.239 2.05237 -0.261775 0
M  V30 3266 C 304.654 1.53755 1.09567 0
M  V30 3267 O 304.011 0.693268 1.6882 0
M  V30 3268 C 304.062 3.60763 -0.230706 0
M  V30 3269 O 303.783 4.10345 -1.53455 0
M  V30 3270 C 305.284 4.42651 0.239874 0
M  V30 3271 H 302.504 0.660533 -0.118057 0
M  V30 3272 H 305.048 1.79967 -0.971192 0
M  V30 3273 H 303.203 3.8501 0.429661 0
M  V30 3274 H 303.617 5.04526 -1.43366 0
M  V30 3275 H 305.091 5.51599 0.210468 0
M  V30 3276 H 305.568 4.20082 1.28171 0
M  V30 3277 H 306.174 4.23507 -0.390142 0
M  V30 3278 N 304.489 0.459591 1.5075 0
M  V30 3279 C 305.766 -0.160371 1.94941 0
M  V30 3280 C 306.146 -1.58048 1.39943 0
M  V30 3281 O 305.494 -2.206 0.595629 0
M  V30 3282 C 305.704 -0.115432 3.48809 0
M  V30 3283 C 307.052 -0.310026 4.23467 0
M  V30 3284 O 308.076 -0.192543 3.55679 0
M  V30 3285 O 306.935 -0.546031 5.43765 0
M  V30 3286 H 304.029 -0.117925 0.818549 0
M  V30 3287 H 306.575 0.519169 1.61563 0
M  V30 3288 H 305.347 0.87652 3.81357 0
M  V30 3289 H 304.97 -0.836928 3.88692 0
M  V30 3290 N 305.967 -1.56429 0.191757 0
M  V30 3291 C 307.197 -2.01574 -0.452928 0
M  V30 3292 C 307.605 -1.07107 -1.55964 0
M  V30 3293 O 306.948 -0.067534 -1.83576 0
M  V30 3294 C 307.01 -3.43121 -1.07278 0
M  V30 3295 C 306.674 -4.56879 -0.105214 0
M  V30 3296 C 307.671 -5.15379 0.684149 0
M  V30 3297 C 305.356 -5.023 0.00489824 0
M  V30 3298 C 307.35 -6.17746 1.57062 0
M  V30 3299 C 305.037 -6.04511 0.894935 0
M  V30 3300 C 306.035 -6.62108 1.67637 0
M  V30 3301 O 305.723 -7.62335 2.55149 0
M  V30 3302 H 305.455 -0.665554 -0.118379 0
M  V30 3303 H 308.009 -2.03245 0.296737 0
M  V30 3304 H 306.239 -3.38425 -1.87097 0
M  V30 3305 H 307.928 -3.72093 -1.62177 0
M  V30 3306 H 308.694 -4.81157 0.609365 0
M  V30 3307 H 304.573 -4.57168 -0.593156 0
M  V30 3308 H 308.117 -6.6263 2.181 0
M  V30 3309 H 304.014 -6.38157 0.970847 0
M  V30 3310 H 304.782 -7.79741 2.48892 0
M  V30 3311 N 307.445 0.0818655 -1.57387 0
M  V30 3312 C 308.375 1.09885 -2.06028 0
M  V30 3313 C 309.356 1.4098 -0.951774 0
M  V30 3314 O 310.541 1.50781 -1.22387 0
M  V30 3315 C 307.671 2.4151 -2.4958 0
M  V30 3316 C 306.625 2.24792 -3.64215 0
M  V30 3317 C 305.951 3.61712 -3.93787 0
M  V30 3318 C 307.251 1.67749 -4.94629 0
M  V30 3319 H 308.945 0.694128 -2.91243 0
M  V30 3320 H 306.491 0.332448 -1.4011 0
M  V30 3321 H 308.444 3.12939 -2.82219 0
M  V30 3322 H 307.168 2.83943 -1.61381 0
M  V30 3323 H 305.827 1.55807 -3.31843 0
M  V30 3324 H 305.475 4.01697 -3.02735 0
M  V30 3325 H 305.175 3.51368 -4.70971 0
M  V30 3326 H 306.699 4.34587 -4.28913 0
M  V30 3327 H 308.113 2.29032 -5.25564 0
M  V30 3328 H 306.51 1.68128 -5.76067 0
M  V30 3329 H 307.58 0.638059 -4.80684 0
M  V30 3330 N 308.923 1.53595 0.353017 0
M  V30 3331 C 310.169 1.70638 1.09593 0
M  V30 3332 C 310.502 0.463286 1.88593 0
M  V30 3333 O 309.777 -0.539597 1.86865 0
M  V30 3334 C 310.06 2.96406 2.04489 0
M  V30 3335 C 309.913 4.30901 1.29014 0
M  V30 3336 C 311.232 3.17812 3.0444 0
M  V30 3337 H 308.351 0.620913 0.397034 0
M  V30 3338 H 310.993 1.86254 0.375446 0
M  V30 3339 H 309.143 2.83223 2.65927 0
M  V30 3340 H 310.815 4.55917 0.702638 0
M  V30 3341 H 309.058 4.29741 0.592071 0
M  V30 3342 H 309.729 5.1506 1.98537 0
M  V30 3343 H 312.205 3.30263 2.53112 0
M  V30 3344 H 311.081 4.07223 3.6805 0
M  V30 3345 H 311.342 2.33669 3.75301 0
M  V30 3346 N 310.401 -0.613514 1.45168 0
M  V30 3347 C 311.626 -1.40437 1.52618 0
M  V30 3348 C 312.051 -1.87438 0.157707 0
M  V30 3349 O 311.409 -1.59791 -0.856537 0
M  V30 3350 C 311.457 -2.58894 2.51011 0
M  V30 3351 O 310.561 -3.59326 2.02382 0
M  V30 3352 H 309.902 -0.419506 0.514695 0
M  V30 3353 H 312.432 -0.747215 1.90467 0
M  V30 3354 H 312.442 -3.06214 2.69624 0
M  V30 3355 H 311.117 -2.24032 3.50403 0
M  V30 3356 H 309.694 -3.18695 1.93618 0
M  V30 3357 N 311.879 -1.3236 -0.855495 0
M  V30 3358 C 312.811 -1.17052 -1.97057 0
M  V30 3359 C 313.824 -0.10574 -1.62456 0
M  V30 3360 O 315.013 -0.354619 -1.74942 0
M  V30 3361 C 312.113 -0.769305 -3.30053 0
M  V30 3362 C 311.286 -1.9222 -3.929 0
M  V30 3363 C 310.345 -1.50466 -5.04228 0
M  V30 3364 O 309.371 -2.21655 -5.24269 0
M  V30 3365 N 310.573 -0.400209 -5.79119 0
M  V30 3366 H 313.338 -2.13103 -2.1073 0
M  V30 3367 H 310.899 -1.24885 -1.0303 0
M  V30 3368 H 312.891 -0.472407 -4.01933 0
M  V30 3369 H 311.461 0.100025 -3.1244 0
M  V30 3370 H 310.681 -2.38563 -3.13817 0
M  V30 3371 H 311.969 -2.69403 -4.31624 0
M  V30 3372 H 311.367 0.192319 -5.65373 0
M  V30 3373 H 309.924 -0.162912 -6.51596 0
M  V30 3374 N 313.357 1.07166 -1.15556 0
M  V30 3375 C 314.605 1.79443 -0.929764 0
M  V30 3376 C 314.926 1.87246 0.544414 0
M  V30 3377 O 314.196 1.37473 1.39564 0
M  V30 3378 H 312.776 0.664625 -0.341003 0
M  V30 3379 H 315.438 1.29499 -1.45657 0
M  V30 3380 H 314.534 2.81832 -1.34079 0
M  V30 3381 N 314.835 0.952656 1.25548 0
M  V30 3382 C 315.782 0.47008 2.25962 0
M  V30 3383 C 316.752 -0.476384 1.59122 0
M  V30 3384 O 317.937 -0.39007 1.8677 0
M  V30 3385 C 315.077 -0.247881 3.44209 0
M  V30 3386 C 314.19 0.735591 4.25691 0
M  V30 3387 C 313.325 -0.0047306 5.312 0
M  V30 3388 C 312.364 0.969805 6.04368 0
M  V30 3389 N 311.501 0.260486 7.01617 0
M  V30 3390 H 316.341 1.33126 2.66611 0
M  V30 3391 H 313.878 0.66765 1.31076 0
M  V30 3392 H 315.836 -0.680695 4.1161 0
M  V30 3393 H 314.466 -1.07312 3.0444 0
M  V30 3394 H 313.518 1.28689 3.57971 0
M  V30 3395 H 314.83 1.47934 4.76358 0
M  V30 3396 H 313.984 -0.496275 6.04667 0
M  V30 3397 H 312.723 -0.781282 4.81401 0
M  V30 3398 H 311.728 1.47237 5.29718 0
M  V30 3399 H 312.953 1.74655 6.56256 0
M  V30 3400 H 310.899 -0.497364 6.54112 0
M  V30 3401 H 310.816 0.943362 7.50091 0
M  V30 3402 H 312.084 -0.209587 7.79218 0
M  V30 3403 N 316.313 -1.40141 0.720998 0
M  V30 3404 C 317.59 -1.94677 0.189757 0
M  V30 3405 C 317.97 -1.65879 -1.30566 0
M  V30 3406 O 317.318 -0.979391 -2.06447 0
M  V30 3407 C 317.528 -3.45279 0.508304 0
M  V30 3408 C 318.876 -4.22209 0.449934 0
M  V30 3409 O 319.9 -3.53413 0.444677 0
M  V30 3410 O 318.759 -5.44788 0.432189 0
M  V30 3411 H 315.853 -0.826459 0.0299026 0
M  V30 3412 H 318.399 -1.49719 0.7989 0
M  V30 3413 H 317.171 -3.59619 1.54239 0
M  V30 3414 H 316.794 -3.97386 -0.130525 0
M  V30 3415 N 317.792 -0.46758 -1.50504 0
M  V30 3416 C 319.203 -0.0116166 -1.86696 0
M  V30 3417 C 319.554 1.39202 -1.38265 0
M  V30 3418 O 318.679 2.0313 -0.746132 0
M  V30 3419 C 319.274 -0.0143044 -3.38797 0
M  V30 3420 C 317.833 0.386175 -3.74414 0
M  V30 3421 C 316.98 -0.401287 -2.74381 0
M  V30 3422 H 319.931 -0.682022 -1.43297 0
M  V30 3423 H 319.952 0.788641 -3.72237 0
M  V30 3424 H 319.464 -1.03602 -3.74016 0
M  V30 3425 H 317.565 1.41237 -3.44794 0
M  V30 3426 H 317.678 0.0899596 -4.79016 0
M  V30 3427 H 316.042 0.144536 -2.5429 0
M  V30 3428 H 316.825 -1.42244 -3.12444 0
M  V30 3429 N 319.27 1.56325 -0.20005 0
M  V30 3430 C 320.217 2.1932 0.718833 0
M  V30 3431 C 321.187 1.14198 1.20615 0
M  V30 3432 O 322.372 1.42469 1.26914 0
M  V30 3433 C 319.512 2.86041 1.93066 0
M  V30 3434 C 318.625 4.05702 1.48425 0
M  V30 3435 C 317.76 4.60266 2.65196 0
M  V30 3436 C 316.799 5.72273 2.17185 0
M  V30 3437 N 315.936 6.21221 3.27152 0
M  V30 3438 H 320.776 2.97486 0.17489 0
M  V30 3439 H 318.313 1.46911 0.0745794 0
M  V30 3440 H 320.271 3.22897 2.64184 0
M  V30 3441 H 318.901 2.1043 2.44783 0
M  V30 3442 H 317.953 3.74475 0.668755 0
M  V30 3443 H 319.265 4.86699 1.09204 0
M  V30 3444 H 318.419 4.99453 3.4443 0
M  V30 3445 H 317.158 3.78386 3.07693 0
M  V30 3446 H 316.163 5.3261 1.36407 0
M  V30 3447 H 317.388 6.55974 1.75713 0
M  V30 3448 H 315.334 5.42263 3.69171 0
M  V30 3449 H 315.251 6.97284 2.92116 0
M  V30 3450 H 316.519 6.65063 4.06585 0
M  V30 3451 N 320.748 -0.0735177 1.57428 0
M  V30 3452 C 321.695 -1.08756 2.0357 0
M  V30 3453 C 322.665 -1.38559 0.916 0
M  V30 3454 O 323.85 -1.49656 1.18354 0
M  V30 3455 C 320.99 -2.39657 2.48311 0
M  V30 3456 C 320.103 -2.16399 3.73892 0
M  V30 3457 C 319.238 -3.40852 4.07423 0
M  V30 3458 C 318.277 -3.1295 5.2605 0
M  V30 3459 N 317.414 -4.29729 5.55228 0
M  V30 3460 H 322.254 -0.687104 2.8997 0
M  V30 3461 H 319.791 -0.327709 1.43403 0
M  V30 3462 H 321.749 -3.16081 2.72303 0
M  V30 3463 H 320.379 -2.77508 1.64891 0
M  V30 3464 H 319.431 -1.30676 3.57251 0
M  V30 3465 H 320.743 -1.91788 4.60455 0
M  V30 3466 H 319.897 -4.25671 4.32306 0
M  V30 3467 H 318.636 -3.68537 3.19425 0
M  V30 3468 H 317.641 -2.26526 5.00965 0
M  V30 3469 H 318.866 -2.86589 6.15665 0
M  V30 3470 H 316.812 -4.57448 4.70188 0
M  V30 3471 H 316.729 -4.08385 6.36206 0
M  V30 3472 H 317.997 -5.1555 5.84661 0
M  V30 3473 N 322.226 -1.5378 -0.344866 0
M  V30 3474 C 323.156 -1.84662 -1.42906 0
M  V30 3475 C 324.137 -0.701648 -1.54955 0
M  V30 3476 O 325.322 -0.953438 -1.69184 0
M  V30 3477 C 322.452 -2.05503 -2.79974 0
M  V30 3478 C 321.406 -3.21318 -2.82734 0
M  V30 3479 C 320.732 -3.2749 -4.22675 0
M  V30 3480 C 322.032 -4.59456 -2.48389 0
M  V30 3481 H 323.726 -2.75461 -1.17311 0
M  V30 3482 H 321.272 -1.32542 -0.562896 0
M  V30 3483 H 323.225 -2.25691 -3.55867 0
M  V30 3484 H 321.949 -1.11434 -3.07002 0
M  V30 3485 H 320.608 -3.00984 -2.09294 0
M  V30 3486 H 320.256 -2.31019 -4.4681 0
M  V30 3487 H 319.956 -4.05316 -4.25433 0
M  V30 3488 H 321.48 -3.49887 -5.00412 0
M  V30 3489 H 322.894 -4.79667 -3.13995 0
M  V30 3490 H 321.291 -5.39675 -2.62432 0
M  V30 3491 H 322.361 -4.63155 -1.4358 0
M  V30 3492 N 323.704 0.605807 -1.45491 0
M  V30 3493 C 325.115 1.18777 -1.44045 0
M  V30 3494 C 325.466 1.95471 -0.169001 0
M  V30 3495 O 324.591 2.0374 0.729324 0
M  V30 3496 C 325.186 2.16064 -2.60963 0
M  V30 3497 C 323.745 2.69633 -2.62631 0
M  V30 3498 C 322.892 1.45072 -2.36325 0
M  V30 3499 H 325.843 0.395017 -1.53705 0
M  V30 3500 H 325.864 2.9913 -2.35163 0
M  V30 3501 H 325.376 1.60217 -3.53486 0
M  V30 3502 H 323.477 3.29414 -1.74119 0
M  V30 3503 H 323.59 3.13944 -3.61906 0
M  V30 3504 H 321.954 1.74089 -1.85917 0
M  V30 3505 H 322.737 0.910899 -3.30995 0
M  V30 3506 N 325.182 1.32811 0.848464 0
M  V30 3507 C 326.598 1.11937 1.13764 0
M  V30 3508 C 326.798 -0.0960789 2.01271 0
M  V30 3509 O 325.854 -0.779165 2.40178 0
M  V30 3510 C 327.167 2.402 1.809 0
M  V30 3511 C 328.715 2.46016 1.93508 0
M  V30 3512 C 329.19 3.74215 2.64059 0
M  V30 3513 N 330.681 3.75232 2.71579 0
M  V30 3514 C 331.416 4.71134 3.26833 0
M  V30 3515 N 330.912 5.77406 3.8285 0
M  V30 3516 N 332.705 4.58623 3.24995 0
M  V30 3517 H 324.856 2.1073 0.265855 0
M  V30 3518 H 327.119 0.930671 0.180431 0
M  V30 3519 H 326.825 3.29093 1.24058 0
M  V30 3520 H 326.699 2.51628 2.81004 0
M  V30 3521 H 329.086 1.57577 2.49506 0
M  V30 3522 H 329.167 2.38536 0.923811 0
M  V30 3523 H 328.811 4.63031 2.08722 0
M  V30 3524 H 328.741 3.78968 3.65637 0
M  V30 3525 H 331.232 2.98423 2.31845 0
M  V30 3526 H 331.545 6.46632 4.23187 0
M  V30 3527 H 329.89 5.81152 3.81165 0
M  V30 3528 H 333.081 3.74762 2.80484 0
M  V30 3529 H 333.254 5.33535 3.67756 0
M  V30 3530 N 326.66 -1.06551 1.16123 0
M  V30 3531 C 327.608 -2.16063 0.861371 0
M  V30 3532 C 328.602 -1.6856 -0.168517 0
M  V30 3533 O 329.808 -1.79986 -0.0227579 0
M  V30 3534 H 326.183 -0.705278 0.260934 0
M  V30 3535 H 328.154 -2.38567 1.79244 0
M  V30 3536 C 326.903 -3.45661 0.376018 0
M  V30 3537 H 326.226 -3.82604 1.15992 0
M  V30 3538 H 327.666 -4.23504 0.204951 0
M  V30 3539 C 326.125 -3.24546 -0.903954 0
M  V30 3540 O 326.655 -3.49865 -1.97377 0
M  V30 3541 N 324.861 -2.77992 -0.846679 0
M  V30 3542 H 324.408 -2.57589 0.0241017 0
M  V30 3543 H 324.366 -2.64244 -1.70359 0
M  V30 3544 N 328.138 -0.959301 -1.25041 0
M  V30 3545 C 329.048 -0.489994 -2.29426 0
M  V30 3546 C 330.064 0.444944 -1.68215 0
M  V30 3547 O 331.24 0.320046 -1.98841 0
M  V30 3548 C 328.305 0.220309 -3.45999 0
M  V30 3549 C 327.366 -0.753418 -4.22637 0
M  V30 3550 C 326.599 -0.076918 -5.33645 0
M  V30 3551 O 326.822 1.13649 -5.58963 0
M  V30 3552 O 325.756 -0.764824 -5.97021 0
M  V30 3553 H 329.582 -1.35755 -2.71669 0
M  V30 3554 H 327.167 -0.725961 -1.30576 0
M  V30 3555 H 329.049 0.619677 -4.16819 0
M  V30 3556 H 327.724 1.06296 -3.0575 0
M  V30 3557 H 326.631 -1.20308 -3.54227 0
M  V30 3558 H 327.964 -1.56423 -4.66683 0
M  V30 3559 N 329.616 1.39756 -0.72842 0
M  V30 3560 C 330.549 2.28176 -0.0330172 0
M  V30 3561 C 331.527 1.44035 0.754501 0
M  V30 3562 O 332.711 1.73434 0.738445 0
M  V30 3563 C 329.838 3.24795 0.960504 0
M  V30 3564 C 328.884 4.25693 0.262264 0
M  V30 3565 S 329.717 5.25714 -1.01906 0
M  V30 3566 C 330.873 6.25894 -0.0279717 0
M  V30 3567 H 331.106 2.86807 -0.78287 0
M  V30 3568 H 328.639 1.45382 -0.519951 0
M  V30 3569 H 330.597 3.80983 1.52846 0
M  V30 3570 H 329.258 2.65196 1.68315 0
M  V30 3571 H 328.451 4.93699 1.01379 0
M  V30 3572 H 328.053 3.7327 -0.233482 0
M  V30 3573 H 330.345 6.72585 0.814621 0
M  V30 3574 H 331.288 7.04876 -0.67499 0
M  V30 3575 H 331.696 5.63466 0.341489 0
M  V30 3576 N 331.094 0.475555 1.50254 0
M  V30 3577 C 332.51 0.12997 1.5907 0
M  V30 3578 C 332.71 -1.36385 1.48328 0
M  V30 3579 O 331.766 -2.13754 1.34407 0
M  V30 3580 C 333.079 0.684139 2.92814 0
M  V30 3581 C 334.627 0.647965 3.0622 0
M  V30 3582 C 335.102 1.17975 4.42545 0
M  V30 3583 N 336.593 1.13936 4.48969 0
M  V30 3584 C 337.328 1.52129 5.52851 0
M  V30 3585 N 336.824 1.97793 6.63965 0
M  V30 3586 N 338.617 1.43704 5.4342 0
M  V30 3587 H 330.768 1.44706 1.55479 0
M  V30 3588 H 333.031 0.598691 0.735033 0
M  V30 3589 H 332.737 1.73079 3.06164 0
M  V30 3590 H 332.611 0.130204 3.76975 0
M  V30 3591 H 334.998 -0.38979 2.92514 0
M  V30 3592 H 335.079 1.23876 2.23805 0
M  V30 3593 H 334.723 2.21616 4.57 0
M  V30 3594 H 334.653 0.565138 5.23559 0
M  V30 3595 H 337.144 0.804488 3.69238 0
M  V30 3596 H 337.457 2.25072 7.39299 0
M  V30 3597 H 335.802 2.01749 6.65073 0
M  V30 3598 H 338.993 1.07867 4.55502 0
M  V30 3599 H 339.166 1.73794 6.24259 0
M  V30 3600 N 332.573 -1.56217 0.208337 0
M  V30 3601 C 333.536 -2.18455 -0.693557 0
M  V30 3602 C 334.536 -1.14268 -1.13135 0
M  V30 3603 O 335.726 -1.39577 -1.0423 0
M  V30 3604 C 332.858 -2.79727 -1.94848 0
M  V30 3605 H 334.051 -2.99519 -0.15114 0
M  V30 3606 H 331.604 -1.56245 -0.041287 0
M  V30 3607 H 332.339 -2.02497 -2.53309 0
M  V30 3608 H 332.124 -3.56009 -1.64316 0
M  V30 3609 H 333.614 -3.27475 -2.59133 0
M  V30 3610 N 334.051 0.0651679 -1.57465 0
M  V30 3611 C 334.981 1.07693 -2.07182 0
M  V30 3612 C 335.962 1.39962 -0.966673 0
M  V30 3613 O 337.147 1.49475 -1.2398 0
M  V30 3614 C 334.277 2.3885 -2.52127 0
M  V30 3615 C 333.231 2.20917 -3.66579 0
M  V30 3616 C 332.557 3.57515 -3.97601 0
M  V30 3617 C 333.857 1.62493 -4.9638 0
M  V30 3618 H 335.551 0.663199 -2.91962 0
M  V30 3619 H 333.097 0.317569 -1.40455 0
M  V30 3620 H 335.05 3.09928 -2.85522 0
M  V30 3621 H 333.774 2.82215 -1.64384 0
M  V30 3622 H 332.433 1.52279 -3.33477 0
M  V30 3623 H 332.081 3.98463 -3.06979 0
M  V30 3624 H 331.781 3.46353 -4.74672 0
M  V30 3625 H 333.305 4.30013 -4.33499 0
M  V30 3626 H 334.719 2.23445 -5.27963 0
M  V30 3627 H 333.116 1.62009 -5.77818 0
M  V30 3628 H 334.186 0.587041 -4.81333 0
M  V30 3629 N 335.529 1.53961 0.336706 0
M  V30 3630 C 336.775 1.7179 1.07777 0
M  V30 3631 C 337.108 0.483263 1.88091 0
M  V30 3632 O 336.383 -0.519747 1.87427 0
M  V30 3633 C 336.666 2.98558 2.01334 0
M  V30 3634 C 336.519 4.32245 1.24437 0
M  V30 3635 C 337.838 3.21023 3.01052 0
M  V30 3636 H 334.957 0.625089 0.390426 0
M  V30 3637 H 337.599 1.86641 0.35567 0
M  V30 3638 H 335.749 2.86028 2.62908 0
M  V30 3639 H 337.421 4.56637 0.654243 0
M  V30 3640 H 335.664 4.30344 0.546458 0
M  V30 3641 H 336.335 5.17137 1.93063 0
M  V30 3642 H 338.811 3.32929 2.49595 0
M  V30 3643 H 337.687 4.11104 3.6371 0
M  V30 3644 H 337.948 2.37637 3.72802 0
M  V30 3645 N 337.007 -0.598083 1.45811 0
M  V30 3646 C 338.247 -1.36802 1.5187 0
M  V30 3647 C 338.611 -1.9133 0.160224 0
M  V30 3648 O 339.812 -2.6863 0.0955302 0
M  V30 3649 C 338.083 -2.47835 2.57513 0
M  V30 3650 S 339.642 -3.35458 2.82866 0
M  V30 3651 H 336.46 -0.466278 0.536755 0
M  V30 3652 H 339.062 -0.689152 1.82951 0
M  V30 3653 H 337.766 -2.06141 3.54872 0
M  V30 3654 H 337.297 -3.20512 2.28114 0
M  V30 3655 H 339.312 -4.46251 2.16967 0
M  V30 3656 N 338.485 -1.33259 -0.841409 0
M  V30 3657 C 339.733 -1.24326 -1.59334 0
M  V30 3658 C 340.054 0.191564 -1.94057 0
M  V30 3659 O 339.324 1.11967 -1.60749 0
M  V30 3660 H 337.904 -0.457174 -0.590763 0
M  V30 3661 H 340.566 -1.66947 -1.00571 0
M  V30 3662 H 339.662 -1.8352 -2.52442 0
M  V30 3663 N 339.963 1.05934 -1.16686 0
M  V30 3664 C 340.895 2.13468 -0.834503 0
M  V30 3665 C 341.908 1.62013 0.15984 0
M  V30 3666 O 343.097 1.7838 -0.0654228 0
M  V30 3667 C 340.197 3.3817 -0.222361 0
M  V30 3668 C 339.37 4.18928 -1.25771 0
M  V30 3669 C 338.429 5.21985 -0.664703 0
M  V30 3670 O 337.455 5.53334 -1.33453 0
M  V30 3671 N 338.657 5.77919 0.546834 0
M  V30 3672 H 341.422 2.42578 -1.75999 0
M  V30 3673 H 338.983 1.21967 -1.06469 0
M  V30 3674 H 340.975 4.04266 0.187472 0
M  V30 3675 H 339.545 3.06655 0.606758 0
M  V30 3676 H 338.765 3.48433 -1.84358 0
M  V30 3677 H 340.053 4.69687 -1.95631 0
M  V30 3678 H 339.451 5.54721 1.10912 0
M  V30 3679 H 338.008 6.45573 0.898829 0
M  V30 3680 N 341.441 0.965919 1.2453 0
M  V30 3681 C 342.681 0.634656 1.94297 0
M  V30 3682 C 343.045 -0.814822 1.73852 0
M  V30 3683 O 344.246 -1.25622 2.3764 0
M  V30 3684 C 342.517 0.99702 3.43212 0
M  V30 3685 S 344.076 0.780038 4.31811 0
M  V30 3686 H 340.894 0.232893 0.671775 0
M  V30 3687 H 343.496 1.24249 1.50938 0
M  V30 3688 H 342.2 2.04886 3.55598 0
M  V30 3689 H 341.731 0.379888 3.91562 0
M  V30 3690 H 343.746 -0.343512 4.9501 0
M  V30 3691 N 342.919 -1.39368 0.735821 0
M  V30 3692 C 343.869 -2.27885 0.0724287 0
M  V30 3693 C 344.853 -1.44301 -0.711756 0
M  V30 3694 O 346.045 -1.67206 -0.58063 0
M  V30 3695 C 343.174 -3.33029 -0.833454 0
M  V30 3696 C 342.26 -4.24078 -0.0433749 0
M  V30 3697 N 342.651 -4.96138 0.983903 0
M  V30 3698 C 340.949 -4.45164 -0.272905 0
M  V30 3699 C 341.65 -5.63069 1.4604 0
M  V30 3700 N 340.626 -5.37991 0.778857 0
M  V30 3701 H 344.428 -2.81052 0.859467 0
M  V30 3702 H 341.942 -1.5206 0.570227 0
M  V30 3703 H 343.939 -3.95311 -1.32419 0
M  V30 3704 H 342.599 -2.81421 -1.61964 0
M  V30 3705 H 343.61 -4.9958 1.36528 0
M  V30 3706 H 340.287 -4.04497 -1.03383 0
M  V30 3707 H 341.677 -6.30755 2.31511 0
M  V30 3708 N 344.397 -0.483516 -1.5 0
M  V30 3709 C 345.643 0.0672592 -2.02688 0
M  V30 3710 C 345.976 1.38247 -1.36387 0
M  V30 3711 O 345.251 1.88131 -0.493675 0
M  V30 3712 C 345.534 0.238109 -3.59312 0
M  V30 3713 C 345.387 -1.099 -4.36168 0
M  V30 3714 C 346.706 0.986916 -4.28892 0
M  V30 3715 H 343.825 0.0229696 -0.736642 0
M  V30 3716 H 346.467 -0.631527 -1.79197 0
M  V30 3717 H 344.617 0.8333 -3.79458 0
M  V30 3718 H 346.289 -1.73172 -4.27562 0
M  V30 3719 H 344.532 -1.69261 -3.99416 0
M  V30 3720 H 345.203 -0.932954 -5.44059 0
M  V30 3721 H 347.679 0.482302 -4.13295 0
M  V30 3722 H 346.555 1.07527 -5.38265 0
M  V30 3723 H 346.816 2.0265 -3.92919 0
M  V30 3724 N 345.875 1.56104 -0.216619 0
M  V30 3725 C 346.785 2.23694 0.706982 0
M  V30 3726 C 347.801 1.24295 1.21765 0
M  V30 3727 O 348.977 1.57094 1.2603 0
M  V30 3728 C 346.042 2.8998 1.90033 0
M  V30 3729 C 345.103 4.04708 1.43213 0
M  V30 3730 C 344.336 4.67824 2.56859 0
M  V30 3731 O 344.559 4.29913 3.74874 0
M  V30 3732 O 343.493 5.56905 2.28343 0
M  V30 3733 H 347.319 3.03272 0.161235 0
M  V30 3734 H 344.904 1.49394 0.0136177 0
M  V30 3735 H 346.786 3.31837 2.59735 0
M  V30 3736 H 345.461 2.13365 2.43428 0
M  V30 3737 H 344.368 3.6743 0.70327 0
M  V30 3738 H 345.701 4.83051 0.944615 0
M  V30 3739 N 347.353 -0.0568162 1.57498 0
M  V30 3740 C 348.583 -0.764515 1.91934 0
M  V30 3741 C 348.991 -1.70877 0.81227 0
M  V30 3742 O 348.334 -1.82351 -0.222213 0
M  V30 3743 C 348.396 -1.5994 3.21962 0
M  V30 3744 C 348.06 -0.822925 4.4953 0
M  V30 3745 C 349.057 -0.135464 5.19723 0
M  V30 3746 C 346.742 -0.785666 4.96117 0
M  V30 3747 C 348.736 0.578861 6.34766 0
M  V30 3748 C 346.423 -0.0675784 6.11063 0
M  V30 3749 C 347.421 0.613471 6.80239 0
M  V30 3750 O 347.109 1.31996 7.92989 0
M  V30 3751 H 346.841 -0.221647 0.63863 0
M  V30 3752 H 349.395 -0.0268218 2.05382 0
M  V30 3753 H 347.625 -2.38026 3.04763 0
M  V30 3754 H 349.314 -2.18715 3.41934 0
M  V30 3755 H 350.08 -0.155458 4.84751 0
M  V30 3756 H 345.959 -1.30524 4.42136 0
M  V30 3757 H 349.503 1.111 6.88696 0
M  V30 3758 H 345.4 -0.0455636 6.45484 0
M  V30 3759 H 346.168 1.23077 8.09194 0
M  V30 3760 N 348.832 -1.54138 -0.328536 0
M  V30 3761 C 350.062 -1.75807 -1.08516 0
M  V30 3762 C 350.47 -0.50428 -1.82356 0
M  V30 3763 O 349.813 0.534451 -1.75754 0
M  V30 3764 C 349.875 -2.89423 -2.13248 0
M  V30 3765 C 349.539 -4.28504 -1.5885 0
M  V30 3766 C 350.536 -5.09536 -1.03289 0
M  V30 3767 C 348.221 -4.75034 -1.63243 0
M  V30 3768 C 350.215 -6.35206 -0.52845 0
M  V30 3769 C 347.902 -6.00672 -1.12411 0
M  V30 3770 C 348.9 -6.80592 -0.573062 0
M  V30 3771 O 348.588 -8.03867 -0.0723692 0
M  V30 3772 H 348.32 -0.590633 -0.328829 0
M  V30 3773 H 350.874 -2.01819 -0.381868 0
M  V30 3774 H 349.104 -2.5897 -2.87178 0
M  V30 3775 H 350.793 -2.98921 -2.74592 0
M  V30 3776 H 351.559 -4.74745 -0.99206 0
M  V30 3777 H 347.438 -4.12875 -2.05074 0
M  V30 3778 H 350.982 -6.97532 -0.0976774 0
M  V30 3779 H 346.879 -6.34955 -1.162 0
M  V30 3780 H 347.647 -8.18283 -0.188258 0
M  V30 3781 N 350.31 0.590341 -1.46126 0
M  V30 3782 C 351.557 1.34882 -1.5104 0
M  V30 3783 C 351.885 1.93849 -0.159021 0
M  V30 3784 O 351.14 1.76544 0.844436 0
M  V30 3785 C 351.439 2.5032 -2.55097 0
M  V30 3786 C 351.105 2.09394 -3.99331 0
M  V30 3787 C 349.767 1.97947 -4.38601 0
M  V30 3788 C 352.119 1.77712 -4.89967 0
M  V30 3789 C 349.447 1.53065 -5.66381 0
M  V30 3790 C 351.799 1.34312 -6.18177 0
M  V30 3791 C 350.463 1.21436 -6.56361 0
M  V30 3792 H 349.733 0.493568 -0.552695 0
M  V30 3793 H 352.38 0.665539 -1.79563 0
M  V30 3794 H 350.685 3.24062 -2.20207 0
M  V30 3795 H 352.382 3.08541 -2.56132 0
M  V30 3796 H 348.972 2.19235 -3.68285 0
M  V30 3797 H 353.156 1.85445 -4.60352 0
M  V30 3798 H 348.412 1.41733 -5.94745 0
M  V30 3799 H 352.586 1.08849 -6.87841 0
M  V30 3800 H 350.213 0.864345 -7.5527 0
M  V30 3801 N 351.788 1.33704 0.83433 0
M  V30 3802 C 352.736 1.24323 1.96587 0
M  V30 3803 C 353.73 0.143659 1.6879 0
M  V30 3804 O 354.936 0.30791 1.77347 0
M  V30 3805 H 351.311 0.385925 0.645419 0
M  V30 3806 H 353.282 2.19978 2.01624 0
M  V30 3807 C 352.031 1.00394 3.32891 0
M  V30 3808 H 351.354 1.84231 3.54822 0
M  V30 3809 H 352.794 0.97862 4.12552 0
M  V30 3810 C 351.253 -0.293047 3.35623 0
M  V30 3811 O 351.783 -1.29823 3.80143 0
M  V30 3812 N 349.989 -0.322174 2.88809 0
M  V30 3813 H 349.536 0.496379 2.52772 0
M  V30 3814 H 349.494 -1.18977 2.91019 0
M  V30 3815 N 353.266 -1.05314 1.17247 0
M  V30 3816 C 354.514 -1.77941 0.958194 0
M  V30 3817 C 354.835 -1.88089 -0.514556 0
M  V30 3818 O 354.105 -1.39676 -1.37359 0
M  V30 3819 H 352.685 -0.659116 0.351533 0
M  V30 3820 H 355.347 -1.27166 1.47699 0
M  V30 3821 H 354.443 -2.79663 1.38546 0
M  V30 3822 N 354.744 -0.972509 -1.24016 0
M  V30 3823 C 356.155 -0.67517 -1.74064 0
M  V30 3824 C 356.506 0.808939 -1.78747 0
M  V30 3825 O 355.631 1.63286 -1.42009 0
M  V30 3826 C 356.226 -1.21889 -3.16115 0
M  V30 3827 C 354.785 -0.971358 -3.6365 0
M  V30 3828 C 353.932 -1.35134 -2.42145 0
M  V30 3829 H 356.883 -1.14727 -1.09651 0
M  V30 3830 H 356.904 -0.587489 -3.75937 0
M  V30 3831 H 356.416 -2.29906 -3.12674 0
M  V30 3832 H 354.517 0.0930686 -3.72484 0
M  V30 3833 H 354.63 -1.62039 -4.50866 0
M  V30 3834 H 352.994 -0.769751 -2.4279 0
M  V30 3835 H 353.777 -2.4411 -2.41381 0
M  V30 3836 N 356.222 1.38976 -0.743202 0
M  V30 3837 C 357.45 2.04636 -0.30525 0
M  V30 3838 C 357.865 1.56044 1.06281 0
M  V30 3839 O 357.222 0.728921 1.67311 0
M  V30 3840 C 357.273 3.60193 -0.307177 0
M  V30 3841 O 356.994 4.06998 -1.62124 0
M  V30 3842 C 358.495 4.4306 0.145928 0
M  V30 3843 H 355.715 0.65788 -0.132041 0
M  V30 3844 H 358.259 1.77866 -1.00915 0
M  V30 3845 H 356.414 3.85835 0.347898 0
M  V30 3846 H 356.828 5.01371 -1.54036 0
M  V30 3847 H 358.302 5.51921 0.0934183 0
M  V30 3848 H 358.779 4.22706 1.19231 0
M  V30 3849 H 359.385 4.22584 -0.479886 0
M  V30 3850 N 357.7 0.491464 1.49741 0
M  V30 3851 C 358.633 -0.338464 2.25676 0
M  V30 3852 C 359.611 -0.978676 1.29849 0
M  V30 3853 O 360.795 -1.01064 1.59117 0
M  V30 3854 C 357.922 -1.47588 3.04853 0
M  V30 3855 C 356.968 -0.951 4.15762 0
M  V30 3856 S 357.801 0.150626 5.35288 0
M  V30 3857 C 358.957 -0.990178 6.18018 0
M  V30 3858 H 359.19 0.306068 2.9572 0
M  V30 3859 H 356.723 0.276622 1.51902 0
M  V30 3860 H 358.681 -2.12764 3.51058 0
M  V30 3861 H 357.342 -2.09199 2.34296 0
M  V30 3862 H 356.535 -1.80311 4.70642 0
M  V30 3863 H 356.137 -0.376607 3.72099 0
M  V30 3864 H 358.429 -1.89748 6.50386 0
M  V30 3865 H 359.372 -0.480205 7.0647 0
M  V30 3866 H 359.78 -1.25321 5.50413 0
M  V30 3867 N 359.178 -1.55987 0.224894 0
M  V30 3868 C 360.426 -1.97998 -0.405099 0
M  V30 3869 C 360.747 -1.11387 -1.60056 0
M  V30 3870 O 360.017 -0.191645 -1.9496 0
M  V30 3871 H 358.597 -0.731235 -0.152658 0
M  V30 3872 H 361.259 -1.92279 0.318567 0
M  V30 3873 H 360.355 -3.03463 -0.729167 0
M  V30 3874 N 360.656 0.0484629 -1.57525 0
M  V30 3875 C 361.902 0.744226 -1.88651 0
M  V30 3876 C 362.235 1.76029 -0.820212 0
M  V30 3877 O 361.51 1.93782 0.166985 0
M  V30 3878 C 361.793 1.43128 -3.30434 0
M  V30 3879 C 361.646 0.43005 -4.47739 0
M  V30 3880 C 362.965 2.37031 -3.70816 0
M  V30 3881 H 360.084 0.269089 -0.68612 0
M  V30 3882 H 362.726 0.00713532 -1.89999 0
M  V30 3883 H 360.876 2.05956 -3.29415 0
M  V30 3884 H 362.548 -0.194816 -4.60888 0
M  V30 3885 H 360.791 -0.252522 -4.33064 0
M  V30 3886 H 361.462 0.948874 -5.43783 0
M  V30 3887 H 363.938 1.84263 -3.73077 0
M  V30 3888 H 362.814 2.82094 -4.70865 0
M  V30 3889 H 363.075 3.22864 -3.02012 0
M  V30 3890 N 362.134 1.5431 0.320358 0
M  V30 3891 C 363.082 1.84647 1.4145 0
M  V30 3892 C 364.076 0.718624 1.53402 0
M  V30 3893 O 365.282 0.902335 1.5575 0
M  V30 3894 H 361.657 0.585349 0.472091 0
M  V30 3895 H 363.628 2.7614 1.13089 0
M  V30 3896 C 362.377 2.09341 2.77617 0
M  V30 3897 H 361.7 2.9559 2.69196 0
M  V30 3898 H 363.14 2.3452 3.53237 0
M  V30 3899 C 361.599 0.885939 3.25043 0
M  V30 3900 O 362.129 0.0967891 4.01583 0
M  V30 3901 N 360.335 0.696682 2.82125 0
M  V30 3902 H 359.882 1.34006 2.2 0
M  V30 3903 H 359.84 -0.109712 3.14209 0
M  V30 3904 N 363.613 -0.582584 1.46437 0
M  V30 3905 C 364.56 -1.69164 1.5701 0
M  V30 3906 C 365.53 -1.60847 0.414403 0
M  V30 3907 O 366.715 -1.80058 0.631171 0
M  V30 3908 C 363.855 -3.075 1.56646 0
M  V30 3909 C 362.968 -3.2644 2.82951 0
M  V30 3910 C 362.103 -4.55026 2.7409 0
M  V30 3911 C 361.142 -4.6731 3.95333 0
M  V30 3912 N 360.279 -5.87221 3.84858 0
M  V30 3913 H 365.119 -1.59464 2.51744 0
M  V30 3914 H 362.656 -0.777186 1.24893 0
M  V30 3915 H 364.614 -3.8757 1.5442 0
M  V30 3916 H 363.244 -3.16096 0.654439 0
M  V30 3917 H 362.296 -2.39974 2.95155 0
M  V30 3918 H 363.608 -3.31385 3.72808 0
M  V30 3919 H 362.762 -5.43324 2.6997 0
M  V30 3920 H 361.501 -4.52519 1.81873 0
M  V30 3921 H 360.506 -3.77429 3.99784 0
M  V30 3922 H 361.731 -4.71595 4.88646 0
M  V30 3923 H 359.677 -5.85712 2.95427 0
M  V30 3924 H 359.594 -5.93435 4.6837 0
M  V30 3925 H 360.862 -6.7795 3.84713 0
M  V30 3926 N 365.091 -1.34144 -0.827227 0
M  V30 3927 C 366.038 -1.25364 -1.93785 0
M  V30 3928 C 367.008 -0.129774 -1.65592 0
M  V30 3929 O 368.193 -0.310024 -1.88264 0
M  V30 3930 C 365.333 -1.01064 -3.2997 0
M  V30 3931 C 364.446 -2.22185 -3.70484 0
M  V30 3932 C 363.581 -1.91203 -4.95595 0
M  V30 3933 C 362.62 -3.08491 -5.28677 0
M  V30 3934 N 361.757 -2.77421 -6.44967 0
M  V30 3935 H 366.597 -2.20347 -2.00627 0
M  V30 3936 H 364.134 -1.09558 -0.981608 0
M  V30 3937 H 366.092 -0.850139 -4.08446 0
M  V30 3938 H 364.722 -0.0975026 -3.22653 0
M  V30 3939 H 363.774 -2.4917 -2.87434 0
M  V30 3940 H 365.086 -3.0983 -3.90905 0
M  V30 3941 H 364.24 -1.71864 -5.81848 0
M  V30 3942 H 362.979 -1.00812 -4.77167 0
M  V30 3943 H 361.984 -3.28431 -4.40923 0
M  V30 3944 H 363.209 -3.99655 -5.49047 0
M  V30 3945 H 361.155 -1.89601 -6.28003 0
M  V30 3946 H 361.072 -3.58598 -6.6554 0
M  V30 3947 H 362.34 -2.61577 -7.34301 0
M  V30 3948 N 366.569 1.04691 -1.17803 0
M  V30 3949 C 367.98 1.59238 -0.974689 0
M  V30 3950 C 368.331 1.90306 0.477292 0
M  V30 3951 O 367.456 1.68846 1.35352 0
M  V30 3952 C 368.051 2.89318 -1.76296 0
M  V30 3953 C 366.61 3.40506 -1.60414 0
M  V30 3954 C 365.757 2.14172 -1.76141 0
M  V30 3955 H 368.708 0.874395 -1.32439 0
M  V30 3956 H 368.729 3.5944 -1.24833 0
M  V30 3957 H 368.241 2.66675 -2.81968 0
M  V30 3958 H 366.342 3.68175 -0.572519 0
M  V30 3959 H 366.455 4.14753 -2.39827 0
M  V30 3960 H 364.819 2.25176 -1.19028 0
M  V30 3961 H 365.602 1.93992 -2.83235 0
M  V30 3962 N 368.047 0.979072 1.23499 0
M  V30 3963 C 369.293 0.648178 1.92163 0
M  V30 3964 C 369.626 -0.816049 1.76222 0
M  V30 3965 O 368.901 -1.58849 1.12237 0
M  V30 3966 C 369.184 1.03773 3.44824 0
M  V30 3967 C 369.037 2.55948 3.69879 0
M  V30 3968 C 370.356 0.580653 4.36253 0
M  V30 3969 H 367.475 0.236952 0.69787 0
M  V30 3970 H 370.117 1.22012 1.45647 0
M  V30 3971 H 368.267 0.551058 3.84572 0
M  V30 3972 H 369.939 3.12179 3.3962 0
M  V30 3973 H 368.182 2.98641 3.14636 0
M  V30 3974 H 368.853 2.78255 4.76737 0
M  V30 3975 H 371.329 0.998465 4.03943 0
M  V30 3976 H 370.205 0.881663 5.41773 0
M  V30 3977 H 370.466 -0.519052 4.39042 0
M  V30 3978 N 369.525 -1.3858 0.750561 0
M  V30 3979 C 370.772 -2.00184 0.305373 0
M  V30 3980 C 371.1 -1.59575 -1.11203 0
M  V30 3981 O 370.355 -0.823236 -1.77542 0
M  V30 3982 C 370.654 -3.55455 0.372373 0
M  V30 3983 C 370.32 -4.15765 1.745 0
M  V30 3984 C 368.982 -4.31951 2.12065 0
M  V30 3985 C 371.334 -4.49067 2.64553 0
M  V30 3986 C 368.662 -4.78734 3.39162 0
M  V30 3987 C 371.014 -4.97265 3.91038 0
M  V30 3988 C 369.678 -5.11658 4.28676 0
M  V30 3989 H 368.948 -0.732526 0.111744 0
M  V30 3990 H 371.595 -1.65673 0.960451 0
M  V30 3991 H 369.9 -3.90084 -0.366272 0
M  V30 3992 H 371.597 -4.00999 0.00953918 0
M  V30 3993 H 368.187 -4.03579 1.44297 0
M  V30 3994 H 372.371 -4.36166 2.36796 0
M  V30 3995 H 367.627 -4.88062 3.68246 0
M  V30 3996 H 371.801 -5.22003 4.60962 0
M  V30 3997 H 369.428 -5.47668 5.27222 0
M  V30 3998 N 371.003 -0.499398 -1.49478 0
M  V30 3999 C 372.414 -0.051215 -1.8663 0
M  V30 4000 C 372.765 1.36238 -1.41186 0
M  V30 4001 O 371.89 2.01502 -0.789051 0
M  V30 4002 C 372.485 -0.0861651 -3.3869 0
M  V30 4003 C 371.044 0.30667 -3.75149 0
M  V30 4004 C 370.191 -0.459397 -2.73468 0
M  V30 4005 H 373.142 -0.712264 -1.41818 0
M  V30 4006 H 373.163 0.709507 -3.73826 0
M  V30 4007 H 372.675 -1.11512 -3.71735 0
M  V30 4008 H 370.776 1.33892 -3.47712 0
M  V30 4009 H 370.889 -0.0116669 -4.79099 0
M  V30 4010 H 369.253 0.0905645 -2.54539 0
M  V30 4011 H 370.036 -1.4884 -3.09357 0
M  V30 4012 N 372.481 1.55866 -0.233164 0
M  V30 4013 C 373.727 1.99643 0.389148 0
M  V30 4014 C 374.082 1.11836 1.56558 0
M  V30 4015 O 373.375 0.170848 1.90837 0
M  V30 4016 C 373.569 3.46856 0.861724 0
M  V30 4017 C 373.398 4.48904 -0.267376 0
M  V30 4018 C 372.168 4.99888 -0.737577 0
M  V30 4019 C 374.366 5.02624 -1.08966 0
M  V30 4020 N 372.348 5.8566 -1.84052 0
M  V30 4021 C 373.719 5.85434 -2.04125 0
M  V30 4022 C 375.774 4.84959 -1.12779 0
M  V30 4023 C 374.477 6.52466 -3.02789 0
M  V30 4024 C 376.503 5.52759 -2.10266 0
M  V30 4025 C 375.865 6.35346 -3.04162 0
M  V30 4026 H 371.964 0.774402 0.108742 0
M  V30 4027 H 374.548 1.91572 -0.347596 0
M  V30 4028 H 372.719 3.55352 1.5678 0
M  V30 4029 H 374.451 3.77531 1.45783 0
M  V30 4030 H 371.206 4.7249 -0.324122 0
M  V30 4031 H 371.63 6.33246 -2.39434 0
M  V30 4032 H 376.272 4.20751 -0.415749 0
M  V30 4033 H 373.99 7.15849 -3.74948 0
M  V30 4034 H 377.576 5.41051 -2.13905 0
M  V30 4035 H 376.456 6.86883 -3.78366 0
M  V30 4036 N 373.959 -0.0401083 1.57549 0
M  V30 4037 C 374.922 -1.02871 2.04817 0
M  V30 4038 C 375.922 -1.29708 0.950388 0
M  V30 4039 O 377.112 -1.24897 1.21435 0
M  V30 4040 C 374.244 -2.36443 2.45576 0
M  V30 4041 H 375.437 -0.620631 2.93408 0
M  V30 4042 H 372.99 -0.286667 1.53649 0
M  V30 4043 H 373.725 -2.82021 1.60108 0
M  V30 4044 H 373.51 -2.18296 3.25713 0
M  V30 4045 H 375 -3.07441 2.82612 0
M  V30 4046 N 375.437 -1.54477 -0.31217 0
M  V30 4047 C 376.347 -1.87695 -1.4074 0
M  V30 4048 C 377.363 -0.769975 -1.56036 0
M  V30 4049 O 378.539 -1.06537 -1.70915 0
M  V30 4050 C 375.604 -2.10755 -2.75287 0
M  V30 4051 C 374.665 -3.34514 -2.69071 0
M  V30 4052 C 373.898 -3.56465 -3.97201 0
M  V30 4053 O 374.121 -2.81637 -4.96021 0
M  V30 4054 O 373.055 -4.49964 -3.9977 0
M  V30 4055 H 376.881 -2.80849 -1.15574 0
M  V30 4056 H 374.466 -1.40526 -0.507228 0
M  V30 4057 H 376.348 -2.27188 -3.54913 0
M  V30 4058 H 375.023 -1.20788 -3.0032 0
M  V30 4059 H 373.93 -3.23456 -1.87955 0
M  V30 4060 H 375.263 -4.24575 -2.48992 0
M  V30 4061 N 376.915 0.57481 -1.46744 0
M  V30 4062 C 378.163 1.33009 -1.52161 0
M  V30 4063 C 378.484 1.94185 -0.178092 0
M  V30 4064 O 377.754 1.7899 0.796196 0
M  V30 4065 H 376.334 0.493873 -0.560445 0
M  V30 4066 H 378.996 0.672589 -1.82927 0
M  V30 4067 H 378.092 2.13273 -2.27862 0
M  V30 4068 N 378.394 1.34581 0.820102 0
M  V30 4069 C 379.641 1.27096 1.57648 0
M  V30 4070 C 379.969 -0.158317 1.93855 0
M  V30 4071 O 379.224 -1.12028 1.60463 0
M  V30 4072 C 379.523 2.10997 2.8847 0
M  V30 4073 C 379.189 3.59966 2.71543 0
M  V30 4074 C 377.851 4.00575 2.66634 0
M  V30 4075 C 380.203 4.54548 2.55021 0
M  V30 4076 C 377.531 5.33953 2.43128 0
M  V30 4077 C 379.883 5.88109 2.33047 0
M  V30 4078 C 378.547 6.27878 2.26552 0
M  V30 4079 H 377.817 0.465078 0.576874 0
M  V30 4080 H 380.464 1.6635 0.948671 0
M  V30 4081 H 378.769 1.6458 3.55557 0
M  V30 4082 H 380.466 2.0255 3.46084 0
M  V30 4083 H 377.056 3.27733 2.76205 0
M  V30 4084 H 381.24 4.24069 2.57835 0
M  V30 4085 H 376.496 5.63781 2.3656 0
M  V30 4086 H 380.67 6.60985 2.19251 0
M  V30 4087 H 378.297 7.31162 2.081 0
M  V30 4088 N 379.872 -1.04064 1.18357 0
M  V30 4089 C 381.149 -1.74252 0.888581 0
M  V30 4090 C 381.529 -2.02138 -0.60856 0
M  V30 4091 O 380.877 -1.66656 -1.56327 0
M  V30 4092 C 381.087 -3.0277 1.73584 0
M  V30 4093 C 382.435 -3.76506 1.96286 0
M  V30 4094 O 383.459 -3.12668 1.70637 0
M  V30 4095 O 382.318 -4.91243 2.39464 0
M  V30 4096 H 379.412 -0.758271 0.330082 0
M  V30 4097 H 381.958 -1.1013 1.2911 0
M  V30 4098 H 380.73 -2.78299 2.75073 0
M  V30 4099 H 380.353 -3.74631 1.33183 0
M  V30 4100 N 381.35 -0.985608 -1.22978 0
M  V30 4101 C 382.761 -0.693593 -1.73338 0
M  V30 4102 C 383.112 0.789935 -1.79595 0
M  V30 4103 O 382.237 1.61771 -1.43733 0
M  V30 4104 C 382.832 -1.25235 -3.14804 0
M  V30 4105 C 381.391 -1.00987 -3.626 0
M  V30 4106 C 380.538 -1.37695 -2.40698 0
M  V30 4107 H 383.489 -1.15884 -1.08428 0
M  V30 4108 H 383.51 -0.627329 -3.75293 0
M  V30 4109 H 383.022 -2.33209 -3.10218 0
M  V30 4110 H 381.123 0.0535565 -3.72562 0
M  V30 4111 H 381.236 -1.66812 -4.49122 0
M  V30 4112 H 379.6 -0.795459 -2.4196 0
M  V30 4113 H 380.383 -2.46657 -2.38779 0
M  V30 4114 N 382.828 1.3818 -0.7579 0
M  V30 4115 C 383.791 2.28764 -0.141286 0
M  V30 4116 C 384.791 1.47388 0.642907 0
M  V30 4117 O 385.981 1.67781 0.468536 0
M  V30 4118 C 383.113 3.31184 0.808069 0
M  V30 4119 H 384.306 2.848 -0.939633 0
M  V30 4120 H 381.859 1.47212 -0.525191 0
M  V30 4121 H 382.594 2.80247 1.63193 0
M  V30 4122 H 382.379 3.91314 0.248104 0
M  V30 4123 H 383.869 3.98909 1.23536 0
M  V30 4124 N 384.306 0.507319 1.49211 0
M  V30 4125 C 385.583 -0.0982702 1.95353 0
M  V30 4126 C 385.963 -1.53516 1.449 0
M  V30 4127 O 385.311 -2.18594 0.66551 0
M  V30 4128 C 385.521 -0.00440283 3.49 0
M  V30 4129 C 386.869 -0.175147 4.24239 0
M  V30 4130 O 387.893 -0.0792891 3.56112 0
M  V30 4131 O 386.752 -0.37276 5.45227 0
M  V30 4132 H 383.846 -0.0918236 0.821887 0
M  V30 4133 H 386.392 0.570307 1.5983 0
M  V30 4134 H 385.164 0.997402 3.78375 0
M  V30 4135 H 384.787 -0.712845 3.91158 0
M  V30 4136 N 385.784 -1.5574 0.241426 0
M  V30 4137 C 386.717 -2.17168 -0.700935 0
M  V30 4138 C 387.695 -1.12206 -1.1768 0
M  V30 4139 O 388.879 -1.40565 -1.25593 0
M  V30 4140 C 386.006 -2.76796 -1.95196 0
M  V30 4141 C 385.052 -3.94764 -1.61442 0
M  V30 4142 S 385.885 -5.30613 -0.72182 0
M  V30 4143 C 387.041 -5.93691 -1.98197 0
M  V30 4144 H 387.274 -2.96761 -0.178882 0
M  V30 4145 H 384.807 -1.54378 0.0259299 0
M  V30 4146 H 386.765 -3.11787 -2.67019 0
M  V30 4147 H 385.426 -1.9716 -2.44514 0
M  V30 4148 H 384.619 -4.35057 -2.54443 0
M  V30 4149 H 384.221 -3.61022 -0.976672 0
M  V30 4150 H 386.513 -6.10874 -2.92983 0
M  V30 4151 H 387.456 -6.89258 -1.62262 0
M  V30 4152 H 387.864 -5.22709 -2.13156 0
M  V30 4153 N 387.262 0.0317525 -1.57568 0
M  V30 4154 C 388.492 0.733884 -1.93126 0
M  V30 4155 C 388.9 1.69563 -0.839352 0
M  V30 4156 O 388.243 1.82681 0.193175 0
M  V30 4157 C 388.305 1.54798 -3.24465 0
M  V30 4158 C 387.969 0.751304 -4.50782 0
M  V30 4159 C 388.966 0.0527632 -5.19873 0
M  V30 4160 C 386.651 0.706639 -4.97305 0
M  V30 4161 C 388.645 -0.679774 -6.33765 0
M  V30 4162 C 386.332 -0.0296449 -6.11093 0
M  V30 4163 C 387.33 -0.721614 -6.79177 0
M  V30 4164 O 387.018 -1.44595 -7.90789 0
M  V30 4165 H 386.75 0.211459 -0.642076 0
M  V30 4166 H 389.304 -0.00585615 -2.05399 0
M  V30 4167 H 387.534 2.33147 -3.08512 0
M  V30 4168 H 389.223 2.13247 -3.4537 0
M  V30 4169 H 389.989 0.0783188 -4.84937 0
M  V30 4170 H 385.868 1.23474 -4.44157 0
M  V30 4171 H 389.412 -1.22042 -6.86842 0
M  V30 4172 H 385.309 -0.0571331 -6.45475 0
M  V30 4173 H 386.077 -1.35935 -8.07133 0
M  V30 4174 N 388.74 1.54641 0.303973 0
M  V30 4175 C 390.156 1.45788 0.649463 0
M  V30 4176 C 390.356 0.64666 1.90842 0
M  V30 4177 O 389.412 0.153183 2.52035 0
M  V30 4178 C 390.725 2.89718 0.805227 0
M  V30 4179 C 392.273 2.99742 0.901305 0
M  V30 4180 C 392.748 4.44863 1.08909 0
M  V30 4181 N 394.239 4.48559 1.15536 0
M  V30 4182 C 394.974 5.58026 1.3189 0
M  V30 4183 N 394.47 6.77422 1.45161 0
M  V30 4184 N 396.263 5.45708 1.34755 0
M  V30 4185 H 388.414 2.05854 -0.523237 0
M  V30 4186 H 390.677 0.932186 -0.172431 0
M  V30 4187 H 390.383 3.51666 -0.0489108 0
M  V30 4188 H 390.257 3.36964 1.69513 0
M  V30 4189 H 392.644 2.3791 1.74593 0
M  V30 4190 H 392.725 2.55797 -0.0125531 0
M  V30 4191 H 392.369 5.07288 0.249241 0
M  V30 4192 H 392.299 4.86436 2.01713 0
M  V30 4193 H 394.79 3.6254 1.06646 0
M  V30 4194 H 395.103 7.56604 1.57387 0
M  V30 4195 H 393.448 6.80292 1.42223 0
M  V30 4196 H 396.639 4.51378 1.23996 0
M  V30 4197 H 396.812 6.3107 1.47157 0
M  V30 4198 N 390.218 -0.567019 1.47046 0
M  V30 4199 C 391.448 -1.34831 1.56538 0
M  V30 4200 C 391.856 -1.8802 0.21101 0
M  V30 4201 O 391.199 -1.65152 -0.804387 0
M  V30 4202 C 391.261 -2.56139 2.52256 0
M  V30 4203 C 390.925 -2.24307 3.98165 0
M  V30 4204 C 391.922 -1.82192 4.86931 0
M  V30 4205 C 389.607 -2.35968 4.43423 0
M  V30 4206 C 391.601 -1.52153 6.18973 0
M  V30 4207 C 389.288 -2.05542 5.75496 0
M  V30 4208 C 390.286 -1.63701 6.63092 0
M  V30 4209 O 389.974 -1.33657 7.92711 0
M  V30 4210 H 389.706 -0.417683 0.531523 0
M  V30 4211 H 392.26 -0.694726 1.93294 0
M  V30 4212 H 390.49 -3.24356 2.10548 0
M  V30 4213 H 392.179 -3.18214 2.51982 0
M  V30 4214 H 392.945 -1.72684 4.53217 0
M  V30 4215 H 388.824 -2.67495 3.75456 0
M  V30 4216 H 392.368 -1.19421 6.87302 0
M  V30 4217 H 388.265 -2.14679 6.08755 0
M  V30 4218 H 389.033 -1.4737 8.05124 0
M  V30 4219 N 391.696 -1.35014 -0.812953 0
M  V30 4220 C 392.926 -1.30841 -1.59888 0
M  V30 4221 C 393.334 0.117576 -1.88834 0
M  V30 4222 O 392.677 1.07807 -1.48739 0
M  V30 4223 C 392.739 -2.0412 -2.95931 0
M  V30 4224 C 392.403 -3.53336 -2.89832 0
M  V30 4225 C 393.4 -4.48052 -2.63714 0
M  V30 4226 C 391.085 -3.95894 -3.0915 0
M  V30 4227 C 393.079 -5.833 -2.56982 0
M  V30 4228 C 390.766 -5.31239 -3.0204 0
M  V30 4229 C 391.764 -6.24754 -2.75991 0
M  V30 4230 O 391.452 -7.57617 -2.68833 0
M  V30 4231 H 391.184 -0.451215 -0.50337 0
M  V30 4232 H 393.738 -1.78354 -1.01877 0
M  V30 4233 H 391.968 -1.51235 -3.559 0
M  V30 4234 H 393.657 -1.93107 -3.57022 0
M  V30 4235 H 394.423 -4.16492 -2.48515 0
M  V30 4236 H 390.302 -3.23495 -3.28438 0
M  V30 4237 H 393.846 -6.56263 -2.36569 0
M  V30 4238 H 389.743 -5.62415 -3.16796 0
M  V30 4239 H 390.511 -7.67469 -2.84487 0
M  V30 4240 N 393.175 1.03435 -1.18907 0
M  V30 4241 C 394.452 1.73778 -0.89781 0
M  V30 4242 C 394.832 2.02458 0.597832 0
M  V30 4243 O 394.18 1.67482 1.55441 0
M  V30 4244 C 394.39 3.01845 -1.75187 0
M  V30 4245 C 395.738 3.7546 -1.9828 0
M  V30 4246 O 396.762 3.11759 -1.72293 0
M  V30 4247 O 395.621 4.89966 -2.42065 0
M  V30 4248 H 392.715 0.75651 -0.334098 0
M  V30 4249 H 395.261 1.09444 -1.29693 0
M  V30 4250 H 394.033 2.76836 -2.76545 0
M  V30 4251 H 393.656 3.73919 -1.35167 0
M  V30 4252 N 394.653 0.992116 1.22453 0
M  V30 4253 C 395.6 0.541731 2.24352 0
M  V30 4254 C 396.57 -0.425519 1.60557 0
M  V30 4255 O 397.755 -0.330453 1.87917 0
M  V30 4256 C 394.895 -0.138248 3.44823 0
M  V30 4257 C 394.008 0.870649 4.23136 0
M  V30 4258 C 393.143 0.164269 5.30946 0
M  V30 4259 C 392.182 1.16159 6.00977 0
M  V30 4260 N 391.319 0.483568 7.00433 0
M  V30 4261 H 396.159 1.41541 2.62241 0
M  V30 4262 H 393.696 0.709013 1.28885 0
M  V30 4263 H 395.654 -0.5494 4.13567 0
M  V30 4264 H 394.284 -0.975721 3.077 0
M  V30 4265 H 393.336 1.40013 3.53696 0
M  V30 4266 H 394.648 1.63014 4.7141 0
M  V30 4267 H 393.802 -0.303653 6.0594 0
M  V30 4268 H 392.541 -0.627733 4.83643 0
M  V30 4269 H 391.546 1.64015 5.24766 0
M  V30 4270 H 392.771 1.95445 6.50368 0
M  V30 4271 H 390.717 -0.289012 6.55363 0
M  V30 4272 H 390.634 1.18152 7.4671 0
M  V30 4273 H 391.902 0.0384219 7.79491 0
M  V30 4274 N 396.131 -1.37776 0.765217 0
M  V30 4275 C 397.081 -2.2768 0.12075 0
M  V30 4276 C 398.065 -1.45778 -0.680988 0
M  V30 4277 O 399.257 -1.684 -0.545033 0
M  V30 4278 C 396.386 -3.34722 -0.762626 0
M  V30 4279 C 395.472 -4.24074 0.0465881 0
M  V30 4280 N 395.863 -4.93939 1.08892 0
M  V30 4281 C 394.161 -4.45643 -0.178418 0
M  V30 4282 C 394.862 -5.59845 1.57951 0
M  V30 4283 N 393.838 -5.36218 0.892797 0
M  V30 4284 H 397.64 -2.79166 0.918889 0
M  V30 4285 H 395.154 -1.50816 0.602353 0
M  V30 4286 H 397.151 -3.98031 -1.24005 0
M  V30 4287 H 395.811 -2.84793 -1.55959 0
M  V30 4288 H 396.822 -4.96572 1.47095 0
M  V30 4289 H 393.499 -4.06599 -0.9478 0
M  V30 4290 H 394.889 -6.25703 2.44838 0
M  V30 4291 N 397.609 -0.515225 -1.4894 0
M  V30 4292 C 398.857 0.0241671 -2.02086 0
M  V30 4293 C 399.178 1.3616 -1.3959 0
M  V30 4294 O 398.448 1.87841 -0.556121 0
M  V30 4295 H 397.028 0.0119203 -0.746905 0
M  V30 4296 H 399.69 -0.675702 -1.82812 0
M  V30 4297 H 398.786 0.143385 -3.1177 0
M  V30 4298 N 399.087 1.5561 -0.249682 0
M  V30 4299 C 400.364 1.90932 0.424761 0
M  V30 4300 C 400.744 1.17078 1.75658 0
M  V30 4301 O 400.092 0.289176 2.26663 0
M  V30 4302 C 400.302 3.43975 0.590109 0
M  V30 4303 C 401.65 4.15281 0.884714 0
M  V30 4304 O 402.674 3.49729 0.67587 0
M  V30 4305 O 401.533 5.31236 1.28259 0
M  V30 4306 H 398.627 0.794815 0.228468 0
M  V30 4307 H 401.173 1.67135 -0.293954 0
M  V30 4308 H 399.945 3.89748 -0.34818 0
M  V30 4309 H 399.568 3.73644 1.35926 0
M  V30 4310 N 400.565 -0.0233959 1.57583 0
M  V30 4311 C 401.495 -1.02162 2.09965 0
M  V30 4312 C 402.476 -1.3735 1.00344 0
M  V30 4313 O 403.661 -1.46135 1.27899 0
M  V30 4314 C 400.791 -2.32081 2.58371 0
M  V30 4315 C 399.745 -2.1112 3.72307 0
M  V30 4316 C 399.071 -3.46848 4.06941 0
M  V30 4317 C 400.371 -1.49276 5.00514 0
M  V30 4318 H 402.065 -0.585557 2.93618 0
M  V30 4319 H 399.611 -0.280218 1.41247 0
M  V30 4320 H 401.564 -3.02249 2.93639 0
M  V30 4321 H 400.288 -2.77758 1.71808 0
M  V30 4322 H 398.947 -1.43384 3.37397 0
M  V30 4323 H 398.595 -3.90184 3.17436 0
M  V30 4324 H 398.295 -3.33646 4.83688 0
M  V30 4325 H 399.819 -4.18369 4.44747 0
M  V30 4326 H 401.233 -2.09368 5.33702 0
M  V30 4327 H 399.63 -1.46632 5.8191 0
M  V30 4328 H 400.7 -0.459217 4.82721 0
M  V30 4329 N 402.043 -1.548 -0.295768 0
M  V30 4330 C 402.975 -1.82492 -1.3867 0
M  V30 4331 C 403.988 -0.708134 -1.46592 0
M  V30 4332 O 405.177 -0.985686 -1.48817 0
M  V30 4333 C 402.277 -1.95256 -2.76999 0
M  V30 4334 C 401.45 -3.25709 -2.91946 0
M  V30 4335 C 400.509 -3.28824 -4.10806 0
M  V30 4336 O 399.535 -4.02328 -4.02643 0
M  V30 4337 N 400.737 -2.5459 -5.21694 0
M  V30 4338 H 403.502 -2.76646 -1.15269 0
M  V30 4339 H 401.063 -1.54438 -0.485849 0
M  V30 4340 H 403.055 -1.94736 -3.54768 0
M  V30 4341 H 401.625 -1.08072 -2.93324 0
M  V30 4342 H 400.845 -3.38959 -2.01247 0
M  V30 4343 H 402.133 -4.11786 -2.98847 0
M  V30 4344 H 401.531 -1.94512 -5.31208 0
M  V30 4345 H 400.088 -2.59818 -5.97778 0
M  V30 4346 N 403.521 0.559213 -1.47345 0
M  V30 4347 C 404.767 1.31843 -1.54095 0
M  V30 4348 C 405.1 1.93149 -0.201726 0
M  V30 4349 O 404.375 1.77759 0.789428 0
M  V30 4350 C 404.658 2.43006 -2.65744 0
M  V30 4351 C 404.511 1.86581 -4.09277 0
M  V30 4352 C 405.83 3.44943 -2.73318 0
M  V30 4353 H 402.949 0.478012 -0.560957 0
M  V30 4354 H 405.591 0.625977 -1.79392 0
M  V30 4355 H 403.741 3.02072 -2.44305 0
M  V30 4356 H 405.413 1.31792 -4.42073 0
M  V30 4357 H 403.656 1.17268 -4.17649 0
M  V30 4358 H 404.327 2.66933 -4.83168 0
M  V30 4359 H 406.803 2.95793 -2.92653 0
M  V30 4360 H 405.679 4.20153 -3.53218 0
M  V30 4361 H 405.94 4.03665 -1.80296 0
M  V30 4362 N 404.999 1.35443 0.805782 0
M  V30 4363 C 405.946 1.28431 1.91766 0
M  V30 4364 C 406.916 0.156102 1.65365 0
M  V30 4365 O 408.101 0.339936 1.87747 0
M  V30 4366 C 405.241 1.06301 3.2832 0
M  V30 4367 C 404.354 2.2805 3.66902 0
M  V30 4368 C 403.489 1.99064 4.92491 0
M  V30 4369 C 402.528 3.16863 5.23703 0
M  V30 4370 N 401.665 2.87647 6.40471 0
M  V30 4371 H 406.505 2.23511 1.97096 0
M  V30 4372 H 404.042 1.11105 0.964054 0
M  V30 4373 H 406 0.915012 4.07042 0
M  V30 4374 H 404.63 0.148822 3.22457 0
M  V30 4375 H 403.682 2.53711 2.83434 0
M  V30 4376 H 404.994 3.1601 3.85927 0
M  V30 4377 H 404.148 1.81099 5.7904 0
M  V30 4378 H 402.887 1.0839 4.75503 0
M  V30 4379 H 401.892 3.35404 4.35642 0
M  V30 4380 H 403.117 4.08339 5.4262 0
M  V30 4381 H 401.063 1.99568 6.24907 0
M  V30 4382 H 400.98 3.69141 6.59751 0
M  V30 4383 H 402.248 2.73226 7.30047 0
M  V30 4384 N 406.477 -1.02803 1.19454 0
M  V30 4385 C 407.725 -1.75869 0.995722 0
M  V30 4386 C 408.046 -1.89138 -0.474543 0
M  V30 4387 O 407.316 -1.42558 -1.34366 0
M  V30 4388 H 405.896 -0.651511 0.365435 0
M  V30 4389 H 408.558 -1.24004 1.50363 0
M  V30 4390 H 407.654 -2.76661 1.44447 0
M  V30 4391 N 407.956 -0.998596 -1.21925 0
M  V30 4392 C 409.203 -0.677663 -1.90824 0
M  V30 4393 C 409.531 0.790905 -1.77693 0
M  V30 4394 O 408.786 1.58817 -1.14349 0
M  V30 4395 C 409.085 -1.03648 -3.42041 0
M  V30 4396 C 408.751 -2.49825 -3.75364 0
M  V30 4397 C 407.413 -2.8977 -3.8417 0
M  V30 4398 C 409.765 -3.44545 -3.91073 0
M  V30 4399 C 407.093 -4.23412 -4.06127 0
M  V30 4400 C 409.445 -4.77853 -4.14535 0
M  V30 4401 C 408.109 -5.17531 -4.21566 0
M  V30 4402 H 407.379 -0.247975 -0.698276 0
M  V30 4403 H 410.026 -1.25584 -1.44571 0
M  V30 4404 H 408.331 -0.376457 -3.89987 0
M  V30 4405 H 410.028 -0.766113 -3.93614 0
M  V30 4406 H 406.618 -2.17866 -3.69097 0
M  V30 4407 H 410.802 -3.14853 -3.83642 0
M  V30 4408 H 406.058 -4.53734 -4.09799 0
M  V30 4409 H 410.232 -5.51189 -4.25633 0
M  V30 4410 H 407.859 -6.21102 -4.38333 0
M  V30 4411 N 409.434 1.37368 -0.772513 0
M  V30 4412 C 410.344 2.34053 -0.160081 0
M  V30 4413 C 411.36 1.60216 0.678728 0
M  V30 4414 O 412.536 1.92303 0.59847 0
M  V30 4415 C 409.601 3.3939 0.708182 0
M  V30 4416 C 408.662 4.29048 -0.147172 0
M  V30 4417 C 407.895 5.29354 0.679744 0
M  V30 4418 O 408.118 5.3723 1.91678 0
M  V30 4419 O 407.052 6.01835 0.0885444 0
M  V30 4420 H 410.878 2.88159 -0.959053 0
M  V30 4421 H 408.463 1.39543 -0.533685 0
M  V30 4422 H 410.345 4.03839 1.20384 0
M  V30 4423 H 409.02 2.8761 1.48533 0
M  V30 4424 H 407.927 3.67697 -0.689205 0
M  V30 4425 H 409.26 4.84134 -0.887423 0
M  V30 4426 N 410.912 0.523116 1.48665 0
M  V30 4427 C 412.16 -0.0134497 2.02096 0
M  V30 4428 C 412.481 -1.35418 1.40311 0
M  V30 4429 O 411.751 -1.87543 0.566074 0
M  V30 4430 H 410.331 -0.00795915 0.746958 0
M  V30 4431 H 412.993 0.685388 1.82451 0
M  V30 4432 H 412.089 -0.126849 3.11842 0
M  V30 4433 N 412.39 -1.55475 0.257931 0
M  V30 4434 C 413.337 -2.21837 -0.636939 0
M  V30 4435 C 414.307 -1.18596 -1.16294 0
M  V30 4436 O 415.492 -1.47081 -1.21539 0
M  V30 4437 C 412.632 -2.9301 -1.82317 0
M  V30 4438 C 411.745 -4.10931 -1.33265 0
M  V30 4439 C 410.88 -4.69791 -2.47931 0
M  V30 4440 C 409.919 -5.7994 -1.95796 0
M  V30 4441 N 409.056 -6.32935 -3.0387 0
M  V30 4442 H 413.896 -2.9793 -0.0643591 0
M  V30 4443 H 411.433 -1.47086 -0.0200031 0
M  V30 4444 H 413.391 -3.3248 -2.52018 0
M  V30 4445 H 412.021 -2.1937 -2.36805 0
M  V30 4446 H 411.073 -3.76699 -0.52931 0
M  V30 4447 H 412.385 -4.90417 -0.910654 0
M  V30 4448 H 411.539 -5.11892 -3.25656 0
M  V30 4449 H 410.278 -3.89545 -2.93438 0
M  V30 4450 H 409.283 -5.37305 -1.16546 0
M  V30 4451 H 410.508 -6.62043 -1.51246 0
M  V30 4452 H 408.454 -5.55591 -3.48791 0
M  V30 4453 H 408.371 -7.07645 -2.66035 0
M  V30 4454 H 409.639 -6.79695 -3.81621 0
M  V30 4455 N 413.868 0.0150385 -1.57593 0
M  V30 4456 C 415.115 0.703001 -1.89906 0
M  V30 4457 C 415.443 1.74604 -0.856944 0
M  V30 4458 O 414.698 1.95197 0.140287 0
M  V30 4459 C 414.997 1.39686 -3.28972 0
M  V30 4460 C 414.663 0.488457 -4.48246 0
M  V30 4461 C 413.325 0.2383 -4.8061 0
M  V30 4462 C 415.677 -0.137881 -5.21018 0
M  V30 4463 C 413.005 -0.646738 -5.83125 0
M  V30 4464 C 415.357 -1.0107 -6.24474 0
M  V30 4465 C 414.021 -1.27019 -6.55303 0
M  V30 4466 H 413.291 0.257246 -0.694914 0
M  V30 4467 H 415.938 -0.037259 -1.91464 0
M  V30 4468 H 414.243 2.21079 -3.23468 0
M  V30 4469 H 415.94 1.93495 -3.51227 0
M  V30 4470 H 412.53 0.693593 -4.22951 0
M  V30 4471 H 416.714 0.0423953 -4.96282 0
M  V30 4472 H 411.97 -0.855937 -6.05379 0
M  V30 4473 H 416.144 -1.50247 -6.79999 0
M  V30 4474 H 413.771 -1.95769 -7.3456 0
M  V30 4475 N 415.346 1.54954 0.287554 0
M  V30 4476 C 416.309 1.86076 1.33823 0
M  V30 4477 C 417.309 0.734414 1.43049 0
M  V30 4478 O 418.499 1.00266 1.42452 0
M  V30 4479 C 415.631 2.05305 2.72144 0
M  V30 4480 H 416.824 2.79984 1.07465 0
M  V30 4481 H 414.377 1.47223 0.524902 0
M  V30 4482 H 415.112 1.1373 3.03704 0
M  V30 4483 H 414.897 2.873 2.66836 0
M  V30 4484 H 416.387 2.30706 3.48087 0
M  V30 4485 N 416.824 -0.551391 1.4764 0
M  V30 4486 C 418.101 -1.31229 1.45046 0
M  V30 4487 C 418.481 -2.10563 0.150527 0
M  V30 4488 O 417.829 -2.11374 -0.867956 0
M  V30 4489 C 418.039 -2.21189 2.69956 0
M  V30 4490 C 419.387 -2.82021 3.1741 0
M  V30 4491 O 420.411 -2.31488 2.70724 0
M  V30 4492 O 419.27 -3.73885 3.98588 0
M  V30 4493 H 416.364 -0.591193 0.578291 0
M  V30 4494 H 418.91 -0.569813 1.59847 0
M  V30 4495 H 417.682 -1.62207 3.56096 0
M  V30 4496 H 417.305 -3.02722 2.57769 0
M  V30 4497 N 418.302 -1.35869 -0.798587 0
M  V30 4498 C 419.548 -1.30788 -1.55775 0
M  V30 4499 C 419.903 0.114558 -1.92059 0
M  V30 4500 O 419.196 1.06691 -1.59147 0
M  V30 4501 C 419.39 -2.1556 -2.85077 0
M  V30 4502 C 419.219 -3.65904 -2.61428 0
M  V30 4503 C 417.989 -4.35112 -2.56915 0
M  V30 4504 C 420.187 -4.59375 -2.31255 0
M  V30 4505 N 418.169 -5.71155 -2.25068 0
M  V30 4506 C 419.54 -5.83598 -2.09316 0
M  V30 4507 C 421.595 -4.48035 -2.17185 0
M  V30 4508 C 420.298 -6.97755 -1.74731 0
M  V30 4509 C 422.324 -5.62049 -1.83998 0
M  V30 4510 C 421.686 -6.85305 -1.629 0
M  V30 4511 H 417.785 -0.533855 -0.571422 0
M  V30 4512 H 420.369 -1.7083 -0.934079 0
M  V30 4513 H 418.54 -1.77776 -3.45326 0
M  V30 4514 H 420.272 -2.01938 -3.50718 0
M  V30 4515 H 417.027 -3.87812 -2.71843 0
M  V30 4516 H 417.451 -6.42978 -2.11916 0
M  V30 4517 H 422.093 -3.53338 -2.3219 0
M  V30 4518 H 419.811 -7.92411 -1.58464 0
M  V30 4519 H 423.397 -5.55232 -1.73808 0
M  V30 4520 H 422.277 -7.72034 -1.37596 0
M  V30 4521 N 419.78 1.02168 -1.19998 0
M  V30 4522 C 421.008 1.79296 -1.03249 0
M  V30 4523 C 421.423 1.84103 0.418502 0
M  V30 4524 O 420.78 1.29031 1.29063 0
M  V30 4525 C 420.831 3.24007 -1.60319 0
M  V30 4526 O 420.552 3.19512 -2.99739 0
M  V30 4527 C 422.053 4.17704 -1.48453 0
M  V30 4528 H 419.273 0.564016 -0.363493 0
M  V30 4529 H 421.817 1.28639 -1.58973 0
M  V30 4530 H 419.972 3.7183 -1.08727 0
M  V30 4531 H 420.386 4.10306 -3.26725 0
M  V30 4532 H 421.86 5.17104 -1.93153 0
M  V30 4533 H 422.337 4.37029 -0.436193 0
M  V30 4534 H 422.943 3.7576 -1.99211 0
M  V30 4535 N 421.258 1.00505 1.21394 0
M  V30 4536 C 422.208 0.536503 2.21598 0
M  V30 4537 C 423.192 -0.401914 1.55799 0
M  V30 4538 O 424.384 -0.226757 1.75541 0
M  V30 4539 C 421.513 -0.135446 3.43033 0
M  V30 4540 C 420.599 0.823992 4.16018 0
M  V30 4541 N 420.99 1.97683 4.6557 0
M  V30 4542 C 419.288 0.642387 4.4135 0
M  V30 4543 C 419.989 2.58003 5.21354 0
M  V30 4544 N 418.965 1.86162 5.1073 0
M  V30 4545 H 422.767 1.41557 2.57563 0
M  V30 4546 H 420.281 0.868878 1.37202 0
M  V30 4547 H 422.278 -0.488584 4.14027 0
M  V30 4548 H 420.938 -1.01049 3.08576 0
M  V30 4549 H 421.949 2.3572 4.61147 0
M  V30 4550 H 418.626 -0.185578 4.17087 0
M  V30 4551 H 420.016 3.555 5.70149 0
M  V30 4552 N 422.737 -1.36956 0.779787 0
M  V30 4553 C 424.148 -1.82094 0.412156 0
M  V30 4554 C 424.499 -1.64926 -1.06273 0
M  V30 4555 O 423.624 -1.16483 -1.82375 0
M  V30 4556 C 424.219 -3.3059 0.741319 0
M  V30 4557 C 422.778 -3.73974 0.426641 0
M  V30 4558 C 421.925 -2.59368 0.980987 0
M  V30 4559 H 424.876 -1.25314 0.973758 0
M  V30 4560 H 424.897 -3.80489 0.028887 0
M  V30 4561 H 424.409 -3.43054 1.81482 0
M  V30 4562 H 422.51 -3.67076 -0.639215 0
M  V30 4563 H 422.623 -4.69778 0.940515 0
M  V30 4564 H 420.987 -2.51463 0.404757 0
M  V30 4565 H 421.77 -2.74621 2.06005 0
M  V30 4566 N 424.215 -0.530993 -1.48385 0
M  V30 4567 C 425.178 0.220497 -2.28137 0
M  V30 4568 C 426.178 0.866851 -1.35434 0
M  V30 4569 O 427.368 0.726746 -1.58316 0
M  V30 4570 C 424.5 1.31921 -3.1434 0
M  V30 4571 H 425.693 -0.479714 -2.96038 0
M  V30 4572 H 423.246 -0.286968 -1.53643 0
M  V30 4573 H 423.981 2.05264 -2.51072 0
M  V30 4574 H 423.766 0.86085 -3.82533 0
M  V30 4575 H 425.256 1.84776 -3.74497 0
M  V30 4576 N 425.693 1.55336 -0.266172 0
M  V30 4577 C 426.918 2.04258 0.359661 0
M  V30 4578 C 427.343 1.14359 1.49344 0
M  V30 4579 O 426.701 0.140369 1.80756 0
M  V30 4580 C 426.749 3.50997 0.826635 0
M  V30 4581 O 425.853 3.64204 1.93466 0
M  V30 4582 H 425.194 0.659668 0.075727 0
M  V30 4583 H 427.724 2.00694 -0.39786 0
M  V30 4584 H 427.734 3.9219 1.12477 0
M  V30 4585 H 426.409 4.159 -0.00293032 0
M  V30 4586 H 424.986 3.34913 1.63974 0
M  V30 4587 N 427.171 -0.0066808 1.57599 0
M  V30 4588 C 428.118 -1.00024 2.08 0
M  V30 4589 C 429.088 -1.34549 0.973943 0
M  V30 4590 O 430.273 -1.44502 1.24595 0
M  V30 4591 C 427.413 -2.2891 2.58252 0
M  V30 4592 C 426.526 -2.00346 3.82734 0
M  V30 4593 C 425.661 -3.23265 4.21513 0
M  V30 4594 C 424.7 -2.90357 5.3885 0
M  V30 4595 N 423.837 -4.05793 5.72954 0
M  V30 4596 H 428.677 -0.563499 2.92624 0
M  V30 4597 H 426.214 -0.266592 1.44664 0
M  V30 4598 H 428.172 -3.04247 2.85464 0
M  V30 4599 H 426.802 -2.70265 1.76512 0
M  V30 4600 H 425.854 -1.15406 3.62471 0
M  V30 4601 H 427.166 -1.72086 4.68175 0
M  V30 4602 H 426.32 -4.06953 4.49971 0
M  V30 4603 H 425.059 -3.54657 3.34768 0
M  V30 4604 H 424.064 -2.05075 5.10122 0
M  V30 4605 H 425.289 -2.60219 6.27266 0
M  V30 4606 H 423.235 -4.37094 4.89167 0
M  V30 4607 H 423.152 -3.81034 6.52954 0
M  V30 4608 H 424.42 -4.90289 6.06001 0
M  V30 4609 N 428.649 -1.55105 -0.279332 0
M  V30 4610 C 429.877 -1.7943 -1.03017 0
M  V30 4611 C 430.292 -0.564456 -1.80165 0
M  V30 4612 O 429.649 0.466326 -1.76442 0
M  V30 4613 C 429.7 -3.0155 -1.99374 0
M  V30 4614 O 429.421 -4.19784 -1.25352 0
M  V30 4615 C 430.922 -3.3843 -2.86321 0
M  V30 4616 H 428.142 -0.597882 -0.304594 0
M  V30 4617 H 430.686 -2.02105 -0.312035 0
M  V30 4618 H 428.841 -2.81019 -2.66659 0
M  V30 4619 H 429.255 -4.88781 -1.90246 0
M  V30 4620 H 430.729 -4.27066 -3.49741 0
M  V30 4621 H 431.206 -2.57549 -3.5576 0
M  V30 4622 H 431.812 -3.61197 -2.24536 0
M  V30 4623 N 430.127 0.543554 -1.4793 0
M  V30 4624 C 431.538 1.12561 -1.48953 0
M  V30 4625 C 431.889 1.94578 -0.251754 0
M  V30 4626 O 431.014 2.0665 0.642255 0
M  V30 4627 C 431.609 2.04801 -2.69892 0
M  V30 4628 C 430.168 2.58251 -2.73831 0
M  V30 4629 C 429.315 1.34918 -2.42265 0
M  V30 4630 H 432.266 0.32947 -1.55242 0
M  V30 4631 H 432.287 2.88886 -2.47639 0
M  V30 4632 H 431.799 1.4508 -3.59963 0
M  V30 4633 H 429.9 3.21732 -1.87934 0
M  V30 4634 H 430.013 2.98312 -3.74895 0
M  V30 4635 H 428.377 1.66046 -1.93134 0
M  V30 4636 H 429.16 0.769693 -3.3456 0
M  V30 4637 N 431.605 1.3629 0.791371 0
M  V30 4638 C 432.538 1.24816 1.9104 0
M  V30 4639 C 433.516 0.132739 1.62057 0
M  V30 4640 O 434.7 0.303527 1.8604 0
M  V30 4641 C 431.827 0.925355 3.25814 0
M  V30 4642 C 430.873 2.05495 3.7373 0
M  V30 4643 S 431.706 3.67255 3.89723 0
M  V30 4644 C 432.862 3.37084 5.27376 0
M  V30 4645 H 433.095 2.19533 2.00481 0
M  V30 4646 H 430.628 1.21684 0.950393 0
M  V30 4647 H 432.586 0.745924 4.03666 0
M  V30 4648 H 431.247 -0.00400098 3.141 0
M  V30 4649 H 430.44 1.7836 4.71385 0
M  V30 4650 H 430.042 2.1935 3.02922 0
M  V30 4651 H 432.334 2.90856 6.1189 0
M  V30 4652 H 433.277 4.33995 5.59512 0
M  V30 4653 H 433.685 2.7248 4.94383 0
M  V30 4654 N 433.083 -1.0153 1.20538 0
M  V30 4655 C 434.332 -1.74558 1.01057 0
M  V30 4656 C 434.645 -1.90168 -0.457756 0
M  V30 4657 O 435.851 -2.60301 -0.771722 0
M  V30 4658 C 434.307 -3.13963 1.75941 0
M  V30 4659 C 433.915 -3.06361 3.26875 0
M  V30 4660 C 435.659 -3.91191 1.64832 0
M  V30 4661 C 433.566 -4.40782 3.94291 0
M  V30 4662 H 432.496 -0.654417 0.374505 0
M  V30 4663 H 435.147 -1.13521 1.44171 0
M  V30 4664 H 433.529 -3.75549 1.25614 0
M  V30 4665 H 434.703 -2.54074 3.84425 0
M  V30 4666 H 433.018 -2.42625 3.38411 0
M  V30 4667 H 435.615 -4.90644 2.12539 0
M  V30 4668 H 435.958 -4.11884 0.604745 0
M  V30 4669 H 436.491 -3.36236 2.12579 0
M  V30 4670 H 433.23 -4.25292 4.98805 0
M  V30 4671 H 432.75 -4.9307 3.41529 0
M  V30 4672 H 434.429 -5.09621 3.98617 0
M  V30 4673 N 434.561 -1.01147 -1.20859 0
M  V30 4674 C 435.508 -0.577354 -2.23462 0
M  V30 4675 C 436.478 0.399922 -1.61214 0
M  V30 4676 O 437.663 0.300515 -1.88419 0
M  V30 4677 C 434.803 0.083372 -3.44999 0
M  V30 4678 C 433.916 -0.937856 -4.21697 0
M  V30 4679 C 433.051 -0.248717 -5.30617 0
M  V30 4680 C 432.09 -1.25705 -5.99053 0
M  V30 4681 N 431.227 -0.594939 -6.99575 0
M  V30 4682 H 436.067 -1.45695 -2.59956 0
M  V30 4683 H 433.604 -0.729428 -1.27741 0
M  V30 4684 H 435.562 0.483535 -4.14388 0
M  V30 4685 H 434.192 0.926645 -3.09214 0
M  V30 4686 H 433.244 -1.45622 -3.51423 0
M  V30 4687 H 434.556 -1.70493 -4.68757 0
M  V30 4688 H 433.71 0.207215 -6.06346 0
M  V30 4689 H 432.449 0.55071 -4.84581 0
M  V30 4690 H 431.454 -1.72343 -5.2209 0
M  V30 4691 H 432.679 -2.05767 -6.47176 0
M  V30 4692 H 430.625 0.184713 -6.5574 0
M  V30 4693 H 430.542 -1.30017 -7.44736 0
M  V30 4694 H 431.81 -0.162427 -7.79331 0
M  V30 4695 N 436.039 1.36541 -0.78704 0
M  V30 4696 C 437.002 2.28413 -0.189778 0
M  V30 4697 C 438.002 1.48719 0.611499 0
M  V30 4698 O 439.192 1.68737 0.432842 0
M  V30 4699 C 436.324 3.32824 0.737638 0
M  V30 4700 H 437.517 2.82743 -0.999831 0
M  V30 4701 H 435.07 1.46065 -0.556298 0
M  V30 4702 H 435.805 2.83646 1.57212 0
M  V30 4703 H 435.59 3.91752 0.165044 0
M  V30 4704 H 437.08 4.0144 1.15047 0
M  V30 4705 N 437.518 0.538854 1.48102 0
M  V30 4706 C 438.45 -0.256278 2.27763 0
M  V30 4707 C 439.463 -0.89633 1.35904 0
M  V30 4708 O 440.652 -0.773275 1.60881 0
M  V30 4709 C 437.752 -1.37896 3.09577 0
M  V30 4710 C 436.925 -0.839159 4.29275 0
M  V30 4711 C 435.984 -1.84405 4.9283 0
M  V30 4712 O 435.01 -1.39746 5.51779 0
M  V30 4713 N 436.212 -3.17666 4.85869 0
M  V30 4714 H 438.977 0.426968 2.96643 0
M  V30 4715 H 436.538 0.373747 1.57527 0
M  V30 4716 H 438.53 -2.04955 3.48963 0
M  V30 4717 H 437.1 -1.96572 2.4306 0
M  V30 4718 H 436.32 0.00769287 3.94199 0
M  V30 4719 H 437.608 -0.457548 5.06739 0
M  V30 4720 H 437.006 -3.56609 4.39143 0
M  V30 4721 H 435.563 -3.80334 5.29329 0
M  V30 4722 N 438.996 -1.55193 0.274407 0
M  V30 4723 C 439.946 -2.19184 -0.627882 0
M  V30 4724 C 440.93 -1.15625 -1.11892 0
M  V30 4725 O 442.122 -1.41441 -1.06411 0
M  V30 4726 C 439.251 -2.91591 -1.81189 0
M  V30 4727 C 438.337 -4.02438 -1.33807 0
M  V30 4728 N 438.728 -5.0246 -0.580349 0
M  V30 4729 C 437.026 -4.15496 -1.62109 0
M  V30 4730 C 437.727 -5.80756 -0.331344 0
M  V30 4731 N 436.703 -5.36038 -0.903556 0
M  V30 4732 H 440.505 -2.93871 -0.0411216 0
M  V30 4733 H 438.019 -1.62213 0.0779348 0
M  V30 4734 H 440.016 -3.35883 -2.46957 0
M  V30 4735 H 438.676 -2.18414 -2.40261 0
M  V30 4736 H 439.687 -5.17399 -0.227762 0
M  V30 4737 H 436.364 -3.53509 -2.22121 0
M  V30 4738 H 437.754 -6.71335 0.275454 0
M  V30 4739 N 440.474 -0.00167713 -1.576 0
M  V30 4740 C 441.885 0.54091 -1.78693 0
M  V30 4741 C 442.236 1.7386 -0.909247 0
M  V30 4742 O 441.361 2.16109 -0.112176 0
M  V30 4743 C 441.956 0.98806 -3.24072 0
M  V30 4744 C 440.515 1.47594 -3.46256 0
M  V30 4745 C 439.662 0.42792 -2.73978 0
M  V30 4746 H 442.613 -0.22784 -1.57056 0
M  V30 4747 H 442.634 1.85398 -3.32277 0
M  V30 4748 H 442.146 0.116164 -3.87926 0
M  V30 4749 H 440.247 2.36868 -2.87618 0
M  V30 4750 H 440.36 1.50225 -4.54939 0
M  V30 4751 H 438.724 0.889934 -2.38647 0
M  V30 4752 H 439.507 -0.435038 -3.40532 0
M  V30 4753 N 441.952 1.55251 0.271103 0
M  V30 4754 C 442.862 1.9136 1.35714 0
M  V30 4755 C 443.878 0.811075 1.5394 0
M  V30 4756 O 445.054 1.11031 1.6803 0
M  V30 4757 C 442.119 2.1798 2.69603 0
M  V30 4758 C 441.18 3.4153 2.60107 0
M  V30 4759 C 440.413 3.66871 3.8761 0
M  V30 4760 O 440.636 2.94689 4.8838 0
M  V30 4761 O 439.57 4.60405 3.87699 0
M  V30 4762 H 443.396 2.83815 1.08088 0
M  V30 4763 H 440.981 1.41821 0.469792 0
M  V30 4764 H 442.863 2.36518 3.48765 0
M  V30 4765 H 441.538 1.28708 2.97012 0
M  V30 4766 H 440.445 3.28325 1.79314 0
M  V30 4767 H 441.778 4.31027 2.37647 0
M  V30 4768 N 443.43 -0.535701 1.48216 0
M  V30 4769 C 444.66 -1.3148 1.59363 0
M  V30 4770 C 445.068 -1.8753 0.250844 0
M  V30 4771 O 444.411 -1.66821 -0.769174 0
M  V30 4772 C 444.473 -2.50731 2.57632 0
M  V30 4773 C 444.137 -2.15811 4.02833 0
M  V30 4774 C 445.134 -1.71822 4.90686 0
M  V30 4775 C 442.819 -2.26509 4.48329 0
M  V30 4776 C 444.813 -1.3899 6.22062 0
M  V30 4777 C 442.5 -1.93289 5.79726 0
M  V30 4778 C 443.498 -1.49599 6.66415 0
M  V30 4779 O 443.186 -1.16812 7.95368 0
M  V30 4780 H 442.918 -0.406315 0.540263 0
M  V30 4781 H 445.472 -0.653569 1.94725 0
M  V30 4782 H 443.702 -3.19817 2.1738 0
M  V30 4783 H 445.391 -3.12797 2.58675 0
M  V30 4784 H 446.157 -1.63031 4.56778 0
M  V30 4785 H 442.036 -2.59471 3.81045 0
M  V30 4786 H 445.58 -1.04816 6.89681 0
M  V30 4787 H 441.477 -2.01718 6.13172 0
M  V30 4788 H 442.245 -1.30259 8.08069 0
M  V30 4789 N 444.908 -1.36708 -0.784132 0
M  V30 4790 C 445.818 -1.3363 -1.92822 0
M  V30 4791 C 446.834 -0.237686 -1.72369 0
M  V30 4792 O 448.01 -0.470962 -1.95816 0
M  V30 4793 C 445.075 -1.13011 -3.27764 0
M  V30 4794 C 444.136 -2.32397 -3.60957 0
M  V30 4795 C 443.369 -2.12752 -4.89461 0
M  V30 4796 O 443.592 -1.10541 -5.59586 0
M  V30 4797 O 442.526 -3.00653 -5.21432 0
M  V30 4798 H 446.352 -2.29964 -1.98369 0
M  V30 4799 H 443.937 -1.1731 -0.925136 0
M  V30 4800 H 445.819 -1.03451 -4.08504 0
M  V30 4801 H 444.494 -0.19743 -3.23097 0
M  V30 4802 H 443.401 -2.47527 -2.80502 0
M  V30 4803 H 444.734 -3.2419 -3.70354 0
M  V30 4804 N 446.386 1.0089 -1.21074 0
M  V30 4805 C 447.614 1.78191 -1.05145 0
M  V30 4806 C 448.029 1.84537 0.398952 0
M  V30 4807 O 447.386 1.30393 1.27687 0
M  V30 4808 C 447.437 3.22288 -1.63746 0
M  V30 4809 O 447.158 3.16315 -3.03111 0
M  V30 4810 C 448.659 4.16106 -1.52875 0
M  V30 4811 H 445.879 0.560129 -0.369454 0
M  V30 4812 H 448.423 1.26945 -1.60328 0
M  V30 4813 H 446.578 3.70655 -1.12664 0
M  V30 4814 H 446.992 4.06817 -3.31059 0
M  V30 4815 H 448.466 5.15026 -1.98626 0
M  V30 4816 H 448.943 4.36541 -0.482521 0
M  V30 4817 H 449.549 3.73625 -2.03185 0
M  V30 4818 N 447.864 1.01787 1.20321 0
M  V30 4819 C 449.11 0.718699 1.90279 0
M  V30 4820 C 449.465 -0.743669 1.77447 0
M  V30 4821 O 448.758 -1.53345 1.14874 0
M  V30 4822 C 448.952 1.09076 3.40349 0
M  V30 4823 C 448.781 2.58775 3.67784 0
M  V30 4824 C 447.551 3.25578 3.86428 0
M  V30 4825 C 449.749 3.56966 3.70243 0
M  V30 4826 N 447.731 4.64495 4.01395 0
M  V30 4827 C 449.102 4.8145 3.90649 0
M  V30 4828 C 451.157 3.5092 3.53213 0
M  V30 4829 C 449.86 6.00619 3.95789 0
M  V30 4830 C 451.886 4.69493 3.59625 0
M  V30 4831 C 451.248 5.92786 3.80505 0
M  V30 4832 H 447.347 0.31468 0.715891 0
M  V30 4833 H 449.931 1.30295 1.44677 0
M  V30 4834 H 448.102 0.534839 3.847 0
M  V30 4835 H 449.834 0.744997 3.97784 0
M  V30 4836 H 446.589 2.76003 3.84862 0
M  V30 4837 H 447.013 5.36624 4.12752 0
M  V30 4838 H 451.655 2.56593 3.36035 0
M  V30 4839 H 449.373 6.95326 4.11762 0
M  V30 4840 H 452.959 4.66432 3.47754 0
M  V30 4841 H 451.839 6.83003 3.85327 0
M  V30 4842 N 449.342 -1.36122 0.79427 0
M  V30 4843 C 450.591 -1.98361 0.365464 0
M  V30 4844 C 450.904 -1.6374 -1.06997 0
M  V30 4845 O 452.11 -2.19251 -1.60129 0
M  V30 4846 C 450.566 -3.54821 0.602496 0
M  V30 4847 C 450.174 -3.98362 2.04967 0
M  V30 4848 C 451.918 -4.2383 0.238437 0
M  V30 4849 C 449.825 -5.47619 2.2331 0
M  V30 4850 H 448.755 -0.742193 0.13291 0
M  V30 4851 H 451.406 -1.55354 0.976589 0
M  V30 4852 H 449.788 -3.95922 -0.078409 0
M  V30 4853 H 450.962 -3.68447 2.76737 0
M  V30 4854 H 449.277 -3.42206 2.37243 0
M  V30 4855 H 451.874 -5.33529 0.353705 0
M  V30 4856 H 452.217 -4.08264 -0.814006 0
M  V30 4857 H 452.75 -3.88108 0.872769 0
M  V30 4858 H 449.489 -5.68138 3.26955 0
M  V30 4859 H 449.009 -5.79145 1.5605 0
M  V30 4860 H 450.688 -6.13911 2.0426 0
M  V30 4861 N 450.82 -0.546701 -1.47814 0
M  V30 4862 C 451.768 0.220048 -2.31557 0
M  V30 4863 C 452.762 0.919472 -1.42275 0
M  V30 4864 O 453.968 0.841953 -1.59095 0
M  V30 4865 H 450.343 0.0898334 -0.746615 0
M  V30 4866 H 452.314 -0.505589 -2.94086 0
M  V30 4867 C 451.063 1.24353 -3.24702 0
M  V30 4868 H 450.386 0.714758 -3.93359 0
M  V30 4869 H 451.826 1.75112 -3.8615 0
M  V30 4870 C 450.285 2.28593 -2.47481 0
M  V30 4871 O 450.815 3.35334 -2.21165 0
M  V30 4872 N 449.021 2.02244 -2.08676 0
M  V30 4873 H 448.568 1.15455 -2.30278 0
M  V30 4874 H 448.526 2.72207 -1.57323 0
M  V30 4875 N 452.299 1.55045 -0.282633 0
M  V30 4876 C 453.547 1.99365 0.331334 0
M  V30 4877 C 453.868 1.1725 1.55812 0
M  V30 4878 O 453.138 0.263871 1.94115 0
M  V30 4879 H 451.718 0.736397 0.125414 0
M  V30 4880 H 454.38 1.90964 -0.389711 0
M  V30 4881 H 453.476 3.0596 0.616036 0
M  V30 4882 N 453.777 0.010035 1.57597 0
M  V30 4883 C 455.005 -0.683413 1.95287 0
M  V30 4884 C 455.42 -1.66747 0.885481 0
M  V30 4885 O 454.777 -1.82003 -0.134629 0
M  V30 4886 C 454.828 -1.40652 3.33015 0
M  V30 4887 O 454.549 -0.461916 4.35658 0
M  V30 4888 C 456.05 -2.19356 3.85225 0
M  V30 4889 H 453.27 -0.189708 0.643624 0
M  V30 4890 H 455.814 0.0641359 2.04399 0
M  V30 4891 H 453.969 -2.10562 3.2518 0
M  V30 4892 H 454.383 -0.973215 5.15392 0
M  V30 4893 H 455.857 -2.65433 4.83993 0
M  V30 4894 H 456.334 -3.02457 3.18459 0
M  V30 4895 H 456.94 -1.54442 3.96267 0
M  V30 4896 N 455.255 -1.55392 -0.262866 0
M  V30 4897 C 456.205 -1.85355 -1.32768 0
M  V30 4898 C 457.189 -0.713188 -1.44231 0
M  V30 4899 O 458.381 -0.974765 -1.47741 0
M  V30 4900 C 455.51 -2.13781 -2.68612 0
M  V30 4901 C 454.596 -3.34104 -2.61219 0
M  V30 4902 N 454.987 -4.53766 -2.2345 0
M  V30 4903 C 453.285 -3.36895 -2.92263 0
M  V30 4904 C 453.986 -5.35877 -2.26298 0
M  V30 4905 N 452.962 -4.74536 -2.65172 0
M  V30 4906 H 456.764 -2.75413 -1.02591 0
M  V30 4907 H 454.278 -1.55405 -0.471503 0
M  V30 4908 H 456.275 -2.33407 -3.45437 0
M  V30 4909 H 454.935 -1.25013 -2.99669 0
M  V30 4910 H 455.946 -4.79682 -1.95258 0
M  V30 4911 H 452.623 -2.58351 -3.27965 0
M  V30 4912 H 454.013 -6.41577 -1.99572 0
M  V30 4913 N 456.733 0.527833 -1.48498 0
M  V30 4914 C 457.981 1.28101 -1.56316 0
M  V30 4915 C 458.302 1.9352 -0.239781 0
M  V30 4916 O 457.572 1.81433 0.738849 0
M  V30 4917 H 456.152 0.475793 -0.575873 0
M  V30 4918 H 458.814 0.614052 -1.84974 0
M  V30 4919 H 457.91 2.05916 -2.34532 0
M  V30 4920 N 458.211 1.37122 0.776871 0
M  V30 4921 C 459.174 1.32301 1.8716 0
M  V30 4922 C 460.174 0.228099 1.59174 0
M  V30 4923 O 461.364 0.483642 1.67352 0
M  V30 4924 C 458.496 1.054 3.24197 0
M  V30 4925 H 459.689 2.29673 1.92848 0
M  V30 4926 H 457.242 1.22077 0.97606 0
M  V30 4927 H 457.977 0.0853872 3.24188 0
M  V30 4928 H 457.762 1.84648 3.45901 0
M  V30 4929 H 459.252 1.04664 4.04271 0
M  V30 4930 N 459.689 -1.00246 1.21608 0
M  V30 4931 C 460.652 -2.07233 0.979133 0
M  V30 4932 C 461.652 -1.6072 -0.0508219 0
M  V30 4933 O 462.842 -1.73196 0.186712 0
M  V30 4934 C 459.974 -3.37546 0.477016 0
M  V30 4935 H 461.167 -2.29687 1.92831 0
M  V30 4936 H 458.72 -1.17261 1.03342 0
M  V30 4937 H 459.455 -3.20773 -0.476966 0
M  V30 4938 H 459.24 -3.72638 1.21997 0
M  V30 4939 H 460.73 -4.16285 0.331181 0
M  V30 4940 N 461.167 -1.02423 -1.1978 0
M  V30 4941 C 462.415 -0.716569 -1.8897 0
M  V30 4942 C 462.736 0.756769 -1.79716 0
M  V30 4943 O 462.006 1.5449 -1.20456 0
M  V30 4944 H 460.586 -0.262062 -0.699523 0
M  V30 4945 H 463.248 -1.29747 -1.45436 0
M  V30 4946 H 462.344 -1.00675 -2.95417 0
M  V30 4947 N 462.645 1.35699 -0.801477 0
M  V30 4948 C 463.891 1.99208 -0.380022 0
M  V30 4949 C 464.224 1.63445 1.04878 0
M  V30 4950 O 463.499 0.895223 1.72673 0
M  V30 4951 C 463.782 3.55755 -0.557708 0
M  V30 4952 C 463.635 4.01332 -2.03107 0
M  V30 4953 C 464.954 4.40096 0.0197968 0
M  V30 4954 H 462.073 0.723667 -0.139552 0
M  V30 4955 H 464.715 1.60928 -1.01006 0
M  V30 4956 H 462.865 3.88494 -0.0213741 0
M  V30 4957 H 464.537 3.79026 -2.62939 0
M  V30 4958 H 462.78 3.52429 -2.52936 0
M  V30 4959 H 463.451 5.10234 -2.1063 0
M  V30 4960 H 465.927 4.13786 -0.438179 0
M  V30 4961 H 464.803 5.48735 -0.134477 0
M  V30 4962 H 465.064 4.2786 1.11303 0
M  V30 4963 N 464.123 0.554532 1.47522 0
M  V30 4964 C 465.351 0.034257 2.06872 0
M  V30 4965 C 465.766 -1.25826 1.40759 0
M  V30 4966 O 465.123 -1.75425 0.503217 0
M  V30 4967 C 465.174 -0.167827 3.6111 0
M  V30 4968 O 464.895 1.07351 4.24744 0
M  V30 4969 C 466.396 -0.72569 4.3732 0
M  V30 4970 H 463.616 0.0446275 0.669514 0
M  V30 4971 H 466.16 0.767181 1.89564 0
M  V30 4972 H 464.315 -0.850872 3.7794 0
M  V30 4973 H 464.729 0.869563 5.17242 0
M  V30 4974 H 466.203 -0.816394 5.45929 0
M  V30 4975 H 466.68 -1.73635 4.0342 0
M  V30 4976 H 467.286 -0.0784292 4.25228 0
M  V30 4977 N 465.601 -1.54893 0.290851 0
M  V30 4978 C 466.841 -2.01842 -0.322388 0
M  V30 4979 C 467.205 -1.17477 -1.51865 0
M  V30 4980 O 468.406 -1.54077 -2.20258 0
M  V30 4981 C 466.677 -3.50874 -0.679844 0
M  V30 4982 S 468.236 -4.19796 -1.27739 0
M  V30 4983 H 465.054 -0.704005 -0.0994866 0
M  V30 4984 H 467.656 -1.91015 0.416358 0
M  V30 4985 H 466.36 -4.09915 0.199435 0
M  V30 4986 H 465.891 -3.65717 -1.44964 0
M  V30 4987 H 467.906 -4.24729 -2.56554 0
M  V30 4988 N 467.08 -0.0183926 -1.57589 0
M  V30 4989 C 468.043 0.951986 -2.08494 0
M  V30 4990 C 469.043 1.26092 -0.997874 0
M  V30 4991 O 470.233 1.20304 -1.25987 0
M  V30 4992 C 467.365 2.27165 -2.54182 0
M  V30 4993 H 468.558 0.511307 -2.95509 0
M  V30 4994 H 466.111 0.229444 -1.54607 0
M  V30 4995 H 466.846 2.75884 -1.70465 0
M  V30 4996 H 466.631 2.06057 -3.33591 0
M  V30 4997 H 468.121 2.9674 -2.93828 0
M  V30 4998 N 468.558 1.5553 0.254621 0
M  V30 4999 C 469.835 1.6774 1.00611 0
M  V30 5000 C 470.215 0.555993 2.03647 0
M  V30 5001 O 469.563 -0.441583 2.24193 0
M  V30 5002 C 469.773 3.07725 1.6464 0
M  V30 5003 C 471.121 3.66074 2.15116 0
M  V30 5004 O 472.145 3.10476 1.74595 0
M  V30 5005 O 471.004 4.63526 2.89493 0
M  V30 5006 H 468.098 0.681958 0.467828 0
M  V30 5007 H 470.644 1.67863 0.24902 0
M  V30 5008 H 469.416 3.80792 0.900734 0
M  V30 5009 H 469.039 3.1158 2.46989 0
M  V30 5010 N 470.036 -0.519951 1.48776 0
M  V30 5011 C 471.276 -1.2856 1.58908 0
M  V30 5012 C 471.64 -1.90212 0.261418 0
M  V30 5013 O 472.841 -2.67746 0.237791 0
M  V30 5014 C 471.112 -2.33836 2.70288 0
M  V30 5015 S 472.671 -3.19992 3.0025 0
M  V30 5016 H 469.489 -0.43717 0.560717 0
M  V30 5017 H 472.091 -0.591205 1.86346 0
M  V30 5018 H 470.795 -1.87041 3.653 0
M  V30 5019 H 470.326 -3.07969 2.44783 0
M  V30 5020 H 472.341 -4.34122 2.40317 0
M  V30 5021 N 471.514 -1.37532 -0.769588 0
M  V30 5022 C 472.464 -1.29984 -1.87318 0
M  V30 5023 C 473.448 -0.187242 -1.59807 0
M  V30 5024 O 474.64 -0.421827 -1.719 0
M  V30 5025 C 471.769 -1.11126 -3.24817 0
M  V30 5026 C 470.855 -2.26939 -3.58273 0
M  V30 5027 N 471.246 -3.52336 -3.62895 0
M  V30 5028 C 469.544 -2.19141 -3.8845 0
M  V30 5029 C 470.245 -4.28719 -3.9316 0
M  V30 5030 N 469.221 -3.57884 -4.0917 0
M  V30 5031 H 473.023 -2.24946 -1.89147 0
M  V30 5032 H 470.537 -1.30535 -0.966143 0
M  V30 5033 H 472.534 -1.03803 -4.0377 0
M  V30 5034 H 471.194 -0.17083 -3.2425 0
M  V30 5035 H 472.205 -3.86216 -3.45048 0
M  V30 5036 H 468.882 -1.33167 -3.95693 0
M  V30 5037 H 470.272 -5.37254 -4.03494 0
M  V30 5038 N 472.992 0.995999 -1.22138 0
M  V30 5039 C 473.925 2.08302 -0.931952 0
M  V30 5040 C 474.903 1.62127 0.123956 0
M  V30 5041 O 476.087 1.88499 -0.00696004 0
M  V30 5042 C 473.214 3.36317 -0.401068 0
M  V30 5043 C 472.26 4.01413 -1.44117 0
M  V30 5044 S 473.093 4.42664 -3.01345 0
M  V30 5045 C 474.249 5.73853 -2.49887 0
M  V30 5046 H 474.482 2.32532 -1.85246 0
M  V30 5047 H 472.015 1.13005 -1.0521 0
M  V30 5048 H 473.973 4.10375 -0.101352 0
M  V30 5049 H 472.634 3.10123 0.498272 0
M  V30 5050 H 471.827 4.9358 -1.01952 0
M  V30 5051 H 471.429 3.33668 -1.68943 0
M  V30 5052 H 473.721 6.50039 -1.90934 0
M  V30 5053 H 474.664 6.20841 -3.40532 0
M  V30 5054 H 475.072 5.31105 -1.9128 0
M  V30 5055 N 474.47 1.03057 1.19235 0
M  V30 5056 C 475.695 0.74757 1.93458 0
M  V30 5057 C 476.12 -0.687648 1.7508 0
M  V30 5058 O 475.478 -1.47499 1.05422 0
M  V30 5059 C 475.526 1.10604 3.43219 0
M  V30 5060 O 474.63 0.225671 4.11782 0
M  V30 5061 H 473.971 0.276047 0.603899 0
M  V30 5062 H 476.501 1.3777 1.51263 0
M  V30 5063 H 476.511 1.06366 3.93891 0
M  V30 5064 H 475.186 2.15165 3.55917 0
M  V30 5065 H 473.763 0.326795 3.71465 0
M  V30 5066 N 475.948 -1.35272 0.808662 0
M  V30 5067 C 477.178 -2.02652 0.401953 0
M  V30 5068 C 477.586 -1.6108 -0.992462 0
M  V30 5069 O 476.929 -0.804984 -1.65123 0
M  V30 5070 C 476.991 -3.57174 0.408246 0
M  V30 5071 C 476.655 -4.22019 1.75353 0
M  V30 5072 C 477.652 -4.43552 2.71215 0
M  V30 5073 C 475.337 -4.59093 2.03811 0
M  V30 5074 C 477.331 -5.01264 3.93717 0
M  V30 5075 C 475.018 -5.16519 3.26576 0
M  V30 5076 C 476.016 -5.37546 4.21347 0
M  V30 5077 O 475.704 -5.93761 5.41944 0
M  V30 5078 H 475.436 -0.656495 0.161216 0
M  V30 5079 H 477.99 -1.73829 1.0942 0
M  V30 5080 H 476.22 -3.85197 -0.340608 0
M  V30 5081 H 477.909 -4.05893 0.0235623 0
M  V30 5082 H 478.675 -4.15288 2.50522 0
M  V30 5083 H 474.554 -4.42039 1.30854 0
M  V30 5084 H 478.098 -5.17592 4.67701 0
M  V30 5085 H 473.995 -5.4421 3.47139 0
M  V30 5086 H 474.763 -6.1221 5.43269 0
M  V30 5087 N 477.426 -0.562348 -1.47226 0
M  V30 5088 C 478.654 -0.0452275 -2.06851 0
M  V30 5089 C 479.069 1.25078 -1.41424 0
M  V30 5090 O 478.426 1.75156 -0.512513 0
M  V30 5091 C 478.477 0.148674 -3.61194 0
M  V30 5092 O 478.198 -1.09602 -4.24169 0
M  V30 5093 C 479.699 0.702488 -4.37699 0
M  V30 5094 H 476.919 -0.0481775 -0.669268 0
M  V30 5095 H 479.463 -0.777223 -1.89155 0
M  V30 5096 H 477.618 0.830817 -3.78386 0
M  V30 5097 H 478.032 -0.896982 -5.16773 0
M  V30 5098 H 479.506 0.78743 -5.46355 0
M  V30 5099 H 479.983 1.71493 -4.04335 0
M  V30 5100 H 480.589 0.0558772 -4.25263 0
M  V30 5101 N 478.904 1.54736 -0.299062 0
M  V30 5102 C 480.32 1.59507 0.0543849 0
M  V30 5103 C 480.52 1.31606 1.52585 0
M  V30 5104 O 479.576 1.08853 2.27832 0
M  V30 5105 C 480.889 2.98751 -0.34181 0
M  V30 5106 C 482.437 3.1165 -0.290414 0
M  V30 5107 C 482.912 4.53199 -0.661402 0
M  V30 5108 N 484.403 4.59114 -0.613863 0
M  V30 5109 C 485.138 5.66709 -0.873417 0
M  V30 5110 N 484.634 6.82349 -1.19884 0
M  V30 5111 N 486.427 5.56369 -0.800608 0
M  V30 5112 H 478.578 1.71133 -1.25806 0
M  V30 5113 H 480.841 0.799186 -0.509908 0
M  V30 5114 H 480.547 3.24085 -1.36608 0
M  V30 5115 H 480.421 3.75961 0.305508 0
M  V30 5116 H 482.808 2.86066 0.724605 0
M  V30 5117 H 482.889 2.366 -0.972327 0
M  V30 5118 H 482.533 4.79513 -1.67422 0
M  V30 5119 H 482.463 5.26583 0.0425612 0
M  V30 5120 H 484.954 3.76053 -0.3732 0
M  V30 5121 H 485.267 7.60326 -1.38291 0
M  V30 5122 H 483.612 6.83906 -1.23685 0
M  V30 5123 H 486.803 4.64904 -0.546045 0
M  V30 5124 H 486.976 6.40139 -1.00626 0
M  V30 5125 N 480.382 0.0267497 1.57577 0
M  V30 5126 C 481.607 -0.666227 1.96408 0
M  V30 5127 C 482.032 -1.65004 0.903071 0
M  V30 5128 O 481.39 -1.80787 -0.136263 0
M  V30 5129 C 481.438 -1.35101 3.34335 0
M  V30 5130 O 480.542 -2.46623 3.30531 0
M  V30 5131 H 479.883 -0.175206 0.640468 0
M  V30 5132 H 482.413 0.0878977 2.04411 0
M  V30 5133 H 482.423 -1.70834 3.70513 0
M  V30 5134 H 481.098 -0.629844 4.11103 0
M  V30 5135 H 479.675 -2.13019 3.06068 0
M  V30 5136 N 481.861 -1.55662 -0.24637 0
M  V30 5137 C 483.138 -1.68272 -0.997198 0
M  V30 5138 C 483.518 -0.566785 -2.03349 0
M  V30 5139 O 482.866 0.429688 -2.24424 0
M  V30 5140 C 483.076 -3.08594 -1.63006 0
M  V30 5141 C 484.424 -3.6721 -2.13171 0
M  V30 5142 O 485.448 -3.11397 -1.72946 0
M  V30 5143 O 484.307 -4.65054 -2.87031 0
M  V30 5144 H 481.401 -0.684429 -0.464205 0
M  V30 5145 H 483.947 -1.67993 -0.240114 0
M  V30 5146 H 482.719 -3.81264 -0.880527 0
M  V30 5147 H 482.342 -3.12886 -2.45333 0
M  V30 5148 N 483.339 0.512053 -1.4905 0
M  V30 5149 C 484.616 1.27337 -1.48474 0
M  V30 5150 C 484.996 2.1009 -0.206301 0
M  V30 5151 O 484.344 2.136 0.811609 0
M  V30 5152 C 484.554 2.13954 -2.75726 0
M  V30 5153 C 485.902 2.73507 -3.24776 0
M  V30 5154 O 486.926 2.24229 -2.76767 0
M  V30 5155 O 485.785 3.63186 -4.08361 0
M  V30 5156 H 482.879 0.575652 -0.593762 0
M  V30 5157 H 485.425 0.527232 -1.61302 0
M  V30 5158 H 484.197 1.52709 -3.60272 0
M  V30 5159 H 483.82 2.95782 -2.65705 0
M  V30 5160 N 484.817 1.37938 0.762283 0
M  V30 5161 C 485.764 1.34467 1.87583 0
M  V30 5162 C 486.734 0.208633 1.64785 0
M  V30 5163 O 487.919 0.399494 1.86571 0
M  V30 5164 C 485.059 1.16692 3.24772 0
M  V30 5165 C 484.172 2.39608 3.59461 0
M  V30 5166 C 483.307 2.14631 4.85908 0
M  V30 5167 C 482.346 3.33364 5.13357 0
M  V30 5168 N 481.483 3.07877 6.30996 0
M  V30 5169 H 486.323 2.29669 1.89885 0
M  V30 5170 H 483.86 1.14116 0.928219 0
M  V30 5171 H 485.818 1.04405 4.03925 0
M  V30 5172 H 484.448 0.251333 3.2182 0
M  V30 5173 H 483.5 2.626 2.75219 0
M  V30 5174 H 484.812 3.28128 3.75678 0
M  V30 5175 H 483.966 1.99429 5.72986 0
M  V30 5176 H 482.705 1.23463 4.71814 0
M  V30 5177 H 481.71 3.49094 4.24751 0
M  V30 5178 H 482.935 4.25395 5.29354 0
M  V30 5179 H 480.881 2.19348 6.18241 0
M  V30 5180 H 480.798 3.89944 6.47673 0
M  V30 5181 H 482.066 2.96313 7.20985 0
M  V30 5182 N 486.295 -0.989507 1.22664 0
M  V30 5183 C 487.242 -2.08024 0.999733 0
M  V30 5184 C 488.212 -1.65909 -0.0797047 0
M  V30 5185 O 489.397 -1.90669 0.0705715 0
M  V30 5186 C 486.537 -3.40067 0.587234 0
M  V30 5187 C 485.65 -3.95505 1.73781 0
M  V30 5188 C 484.785 -5.15722 1.27297 0
M  V30 5189 C 483.824 -5.63305 2.39488 0
M  V30 5190 N 482.961 -6.74758 1.94026 0
M  V30 5191 H 487.801 -2.26768 1.9334 0
M  V30 5192 H 485.338 -1.11171 0.963297 0
M  V30 5193 H 487.296 -4.15899 0.329227 0
M  V30 5194 H 485.926 -3.21314 -0.309426 0
M  V30 5195 H 484.978 -3.16513 2.11006 0
M  V30 5196 H 486.29 -4.26797 2.58158 0
M  V30 5197 H 485.444 -5.98854 0.972546 0
M  V30 5198 H 484.183 -4.86061 0.399445 0
M  V30 5199 H 483.188 -4.78759 2.70315 0
M  V30 5200 H 484.413 -5.94988 3.27362 0
M  V30 5201 H 482.359 -6.46874 1.09041 0
M  V30 5202 H 482.276 -7.05386 2.71968 0
M  V30 5203 H 483.544 -7.61387 1.67062 0
M  V30 5204 N 487.773 -1.03688 -1.18687 0
M  V30 5205 C 488.72 -0.624624 -2.22187 0
M  V30 5206 C 489.69 0.365636 -1.62026 0
M  V30 5207 O 490.875 0.260481 -1.89014 0
M  V30 5208 C 488.015 0.0101738 -3.45099 0
M  V30 5209 C 487.128 -1.02709 -4.19613 0
M  V30 5210 C 486.263 -0.361213 -5.2997 0
M  V30 5211 C 485.302 -1.38384 -5.96252 0
M  V30 5212 N 484.439 -0.743196 -6.98155 0
M  V30 5213 H 489.279 -1.51176 -2.56807 0
M  V30 5214 H 486.816 -0.75636 -1.26165 0
M  V30 5215 H 488.774 0.395528 -4.15321 0
M  V30 5216 H 487.404 0.860848 -3.1111 0
M  V30 5217 H 486.456 -1.53043 -3.48256 0
M  V30 5218 H 487.768 -1.80398 -4.65036 0
M  V30 5219 H 486.922 0.0785537 -6.06649 0
M  V30 5220 H 485.661 0.447799 -4.8564 0
M  V30 5221 H 484.666 -1.83378 -5.18317 0
M  V30 5222 H 485.891 -2.19448 -6.42666 0
M  V30 5223 H 483.837 0.0455789 -6.55984 0
M  V30 5224 H 483.754 -1.45784 -7.41811 0
M  V30 5225 H 485.022 -0.327698 -7.78811 0
M  V30 5226 N 489.251 1.34841 -0.815825 0
M  V30 5227 C 490.5 1.97755 -0.396976 0
M  V30 5228 C 490.813 1.65422 1.04379 0
M  V30 5229 O 492.019 2.21771 1.5662 0
M  V30 5230 C 490.475 3.53818 -0.658869 0
M  V30 5231 C 490.083 3.95051 -2.11278 0
M  V30 5232 C 491.827 4.23397 -0.305834 0
M  V30 5233 C 489.734 5.43997 -2.31994 0
M  V30 5234 H 488.664 0.739985 -0.1447 0
M  V30 5235 H 491.315 1.53781 -1.00118 0
M  V30 5236 H 489.697 3.95997 0.0154112 0
M  V30 5237 H 490.871 3.63998 -2.82564 0
M  V30 5238 H 489.186 3.38388 -2.42657 0
M  V30 5239 H 491.783 5.32899 -0.43854 0
M  V30 5240 H 492.126 4.09508 0.748952 0
M  V30 5241 H 492.659 3.8667 -0.934403 0
M  V30 5242 H 489.398 5.62865 -3.35952 0
M  V30 5243 H 488.918 5.76589 -1.65244 0
M  V30 5244 H 490.597 6.10584 -2.14001 0
M  V30 5245 N 490.729 0.570148 1.46925 0
M  V30 5246 C 491.954 0.0542592 2.07329 0
M  V30 5247 C 492.379 -1.23582 1.41806 0
M  V30 5248 O 491.737 -1.74341 0.497479 0
M  V30 5249 C 491.785 -0.111175 3.60429 0
M  V30 5250 O 490.889 -1.17071 3.95434 0
M  V30 5251 H 490.23 0.0571425 0.661537 0
M  V30 5252 H 492.76 0.789516 1.88753 0
M  V30 5253 H 492.77 -0.321315 4.06733 0
M  V30 5254 H 491.445 0.831012 4.07513 0
M  V30 5255 H 490.022 -0.940029 3.60857 0
M  V30 5256 N 492.207 -1.54576 0.307264 0
M  V30 5257 C 493.432 -2.05139 -0.305379 0
M  V30 5258 C 493.857 -1.18278 -1.46259 0
M  V30 5259 O 493.215 -0.188243 -1.8032 0
M  V30 5260 C 493.263 -3.53066 -0.733283 0
M  V30 5261 O 492.367 -3.69206 -1.83741 0
M  V30 5262 H 491.708 -0.661444 -0.0582105 0
M  V30 5263 H 494.238 -1.99569 0.450931 0
M  V30 5264 H 494.248 -3.95034 -1.02039 0
M  V30 5265 H 492.923 -4.15746 0.113198 0
M  V30 5266 H 491.5 -3.39143 -1.55037 0
M  V30 5267 N 493.685 -0.035106 -1.57561 0
M  V30 5268 C 494.635 0.954034 -2.0708 0
M  V30 5269 C 495.619 1.2818 -0.972558 0
M  V30 5270 O 496.811 1.26691 -1.23606 0
M  V30 5271 C 493.94 2.23442 -2.60631 0
M  V30 5272 C 493.026 1.93475 -3.77396 0
M  V30 5273 N 493.417 1.33802 -4.87781 0
M  V30 5274 C 491.715 2.23434 -3.85996 0
M  V30 5275 C 492.416 1.21103 -5.68954 0
M  V30 5276 N 491.392 1.70855 -5.16052 0
M  V30 5277 H 495.194 0.487731 -2.89825 0
M  V30 5278 H 492.708 0.169759 -1.6151 0
M  V30 5279 H 494.705 2.95183 -2.94402 0
M  V30 5280 H 493.365 2.70693 -1.79319 0
M  V30 5281 H 494.376 1.01227 -5.07911 0
M  V30 5282 H 491.053 2.73317 -3.15601 0
M  V30 5283 H 492.443 0.749105 -6.67711 0
M  V30 5284 N 495.163 1.55791 0.238111 0
M  V30 5285 C 496.409 1.79211 0.962035 0
M  V30 5286 C 496.764 0.605463 1.82625 0
M  V30 5287 O 496.057 -0.40104 1.87356 0
M  V30 5288 C 496.251 3.05869 1.84875 0
M  V30 5289 C 496.08 4.36739 1.07186 0
M  V30 5290 C 494.85 4.99346 0.773424 0
M  V30 5291 C 497.048 5.1237 0.445168 0
M  V30 5292 N 495.03 6.13894 -0.0266037 0
M  V30 5293 C 496.401 6.19613 -0.219023 0
M  V30 5294 C 498.456 4.96622 0.356522 0
M  V30 5295 C 497.159 7.1282 -0.963358 0
M  V30 5296 C 499.185 5.90214 -0.374304 0
M  V30 5297 C 498.547 6.96872 -1.0271 0
M  V30 5298 H 494.646 0.707627 0.332849 0
M  V30 5299 H 497.23 1.93284 0.234368 0
M  V30 5300 H 495.401 2.93108 2.54837 0
M  V30 5301 H 497.133 3.17547 2.5089 0
M  V30 5302 H 493.888 4.60948 1.08738 0
M  V30 5303 H 494.312 6.75727 -0.414968 0
M  V30 5304 H 498.954 4.14232 0.846878 0
M  V30 5305 H 496.672 7.94704 -1.46529 0
M  V30 5306 H 500.258 5.80106 -0.443678 0
M  V30 5307 H 499.138 7.68045 -1.58358 0
M  V30 5308 N 496.642 -0.504142 1.49319 0
M  V30 5309 C 497.888 -1.25767 1.59857 0
M  V30 5310 C 498.243 -1.90348 0.280262 0
M  V30 5311 O 497.536 -1.77588 -0.719241 0
M  V30 5312 C 497.73 -2.35021 2.69258 0
M  V30 5313 C 497.559 -1.81154 4.11598 0
M  V30 5314 C 496.329 -1.62596 4.78425 0
M  V30 5315 C 498.527 -1.3252 4.96934 0
M  V30 5316 N 496.509 -1.03625 6.05091 0
M  V30 5317 C 497.88 -0.856633 6.14054 0
M  V30 5318 C 499.935 -1.21063 4.82958 0
M  V30 5319 C 498.638 -0.284841 7.18736 0
M  V30 5320 C 500.664 -0.652815 5.87786 0
M  V30 5321 C 500.026 -0.194461 7.04132 0
M  V30 5322 H 496.125 -0.450293 0.639343 0
M  V30 5323 H 498.709 -0.565344 1.86311 0
M  V30 5324 H 496.88 -3.01719 2.44581 0
M  V30 5325 H 498.612 -3.02061 2.69335 0
M  V30 5326 H 495.367 -1.86873 4.35173 0
M  V30 5327 H 495.791 -0.76076 6.72712 0
M  V30 5328 H 500.433 -1.551 3.93324 0
M  V30 5329 H 498.151 0.0677979 8.08072 0
M  V30 5330 H 501.737 -0.566994 5.79031 0
M  V30 5331 H 500.617 0.230442 7.83861 0
M  V30 5332 N 498.12 -1.38341 -0.754957 0
M  V30 5333 C 499.348 -1.37704 -1.54419 0
M  V30 5334 C 499.763 0.0335243 -1.8877 0
M  V30 5335 O 499.12 0.999773 -1.52679 0
M  V30 5336 C 499.171 -2.23136 -2.84416 0
M  V30 5337 O 498.892 -3.58697 -2.51531 0
M  V30 5338 C 500.393 -2.30664 -3.78562 0
M  V30 5339 H 497.613 -0.471061 -0.477852 0
M  V30 5340 H 500.157 -1.81902 -0.934446 0
M  V30 5341 H 498.312 -1.82403 -3.41772 0
M  V30 5342 H 498.726 -4.03665 -3.34896 0
M  V30 5343 H 500.2 -2.9473 -4.66732 0
M  V30 5344 H 500.677 -1.3199 -4.18898 0
M  V30 5345 H 501.283 -2.71781 -3.27131 0
M  V30 5346 N 499.598 0.982988 -1.23187 0
M  V30 5347 C 500.823 1.76455 -1.08988 0
M  V30 5348 C 501.248 1.84726 0.354691 0
M  V30 5349 O 500.606 1.30699 1.25649 0
M  V30 5350 C 500.654 3.17094 -1.71708 0
M  V30 5351 O 499.758 4.00648 -0.977477 0
M  V30 5352 H 499.099 0.542988 -0.382177 0
M  V30 5353 H 501.629 1.23413 -1.63188 0
M  V30 5354 H 501.639 3.67684 -1.76841 0
M  V30 5355 H 500.314 3.10389 -2.76823 0
M  V30 5356 H 498.891 3.59161 -1.0029 0
M  V30 5357 N 501.076 1.04316 1.18135 0
M  V30 5358 C 502.487 0.775505 1.69832 0
M  V30 5359 C 502.838 -0.703348 1.8316 0
M  V30 5360 O 501.963 -1.54729 1.51287 0
M  V30 5361 C 502.558 1.40112 3.0847 0
M  V30 5362 C 501.117 1.18172 3.57368 0
M  V30 5363 C 500.264 1.49022 2.33854 0
M  V30 5364 H 503.215 1.20925 1.02775 0
M  V30 5365 H 503.236 0.805672 3.71873 0
M  V30 5366 H 502.748 2.47744 2.98738 0
M  V30 5367 H 500.849 0.124258 3.72393 0
M  V30 5368 H 500.962 1.8805 4.40652 0
M  V30 5369 H 499.326 0.909995 2.37889 0
M  V30 5370 H 500.109 2.57768 2.26738 0
M  V30 5371 N 502.554 -1.34406 0.822964 0
M  V30 5372 C 503.487 -2.27407 0.190124 0
M  V30 5373 C 504.465 -1.4889 -0.653486 0
M  V30 5374 O 505.649 -1.78109 -0.617216 0
M  V30 5375 C 502.776 -3.3064 -0.734477 0
M  V30 5376 C 501.822 -4.26488 0.0316099 0
M  V30 5377 S 502.655 -5.17445 1.3788 0
M  V30 5378 C 503.811 -6.24214 0.45907 0
M  V30 5379 H 504.044 -2.80733 0.978586 0
M  V30 5380 H 501.577 -1.41455 0.618866 0
M  V30 5381 H 503.535 -3.90607 -1.26238 0
M  V30 5382 H 502.196 -2.76161 -1.49646 0
M  V30 5383 H 501.389 -4.9951 -0.671285 0
M  V30 5384 H 500.991 -3.70775 0.490066 0
M  V30 5385 H 503.283 -6.76599 -0.349357 0
M  V30 5386 H 504.226 -6.98551 1.15896 0
M  V30 5387 H 504.634 -5.6448 0.0474825 0
M  V30 5388 N 504.032 -0.577932 -1.46621 0
M  V30 5389 C 504.979 0.158048 -2.30258 0
M  V30 5390 C 505.949 0.888669 -1.40328 0
M  V30 5391 O 507.134 0.880283 -1.6928 0
M  V30 5392 C 504.274 1.16884 -3.24703 0
M  V30 5393 C 503.387 0.442163 -4.29731 0
M  V30 5394 C 502.522 1.44007 -5.11308 0
M  V30 5395 C 501.561 0.69952 -6.0809 0
M  V30 5396 N 500.698 1.64525 -6.82551 0
M  V30 5397 H 505.538 -0.561242 -2.92667 0
M  V30 5398 H 503.075 -0.288591 -1.44241 0
M  V30 5399 H 505.033 1.7677 -3.779 0
M  V30 5400 H 503.663 1.85591 -2.64113 0
M  V30 5401 H 502.715 -0.271632 -3.79429 0
M  V30 5402 H 504.027 -0.136992 -4.98612 0
M  V30 5403 H 503.181 2.11186 -5.68758 0
M  V30 5404 H 501.92 2.05315 -4.42377 0
M  V30 5405 H 500.925 0.0139217 -5.49798 0
M  V30 5406 H 502.15 0.091894 -6.79038 0
M  V30 5407 H 500.096 2.24653 -6.16334 0
M  V30 5408 H 500.013 1.11878 -7.47676 0
M  V30 5409 H 501.281 2.30754 -7.44562 0
M  V30 5410 N 505.51 1.54411 -0.315457 0
M  V30 5411 C 506.787 1.92562 0.343398 0
M  V30 5412 C 507.167 1.24423 1.70535 0
M  V30 5413 O 506.515 0.385051 2.25232 0
M  V30 5414 C 506.725 3.46168 0.443687 0
M  V30 5415 C 508.073 4.18659 0.707783 0
M  V30 5416 O 509.097 3.52281 0.52693 0
M  V30 5417 O 507.956 5.36198 1.05612 0
M  V30 5418 H 505.05 0.80379 0.194552 0
M  V30 5419 H 507.596 1.65738 -0.364577 0
M  V30 5420 H 506.368 3.8792 -0.513172 0
M  V30 5421 H 505.991 3.79073 1.19956 0
M  V30 5422 N 506.988 0.0434614 1.5754 0
M  V30 5423 C 508.399 -0.493343 1.80064 0
M  V30 5424 C 508.75 -1.71388 0.955023 0
M  V30 5425 O 507.875 -2.15736 0.169434 0
M  V30 5426 C 508.47 -0.90179 3.26578 0
M  V30 5427 C 507.029 -1.38362 3.50047 0
M  V30 5428 C 506.176 -0.355129 2.75017 0
M  V30 5429 H 509.127 0.2694 1.56397 0
M  V30 5430 H 509.148 -1.76523 3.37075 0
M  V30 5431 H 508.66 -0.013271 3.88098 0
M  V30 5432 H 506.761 -2.29159 2.93798 0
M  V30 5433 H 506.874 -1.3811 4.58762 0
M  V30 5434 H 505.238 -0.826348 2.40922 0
M  V30 5435 H 506.021 0.525172 3.39259 0
M  V30 5436 N 508.466 -1.55915 -0.229846 0
M  V30 5437 C 509.376 -1.94891 -1.30593 0
M  V30 5438 C 510.392 -0.851604 -1.51736 0
M  V30 5439 O 511.568 -1.15447 -1.65027 0
M  V30 5440 C 508.633 -2.25052 -2.63728 0
M  V30 5441 C 507.694 -3.48306 -2.5096 0
M  V30 5442 C 506.927 -3.77019 -3.77747 0
M  V30 5443 O 507.15 -3.07534 -4.80395 0
M  V30 5444 O 506.084 -4.70523 -3.75356 0
M  V30 5445 H 509.91 -2.86581 -1.00525 0
M  V30 5446 H 507.495 -1.43017 -0.432025 0
M  V30 5447 H 509.377 -2.45682 -3.42372 0
M  V30 5448 H 508.052 -1.36538 -2.93495 0
M  V30 5449 H 506.959 -3.32964 -1.70546 0
M  V30 5450 H 508.292 -4.37177 -2.26136 0
M  V30 5451 N 509.944 0.496216 -1.49584 0
M  V30 5452 C 510.877 1.61508 -1.61215 0
M  V30 5453 C 511.855 1.55927 -0.461045 0
M  V30 5454 O 513.039 1.75914 -0.677231 0
M  V30 5455 C 510.166 3.00035 -1.57152 0
M  V30 5456 C 509.212 3.23861 -2.77518 0
M  V30 5457 S 510.045 3.06466 -4.39134 0
M  V30 5458 C 511.201 4.4738 -4.37724 0
M  V30 5459 H 511.434 1.51398 -2.55863 0
M  V30 5460 H 508.967 0.681727 -1.38535 0
M  V30 5461 H 510.925 3.7991 -1.55494 0
M  V30 5462 H 509.586 3.07556 -0.637834 0
M  V30 5463 H 508.779 4.25 -2.70908 0
M  V30 5464 H 508.381 2.51716 -2.76614 0
M  V30 5465 H 510.673 5.39556 -4.09738 0
M  V30 5466 H 511.616 4.59038 -5.39156 0
M  V30 5467 H 512.024 4.28283 -3.67742 0
M  V30 5468 N 511.423 1.38739 0.74761 0
M  V30 5469 C 512.839 1.20067 1.05148 0
M  V30 5470 C 513.039 0.0534835 2.01429 0
M  V30 5471 O 512.095 -0.59886 2.45296 0
M  V30 5472 C 513.408 2.52957 1.62584 0
M  V30 5473 C 514.956 2.59692 1.74726 0
M  V30 5474 C 515.431 3.92772 2.35573 0
M  V30 5475 N 516.922 3.94343 2.42997 0
M  V30 5476 C 517.657 4.9408 2.90985 0
M  V30 5477 N 517.153 6.04214 3.38965 0
M  V30 5478 N 518.946 4.81466 2.9008 0
M  V30 5479 H 511.097 2.12121 0.108808 0
M  V30 5480 H 513.36 0.941491 0.110899 0
M  V30 5481 H 513.066 3.37389 0.993051 0
M  V30 5482 H 512.94 2.71779 2.61565 0
M  V30 5483 H 515.327 1.75651 2.3713 0
M  V30 5484 H 515.408 2.44731 0.744326 0
M  V30 5485 H 515.052 4.77238 1.738 0
M  V30 5486 H 514.982 4.05046 3.36519 0
M  V30 5487 H 517.473 3.14799 2.0907 0
M  V30 5488 H 517.786 6.76241 3.74056 0
M  V30 5489 H 516.131 6.07825 3.37007 0
M  V30 5490 H 519.322 3.94535 2.51912 0
M  V30 5491 H 519.495 5.59344 3.27166 0
M  V30 5492 N 512.901 -0.976442 1.23707 0
M  V30 5493 C 513.864 -2.0511 1.02287 0
M  V30 5494 C 514.864 -1.60791 -0.0167195 0
M  V30 5495 O 516.054 -1.72761 0.223408 0
M  V30 5496 C 513.186 -3.36458 0.548507 0
M  V30 5497 H 514.379 -2.25545 1.9766 0
M  V30 5498 H 511.932 -1.15042 1.05806 0
M  V30 5499 H 512.667 -3.21713 -0.408818 0
M  V30 5500 H 512.452 -3.69967 1.29874 0
M  V30 5501 H 513.942 -4.15489 0.419406 0
M  V30 5502 N 514.379 -1.04941 -1.1758 0
M  V30 5503 C 515.619 -0.766996 -1.89464 0
M  V30 5504 C 515.983 0.693123 -1.79053 0
M  V30 5505 O 517.184 1.08953 -2.45729 0
M  V30 5506 C 515.455 -1.23108 -3.35528 0
M  V30 5507 S 517.014 -1.07565 -4.25412 0
M  V30 5508 H 513.832 -0.278616 -0.654136 0
M  V30 5509 H 516.434 -1.34352 -1.4202 0
M  V30 5510 H 515.138 -2.28896 -3.40639 0
M  V30 5511 H 514.669 -0.648724 -3.88014 0
M  V30 5512 H 516.684 0.00169467 -4.962 0
M  V30 5513 N 515.857 1.33968 -0.830081 0
M  V30 5514 C 517.273 1.51003 -0.516742 0
M  V30 5515 C 517.473 1.77286 0.957694 0
M  V30 5516 O 516.529 1.82797 1.74188 0
M  V30 5517 C 517.842 2.67036 -1.38247 0
M  V30 5518 C 519.39 2.80919 -1.38034 0
M  V30 5519 C 519.865 4.00004 -2.23071 0
M  V30 5520 N 521.356 4.07224 -2.20733 0
M  V30 5521 C 522.091 4.98541 -2.83275 0
M  V30 5522 N 521.587 5.95033 -3.54835 0
M  V30 5523 N 523.38 4.91469 -2.72791 0
M  V30 5524 H 515.531 1.15168 -1.78466 0
M  V30 5525 H 517.794 0.565443 -0.760906 0
M  V30 5526 H 517.5 2.54266 -2.42985 0
M  V30 5527 H 517.374 3.62226 -1.05225 0
M  V30 5528 H 519.761 2.93127 -0.340713 0
M  V30 5529 H 519.842 1.86517 -1.75057 0
M  V30 5530 H 519.486 3.88557 -3.27087 0
M  V30 5531 H 519.416 4.93634 -1.83394 0
M  V30 5532 H 521.907 3.38162 -1.68687 0
M  V30 5533 H 522.22 6.61357 -3.99784 0
M  V30 5534 H 520.565 5.95135 -3.58942 0
M  V30 5535 H 523.756 4.15048 -2.16456 0
M  V30 5536 H 523.929 5.62439 -3.21818 0
M  V30 5537 N 517.335 0.585699 1.46312 0
M  V30 5538 C 518.267 -0.183687 2.28463 0
M  V30 5539 C 519.28 -0.85264 1.38686 0
M  V30 5540 O 520.469 -0.721701 1.6326 0
M  V30 5541 C 517.569 -1.27977 3.13808 0
M  V30 5542 C 516.742 -0.702164 4.31727 0
M  V30 5543 C 515.801 -1.68633 4.98447 0
M  V30 5544 O 514.827 -1.22121 5.55945 0
M  V30 5545 N 516.029 -3.02047 4.95729 0
M  V30 5546 H 518.794 0.521127 2.95134 0
M  V30 5547 H 516.355 0.423673 1.56258 0
M  V30 5548 H 518.347 -1.9375 3.55307 0
M  V30 5549 H 516.917 -1.8874 2.4919 0
M  V30 5550 H 516.137 0.1331 3.93975 0
M  V30 5551 H 517.425 -0.296101 5.07938 0
M  V30 5552 H 516.823 -3.42457 4.50266 0
M  V30 5553 H 515.38 -3.63301 5.41161 0
M  V30 5554 N 518.813 -1.54241 0.323641 0
M  V30 5555 C 520.053 -2.0248 -0.279502 0
M  V30 5556 C 520.417 -1.20672 -1.49339 0
M  V30 5557 O 521.618 -1.58715 -2.1694 0
M  V30 5558 C 519.889 -3.52238 -0.605266 0
M  V30 5559 S 521.448 -4.22411 -1.18805 0
M  V30 5560 H 518.266 -0.705957 -0.0845313 0
M  V30 5561 H 520.868 -1.90089 0.456781 0
M  V30 5562 H 519.572 -4.094 0.286339 0
M  V30 5563 H 519.103 -3.6871 -1.37174 0
M  V30 5564 H 521.118 -4.30075 -2.47487 0
M  V30 5565 N 520.291 -0.0518155 -1.57515 0
M  V30 5566 C 521.241 0.932017 -2.0808 0
M  V30 5567 C 522.225 1.27141 -0.986098 0
M  V30 5568 O 523.417 1.25373 -1.24943 0
M  V30 5569 C 520.546 2.20665 -2.62986 0
M  V30 5570 C 519.632 1.89462 -3.79427 0
M  V30 5571 N 520.023 1.28621 -4.89173 0
M  V30 5572 C 518.321 2.19327 -3.88345 0
M  V30 5573 C 519.022 1.15062 -5.70207 0
M  V30 5574 N 517.998 1.65372 -5.17835 0
M  V30 5575 H 521.8 0.456964 -2.90326 0
M  V30 5576 H 519.314 0.152619 -1.61681 0
M  V30 5577 H 521.311 2.92044 -2.97516 0
M  V30 5578 H 519.971 2.68776 -1.8218 0
M  V30 5579 H 520.982 0.958341 -5.08956 0
M  V30 5580 H 517.659 2.69955 -3.18482 0
M  V30 5581 H 519.049 0.678243 -6.68468 0
M  V30 5582 N 521.769 1.56035 0.221574 0
M  V30 5583 C 522.994 1.83476 0.967026 0
M  V30 5584 C 523.419 0.632139 1.7716 0
M  V30 5585 O 522.777 -0.419082 1.7639 0
M  V30 5586 C 522.825 3.08907 1.86034 0
M  V30 5587 O 521.929 2.876 2.95567 0
M  V30 5588 H 521.27 0.604913 0.273817 0
M  V30 5589 H 523.8 2.03247 0.234893 0
M  V30 5590 H 523.81 3.3901 2.27016 0
M  V30 5591 H 522.485 3.96068 1.26898 0
M  V30 5592 H 521.062 2.6873 2.58532 0
M  V30 5593 N 523.247 -0.488276 1.49845 0
M  V30 5594 C 524.524 -1.24959 1.50481 0
M  V30 5595 C 524.904 -2.09735 0.239698 0
M  V30 5596 O 524.252 -2.14865 -0.777524 0
M  V30 5597 C 524.462 -2.0954 2.79095 0
M  V30 5598 C 525.81 -2.68305 3.29086 0
M  V30 5599 O 526.834 -2.19797 2.80299 0
M  V30 5600 O 525.693 -3.56643 4.14087 0
M  V30 5601 H 522.787 -0.566133 0.602845 0
M  V30 5602 H 525.333 -0.501504 1.6212 0
M  V30 5603 H 524.105 -1.46958 3.62656 0
M  V30 5604 H 523.728 -2.91517 2.70377 0
M  V30 5605 N 524.725 -1.39134 -0.740242 0
M  V30 5606 C 525.672 -1.37434 -1.8542 0
M  V30 5607 C 526.642 -0.234822 -1.64432 0
M  V30 5608 O 527.827 -0.429125 -1.85912 0
M  V30 5609 C 524.967 -1.21844 -3.22875 0
M  V30 5610 C 524.08 -2.45296 -3.55603 0
M  V30 5611 C 523.215 -2.22334 -4.82432 0
M  V30 5612 C 522.254 -3.41488 -5.07988 0
M  V30 5613 N 521.391 -3.17877 -6.26018 0
M  V30 5614 H 526.231 -2.3266 -1.86207 0
M  V30 5615 H 523.768 -1.15578 -0.909946 0
M  V30 5616 H 525.726 -1.10818 -4.02213 0
M  V30 5617 H 524.356 -0.3025 -3.21379 0
M  V30 5618 H 523.408 -2.66945 -2.71006 0
M  V30 5619 H 524.72 -3.34063 -3.7041 0
M  V30 5620 H 523.874 -2.0852 -5.69741 0
M  V30 5621 H 522.613 -1.30954 -4.6979 0
M  V30 5622 H 521.618 -3.55807 -4.19144 0
M  V30 5623 H 522.843 -4.33763 -5.22519 0
M  V30 5624 H 520.789 -2.29156 -6.14673 0
M  V30 5625 H 520.706 -4.00198 -6.41387 0
M  V30 5626 H 521.974 -3.07746 -7.16179 0
M  V30 5627 N 526.204 0.969867 -1.24223 0
M  V30 5628 C 527.432 1.74756 -1.10761 0
M  V30 5629 C 527.847 1.85713 0.340041 0
M  V30 5630 O 527.204 1.34389 1.23474 0
M  V30 5631 C 527.255 3.16915 -1.73917 0
M  V30 5632 O 526.976 3.06511 -3.13021 0
M  V30 5633 C 528.477 4.11032 -1.66036 0
M  V30 5634 H 525.697 0.548092 -0.387087 0
M  V30 5635 H 528.241 1.2178 -1.64286 0
M  V30 5636 H 526.396 3.66884 -1.244 0
M  V30 5637 H 526.81 3.96079 -3.43834 0
M  V30 5638 H 528.284 5.08446 -2.14911 0
M  V30 5639 H 528.761 4.34785 -0.621159 0
M  V30 5640 H 529.367 3.66972 -2.14969 0
M  V30 5641 N 527.682 1.05563 1.17022 0
M  V30 5642 C 529.093 0.793475 1.69 0
M  V30 5643 C 529.444 -0.683882 1.83895 0
M  V30 5644 O 528.569 -1.53116 1.5292 0
M  V30 5645 C 529.164 1.43376 3.06967 0
M  V30 5646 C 527.723 1.21956 3.56095 0
M  V30 5647 C 526.87 1.51494 2.3226 0
M  V30 5648 H 529.821 1.22008 1.01487 0
M  V30 5649 H 529.842 0.845068 3.70997 0
M  V30 5650 H 529.354 2.50899 2.96093 0
M  V30 5651 H 527.455 0.163749 3.7224 0
M  V30 5652 H 527.568 1.92713 4.38633 0
M  V30 5653 H 525.932 0.935175 2.3691 0
M  V30 5654 H 526.715 2.60159 2.23992 0
M  V30 5655 N 529.16 -1.33526 0.837174 0
M  V30 5656 C 530.437 -1.92369 0.354065 0
M  V30 5657 C 530.817 -1.76348 -1.16038 0
M  V30 5658 O 530.165 -1.15083 -1.97403 0
M  V30 5659 C 530.375 -3.39728 0.799101 0
M  V30 5660 C 531.723 -4.16877 0.806139 0
M  V30 5661 O 532.747 -3.48373 0.742597 0
M  V30 5662 O 531.606 -5.39166 0.892345 0
M  V30 5663 H 528.7 -0.820952 0.0998378 0
M  V30 5664 H 531.246 -1.42409 0.922913 0
M  V30 5665 H 530.018 -3.45254 1.84162 0
M  V30 5666 H 529.641 -3.97062 0.206731 0
M  V30 5667 N 530.638 -0.59345 -1.46 0
M  V30 5668 C 531.868 -0.0889642 -2.06408 0
M  V30 5669 C 532.276 1.22597 -1.44106 0
M  V30 5670 O 531.619 1.75448 -0.544398 0
M  V30 5671 C 531.681 0.139902 -3.59228 0
M  V30 5672 C 531.345 -1.09107 -4.43784 0
M  V30 5673 C 532.342 -2.00577 -4.79651 0
M  V30 5674 C 530.027 -1.31593 -4.84756 0
M  V30 5675 C 532.021 -3.12873 -5.55328 0
M  V30 5676 C 529.708 -2.44192 -5.60191 0
M  V30 5677 C 530.706 -3.34661 -5.95392 0
M  V30 5678 O 530.394 -4.45302 -6.69299 0
M  V30 5679 H 530.126 -0.0594613 -0.67338 0
M  V30 5680 H 532.68 -0.817 -1.88452 0
M  V30 5681 H 530.91 0.922672 -3.75531 0
M  V30 5682 H 532.599 0.594228 -4.01527 0
M  V30 5683 H 533.365 -1.84425 -4.48567 0
M  V30 5684 H 529.244 -0.620801 -4.56801 0
M  V30 5685 H 532.788 -3.83511 -5.82722 0
M  V30 5686 H 528.685 -2.60303 -5.90688 0
M  V30 5687 H 529.453 -4.43805 -6.87735 0
M  V30 5688 N 532.116 1.54067 -0.331816 0
M  V30 5689 C 533.046 2.27569 0.522932 0
M  V30 5690 C 534.027 1.28679 1.11247 0
M  V30 5691 O 535.212 1.57504 1.13605 0
M  V30 5692 C 532.342 3.0397 1.67987 0
M  V30 5693 C 531.296 4.10267 1.21924 0
M  V30 5694 C 530.622 4.74555 2.46377 0
M  V30 5695 C 531.922 5.21268 0.32815 0
M  V30 5696 H 533.616 2.99264 -0.0901977 0
M  V30 5697 H 531.162 1.4393 -0.044821 0
M  V30 5698 H 533.115 3.54123 2.28418 0
M  V30 5699 H 531.839 2.29906 2.31971 0
M  V30 5700 H 530.498 3.61009 0.637809 0
M  V30 5701 H 530.146 3.97098 3.08743 0
M  V30 5702 H 529.846 5.46363 2.16243 0
M  V30 5703 H 531.37 5.27487 3.07555 0
M  V30 5704 H 532.784 5.67128 0.838978 0
M  V30 5705 H 531.181 5.99982 0.119228 0
M  V30 5706 H 532.251 4.80673 -0.638839 0
M  V30 5707 N 533.594 0.0601682 1.57485 0
M  V30 5708 C 534.541 -0.91112 2.12055 0
M  V30 5709 C 535.511 -1.30298 1.03013 0
M  V30 5710 O 536.696 -1.39087 1.30612 0
M  V30 5711 C 533.836 -2.1775 2.67729 0
M  V30 5712 C 532.949 -1.83933 3.90887 0
M  V30 5713 C 532.084 -3.05096 4.34845 0
M  V30 5714 C 531.123 -2.67241 5.5068 0
M  V30 5715 N 530.26 -3.81127 5.8965 0
M  V30 5716 H 535.1 -0.43888 2.9475 0
M  V30 5717 H 532.637 -0.204995 1.45665 0
M  V30 5718 H 534.595 -2.91866 2.98111 0
M  V30 5719 H 533.225 -2.62535 1.87816 0
M  V30 5720 H 532.277 -0.999287 3.6704 0
M  V30 5721 H 533.589 -1.52074 4.75052 0
M  V30 5722 H 532.743 -3.87502 4.66827 0
M  V30 5723 H 531.482 -3.40139 3.49509 0
M  V30 5724 H 530.487 -1.83254 5.18361 0
M  V30 5725 H 531.712 -2.3338 6.37738 0
M  V30 5726 H 529.658 -4.15954 5.07266 0
M  V30 5727 H 529.575 -3.52997 6.68528 0
M  V30 5728 H 530.843 -4.64145 6.2625 0
M  V30 5729 N 535.072 -1.5615 -0.213296 0
M  V30 5730 C 536.297 -1.83986 -0.957282 0
M  V30 5731 C 536.722 -0.641526 -1.76822 0
M  V30 5732 O 536.08 0.409722 -1.7661 0
M  V30 5733 C 536.128 -3.09889 -1.84393 0
M  V30 5734 O 535.232 -2.89163 -2.94038 0
M  V30 5735 H 534.573 -0.606357 -0.270605 0
M  V30 5736 H 537.103 -2.03369 -0.224111 0
M  V30 5737 H 537.113 -3.40209 -2.25215 0
M  V30 5738 H 535.788 -3.96735 -1.24795 0
M  V30 5739 H 534.365 -2.70097 -2.57103 0
M  V30 5740 N 536.55 0.480323 -1.50102 0
M  V30 5741 C 537.966 0.813295 -1.37323 0
M  V30 5742 C 538.166 1.97027 -0.422206 0
M  V30 5743 O 537.222 2.5212 0.138563 0
M  V30 5744 C 538.535 1.13404 -2.78496 0
M  V30 5745 C 540.083 1.24104 -2.87345 0
M  V30 5746 C 540.558 1.59497 -4.29331 0
M  V30 5747 N 542.049 1.66507 -4.32238 0
M  V30 5748 C 542.784 1.95378 -5.39087 0
M  V30 5749 N 542.28 2.22333 -6.56155 0
M  V30 5750 N 544.073 1.96803 -5.26522 0
M  V30 5751 H 536.224 -0.282291 -2.10516 0
M  V30 5752 H 538.487 -0.063752 -0.945854 0
M  V30 5753 H 538.193 0.357064 -3.49883 0
M  V30 5754 H 538.067 2.07251 -3.15162 0
M  V30 5755 H 540.454 2.00871 -2.16183 0
M  V30 5756 H 540.535 0.282593 -2.54234 0
M  V30 5757 H 540.179 0.832736 -5.01027 0
M  V30 5758 H 540.109 2.56477 -4.59921 0
M  V30 5759 H 542.6 1.47753 -3.47818 0
M  V30 5760 H 542.913 2.43611 -7.33399 0
M  V30 5761 H 541.258 2.19745 -6.59346 0
M  V30 5762 H 544.449 1.75235 -4.34062 0
M  V30 5763 H 544.622 2.18969 -6.09883 0
M  V30 5764 N 538.028 1.39524 0.732853 0
M  V30 5765 C 539.274 1.37068 1.49467 0
M  V30 5766 C 539.607 -0.0327166 1.94172 0
M  V30 5767 O 538.882 -0.998071 1.66939 0
M  V30 5768 C 539.165 2.34494 2.73285 0
M  V30 5769 C 539.018 3.83784 2.34585 0
M  V30 5770 C 540.337 2.29717 3.75391 0
M  V30 5771 H 537.456 0.499206 0.542183 0
M  V30 5772 H 540.098 1.70532 0.837783 0
M  V30 5773 H 538.248 2.06087 3.29333 0
M  V30 5774 H 539.92 4.22949 1.84151 0
M  V30 5775 H 538.163 4.00455 1.66787 0
M  V30 5776 H 538.834 4.47444 3.23262 0
M  V30 5777 H 541.31 2.54839 3.28932 0
M  V30 5778 H 540.186 2.99962 4.59689 0
M  V30 5779 H 540.447 1.30291 4.22465 0
M  V30 5780 N 539.506 -0.963266 1.24736 0
M  V30 5781 C 540.436 -2.07628 1.06832 0
M  V30 5782 C 541.417 -1.70088 -0.0200566 0
M  V30 5783 O 542.602 -1.93636 0.147854 0
M  V30 5784 C 539.732 -3.40636 0.677069 0
M  V30 5785 C 538.686 -3.9215 1.71471 0
M  V30 5786 C 538.012 -5.21553 1.1784 0
M  V30 5787 C 539.312 -4.19493 3.11164 0
M  V30 5788 H 541.006 -2.22864 1.9993 0
M  V30 5789 H 538.552 -1.07093 0.96266 0
M  V30 5790 H 540.505 -4.17941 0.538792 0
M  V30 5791 H 539.229 -3.25313 -0.289612 0
M  V30 5792 H 537.888 -3.17005 1.84128 0
M  V30 5793 H 537.536 -5.02593 0.202195 0
M  V30 5794 H 537.236 -5.56988 1.87185 0
M  V30 5795 H 538.76 -6.01463 1.05233 0
M  V30 5796 H 540.174 -4.87487 3.01711 0
M  V30 5797 H 538.571 -4.66165 3.77902 0
M  V30 5798 H 539.641 -3.26097 3.58871 0
M  V30 5799 N 540.985 -1.06182 -1.16461 0
M  V30 5800 C 542.232 -0.777863 -1.86964 0
M  V30 5801 C 542.56 0.695602 -1.81636 0
M  V30 5802 O 541.815 1.52532 -1.22607 0
M  V30 5803 C 542.114 -1.21633 -3.36066 0
M  V30 5804 C 541.78 -2.69371 -3.61594 0
M  V30 5805 C 540.442 -3.09727 -3.6827 0
M  V30 5806 C 542.794 -3.64791 -3.7226 0
M  V30 5807 C 540.122 -4.44345 -3.83112 0
M  V30 5808 C 542.474 -4.99155 -3.88623 0
M  V30 5809 C 541.138 -5.39149 -3.93541 0
M  V30 5810 H 540.408 -0.28464 -0.68415 0
M  V30 5811 H 543.055 -1.33071 -1.37711 0
M  V30 5812 H 541.36 -0.582651 -3.87443 0
M  V30 5813 H 543.057 -0.973682 -3.88999 0
M  V30 5814 H 539.647 -2.37124 -3.57029 0
M  V30 5815 H 543.831 -3.34746 -3.66413 0
M  V30 5816 H 539.087 -4.74819 -3.85172 0
M  V30 5817 H 543.261 -5.72976 -3.95817 0
M  V30 5818 H 540.888 -6.43464 -4.04794 0
M  V30 5819 N 542.463 1.3308 -0.844243 0
M  V30 5820 C 543.691 2.01808 -0.456203 0
M  V30 5821 C 544.106 1.63498 0.944131 0
M  V30 5822 O 543.463 0.85102 1.61443 0
M  V30 5823 C 543.514 3.56922 -0.573513 0
M  V30 5824 O 543.235 3.93851 -1.91868 0
M  V30 5825 C 544.736 4.42922 -0.183125 0
M  V30 5826 H 541.956 0.646273 -0.180477 0
M  V30 5827 H 544.5 1.69891 -1.1383 0
M  V30 5828 H 542.655 3.87352 0.0607367 0
M  V30 5829 H 543.069 4.88564 -1.90802 0
M  V30 5830 H 544.543 5.51093 -0.316241 0
M  V30 5831 H 545.02 4.30386 0.875477 0
M  V30 5832 H 545.626 4.1786 -0.792027 0
M  V30 5833 N 543.941 0.601185 1.45683 0
M  V30 5834 C 544.873 -0.159446 2.28645 0
M  V30 5835 C 545.886 -0.837882 1.39583 0
M  V30 5836 O 547.075 -0.704344 1.64016 0
M  V30 5837 C 544.175 -1.24641 3.15147 0
M  V30 5838 C 543.348 -0.656334 4.32448 0
M  V30 5839 C 542.407 -1.63337 5.00208 0
M  V30 5840 O 541.433 -1.16217 5.57209 0
M  V30 5841 N 542.635 -2.96773 4.98905 0
M  V30 5842 H 545.4 0.5524 2.94565 0
M  V30 5843 H 542.961 0.440223 1.558 0
M  V30 5844 H 544.953 -1.8997 3.57342 0
M  V30 5845 H 543.523 -1.86087 2.51178 0
M  V30 5846 H 542.743 0.174879 3.93812 0
M  V30 5847 H 544.031 -0.242211 5.08223 0
M  V30 5848 H 543.429 -3.37662 4.53873 0
M  V30 5849 H 541.986 -3.57541 5.44984 0
M  V30 5850 N 545.419 -1.53889 0.339982 0
M  V30 5851 C 546.366 -2.24902 -0.518452 0
M  V30 5852 C 547.336 -1.24593 -1.09844 0
M  V30 5853 O 548.521 -1.53317 -1.13572 0
M  V30 5854 C 545.661 -3.02262 -1.66529 0
M  V30 5855 C 544.774 -4.17418 -1.11295 0
M  V30 5856 C 543.909 -4.82273 -2.2268 0
M  V30 5857 C 542.948 -5.89503 -1.6478 0
M  V30 5858 N 542.085 -6.48153 -2.69893 0
M  V30 5859 H 546.925 -2.97853 0.0936579 0
M  V30 5860 H 544.462 -1.46986 0.0579924 0
M  V30 5861 H 546.42 -3.45371 -2.3404 0
M  V30 5862 H 545.05 -2.31614 -2.24844 0
M  V30 5863 H 544.102 -3.78976 -0.328886 0
M  V30 5864 H 545.414 -4.94554 -0.649414 0
M  V30 5865 H 544.568 -5.28435 -2.98063 0
M  V30 5866 H 543.307 -4.04552 -2.72376 0
M  V30 5867 H 542.312 -5.42728 -0.879004 0
M  V30 5868 H 543.537 -6.6913 -1.1594 0
M  V30 5869 H 541.483 -5.73298 -3.1885 0
M  V30 5870 H 541.4 -7.20752 -2.28151 0
M  V30 5871 H 542.668 -6.98968 -3.45056 0
M  V30 5872 N 546.897 -0.0685191 -1.57451 0
M  V30 5873 C 548.313 0.288101 -1.56978 0
M  V30 5874 C 548.513 1.70262 -1.07765 0
M  V30 5875 O 547.569 2.4135 -0.742054 0
M  V30 5876 C 548.882 0.100745 -3.00531 0
M  V30 5877 C 550.43 0.170531 -3.12535 0
M  V30 5878 C 550.905 0.0114944 -4.57999 0
M  V30 5879 N 552.396 0.0672065 -4.63151 0
M  V30 5880 C 553.131 -0.0314813 -5.73391 0
M  V30 5881 N 552.627 -0.183503 -6.92557 0
M  V30 5882 N 554.42 0.0253489 -5.62094 0
M  V30 5883 H 546.571 -0.993026 -1.87757 0
M  V30 5884 H 548.834 -0.386981 -0.865419 0
M  V30 5885 H 548.54 -0.875197 -3.40636 0
M  V30 5886 H 548.414 0.854457 -3.67395 0
M  V30 5887 H 550.801 1.13696 -2.72318 0
M  V30 5888 H 550.882 -0.614229 -2.48316 0
M  V30 5889 H 550.526 -0.951684 -4.98904 0
M  V30 5890 H 550.456 0.815617 -5.20245 0
M  V30 5891 H 552.947 0.183246 -3.77455 0
M  V30 5892 H 553.26 -0.251041 -7.72392 0
M  V30 5893 H 551.605 -0.218822 -6.94655 0
M  V30 5894 H 554.796 0.142794 -4.67882 0
M  V30 5895 H 554.969 -0.0550166 -6.47977 0
M  V30 5896 N 548.375 1.56261 0.205012 0
M  V30 5897 C 549.603 1.84141 0.943386 0
M  V30 5898 C 550.018 0.649772 1.77266 0
M  V30 5899 O 549.375 -0.381612 1.78466 0
M  V30 5900 C 549.426 3.10719 1.84759 0
M  V30 5901 O 549.147 4.25286 1.05181 0
M  V30 5902 C 550.648 3.51706 2.69848 0
M  V30 5903 H 547.868 0.611734 0.275721 0
M  V30 5904 H 550.412 2.03364 0.215253 0
M  V30 5905 H 548.567 2.93422 2.52947 0
M  V30 5906 H 548.981 4.97301 1.66709 0
M  V30 5907 H 550.455 4.43266 3.28967 0
M  V30 5908 H 550.932 2.7423 3.43067 0
M  V30 5909 H 551.538 3.71499 2.07047 0
M  V30 5910 N 549.853 -0.472356 1.50355 0
M  V30 5911 C 551.1 -1.22453 1.61281 0
M  V30 5912 C 551.428 -1.91972 0.31256 0
M  V30 5913 O 550.683 -1.82696 -0.701475 0
M  V30 5914 C 550.982 -2.29257 2.74182 0
M  V30 5915 C 550.648 -1.76999 4.14708 0
M  V30 5916 C 549.31 -1.62467 4.52944 0
M  V30 5917 C 551.662 -1.38215 5.0254 0
M  V30 5918 C 548.99 -1.07574 5.76754 0
M  V30 5919 C 551.342 -0.847638 6.26895 0
M  V30 5920 C 550.006 -0.688946 6.63935 0
M  V30 5921 H 549.276 -0.448087 0.590168 0
M  V30 5922 H 551.923 -0.520744 1.84284 0
M  V30 5923 H 550.228 -3.05538 2.45263 0
M  V30 5924 H 551.925 -2.87212 2.7984 0
M  V30 5925 H 548.515 -1.89276 3.84542 0
M  V30 5926 H 552.699 -1.48276 4.73633 0
M  V30 5927 H 547.955 -0.940237 6.04127 0
M  V30 5928 H 552.129 -0.538455 6.94315 0
M  V30 5929 H 549.756 -0.261435 7.5975 0
M  V30 5930 N 551.331 -1.39911 -0.725443 0
M  V30 5931 C 552.608 -1.28158 -1.47766 0
M  V30 5932 C 552.988 0.104545 -2.10841 0
M  V30 5933 O 552.336 1.11657 -1.99361 0
M  V30 5934 C 552.546 -2.41306 -2.52135 0
M  V30 5935 C 553.894 -2.81076 -3.18247 0
M  V30 5936 O 554.918 -2.40827 -2.62452 0
M  V30 5937 O 553.777 -3.50581 -4.19231 0
M  V30 5938 H 550.871 -0.502761 -0.656628 0
M  V30 5939 H 553.417 -1.51808 -0.758456 0
M  V30 5940 H 552.189 -3.33932 -2.03974 0
M  V30 5941 H 551.812 -2.19374 -3.31603 0
M  V30 5942 N 552.809 0.956637 -1.25245 0
M  V30 5943 C 553.739 2.07058 -1.07931 0
M  V30 5944 C 554.72 1.70096 0.0110361 0
M  V30 5945 O 555.905 1.93555 -0.158121 0
M  V30 5946 C 553.035 3.40272 -0.695124 0
M  V30 5947 C 551.989 3.91235 -1.73549 0
M  V30 5948 C 551.315 5.20921 -1.20604 0
M  V30 5949 C 552.615 4.17837 -3.13385 0
M  V30 5950 H 554.309 2.218 -2.01109 0
M  V30 5951 H 551.855 1.06581 -0.968326 0
M  V30 5952 H 553.808 4.1765 -0.560949 0
M  V30 5953 H 552.532 3.25462 0.272355 0
M  V30 5954 H 551.191 3.16025 -1.85807 0
M  V30 5955 H 550.839 5.02479 -0.228846 0
M  V30 5956 H 550.539 5.55987 -1.90136 0
M  V30 5957 H 552.063 6.00897 -1.08421 0
M  V30 5958 H 553.477 4.8588 -3.04292 0
M  V30 5959 H 551.874 4.64154 -3.80369 0
M  V30 5960 H 552.944 3.2419 -3.60595 0
M  V30 5961 N 554.287 1.06798 1.15896 0
M  V30 5962 C 555.217 0.704677 2.22613 0
M  V30 5963 C 556.198 -0.305252 1.67339 0
M  V30 5964 O 557.383 -0.179247 1.93371 0
M  V30 5965 C 554.513 0.0957325 3.47168 0
M  V30 5966 C 553.467 1.0322 4.15367 0
M  V30 5967 C 552.793 0.286293 5.33933 0
M  V30 5968 C 554.093 2.36341 4.65768 0
M  V30 5969 H 555.787 1.59688 2.53259 0
M  V30 5970 H 553.333 0.769257 1.21731 0
M  V30 5971 H 555.286 -0.170333 4.21056 0
M  V30 5972 H 554.01 -0.831516 3.15838 0
M  V30 5973 H 552.669 1.28309 3.43413 0
M  V30 5974 H 552.317 -0.644237 4.98857 0
M  V30 5975 H 552.017 0.910436 5.80504 0
M  V30 5976 H 553.541 0.0278938 6.10594 0
M  V30 5977 H 554.955 2.1561 5.31211 0
M  V30 5978 H 553.352 2.94299 5.2298 0
M  V30 5979 H 554.422 2.99047 3.81705 0
M  V30 5980 N 555.766 -1.3263 0.851289 0
M  V30 5981 C 556.696 -2.31449 0.308771 0
M  V30 5982 C 557.677 -1.59531 -0.590255 0
M  V30 5983 O 558.862 -1.87351 -0.511205 0
M  V30 5984 C 555.992 -3.43586 -0.506548 0
M  V30 5985 C 554.946 -4.26963 0.297753 0
M  V30 5986 C 554.272 -5.30831 -0.642094 0
M  V30 5987 C 555.572 -4.99643 1.52166 0
M  V30 5988 H 557.266 -2.77074 1.13447 0
M  V30 5989 H 554.812 -1.33207 0.546971 0
M  V30 5990 H 556.765 -4.11754 -0.896474 0
M  V30 5991 H 555.489 -2.96681 -1.36558 0
M  V30 5992 H 554.148 -3.60437 0.669391 0
M  V30 5993 H 553.796 -4.8018 -1.49788 0
M  V30 5994 H 553.496 -5.87501 -0.107968 0
M  V30 5995 H 555.02 -6.01862 -1.02927 0
M  V30 5996 H 556.434 -5.6051 1.20421 0
M  V30 5997 H 554.831 -5.66022 1.99347 0
M  V30 5998 H 555.901 -4.27701 2.28474 0
M  V30 5999 N 557.244 -0.608902 -1.45362 0
M  V30 6000 C 558.207 0.0992563 -2.28985 0
M  V30 6001 C 559.207 0.793841 -1.39838 0
M  V30 6002 O 560.397 0.641804 -1.61946 0
M  V30 6003 C 557.529 1.15073 -3.20891 0
M  V30 6004 H 558.722 -0.635964 -2.93079 0
M  V30 6005 H 556.275 -0.368007 -1.51906 0
M  V30 6006 H 557.01 1.91667 -2.616 0
M  V30 6007 H 556.795 0.656867 -3.86559 0
M  V30 6008 H 558.285 1.64665 -3.83765 0
M  V30 6009 N 558.722 1.53707 -0.348139 0
M  V30 6010 C 559.685 2.23812 0.494058 0
M  V30 6011 C 560.685 1.23989 1.02388 0
M  V30 6012 O 561.875 1.48395 0.912396 0
M  V30 6013 C 559.007 2.96133 1.68872 0
M  V30 6014 H 560.2 2.99663 -0.119141 0
M  V30 6015 H 557.753 1.55983 -0.0995539 0
M  V30 6016 H 558.488 2.24481 2.34049 0
M  V30 6017 H 558.273 3.69357 1.31596 0
M  V30 6018 H 559.763 3.49475 2.28597 0
M  V30 6019 N 560.2 0.0768682 1.57412 0
M  V30 6020 C 561.132 -0.918248 2.10002 0
M  V30 6021 C 562.145 -1.25808 1.03325 0
M  V30 6022 O 563.334 -1.21438 1.30824 0
M  V30 6023 C 560.434 -2.23263 2.54964 0
M  V30 6024 C 559.607 -2.07088 3.8527 0
M  V30 6025 C 558.666 -3.21876 4.16272 0
M  V30 6026 O 557.692 -2.96643 4.8579 0
M  V30 6027 N 558.894 -4.4712 3.70221 0
M  V30 6028 H 561.659 -0.469209 2.96004 0
M  V30 6029 H 559.22 -0.108725 1.61535 0
M  V30 6030 H 561.212 -2.9897 2.72762 0
M  V30 6031 H 559.782 -2.59649 1.74072 0
M  V30 6032 H 559.002 -1.15818 3.76802 0
M  V30 6033 H 560.29 -1.93537 4.70554 0
M  V30 6034 H 559.688 -4.70506 3.1407 0
M  V30 6035 H 558.245 -5.19837 3.93209 0
M  V30 6036 N 561.678 -1.56367 -0.196722 0
M  V30 6037 C 562.588 -1.97617 -1.2643 0
M  V30 6038 C 563.604 -0.883598 -1.49895 0
M  V30 6039 O 564.78 -1.18921 -1.62541 0
M  V30 6040 C 561.845 -2.30595 -2.58895 0
M  V30 6041 C 560.906 -3.53551 -2.43516 0
M  V30 6042 C 560.139 -3.84946 -3.69665 0
M  V30 6043 O 560.362 -3.17655 -4.73763 0
M  V30 6044 O 559.296 -4.78379 -3.65291 0
M  V30 6045 H 563.122 -2.88648 -0.944233 0
M  V30 6046 H 560.707 -1.43901 -0.401592 0
M  V30 6047 H 562.589 -2.52889 -3.37083 0
M  V30 6048 H 561.264 -1.42732 -2.90533 0
M  V30 6049 H 560.171 -3.36507 -1.63445 0
M  V30 6050 H 561.504 -4.41875 -2.16812 0
M  V30 6051 N 563.156 0.464375 -1.50603 0
M  V30 6052 C 564.402 1.21776 -1.62168 0
M  V30 6053 C 564.735 1.91476 -0.324154 0
M  V30 6054 O 564.01 1.8242 0.674782 0
M  V30 6055 C 564.293 2.25614 -2.80661 0
M  V30 6056 C 564.146 1.60175 -4.20314 0
M  V30 6057 C 565.465 3.26862 -2.94702 0
M  V30 6058 H 562.584 0.44137 -0.590222 0
M  V30 6059 H 565.226 0.510623 -1.8301 0
M  V30 6060 H 563.376 2.85923 -2.63021 0
M  V30 6061 H 565.048 1.03411 -4.4956 0
M  V30 6062 H 563.291 0.904697 -4.24261 0
M  V30 6063 H 563.962 2.35665 -4.99165 0
M  V30 6064 H 566.438 2.76582 -3.10872 0
M  V30 6065 H 565.314 3.96839 -3.79223 0
M  V30 6066 H 565.575 3.91382 -2.05603 0
M  V30 6067 N 564.634 1.40294 0.718013 0
M  V30 6068 C 565.859 1.41941 1.5122 0
M  V30 6069 C 566.284 0.0202371 1.88089 0
M  V30 6070 O 565.642 -0.971078 1.53101 0
M  V30 6071 C 565.69 2.3141 2.76554 0
M  V30 6072 O 564.794 1.75567 3.73162 0
M  V30 6073 H 564.135 0.482644 0.456016 0
M  V30 6074 H 566.665 1.84494 0.884478 0
M  V30 6075 H 566.675 2.46513 3.25108 0
M  V30 6076 H 565.35 3.33085 2.49053 0
M  V30 6077 H 563.927 1.69798 3.31999 0
M  V30 6078 N 566.112 -0.949982 1.2575 0
M  V30 6079 C 567.358 -1.69766 1.10938 0
M  V30 6080 C 567.691 -1.91056 -0.348028 0
M  V30 6081 O 566.966 -1.48488 -1.25625 0
M  V30 6082 C 567.249 -3.07779 1.86933 0
M  V30 6083 C 567.102 -2.9387 3.4053 0
M  V30 6084 C 568.421 -4.07749 1.65616 0
M  V30 6085 H 565.54 -0.616144 0.404396 0
M  V30 6086 H 568.182 -1.10394 1.54639 0
M  V30 6087 H 566.332 -3.58462 1.4979 0
M  V30 6088 H 568.004 -2.50476 3.87375 0
M  V30 6089 H 566.247 -2.29686 3.68004 0
M  V30 6090 H 566.918 -3.91719 3.88922 0
M  V30 6091 H 569.394 -3.65994 1.97959 0
M  V30 6092 H 568.27 -5.02348 2.21218 0
M  V30 6093 H 568.531 -4.38029 0.598595 0
M  V30 6094 N 567.59 -1.07411 -1.15328 0
M  V30 6095 C 568.537 -0.694995 -2.20087 0
M  V30 6096 C 569.507 0.313904 -1.63107 0
M  V30 6097 O 570.692 0.200216 -1.89747 0
M  V30 6098 C 567.832 -0.0996218 -3.44956 0
M  V30 6099 C 566.945 -1.16007 -4.16133 0
M  V30 6100 C 566.08 -0.529636 -5.28553 0
M  V30 6101 C 565.119 -1.57283 -5.91548 0
M  V30 6102 N 564.256 -0.964932 -6.95438 0
M  V30 6103 H 569.096 -1.5927 -2.51867 0
M  V30 6104 H 566.633 -0.796115 -1.23695 0
M  V30 6105 H 568.591 0.263197 -4.16369 0
M  V30 6106 H 567.221 0.761435 -3.13691 0
M  V30 6107 H 566.273 -1.64045 -3.4321 0
M  V30 6108 H 567.585 -1.95101 -4.59061 0
M  V30 6109 H 566.739 -0.114487 -6.06592 0
M  V30 6110 H 565.478 0.29307 -4.86819 0
M  V30 6111 H 564.483 -1.99775 -5.12221 0
M  V30 6112 H 565.708 -2.39783 -6.35359 0
M  V30 6113 H 563.654 -0.16314 -6.55797 0
M  V30 6114 H 563.571 -1.69311 -7.36797 0
M  V30 6115 H 564.839 -0.575305 -7.77374 0
M  V30 6116 N 569.068 1.32177 -0.85831 0
M  V30 6117 C 570.031 2.27086 -0.310588 0
M  V30 6118 C 571.031 1.51751 0.531806 0
M  V30 6119 O 572.221 1.70794 0.34279 0
M  V30 6120 C 569.353 3.36266 0.560179 0
M  V30 6121 H 570.546 2.77045 -1.1483 0
M  V30 6122 H 568.099 1.42911 -0.632942 0
M  V30 6123 H 568.834 2.9158 1.41956 0
M  V30 6124 H 568.619 3.92077 -0.0428473 0
M  V30 6125 H 570.109 4.06974 0.936056 0
M  V30 6126 N 570.547 0.616602 1.45037 0
M  V30 6127 C 571.497 -0.118543 2.27692 0
M  V30 6128 C 572.481 -0.830025 1.37838 0
M  V30 6129 O 573.673 -0.718528 1.6176 0
M  V30 6130 C 570.802 -1.10924 3.24886 0
M  V30 6131 C 569.888 -0.398134 4.22227 0
M  V30 6132 N 570.279 0.565233 5.02632 0
M  V30 6133 C 568.577 -0.644506 4.41319 0
M  V30 6134 C 569.278 0.984043 5.73316 0
M  V30 6135 N 568.254 0.325879 5.42622 0
M  V30 6136 H 572.056 0.621239 2.87259 0
M  V30 6137 H 569.57 0.440968 1.56299 0
M  V30 6138 H 571.567 -1.65038 3.82842 0
M  V30 6139 H 570.227 -1.84948 2.66879 0
M  V30 6140 H 571.238 0.942395 5.09254 0
M  V30 6141 H 567.915 -1.36873 3.94426 0
M  V30 6142 H 569.305 1.77911 6.47918 0
M  V30 6143 N 572.025 -1.5352 0.356285 0
M  V30 6144 C 572.935 -2.29151 -0.502712 0
M  V30 6145 C 573.951 -1.34753 -1.1008 0
M  V30 6146 O 575.127 -1.67803 -1.11374 0
M  V30 6147 C 572.192 -3.05911 -1.63154 0
M  V30 6148 C 571.253 -4.15958 -1.06194 0
M  V30 6149 C 570.486 -4.8905 -2.13696 0
M  V30 6150 O 570.709 -4.61919 -3.34645 0
M  V30 6151 O 569.643 -5.75202 -1.77275 0
M  V30 6152 H 573.469 -3.03492 0.112466 0
M  V30 6153 H 571.054 -1.4891 0.120942 0
M  V30 6154 H 572.936 -3.53874 -2.28804 0
M  V30 6155 H 571.611 -2.34415 -2.23229 0
M  V30 6156 H 570.518 -3.7227 -0.369603 0
M  V30 6157 H 571.851 -4.89593 -0.505872 0
M  V30 6158 N 573.503 -0.0852151 -1.57369 0
M  V30 6159 C 574.466 0.8627 -2.12344 0
M  V30 6160 C 575.466 1.21746 -1.05046 0
M  V30 6161 O 576.656 1.14852 -1.30976 0
M  V30 6162 C 573.788 2.1618 -2.63589 0
M  V30 6163 H 574.981 0.385511 -2.97412 0
M  V30 6164 H 572.534 0.163663 -1.55441 0
M  V30 6165 H 573.269 2.68406 -1.82013 0
M  V30 6166 H 573.054 1.91723 -3.4203 0
M  V30 6167 H 574.544 2.84011 -3.06149 0
M  V30 6168 N 574.981 1.5647 0.188427 0
M  V30 6169 C 576.227 1.81281 0.909124 0
M  V30 6170 C 576.56 0.66034 1.82628 0
M  V30 6171 O 575.835 -0.338737 1.91528 0
M  V30 6172 C 576.118 3.16388 1.7196 0
M  V30 6173 C 575.971 4.42137 0.826714 0
M  V30 6174 C 577.29 3.48256 2.69083 0
M  V30 6175 H 574.409 0.659457 0.329068 0
M  V30 6176 H 577.051 1.89182 0.176156 0
M  V30 6177 H 575.201 3.09784 2.34448 0
M  V30 6178 H 576.873 4.60794 0.216025 0
M  V30 6179 H 575.116 4.33594 0.133792 0
M  V30 6180 H 575.787 5.33184 1.42893 0
M  V30 6181 H 578.263 3.55203 2.16726 0
M  V30 6182 H 577.139 4.43899 3.2287 0
M  V30 6183 H 577.4 2.72088 3.48455 0
M  V30 6184 N 576.459 -0.456382 1.50847 0
M  V30 6185 C 577.875 -0.791345 1.386 0
M  V30 6186 C 578.075 -1.9633 0.453498 0
M  V30 6187 O 577.131 -2.52308 -0.0984353 0
M  V30 6188 C 578.444 -1.08959 2.80265 0
M  V30 6189 C 579.992 -1.19517 2.89283 0
M  V30 6190 C 580.467 -1.52647 4.31814 0
M  V30 6191 N 581.958 -1.59609 4.34832 0
M  V30 6192 C 582.693 -1.86777 5.42127 0
M  V30 6193 N 582.189 -2.11866 6.59609 0
M  V30 6194 N 583.982 -1.88402 5.29586 0
M  V30 6195 H 576.133 0.315746 2.1004 0
M  V30 6196 H 578.396 0.0787916 0.94472 0
M  V30 6197 H 578.102 -0.301355 3.50407 0
M  V30 6198 H 577.976 -2.02211 3.18419 0
M  V30 6199 H 580.363 -1.97406 2.19351 0
M  V30 6200 H 580.444 -0.242111 2.54652 0
M  V30 6201 H 580.088 -0.752922 5.02288 0
M  V30 6202 H 580.018 -2.49127 4.63943 0
M  V30 6203 H 582.509 -1.42201 3.50125 0
M  V30 6204 H 582.822 -2.31912 7.37182 0
M  V30 6205 H 581.167 -2.09228 6.62758 0
M  V30 6206 H 584.358 -1.68307 4.36795 0
M  V30 6207 H 584.531 -2.09238 6.13289 0
M  V30 6208 N 577.937 -1.40673 -0.710563 0
M  V30 6209 C 578.867 -1.44095 -1.83736 0
M  V30 6210 C 579.848 -0.301286 -1.67411 0
M  V30 6211 O 581.033 -0.510618 -1.87367 0
M  V30 6212 C 578.163 -1.30773 -3.21738 0
M  V30 6213 C 577.117 -2.42395 -3.52745 0
M  V30 6214 C 576.443 -2.14147 -4.89944 0
M  V30 6215 C 577.743 -3.84738 -3.53234 0
M  V30 6216 H 579.437 -2.38396 -1.81129 0
M  V30 6217 H 576.983 -1.14746 -0.870017 0
M  V30 6218 H 578.936 -1.31783 -4.00264 0
M  V30 6219 H 577.66 -0.329507 -3.24934 0
M  V30 6220 H 576.319 -2.40643 -2.76562 0
M  V30 6221 H 575.967 -1.14703 -4.89747 0
M  V30 6222 H 575.667 -2.88934 -5.11655 0
M  V30 6223 H 577.191 -2.16848 -5.70797 0
M  V30 6224 H 578.605 -3.88286 -4.2179 0
M  V30 6225 H 577.002 -4.59085 -3.86473 0
M  V30 6226 H 578.072 -4.13962 -2.52514 0
M  V30 6227 N 579.415 0.9433 -1.26252 0
M  V30 6228 C 580.378 2.02326 -1.07689 0
M  V30 6229 C 581.378 1.60779 -0.0259174 0
M  V30 6230 O 582.568 1.72108 -0.269134 0
M  V30 6231 C 579.7 3.34886 -0.63752 0
M  V30 6232 H 580.893 2.20225 -2.0357 0
M  V30 6233 H 578.446 1.12197 -1.08819 0
M  V30 6234 H 579.181 3.22684 0.323377 0
M  V30 6235 H 578.966 3.66393 -1.39637 0
M  V30 6236 H 580.456 4.14231 -0.529418 0
M  V30 6237 N 580.893 1.08022 1.14757 0
M  V30 6238 C 581.841 0.701088 2.21783 0
M  V30 6239 C 582.835 -0.291311 1.66876 0
M  V30 6240 O 584.041 -0.154296 1.79337 0
M  V30 6241 H 580.416 0.208668 0.722469 0
M  V30 6242 H 582.387 1.61321 2.51034 0
M  V30 6243 C 581.136 0.122278 3.47485 0
M  V30 6244 H 580.459 0.877065 3.90061 0
M  V30 6245 H 581.899 -0.105248 4.23869 0
M  V30 6246 C 580.358 -1.13883 3.17068 0
M  V30 6247 O 580.888 -2.22429 3.34497 0
M  V30 6248 N 579.094 -1.04767 2.71058 0
M  V30 6249 H 578.641 -0.164302 2.57075 0
M  V30 6250 H 578.599 -1.89224 2.51081 0
M  V30 6251 N 582.371 -1.3172 0.865308 0
M  V30 6252 C 583.281 -2.32394 0.320935 0
M  V30 6253 C 584.297 -1.64511 -0.566746 0
M  V30 6254 O 585.473 -1.95969 -0.464575 0
M  V30 6255 C 582.538 -3.43462 -0.472701 0
M  V30 6256 C 581.599 -4.27015 0.442385 0
M  V30 6257 C 580.832 -5.32779 -0.313469 0
M  V30 6258 O 581.055 -5.49158 -1.54214 0
M  V30 6259 O 579.989 -6.01015 0.326257 0
M  V30 6260 H 583.815 -2.80868 1.15528 0
M  V30 6261 H 581.4 -1.35535 0.628545 0
M  V30 6262 H 583.282 -4.11172 -0.922781 0
M  V30 6263 H 581.957 -2.97159 -1.28367 0
M  V30 6264 H 580.864 -3.62075 0.940866 0
M  V30 6265 H 582.197 -4.76871 1.21882 0
M  V30 6266 N 583.85 -0.624285 -1.44708 0
M  V30 6267 C 585.08 -0.132726 -2.06173 0
M  V30 6268 C 585.488 1.19513 -1.46674 0
M  V30 6269 O 584.831 1.74254 -0.581491 0
M  V30 6270 C 584.893 0.0636732 -3.59444 0
M  V30 6271 C 584.557 -1.18496 -4.4137 0
M  V30 6272 C 585.553 -2.10706 -4.75288 0
M  V30 6273 C 583.239 -1.41846 -4.81856 0
M  V30 6274 C 585.233 -3.24582 -5.48567 0
M  V30 6275 C 582.92 -2.5602 -5.54885 0
M  V30 6276 C 583.918 -3.47215 -5.88159 0
M  V30 6277 O 583.606 -4.59399 -6.59703 0
M  V30 6278 H 583.338 -0.0737313 -0.671967 0
M  V30 6279 H 585.892 -0.856789 -1.86677 0
M  V30 6280 H 584.122 0.842809 -3.77404 0
M  V30 6281 H 585.811 0.508924 -4.02697 0
M  V30 6282 H 586.577 -1.93898 -4.44554 0
M  V30 6283 H 582.456 -0.717556 -4.55381 0
M  V30 6284 H 586 -3.95785 -5.74456 0
M  V30 6285 H 581.897 -2.72774 -5.85034 0
M  V30 6286 H 582.665 -4.58293 -6.78166 0
M  V30 6287 N 585.328 1.53329 -0.364422 0
M  V30 6288 C 586.26 2.23286 0.517293 0
M  V30 6289 C 587.273 1.24657 1.04711 0
M  V30 6290 O 588.462 1.50887 0.95369 0
M  V30 6291 C 585.562 2.91604 1.72685 0
M  V30 6292 C 584.735 4.1673 1.32873 0
M  V30 6293 C 583.794 4.68269 2.40022 0
M  V30 6294 O 582.82 5.31976 2.02461 0
M  V30 6295 N 584.022 4.45983 3.7159 0
M  V30 6296 H 586.787 2.99588 -0.0819391 0
M  V30 6297 H 584.348 1.60787 -0.189544 0
M  V30 6298 H 586.34 3.22992 2.4384 0
M  V30 6299 H 584.91 2.18763 2.23297 0
M  V30 6300 H 584.13 3.91657 0.447069 0
M  V30 6301 H 585.418 4.98078 1.03902 0
M  V30 6302 H 584.816 3.95077 4.04883 0
M  V30 6303 H 583.373 4.81924 4.38854 0
M  V30 6304 N 586.806 0.0935595 1.57322 0
M  V30 6305 C 588.054 -0.569383 1.93913 0
M  V30 6306 C 588.375 -1.68817 0.976009 0
M  V30 6307 O 587.645 -1.9588 0.0278099 0
M  V30 6308 H 586.225 -0.21332 0.715894 0
M  V30 6309 H 588.887 0.156531 1.9427 0
M  V30 6310 H 587.983 -0.980577 2.96296 0
M  V30 6311 N 588.284 -1.56567 -0.180126 0
M  V30 6312 C 589.247 -1.94852 -1.20686 0
M  V30 6313 C 590.247 -0.831212 -1.3765 0
M  V30 6314 O 591.437 -1.09841 -1.35206 0
M  V30 6315 C 588.569 -2.23565 -2.57355 0
M  V30 6316 H 589.762 -2.86722 -0.879225 0
M  V30 6317 H 587.315 -1.50489 -0.422237 0
M  V30 6318 H 588.05 -1.34381 -2.95148 0
M  V30 6319 H 587.835 -3.04999 -2.46411 0
M  V30 6320 H 589.325 -2.54137 -3.31367 0
M  V30 6321 N 589.762 0.448376 -1.51087 0
M  V30 6322 C 590.709 1.54341 -1.71603 0
M  V30 6323 C 591.679 1.56463 -0.557536 0
M  V30 6324 O 592.864 1.73644 -0.79072 0
M  V30 6325 C 590.004 2.92148 -1.83695 0
M  V30 6326 C 589.117 2.99639 -3.11192 0
M  V30 6327 C 588.252 4.285 -3.13944 0
M  V30 6328 C 587.291 4.29819 -4.35801 0
M  V30 6329 N 586.428 5.50186 -4.36164 0
M  V30 6330 H 591.268 1.36151 -2.65079 0
M  V30 6331 H 588.805 0.661585 -1.31383 0
M  V30 6332 H 590.763 3.72093 -1.88687 0
M  V30 6333 H 589.393 3.0892 -0.936374 0
M  V30 6334 H 588.445 2.12425 -3.15562 0
M  V30 6335 H 589.757 2.96474 -4.01129 0
M  V30 6336 H 588.911 5.16811 -3.17791 0
M  V30 6337 H 587.65 4.34307 -2.21876 0
M  V30 6338 H 586.655 3.39902 -4.32142 0
M  V30 6339 H 587.88 4.25685 -5.29121 0
M  V30 6340 H 585.826 5.56735 -3.46961 0
M  V30 6341 H 585.743 5.48856 -5.19897 0
M  V30 6342 H 587.011 6.40559 -4.44189 0
M  V30 6343 N 591.24 1.41047 0.703093 0
M  V30 6344 C 592.203 1.42036 1.79884 0
M  V30 6345 C 593.203 0.312153 1.57741 0
M  V30 6346 O 594.393 0.571672 1.64553 0
M  V30 6347 C 591.525 1.22437 3.18154 0
M  V30 6348 H 592.718 2.39572 1.80403 0
M  V30 6349 H 590.271 1.27079 0.909977 0
M  V30 6350 H 591.006 0.257112 3.23279 0
M  V30 6351 H 590.791 2.02723 3.35627 0
M  V30 6352 H 592.281 1.25946 3.98155 0
M  V30 6353 N 592.718 -0.936591 1.26751 0
M  V30 6354 C 593.681 -2.01752 1.08761 0
M  V30 6355 C 594.681 -1.60763 0.0344435 0
M  V30 6356 O 595.871 -1.71963 0.278258 0
M  V30 6357 C 593.003 -3.34543 0.655271 0
M  V30 6358 H 594.196 -2.19143 2.04735 0
M  V30 6359 H 591.749 -1.11618 1.09413 0
M  V30 6360 H 592.484 -3.22851 -0.30626 0
M  V30 6361 H 592.269 -3.65647 1.41578 0
M  V30 6362 H 593.759 -4.13944 0.551378 0
M  V30 6363 N 594.196 -1.08629 -1.14182 0
M  V30 6364 C 595.444 -0.815731 -1.84906 0
M  V30 6365 C 595.765 0.660441 -1.83475 0
M  V30 6366 O 595.035 1.47888 -1.28476 0
M  V30 6367 H 593.615 -0.298773 -0.684648 0
M  V30 6368 H 596.277 -1.37274 -1.38354 0
M  V30 6369 H 595.373 -1.16193 -2.89665 0
M  V30 6370 N 595.674 1.31259 -0.872281 0
M  V30 6371 C 596.904 2.00504 -0.498183 0
M  V30 6372 C 597.312 1.65632 0.914479 0
M  V30 6373 O 596.655 0.882849 1.61095 0
M  V30 6374 C 596.717 3.5482 -0.578194 0
M  V30 6375 C 596.381 4.13172 -1.95289 0
M  V30 6376 C 597.378 4.30107 -2.92069 0
M  V30 6377 C 595.063 4.48846 -2.25483 0
M  V30 6378 C 597.057 4.81908 -4.17185 0
M  V30 6379 C 594.744 5.00349 -3.50847 0
M  V30 6380 C 595.742 5.16831 -4.46514 0
M  V30 6381 O 595.43 5.67228 -5.69656 0
M  V30 6382 H 595.162 0.648055 -0.192354 0
M  V30 6383 H 597.716 1.6841 -1.17589 0
M  V30 6384 H 595.946 3.86383 0.156438 0
M  V30 6385 H 597.635 4.05318 -0.217192 0
M  V30 6386 H 598.401 4.02862 -2.7005 0
M  V30 6387 H 594.28 4.35292 -1.51795 0
M  V30 6388 H 597.824 4.94688 -4.91863 0
M  V30 6389 H 593.721 5.27028 -3.72708 0
M  V30 6390 H 594.489 5.85592 -5.7186 0
M  V30 6391 N 597.152 0.631951 1.44375 0
M  V30 6392 C 598.429 0.067646 1.95483 0
M  V30 6393 C 598.809 -1.40683 1.57389 0
M  V30 6394 O 598.157 -2.12167 0.848375 0
M  V30 6395 C 598.367 0.291392 3.47781 0
M  V30 6396 C 599.715 0.185028 4.24197 0
M  V30 6397 O 600.739 0.222803 3.55503 0
M  V30 6398 O 599.598 0.0906642 5.46425 0
M  V30 6399 H 596.692 -0.0218379 0.826712 0
M  V30 6400 H 599.238 0.703711 1.54421 0
M  V30 6401 H 598.01 1.31449 3.68561 0
M  V30 6402 H 597.633 -0.378772 3.95792 0
M  V30 6403 N 598.631 -1.53133 0.372548 0
M  V30 6404 C 599.908 -1.93704 -0.271693 0
M  V30 6405 C 600.288 -1.30667 -1.65799 0
M  V30 6406 O 599.636 -0.46838 -2.23648 0
M  V30 6407 C 599.846 -3.47576 -0.314903 0
M  V30 6408 C 601.194 -4.20998 -0.551912 0
M  V30 6409 O 602.218 -3.53994 -0.39582 0
M  V30 6410 O 601.077 -5.39748 -0.85639 0
M  V30 6411 H 598.171 -0.810457 -0.164586 0
M  V30 6412 H 600.717 -1.6427 0.425838 0
M  V30 6413 H 599.489 -3.85749 0.656792 0
M  V30 6414 H 599.112 -3.83264 -1.05804 0
M  V30 6415 N 600.109 -0.101901 -1.5727 0
M  V30 6416 C 601.039 0.851544 -2.17419 0
M  V30 6417 C 602.02 1.28942 -1.10941 0
M  V30 6418 O 603.205 1.35509 -1.39107 0
M  V30 6419 C 600.335 2.10816 -2.75996 0
M  V30 6420 C 599.289 1.80867 -3.87906 0
M  V30 6421 C 598.615 3.13413 -4.33216 0
M  V30 6422 C 599.915 1.0903 -5.10793 0
M  V30 6423 H 601.609 0.350381 -2.97343 0
M  V30 6424 H 599.155 0.16709 -1.43027 0
M  V30 6425 H 601.108 2.77959 -3.16729 0
M  V30 6426 H 599.832 2.63227 -1.93337 0
M  V30 6427 H 598.491 1.16119 -3.47724 0
M  V30 6428 H 598.139 3.63725 -3.47438 0
M  V30 6429 H 597.839 2.94155 -5.08671 0
M  V30 6430 H 599.363 3.81704 -4.76586 0
M  V30 6431 H 600.777 1.66295 -5.48652 0
M  V30 6432 H 599.174 0.99927 -5.91722 0
M  V30 6433 H 600.244 0.0741704 -4.84843 0
M  V30 6434 N 601.587 1.56661 0.17182 0
M  V30 6435 C 602.52 1.91474 1.24149 0
M  V30 6436 C 603.498 0.777485 1.42807 0
M  V30 6437 O 604.682 1.03075 1.57822 0
M  V30 6438 C 601.809 2.16523 2.60453 0
M  V30 6439 C 600.855 3.39209 2.58533 0
M  V30 6440 S 601.688 4.93594 2.07665 0
M  V30 6441 C 602.844 5.21737 3.45747 0
M  V30 6442 H 603.077 2.81903 0.944346 0
M  V30 6443 H 600.61 1.49743 0.376364 0
M  V30 6444 H 602.568 2.31635 3.38903 0
M  V30 6445 H 601.229 1.26802 2.87368 0
M  V30 6446 H 600.422 3.53935 3.58812 0
M  V30 6447 H 600.024 3.2321 1.88178 0
M  V30 6448 H 602.316 5.13684 4.41741 0
M  V30 6449 H 603.259 6.23361 3.35896 0
M  V30 6450 H 603.667 4.49307 3.41736 0
M  V30 6451 N 603.065 -0.440357 1.51323 0
M  V30 6452 C 604.314 -1.18697 1.63076 0
M  V30 6453 C 604.627 -1.92418 0.35136 0
M  V30 6454 O 605.833 -2.69258 0.348221 0
M  V30 6455 C 604.289 -2.15849 2.87988 0
M  V30 6456 C 603.897 -1.47789 4.22921 0
M  V30 6457 C 605.641 -2.90962 3.09098 0
M  V30 6458 C 603.548 -2.43407 5.38987 0
M  V30 6459 H 602.478 -0.44676 0.607389 0
M  V30 6460 H 605.129 -0.454313 1.77787 0
M  V30 6461 H 603.511 -2.92537 2.66905 0
M  V30 6462 H 604.685 -0.7668 4.54375 0
M  V30 6463 H 603 -0.848404 4.07665 0
M  V30 6464 H 605.597 -3.62584 3.92985 0
M  V30 6465 H 605.94 -3.52133 2.22053 0
M  V30 6466 H 606.473 -2.21381 3.30507 0
M  V30 6467 H 603.212 -1.86929 6.28282 0
M  V30 6468 H 602.732 -3.12579 5.11913 0
M  V30 6469 H 604.411 -3.046 5.70813 0
M  V30 6470 N 604.543 -1.41418 -0.695603 0
M  V30 6471 C 605.475 -1.39195 -1.82092 0
M  V30 6472 C 606.488 -0.294132 -1.60121 0
M  V30 6473 O 607.677 -0.555854 -1.69625 0
M  V30 6474 C 604.777 -1.14828 -3.18854 0
M  V30 6475 C 603.95 -2.36649 -3.67853 0
M  V30 6476 C 603.009 -2.08139 -4.83285 0
M  V30 6477 O 602.035 -2.81177 -4.94902 0
M  V30 6478 N 603.237 -1.07162 -5.70523 0
M  V30 6479 H 606.002 -2.36185 -1.84491 0
M  V30 6480 H 603.563 -1.3603 -0.877923 0
M  V30 6481 H 605.555 -0.937075 -3.93702 0
M  V30 6482 H 604.125 -0.264358 -3.1148 0
M  V30 6483 H 603.345 -2.73472 -2.83913 0
M  V30 6484 H 604.633 -3.17816 -3.97329 0
M  V30 6485 H 604.031 -0.467124 -5.63768 0
M  V30 6486 H 602.588 -0.920311 -6.4527 0
M  V30 6487 N 606.021 0.929856 -1.27246 0
M  V30 6488 C 606.984 2.01172 -1.09829 0
M  V30 6489 C 607.984 1.60743 -0.0429687 0
M  V30 6490 O 609.174 1.71813 -0.287373 0
M  V30 6491 C 606.306 3.34191 -0.673003 0
M  V30 6492 H 607.499 2.18054 -2.05895 0
M  V30 6493 H 605.052 1.11036 -1.10003 0
M  V30 6494 H 605.787 3.23009 0.289134 0
M  V30 6495 H 605.572 3.64892 -1.43515 0
M  V30 6496 H 607.062 4.13646 -0.573323 0
M  V30 6497 N 607.499 1.09233 1.13605 0
M  V30 6498 C 608.915 0.82163 1.36826 0
M  V30 6499 C 609.115 -0.565021 1.93416 0
M  V30 6500 O 608.171 -1.32026 2.15234 0
M  V30 6501 C 609.484 1.91124 2.32147 0
M  V30 6502 C 611.032 1.93824 2.45767 0
M  V30 6503 C 611.507 3.01923 3.44393 0
M  V30 6504 N 612.998 3.01149 3.51942 0
M  V30 6505 C 613.733 3.81434 4.2813 0
M  V30 6506 N 613.229 4.71621 5.07489 0
M  V30 6507 N 615.022 3.69702 4.23411 0
M  V30 6508 H 607.173 1.98633 0.752234 0
M  V30 6509 H 609.436 0.862482 0.393482 0
M  V30 6510 H 609.142 2.90862 1.97717 0
M  V30 6511 H 609.016 1.78777 3.32142 0
M  V30 6512 H 611.403 0.94726 2.79483 0
M  V30 6513 H 611.484 2.10248 1.45703 0
M  V30 6514 H 611.128 4.01232 3.11408 0
M  V30 6515 H 611.058 2.82742 4.44257 0
M  V30 6516 H 613.549 2.35789 2.95317 0
M  V30 6517 H 613.862 5.29468 5.62924 0
M  V30 6518 H 612.207 4.75658 5.06729 0
M  V30 6519 H 615.398 2.98606 3.60489 0
M  V30 6520 H 615.571 4.32509 4.82535 0
M  V30 6521 N 608.977 -1.30795 0.87923 0
M  V30 6522 C 609.887 -2.32041 0.345565 0
M  V30 6523 C 610.903 -1.65103 -0.549265 0
M  V30 6524 O 612.079 -1.9645 -0.443763 0
M  V30 6525 C 609.144 -3.43944 -0.436245 0
M  V30 6526 C 608.205 -4.26521 0.48765 0
M  V30 6527 C 607.438 -5.33081 -0.256943 0
M  V30 6528 O 607.661 -5.50762 -1.48381 0
M  V30 6529 O 606.595 -6.00635 0.389985 0
M  V30 6530 H 610.421 -2.79627 1.18501 0
M  V30 6531 H 608.006 -1.3486 0.642885 0
M  V30 6532 H 609.888 -4.12128 -0.879119 0
M  V30 6533 H 608.563 -2.98504 -1.25208 0
M  V30 6534 H 607.47 -3.61057 0.979216 0
M  V30 6535 H 608.803 -4.75551 1.26933 0
M  V30 6536 N 610.455 -0.639598 -1.44038 0
M  V30 6537 C 611.388 0.109736 -2.27936 0
M  V30 6538 C 612.366 0.843095 -1.39035 0
M  V30 6539 O 613.55 0.845456 -1.68476 0
M  V30 6540 C 610.677 1.16173 -3.18153 0
M  V30 6541 C 609.723 0.527954 -4.2322 0
M  V30 6542 S 610.556 -0.688318 -5.31058 0
M  V30 6543 C 611.712 0.363481 -6.24844 0
M  V30 6544 H 611.945 -0.601986 -2.91142 0
M  V30 6545 H 609.478 -0.42802 -1.48349 0
M  V30 6546 H 611.436 1.76372 -3.7068 0
M  V30 6547 H 610.097 1.84569 -2.54151 0
M  V30 6548 H 609.29 1.32054 -4.86393 0
M  V30 6549 H 608.892 0.000396444 -3.74 0
M  V30 6550 H 611.184 1.23362 -6.66174 0
M  V30 6551 H 612.127 -0.23288 -7.07717 0
M  V30 6552 H 612.535 0.693179 -5.60228 0
M  V30 6553 N 611.933 1.52934 -0.380664 0
M  V30 6554 C 613.179 2.01765 0.20458 0
M  V30 6555 C 613.512 1.26696 1.47179 0
M  V30 6556 O 612.787 0.364936 1.91046 0
M  V30 6557 C 613.07 3.56869 0.481269 0
M  V30 6558 C 612.923 4.42617 -0.800629 0
M  V30 6559 C 614.242 4.2121 1.27554 0
M  V30 6560 H 611.361 0.733388 0.0728803 0
M  V30 6561 H 614.003 1.83068 -0.50853 0
M  V30 6562 H 612.153 3.72932 1.08875 0
M  V30 6563 H 613.825 4.38323 -1.43773 0
M  V30 6564 H 612.068 4.09977 -1.4178 0
M  V30 6565 H 612.739 5.49134 -0.561791 0
M  V30 6566 H 615.215 4.09072 0.761514 0
M  V30 6567 H 614.091 5.29732 1.43788 0
M  V30 6568 H 614.352 3.78269 2.28833 0
M  V30 6569 N 613.412 0.11024 1.57214 0
M  V30 6570 C 614.828 -0.24638 1.57687 0
M  V30 6571 C 615.028 -1.67344 1.12241 0
M  V30 6572 O 614.084 -2.39298 0.805783 0
M  V30 6573 C 615.397 -0.0210288 3.00693 0
M  V30 6574 C 616.945 -0.0876077 3.12877 0
M  V30 6575 C 617.42 0.10994 4.57868 0
M  V30 6576 N 618.911 0.0556135 4.63167 0
M  V30 6577 C 619.646 0.183495 5.73106 0
M  V30 6578 N 619.142 0.367058 6.91827 0
M  V30 6579 N 620.935 0.123689 5.61964 0
M  V30 6580 H 613.086 1.04246 1.85058 0
M  V30 6581 H 615.349 0.40979 0.854854 0
M  V30 6582 H 615.055 0.965203 3.38196 0
M  V30 6583 H 614.929 -0.756748 3.69531 0
M  V30 6584 H 617.316 -1.06436 2.75237 0
M  V30 6585 H 617.397 0.67985 2.466 0
M  V30 6586 H 617.041 1.08362 4.96206 0
M  V30 6587 H 616.971 -0.677397 5.22225 0
M  V30 6588 H 619.462 -0.0831062 3.77809 0
M  V30 6589 H 619.775 0.455739 7.71455 0
M  V30 6590 H 618.12 0.40292 6.93831 0
M  V30 6591 H 621.311 -0.0186928 4.68096 0
M  V30 6592 H 621.484 0.226797 6.47603 0
M  V30 6593 N 614.89 -1.56749 -0.16351 0
M  V30 6594 C 615.837 -1.97011 -1.2023 0
M  V30 6595 C 616.807 -0.835186 -1.43575 0
M  V30 6596 O 617.992 -1.09594 -1.56185 0
M  V30 6597 C 615.132 -2.34186 -2.53478 0
M  V30 6598 C 614.245 -3.60893 -2.37446 0
M  V30 6599 C 613.38 -3.87245 -3.63614 0
M  V30 6600 C 612.419 -5.07274 -3.42548 0
M  V30 6601 N 611.556 -5.29719 -4.60806 0
M  V30 6602 H 616.396 -2.85562 -0.851958 0
M  V30 6603 H 613.933 -1.41292 -0.409257 0
M  V30 6604 H 615.891 -2.53764 -3.31149 0
M  V30 6605 H 614.521 -1.48736 -2.86492 0
M  V30 6606 H 613.573 -3.49185 -1.50911 0
M  V30 6607 H 614.885 -4.48722 -2.1783 0
M  V30 6608 H 614.039 -4.07232 -4.49719 0
M  V30 6609 H 612.778 -2.97806 -3.86216 0
M  V30 6610 H 611.783 -4.87177 -2.5483 0
M  V30 6611 H 613.008 -5.98251 -3.2136 0
M  V30 6612 H 610.954 -4.43233 -4.83612 0
M  V30 6613 H 610.871 -6.11786 -4.44132 0
M  V30 6614 H 612.139 -5.54192 -5.48171 0
M  V30 6615 N 616.368 0.432326 -1.51554 0
M  V30 6616 C 617.616 1.17901 -1.64146 0
M  V30 6617 C 617.937 1.91604 -0.362367 0
M  V30 6618 O 617.207 1.85764 0.621968 0
M  V30 6619 H 615.787 0.438206 -0.604966 0
M  V30 6620 H 618.449 0.495172 -1.88505 0
M  V30 6621 H 617.545 1.90584 -2.47152 0
M  V30 6622 N 617.846 1.41785 0.688094 0
M  V30 6623 C 618.778 1.40159 1.81351 0
M  V30 6624 C 619.791 0.30262 1.59963 0
M  V30 6625 O 620.98 0.564841 1.69327 0
M  V30 6626 C 618.08 1.16517 3.1824 0
M  V30 6627 C 617.253 2.38597 3.66593 0
M  V30 6628 C 616.312 2.10699 4.82174 0
M  V30 6629 O 615.338 2.83798 4.93404 0
M  V30 6630 N 616.54 1.10187 5.69947 0
M  V30 6631 H 619.305 2.3716 1.83236 0
M  V30 6632 H 616.866 1.36494 0.870697 0
M  V30 6633 H 618.858 0.957941 3.93199 0
M  V30 6634 H 617.428 0.280873 3.11336 0
M  V30 6635 H 616.648 2.74974 2.82459 0
M  V30 6636 H 617.936 3.19919 3.95638 0
M  V30 6637 H 617.334 0.497016 5.63512 0
M  V30 6638 H 615.891 0.954518 6.44773 0
M  V30 6639 N 619.324 -0.923095 1.27737 0
M  V30 6640 C 620.571 -1.67127 1.14345 0
M  V30 6641 C 620.899 -1.92017 -0.30982 0
M  V30 6642 O 620.154 -1.51185 -1.24264 0
M  V30 6643 C 620.453 -3.04125 1.8773 0
M  V30 6644 C 620.119 -2.98929 3.37568 0
M  V30 6645 C 618.781 -2.9722 3.78436 0
M  V30 6646 C 621.133 -2.89875 4.33154 0
M  V30 6647 C 618.461 -2.84244 5.13247 0
M  V30 6648 C 620.813 -2.7844 5.68026 0
M  V30 6649 C 619.477 -2.75083 6.08182 0
M  V30 6650 H 618.747 -0.611562 0.418417 0
M  V30 6651 H 621.394 -1.07618 1.584 0
M  V30 6652 H 619.699 -3.67366 1.36196 0
M  V30 6653 H 621.396 -3.609 1.74792 0
M  V30 6654 H 617.986 -3.0105 3.05069 0
M  V30 6655 H 622.17 -2.9029 4.02548 0
M  V30 6656 H 617.426 -2.80034 5.43499 0
M  V30 6657 H 621.6 -2.70401 6.4176 0
M  V30 6658 H 619.227 -2.64786 7.12596 0
M  V30 6659 N 620.802 -1.09834 -1.13024 0
M  V30 6660 C 622.049 -0.83695 -1.84395 0
M  V30 6661 C 622.377 0.637463 -1.83757 0
M  V30 6662 O 621.632 1.48554 -1.27398 0
M  V30 6663 C 621.931 -1.32263 -3.32026 0
M  V30 6664 C 621.597 -2.80739 -3.52841 0
M  V30 6665 C 620.259 -3.21286 -3.5823 0
M  V30 6666 C 622.611 -3.76449 -3.60466 0
M  V30 6667 C 619.939 -4.56308 -3.68781 0
M  V30 6668 C 622.291 -5.11266 -3.72546 0
M  V30 6669 C 620.955 -5.51397 -3.76189 0
M  V30 6670 H 620.225 -0.306262 -0.674748 0
M  V30 6671 H 622.872 -1.37385 -1.33408 0
M  V30 6672 H 621.177 -0.705618 -3.85394 0
M  V30 6673 H 622.874 -1.09695 -3.85705 0
M  V30 6674 H 619.464 -2.48363 -3.49305 0
M  V30 6675 H 623.648 -3.46234 -3.55578 0
M  V30 6676 H 618.904 -4.86832 -3.69871 0
M  V30 6677 H 623.078 -5.85279 -3.77388 0
M  V30 6678 H 620.705 -6.56017 -3.84117 0
M  V30 6679 N 622.28 1.30327 -0.886154 0
M  V30 6680 C 623.526 1.96764 -0.515312 0
M  V30 6681 C 623.881 1.68675 0.925552 0
M  V30 6682 O 623.174 0.981693 1.6454 0
M  V30 6683 C 623.368 3.49906 -0.728042 0
M  V30 6684 C 623.197 3.92881 -2.18803 0
M  V30 6685 C 621.967 4.18424 -2.83284 0
M  V30 6686 C 624.165 4.05617 -3.16195 0
M  V30 6687 N 622.147 4.47867 -4.19867 0
M  V30 6688 C 623.518 4.38957 -4.37855 0
M  V30 6689 C 625.573 3.88047 -3.11968 0
M  V30 6690 C 624.276 4.56559 -5.55829 0
M  V30 6691 C 626.302 4.06851 -4.29215 0
M  V30 6692 C 625.664 4.40538 -5.49641 0
M  V30 6693 H 621.763 0.74493 -0.237916 0
M  V30 6694 H 624.347 1.57536 -1.14414 0
M  V30 6695 H 622.518 3.88187 -0.128696 0
M  V30 6696 H 624.25 4.03401 -0.323983 0
M  V30 6697 H 621.005 4.1167 -2.34146 0
M  V30 6698 H 621.429 4.66721 -4.90408 0
M  V30 6699 H 626.071 3.61078 -2.19961 0
M  V30 6700 H 623.789 4.8237 -6.4834 0
M  V30 6701 H 627.375 3.94724 -4.27416 0
M  V30 6702 H 626.255 4.54789 -6.38856 0
M  V30 6703 N 623.758 0.647228 1.43697 0
M  V30 6704 C 625.035 0.0883758 1.954 0
M  V30 6705 C 625.415 -1.39006 1.58873 0
M  V30 6706 O 624.763 -2.11255 0.87083 0
M  V30 6707 C 624.973 0.328263 3.47453 0
M  V30 6708 C 626.321 0.230009 4.23977 0
M  V30 6709 O 627.345 0.260496 3.55246 0
M  V30 6710 O 626.204 0.148615 5.46298 0
M  V30 6711 H 623.298 -0.0130683 0.826897 0
M  V30 6712 H 625.844 0.72005 1.53666 0
M  V30 6713 H 624.616 1.3535 3.67146 0
M  V30 6714 H 624.239 -0.336772 3.96171 0
M  V30 6715 N 625.236 -1.5273 0.388769 0
M  V30 6716 C 626.466 -2.05693 -0.193397 0
M  V30 6717 C 626.874 -1.26038 -1.41107 0
M  V30 6718 O 626.217 -0.30001 -1.81234 0
M  V30 6719 C 626.279 -3.53962 -0.628561 0
M  V30 6720 C 625.943 -4.54519 0.475576 0
M  V30 6721 C 626.94 -5.02526 1.33281 0
M  V30 6722 C 624.625 -4.98174 0.642453 0
M  V30 6723 C 626.619 -5.92812 2.34205 0
M  V30 6724 C 624.306 -5.88262 1.65503 0
M  V30 6725 C 625.304 -6.35473 2.50325 0
M  V30 6726 O 624.992 -7.23781 3.49852 0
M  V30 6727 H 624.724 -0.675197 -0.0329395 0
M  V30 6728 H 627.278 -1.97835 0.552326 0
M  V30 6729 H 625.508 -3.59437 -1.42625 0
M  V30 6730 H 627.197 -3.89669 -1.13633 0
M  V30 6731 H 627.963 -4.6953 1.21519 0
M  V30 6732 H 623.842 -4.60999 -0.00805093 0
M  V30 6733 H 627.386 -6.29585 3.00447 0
M  V30 6734 H 623.283 -6.20672 1.77304 0
M  V30 6735 H 624.051 -7.4184 3.45855 0
M  V30 6736 N 626.714 -0.118576 -1.57153 0
M  V30 6737 C 627.96 0.540326 -1.95469 0
M  V30 6738 C 628.293 1.66356 -1.00196 0
M  V30 6739 O 627.568 1.94461 -0.039104 0
M  V30 6740 C 627.851 1.07342 -3.43729 0
M  V30 6741 C 627.704 -0.0463732 -4.49776 0
M  V30 6742 C 629.023 1.96442 -3.93826 0
M  V30 6743 H 626.142 0.19494 -0.710751 0
M  V30 6744 H 628.784 -0.19405 -1.89006 0
M  V30 6745 H 626.934 1.69925 -3.49368 0
M  V30 6746 H 628.606 -0.681648 -4.56236 0
M  V30 6747 H 626.849 -0.709574 -4.27957 0
M  V30 6748 H 627.52 0.367856 -5.50773 0
M  V30 6749 H 629.996 1.43731 -3.90488 0
M  V30 6750 H 628.872 2.3066 -4.98084 0
M  V30 6751 H 629.133 2.89077 -3.34495 0
M  V30 6752 N 628.193 1.56834 0.155195 0
M  V30 6753 C 629.418 1.87412 0.888337 0
M  V30 6754 C 629.843 0.70671 1.74319 0
M  V30 6755 O 629.201 -0.343892 1.78009 0
M  V30 6756 C 629.249 3.1652 1.72765 0
M  V30 6757 O 628.353 2.99877 2.83103 0
M  V30 6758 H 627.694 0.615983 0.247914 0
M  V30 6759 H 630.224 2.04061 0.148478 0
M  V30 6760 H 630.234 3.48334 2.12433 0
M  V30 6761 H 628.909 4.01094 1.09985 0
M  V30 6762 H 627.486 2.79453 2.46902 0
M  V30 6763 N 629.671 -0.424282 1.51781 0
M  V30 6764 C 630.634 -1.49848 1.73431 0
M  V30 6765 C 631.634 -1.49016 0.604225 0
M  V30 6766 O 632.824 -1.50808 0.871935 0
M  V30 6767 C 629.956 -2.89332 1.80277 0
M  V30 6768 H 631.149 -1.3195 2.69312 0
M  V30 6769 H 628.702 -0.653809 1.41968 0
M  V30 6770 H 629.437 -3.12618 0.862568 0
M  V30 6771 H 629.222 -2.9134 2.62419 0
M  V30 6772 H 630.712 -3.67233 1.98821 0
M  V30 6773 N 631.149 -1.42148 -0.680565 0
M  V30 6774 C 632.059 -1.47565 -1.82378 0
M  V30 6775 C 633.075 -0.36489 -1.70131 0
M  V30 6776 O 634.251 -0.614916 -1.91783 0
M  V30 6777 C 631.316 -1.37013 -3.18478 0
M  V30 6778 C 630.377 -2.58532 -3.42724 0
M  V30 6779 C 629.61 -2.48473 -4.72331 0
M  V30 6780 O 629.833 -1.51745 -5.49845 0
M  V30 6781 O 628.767 -3.38503 -4.97694 0
M  V30 6782 H 632.593 -2.44045 -1.80764 0
M  V30 6783 H 630.178 -1.23849 -0.835569 0
M  V30 6784 H 632.06 -1.33468 -3.99705 0
M  V30 6785 H 630.735 -0.436552 -3.20743 0
M  V30 6786 H 629.642 -2.67652 -2.61368 0
M  V30 6787 H 630.975 -3.50769 -3.45286 0
M  V30 6788 N 632.627 0.916307 -1.28225 0
M  V30 6789 C 633.575 2.03977 -1.11786 0
M  V30 6790 C 634.569 1.69358 -0.0378265 0
M  V30 6791 O 635.775 1.78925 -0.196405 0
M  V30 6792 H 632.15 0.66829 -0.344809 0
M  V30 6793 H 634.121 2.14985 -2.06939 0
M  V30 6794 C 632.87 3.38518 -0.7938 0
M  V30 6795 H 632.193 3.65649 -1.61682 0
M  V30 6796 H 633.633 4.17864 -0.718719 0
M  V30 6797 C 632.092 3.33134 0.502353 0
M  V30 6798 O 632.622 3.71281 1.53341 0
M  V30 6799 N 630.828 2.86229 0.502147 0
M  V30 6800 H 630.375 2.55382 -0.337338 0
M  V30 6801 H 630.333 2.83009 1.36942 0
M  V30 6802 N 634.105 1.10431 1.1244 0
M  V30 6803 C 635.33 0.869089 1.88313 0
M  V30 6804 C 635.755 -0.574912 1.79099 0
M  V30 6805 O 635.113 -1.40496 1.14589 0
M  V30 6806 C 635.161 1.32208 3.3549 0
M  V30 6807 O 634.265 0.487092 4.09513 0
M  V30 6808 H 633.606 0.313894 0.585121 0
M  V30 6809 H 636.136 1.47111 1.42195 0
M  V30 6810 H 636.146 1.31201 3.86329 0
M  V30 6811 H 634.821 2.37364 3.41513 0
M  V30 6812 H 633.398 0.562372 3.68635 0
M  V30 6813 N 635.583 -1.29855 0.893053 0
M  V30 6814 C 636.829 -1.96116 0.516349 0
M  V30 6815 C 637.162 -1.70281 -0.933695 0
M  V30 6816 O 636.437 -1.01205 -1.66096 0
M  V30 6817 C 636.72 -3.51068 0.801455 0
M  V30 6818 C 636.573 -3.86387 2.30272 0
M  V30 6819 C 637.892 -4.39186 0.283423 0
M  V30 6820 H 635.011 -0.712335 0.189072 0
M  V30 6821 H 637.653 -1.53587 1.11852 0
M  V30 6822 H 635.803 -3.87424 0.288949 0
M  V30 6823 H 637.475 -3.60012 2.88425 0
M  V30 6824 H 635.718 -3.34167 2.76613 0
M  V30 6825 H 636.389 -4.94512 2.45279 0
M  V30 6826 H 638.865 -4.09785 0.722187 0
M  V30 6827 H 637.741 -5.46505 0.512169 0
M  V30 6828 H 638.002 -4.34511 -0.815643 0
M  V30 6829 N 637.061 -0.65484 -1.43351 0
M  V30 6830 C 638.309 -0.168559 -2.01396 0
M  V30 6831 C 638.63 1.22235 -1.51933 0
M  V30 6832 O 637.9 1.81685 -0.732627 0
M  V30 6833 H 636.48 -0.0593244 -0.744641 0
M  V30 6834 H 639.142 -0.846871 -1.75539 0
M  V30 6835 H 638.238 -0.154428 -3.11718 0
M  V30 6836 N 638.539 1.52521 -0.396863 0
M  V30 6837 C 639.786 2.01672 0.182898 0
M  V30 6838 C 640.114 1.28302 1.46181 0
M  V30 6839 O 639.369 0.374118 1.92091 0
M  V30 6840 C 639.668 3.5403 0.489677 0
M  V30 6841 C 639.334 4.45456 -0.698581 0
M  V30 6842 C 637.996 4.70166 -1.02454 0
M  V30 6843 C 640.348 4.99354 -1.49316 0
M  V30 6844 C 637.676 5.46024 -2.1465 0
M  V30 6845 C 640.028 5.76439 -2.60579 0
M  V30 6846 C 638.692 5.99426 -2.93675 0
M  V30 6847 H 637.962 0.737971 0.066927 0
M  V30 6848 H 640.609 1.83853 -0.535764 0
M  V30 6849 H 638.914 3.69963 1.28976 0
M  V30 6850 H 640.611 3.8956 0.951018 0
M  V30 6851 H 637.201 4.26392 -0.434525 0
M  V30 6852 H 641.385 4.80182 -1.25457 0
M  V30 6853 H 636.641 5.62046 -2.40654 0
M  V30 6854 H 640.815 6.17202 -3.22544 0
M  V30 6855 H 638.442 6.57988 -3.80731 0
M  V30 6856 N 640.017 0.126909 1.57088 0
M  V30 6857 C 640.967 -0.831678 2.1229 0
M  V30 6858 C 641.951 -1.22292 1.04564 0
M  V30 6859 O 643.143 -1.19269 1.30782 0
M  V30 6860 C 640.272 -2.07866 2.73215 0
M  V30 6861 C 639.358 -1.71143 3.88035 0
M  V30 6862 N 639.749 -1.05136 4.94753 0
M  V30 6863 C 638.047 -2.00549 3.98367 0
M  V30 6864 C 638.748 -0.877257 5.75047 0
M  V30 6865 N 637.724 -1.40477 5.25135 0
M  V30 6866 H 641.526 -0.317926 2.92175 0
M  V30 6867 H 639.04 -0.0753052 1.62225 0
M  V30 6868 H 641.037 -2.77516 3.11111 0
M  V30 6869 H 639.697 -2.59778 1.94796 0
M  V30 6870 H 640.708 -0.71442 5.12949 0
M  V30 6871 H 637.385 -2.54452 3.30999 0
M  V30 6872 H 638.775 -0.358536 6.70943 0
M  V30 6873 N 641.495 -1.56914 -0.146875 0
M  V30 6874 C 642.443 -1.99224 -1.20053 0
M  V30 6875 C 643.437 -0.884661 -1.44465 0
M  V30 6876 O 644.643 -1.06984 -1.44756 0
M  V30 6877 H 641.018 -0.634191 -0.404112 0
M  V30 6878 H 642.989 -2.86998 -0.816987 0
M  V30 6879 C 641.738 -2.38899 -2.52632 0
M  V30 6880 H 641.061 -3.23677 -2.34677 0
M  V30 6881 H 642.501 -2.72326 -3.24984 0
M  V30 6882 C 640.96 -1.2417 -3.13183 0
M  V30 6883 O 641.49 -0.542503 -3.9802 0
M  V30 6884 N 639.696 -1.00592 -2.72635 0
M  V30 6885 H 639.243 -1.57627 -2.03744 0
M  V30 6886 H 639.201 -0.240174 -3.13481 0
M  V30 6887 N 642.974 0.416227 -1.52004 0
M  V30 6888 C 644.385 0.995319 -1.57957 0
M  V30 6889 C 644.736 1.91744 -0.415754 0
M  V30 6890 O 643.861 2.11349 0.464808 0
M  V30 6891 C 644.456 1.81191 -2.86278 0
M  V30 6892 C 643.015 2.34115 -2.94732 0
M  V30 6893 C 642.162 1.139 -2.52828 0
M  V30 6894 H 645.113 0.196716 -1.57476 0
M  V30 6895 H 645.134 2.66859 -2.71231 0
M  V30 6896 H 644.646 1.14051 -3.70963 0
M  V30 6897 H 642.747 3.04647 -2.14525 0
M  V30 6898 H 642.86 2.65466 -3.98829 0
M  V30 6899 H 641.224 1.49081 -2.06511 0
M  V30 6900 H 642.007 0.483383 -3.3988 0
M  V30 6901 N 644.452 1.42507 0.673017 0
M  V30 6902 C 645.415 1.4582 1.76831 0
M  V30 6903 C 646.415 0.345542 1.57043 0
M  V30 6904 O 647.605 0.606447 1.63303 0
M  V30 6905 C 644.737 1.29158 3.15485 0
M  V30 6906 H 645.93 2.43345 1.7528 0
M  V30 6907 H 643.483 1.28981 0.882817 0
M  V30 6908 H 644.218 0.325626 3.22661 0
M  V30 6909 H 644.003 2.09797 3.31252 0
M  V30 6910 H 645.493 1.34363 3.95394 0
M  V30 6911 N 645.93 -0.909495 1.28709 0
M  V30 6912 C 646.877 -2.01245 1.13 0
M  V30 6913 C 647.847 -1.6608 0.0259684 0
M  V30 6914 O 649.032 -1.89835 0.191687 0
M  V30 6915 C 646.172 -3.35644 0.802315 0
M  V30 6916 C 645.285 -3.83653 1.98582 0
M  V30 6917 C 644.42 -5.06582 1.59837 0
M  V30 6918 C 643.459 -5.46934 2.74827 0
M  V30 6919 N 642.596 -6.61053 2.36546 0
M  V30 6920 H 647.436 -2.14013 2.0737 0
M  V30 6921 H 644.973 -1.0482 1.03205 0
M  V30 6922 H 646.931 -4.12963 0.593057 0
M  V30 6923 H 645.561 -3.22631 -0.104457 0
M  V30 6924 H 644.613 -3.02454 2.30708 0
M  V30 6925 H 645.925 -4.09515 2.84779 0
M  V30 6926 H 645.079 -5.91457 1.35143 0
M  V30 6927 H 643.818 -4.82537 0.707753 0
M  V30 6928 H 642.823 -4.60599 3.00215 0
M  V30 6929 H 644.048 -5.72965 3.64538 0
M  V30 6930 H 641.994 -6.3863 1.49959 0
M  V30 6931 H 641.911 -6.86662 3.16277 0
M  V30 6932 H 643.179 -7.49221 2.15146 0
M  V30 6933 N 647.408 -1.11026 -1.11852 0
M  V30 6934 C 648.371 -0.768006 -2.1595 0
M  V30 6935 C 649.371 0.210538 -1.59416 0
M  V30 6936 O 650.561 -0.0133978 -1.74195 0
M  V30 6937 C 647.693 -0.138678 -3.40618 0
M  V30 6938 H 648.886 -1.69012 -2.4774 0
M  V30 6939 H 646.439 -0.911578 -1.26964 0
M  V30 6940 H 647.174 0.793872 -3.14433 0
M  V30 6941 H 646.959 -0.843012 -3.8293 0
M  V30 6942 H 648.449 0.0848039 -4.17514 0
M  V30 6943 N 648.886 1.2938 -0.899927 0
M  V30 6944 C 649.816 2.30144 -0.39446 0
M  V30 6945 C 650.797 1.61611 0.530639 0
M  V30 6946 O 651.982 1.89119 0.441319 0
M  V30 6947 C 649.112 3.45229 0.37868 0
M  V30 6948 C 648.066 4.25564 -0.456012 0
M  V30 6949 C 647.392 5.32848 0.444637 0
M  V30 6950 C 648.692 4.93651 -1.70605 0
M  V30 6951 H 650.386 2.72673 -1.23653 0
M  V30 6952 H 647.932 1.31086 -0.596034 0
M  V30 6953 H 649.885 4.14797 0.743037 0
M  V30 6954 H 648.609 3.01545 1.25453 0
M  V30 6955 H 647.268 3.57704 -0.802704 0
M  V30 6956 H 646.916 4.85408 1.31863 0
M  V30 6957 H 646.616 5.87497 -0.110154 0
M  V30 6958 H 648.14 6.05268 0.805182 0
M  V30 6959 H 649.554 5.55655 -1.41141 0
M  V30 6960 H 647.951 5.58233 -2.20217 0
M  V30 6961 H 649.021 4.18926 -2.4419 0
M  V30 6962 N 650.364 0.662433 1.43002 0
M  V30 6963 C 651.641 0.109096 1.95296 0
M  V30 6964 C 652.021 -1.37313 1.60338 0
M  V30 6965 O 651.369 -2.1032 0.893187 0
M  V30 6966 C 651.579 0.365096 3.47085 0
M  V30 6967 C 652.927 0.274964 4.23709 0
M  V30 6968 O 653.951 0.29816 3.5495 0
M  V30 6969 O 652.81 0.206549 5.4611 0
M  V30 6970 H 649.904 -0.00429724 0.826989 0
M  V30 6971 H 652.45 0.736308 1.52894 0
M  V30 6972 H 651.222 1.39237 3.65689 0
M  V30 6973 H 650.845 -0.294733 3.96506 0
M  V30 6974 N 651.842 -1.52309 0.404946 0
M  V30 6975 C 653.07 -2.06185 -0.171818 0
M  V30 6976 C 653.485 -1.27536 -1.39212 0
M  V30 6977 O 652.842 -0.326112 -1.79563 0
M  V30 6978 C 652.893 -3.57647 -0.526417 0
M  V30 6979 O 652.614 -4.3332 0.645417 0
M  V30 6980 C 654.115 -4.27925 -1.15736 0
M  V30 6981 H 651.335 -0.670632 -0.0222328 0
M  V30 6982 H 653.879 -1.96259 0.574692 0
M  V30 6983 H 652.034 -3.67595 -1.22282 0
M  V30 6984 H 652.448 -5.23328 0.35042 0
M  V30 6985 H 653.922 -5.35093 -1.35572 0
M  V30 6986 H 654.399 -3.84134 -2.12926 0
M  V30 6987 H 655.005 -4.22335 -0.501281 0
M  V30 6988 N 653.32 -0.135238 -1.57019 0
M  V30 6989 C 654.25 0.805235 -2.19176 0
M  V30 6990 C 655.231 1.2656 -1.13651 0
M  V30 6991 O 656.416 1.32528 -1.4195 0
M  V30 6992 C 653.546 2.04914 -2.80406 0
M  V30 6993 C 652.5 1.72598 -3.91655 0
M  V30 6994 C 651.826 3.04154 -4.39766 0
M  V30 6995 C 653.126 0.981709 -5.12991 0
M  V30 6996 H 654.82 0.287232 -2.98019 0
M  V30 6997 H 652.366 0.136714 -1.4335 0
M  V30 6998 H 654.319 2.71178 -3.22553 0
M  V30 6999 H 653.043 2.59067 -1.98877 0
M  V30 7000 H 651.702 1.08717 -3.50109 0
M  V30 7001 H 651.35 3.56274 -3.55075 0
M  V30 7002 H 651.05 2.83299 -5.14796 0
M  V30 7003 H 652.574 3.71509 -4.84576 0
M  V30 7004 H 653.988 1.5462 -5.52056 0
M  V30 7005 H 652.385 0.873533 -5.93708 0
M  V30 7006 H 653.455 -0.0286887 -4.84892 0
M  V30 7007 N 654.798 1.5699 0.138552 0
M  V30 7008 C 655.761 1.97984 1.15478 0
M  V30 7009 C 656.761 0.867416 1.35398 0
M  V30 7010 O 657.951 1.13387 1.32246 0
M  V30 7011 C 655.083 2.3031 2.51337 0
M  V30 7012 H 656.276 2.88953 0.802896 0
M  V30 7013 H 653.829 1.51555 0.382189 0
M  V30 7014 H 654.564 1.42159 2.91481 0
M  V30 7015 H 654.349 3.11425 2.38237 0
M  V30 7016 H 655.839 2.62834 3.24512 0
M  V30 7017 N 656.276 -0.40816 1.52223 0
M  V30 7018 C 657.208 -1.51642 1.71864 0
M  V30 7019 C 658.221 -1.51378 0.599056 0
M  V30 7020 O 659.41 -1.55626 0.874239 0
M  V30 7021 C 656.51 -2.90534 1.74481 0
M  V30 7022 C 655.683 -3.14979 3.03491 0
M  V30 7023 C 654.742 -4.33749 2.97907 0
M  V30 7024 O 653.768 -4.30982 3.71811 0
M  V30 7025 N 654.97 -5.38912 2.15764 0
M  V30 7026 H 657.735 -1.35188 2.67478 0
M  V30 7027 H 655.296 -0.597468 1.50472 0
M  V30 7028 H 657.288 -3.68056 1.68275 0
M  V30 7029 H 655.858 -3.00441 0.863363 0
M  V30 7030 H 655.078 -2.25492 3.23337 0
M  V30 7031 H 656.366 -3.28156 3.88833 0
M  V30 7032 H 655.764 -5.44008 1.55152 0
M  V30 7033 H 654.321 -6.15174 2.15415 0
M  V30 7034 N 657.755 -1.42862 -0.66545 0
M  V30 7035 C 658.98 -1.47456 -1.45848 0
M  V30 7036 C 659.405 -0.0900312 -1.87884 0
M  V30 7037 O 658.763 0.913587 -1.56599 0
M  V30 7038 C 658.811 -2.41514 -2.67774 0
M  V30 7039 O 657.915 -1.89296 -3.66389 0
M  V30 7040 H 657.256 -0.499236 -0.437789 0
M  V30 7041 H 659.786 -1.8765 -0.815394 0
M  V30 7042 H 659.796 -2.58409 -3.15735 0
M  V30 7043 H 658.471 -3.42099 -2.36519 0
M  V30 7044 H 657.048 -1.82003 -3.25468 0
M  V30 7045 N 659.233 0.902656 -1.29189 0
M  V30 7046 C 660.165 2.01149 -1.09872 0
M  V30 7047 C 661.178 1.62732 -0.0471046 0
M  V30 7048 O 662.367 1.76107 -0.29132 0
M  V30 7049 C 659.467 3.32612 -0.649818 0
M  V30 7050 C 658.64 3.99574 -1.7793 0
M  V30 7051 C 657.699 5.09325 -1.32191 0
M  V30 7052 O 656.725 5.31919 -2.02611 0
M  V30 7053 N 657.927 5.80185 -0.191171 0
M  V30 7054 H 660.692 2.18276 -2.05368 0
M  V30 7055 H 658.253 1.07466 -1.2109 0
M  V30 7056 H 660.245 4.03375 -0.327199 0
M  V30 7057 H 658.815 3.11876 0.212597 0
M  V30 7058 H 658.035 3.22213 -2.27095 0
M  V30 7059 H 659.323 4.41056 -2.53668 0
M  V30 7060 H 658.721 5.64312 0.396016 0
M  V30 7061 H 657.278 6.5176 0.0721001 0
M  V30 7062 N 660.711 1.11618 1.11262 0
M  V30 7063 C 661.643 0.734015 2.17129 0
M  V30 7064 C 662.656 -0.235243 1.61091 0
M  V30 7065 O 663.845 -0.0178597 1.78491 0
M  V30 7066 C 660.945 0.0643682 3.38839 0
M  V30 7067 C 660.118 1.06092 4.24339 0
M  V30 7068 C 659.177 0.420482 5.24517 0
M  V30 7069 O 658.203 1.07495 5.58957 0
M  V30 7070 N 659.405 -0.815828 5.74739 0
M  V30 7071 H 662.17 1.64492 2.50524 0
M  V30 7072 H 659.731 1.00664 1.26801 0
M  V30 7073 H 661.723 -0.375851 4.02951 0
M  V30 7074 H 660.293 -0.749147 3.03491 0
M  V30 7075 H 659.513 1.67903 3.56654 0
M  V30 7076 H 660.801 1.73507 4.78302 0
M  V30 7077 H 660.199 -1.36668 5.48943 0
M  V30 7078 H 658.756 -1.199 6.40677 0
M  V30 7079 N 662.189 -1.289 0.906776 0
M  V30 7080 C 663.436 -1.95269 0.536326 0
M  V30 7081 C 663.764 -1.71435 -0.918711 0
M  V30 7082 O 663.019 -1.02431 -1.66752 0
M  V30 7083 C 663.318 -3.48704 0.783617 0
M  V30 7084 C 662.984 -3.92626 2.21711 0
M  V30 7085 C 661.646 -4.04329 2.60906 0
M  V30 7086 C 663.998 -4.15218 3.15029 0
M  V30 7087 C 661.326 -4.35998 3.92584 0
M  V30 7088 C 663.678 -4.48365 4.46264 0
M  V30 7089 C 662.342 -4.58278 4.85322 0
M  V30 7090 H 661.612 -0.714538 0.196256 0
M  V30 7091 H 664.259 -1.53366 1.14678 0
M  V30 7092 H 662.564 -3.91696 0.0903048 0
M  V30 7093 H 664.261 -3.98162 0.476267 0
M  V30 7094 H 660.851 -3.84038 1.90296 0
M  V30 7095 H 665.035 -4.05636 2.8596 0
M  V30 7096 H 660.291 -4.41878 4.22557 0
M  V30 7097 H 664.465 -4.64795 5.18593 0
M  V30 7098 H 662.092 -4.82573 5.87391 0
M  V30 7099 N 663.667 -0.670007 -1.42649 0
M  V30 7100 C 664.892 -0.196955 -2.06463 0
M  V30 7101 C 665.317 1.1352 -1.49983 0
M  V30 7102 O 664.675 1.705 -0.616397 0
M  V30 7103 C 664.723 -0.137381 -3.60338 0
M  V30 7104 O 663.827 0.895523 -4.02559 0
M  V30 7105 H 663.168 -0.102579 -0.656029 0
M  V30 7106 H 665.698 -0.917669 -1.82866 0
M  V30 7107 H 665.708 0.0403625 -4.0798 0
M  V30 7108 H 664.383 -1.10977 -4.0082 0
M  V30 7109 H 662.96 0.689209 -3.66476 0
M  V30 7110 N 665.145 1.52092 -0.413018 0
M  V30 7111 C 666.077 2.24819 0.445994 0
M  V30 7112 C 667.09 1.27925 1.00692 0
M  V30 7113 O 668.279 1.53845 0.905204 0
M  V30 7114 C 665.379 2.96951 1.6332 0
M  V30 7115 C 664.552 4.20746 1.19548 0
M  V30 7116 C 663.611 4.75668 2.25003 0
M  V30 7117 O 662.637 5.38148 1.85434 0
M  V30 7118 N 663.839 4.57579 3.57214 0
M  V30 7119 H 666.604 2.99176 -0.177209 0
M  V30 7120 H 664.165 1.60102 -0.240601 0
M  V30 7121 H 666.157 3.30586 2.33441 0
M  V30 7122 H 664.727 2.25756 2.16225 0
M  V30 7123 H 663.947 3.92881 0.32224 0
M  V30 7124 H 665.235 5.01132 0.880033 0
M  V30 7125 H 664.633 4.07758 3.92109 0
M  V30 7126 H 663.19 4.95642 4.23299 0
M  V30 7127 N 666.623 0.143563 1.56945 0
M  V30 7128 C 667.57 -0.797433 2.16586 0
M  V30 7129 C 668.54 -1.24654 1.09775 0
M  V30 7130 O 669.725 -1.31968 1.37801 0
M  V30 7131 C 666.865 -2.03253 2.78895 0
M  V30 7132 C 665.978 -1.62954 4.00087 0
M  V30 7133 C 665.113 -2.81617 4.50406 0
M  V30 7134 C 664.152 -2.37675 5.64072 0
M  V30 7135 N 663.289 -3.49335 6.09023 0
M  V30 7136 H 668.129 -0.282023 2.96662 0
M  V30 7137 H 665.666 -0.127494 1.46546 0
M  V30 7138 H 667.624 -2.75653 3.13163 0
M  V30 7139 H 666.254 -2.52211 2.01469 0
M  V30 7140 H 665.306 -0.803322 3.71821 0
M  V30 7141 H 666.618 -1.26679 4.82446 0
M  V30 7142 H 665.772 -3.62212 4.86711 0
M  V30 7143 H 664.511 -3.21134 3.67048 0
M  V30 7144 H 663.516 -1.55519 5.27346 0
M  V30 7145 H 664.741 -1.99247 6.49213 0
M  V30 7146 H 662.687 -3.8848 5.28601 0
M  V30 7147 H 662.604 -3.17064 6.86299 0
M  V30 7148 H 663.872 -4.30297 6.49973 0
M  V30 7149 N 668.101 -1.57061 -0.130224 0
M  V30 7150 C 669.064 -1.98593 -1.14426 0
M  V30 7151 C 670.064 -0.874584 -1.34936 0
M  V30 7152 O 671.254 -1.14086 -1.31643 0
M  V30 7153 C 668.386 -2.31639 -2.50112 0
M  V30 7154 H 669.579 -2.89374 -0.787561 0
M  V30 7155 H 667.132 -1.51756 -0.374146 0
M  V30 7156 H 667.867 -1.43703 -2.90723 0
M  V30 7157 H 667.652 -3.12684 -2.36583 0
M  V30 7158 H 669.142 -2.64551 -3.23114 0
M  V30 7159 N 669.579 0.400081 -1.52437 0
M  V30 7160 C 670.828 1.14332 -1.66166 0
M  V30 7161 C 671.141 1.91419 -0.402253 0
M  V30 7162 O 672.347 2.6824 -0.419487 0
M  V30 7163 C 670.803 2.08137 -2.9361 0
M  V30 7164 C 670.411 1.36524 -4.26691 0
M  V30 7165 C 672.155 2.82664 -3.16703 0
M  V30 7166 C 670.062 2.29031 -5.45251 0
M  V30 7167 H 668.992 0.430499 -0.61902 0
M  V30 7168 H 671.643 0.407017 -1.78929 0
M  V30 7169 H 670.025 2.85358 -2.74567 0
M  V30 7170 H 671.199 0.646061 -4.56249 0
M  V30 7171 H 669.514 0.74002 -4.09771 0
M  V30 7172 H 672.111 3.52037 -4.0246 0
M  V30 7173 H 672.454 3.46122 -2.31312 0
M  V30 7174 H 672.987 2.12541 -3.36261 0
M  V30 7175 H 669.726 1.70206 -6.33017 0
M  V30 7176 H 669.246 2.98896 -5.2002 0
M  V30 7177 H 670.925 2.89359 -5.78689 0
M  V30 7178 N 671.057 1.43213 0.657864 0
M  V30 7179 C 672.334 1.35063 1.41483 0
M  V30 7180 C 672.714 -0.0038314 2.111 0
M  V30 7181 O 672.062 -1.02018 2.04462 0
M  V30 7182 C 672.272 2.53061 2.40335 0
M  V30 7183 C 673.62 2.9594 3.04474 0
M  V30 7184 O 674.644 2.53074 2.50663 0
M  V30 7185 O 673.503 3.70184 4.02027 0
M  V30 7186 H 670.597 0.533517 0.631893 0
M  V30 7187 H 673.143 1.55253 0.685162 0
M  V30 7188 H 671.915 3.43283 1.87809 0
M  V30 7189 H 671.538 2.34945 3.20759 0
M  V30 7190 N 672.536 -0.895792 1.29666 0
M  V30 7191 C 673.466 -2.01673 1.17688 0
M  V30 7192 C 674.447 -1.69955 0.0701317 0
M  V30 7193 O 675.632 -1.9258 0.250289 0
M  V30 7194 C 672.762 -3.36568 0.856681 0
M  V30 7195 C 671.716 -3.82509 1.92017 0
M  V30 7196 C 671.042 -5.14574 1.4532 0
M  V30 7197 C 672.342 -4.02409 3.32963 0
M  V30 7198 H 674.036 -2.11953 2.11463 0
M  V30 7199 H 671.582 -1.01839 1.01807 0
M  V30 7200 H 673.535 -4.14498 0.759577 0
M  V30 7201 H 672.259 -3.26391 -0.116763 0
M  V30 7202 H 670.918 -3.068 2.00673 0
M  V30 7203 H 670.566 -5.00815 0.468325 0
M  V30 7204 H 670.266 -5.46283 2.16447 0
M  V30 7205 H 671.79 -5.9504 1.36968 0
M  V30 7206 H 673.204 -4.70808 3.27127 0
M  V30 7207 H 671.601 -4.45478 4.02082 0
M  V30 7208 H 672.671 -3.06616 3.75652 0
M  V30 7209 N 674.014 -1.12206 -1.10668 0
M  V30 7210 C 674.977 -0.790867 -2.15123 0
M  V30 7211 C 675.977 0.193618 -1.5963 0
M  V30 7212 O 677.167 -0.0318728 -1.74171 0
M  V30 7213 C 674.299 -0.174797 -3.40452 0
M  V30 7214 H 675.492 -1.7163 -2.45933 0
M  V30 7215 H 673.045 -0.924993 -1.2599 0
M  V30 7216 H 673.78 0.760478 -3.15257 0
M  V30 7217 H 673.565 -0.88358 -3.82015 0
M  V30 7218 H 675.055 0.0405162 -4.1758 0
M  V30 7219 N 675.492 1.28418 -0.913599 0
M  V30 7220 C 676.425 2.25557 -0.346328 0
M  V30 7221 C 677.403 1.53038 0.549366 0
M  V30 7222 O 678.587 1.81937 0.493055 0
M  V30 7223 C 675.714 3.34915 0.504961 0
M  V30 7224 C 674.76 4.25257 -0.325334 0
M  V30 7225 S 675.593 5.06718 -1.73198 0
M  V30 7226 C 676.749 6.19569 -0.887988 0
M  V30 7227 H 676.982 2.73325 -1.16965 0
M  V30 7228 H 674.515 1.36855 -0.714841 0
M  V30 7229 H 676.473 3.98376 0.990301 0
M  V30 7230 H 675.134 2.85814 1.30267 0
M  V30 7231 H 674.327 5.02947 0.325589 0
M  V30 7232 H 673.929 3.66519 -0.744321 0
M  V30 7233 H 676.221 6.77398 -0.117568 0
M  V30 7234 H 677.164 6.88908 -1.63742 0
M  V30 7235 H 677.572 5.62812 -0.436228 0
M  V30 7236 N 676.97 0.677563 1.42291 0
M  V30 7237 C 677.88 0.000962654 2.346 0
M  V30 7238 C 678.896 -0.785833 1.55244 0
M  V30 7239 O 680.072 -0.727523 1.87801 0
M  V30 7240 C 677.137 -0.936746 3.33805 0
M  V30 7241 C 676.198 -0.144173 4.29058 0
M  V30 7242 C 675.431 -1.03722 5.23524 0
M  V30 7243 O 675.654 -2.27675 5.22992 0
M  V30 7244 O 674.588 -0.496542 5.99848 0
M  V30 7245 H 678.414 0.761397 2.94001 0
M  V30 7246 H 675.999 0.43781 1.42841 0
M  V30 7247 H 677.881 -1.47497 3.94744 0
M  V30 7248 H 676.556 -1.67698 2.76874 0
M  V30 7249 H 675.463 0.438224 3.71524 0
M  V30 7250 H 676.796 0.55701 4.89038 0
M  V30 7251 N 678.448 -1.51871 0.421078 0
M  V30 7252 C 679.411 -2.25914 -0.386712 0
M  V30 7253 C 680.411 -1.28733 -0.963555 0
M  V30 7254 O 681.601 -1.52579 -0.840556 0
M  V30 7255 C 678.733 -3.03853 -1.54551 0
M  V30 7256 H 679.926 -2.98754 0.261978 0
M  V30 7257 H 677.479 -1.5533 0.173862 0
M  V30 7258 H 678.214 -2.35392 -2.23072 0
M  V30 7259 H 677.999 -3.75215 -1.13824 0
M  V30 7260 H 679.489 -3.59984 -2.11663 0
M  V30 7261 N 679.926 -0.151884 -1.56866 0
M  V30 7262 C 681.154 0.504813 -2.00647 0
M  V30 7263 C 681.569 1.58098 -1.03201 0
M  V30 7264 O 680.926 1.82476 -0.0297814 0
M  V30 7265 C 680.977 1.10099 -3.44326 0
M  V30 7266 O 680.698 0.0678021 -4.38048 0
M  V30 7267 C 682.199 1.83782 -4.03409 0
M  V30 7268 H 679.419 0.130989 -0.65809 0
M  V30 7269 H 681.963 -0.247903 -2.02992 0
M  V30 7270 H 680.118 1.8043 -3.42817 0
M  V30 7271 H 680.532 0.505237 -5.22061 0
M  V30 7272 H 682.006 2.2078 -5.05925 0
M  V30 7273 H 682.483 2.72557 -3.44397 0
M  V30 7274 H 683.089 1.18138 -4.08563 0
M  V30 7275 N 681.404 1.57128 0.121893 0
M  V30 7276 C 682.336 1.96773 1.17529 0
M  V30 7277 C 683.349 0.866668 1.37814 0
M  V30 7278 O 684.538 1.14497 1.3694 0
M  V30 7279 C 681.638 2.24832 2.53582 0
M  V30 7280 C 680.811 3.56138 2.53939 0
M  V30 7281 C 679.87 3.72443 3.71716 0
M  V30 7282 O 678.896 4.44584 3.55434 0
M  V30 7283 N 680.098 3.10993 4.90167 0
M  V30 7284 H 682.863 2.87743 0.838086 0
M  V30 7285 H 680.424 1.58881 0.311199 0
M  V30 7286 H 682.416 2.32958 3.30927 0
M  V30 7287 H 680.986 1.40002 2.79496 0
M  V30 7288 H 680.206 3.59226 1.62329 0
M  V30 7289 H 681.494 4.42448 2.51231 0
M  V30 7290 H 680.892 2.52345 5.06299 0
M  V30 7291 H 679.449 3.24644 5.65198 0
M  V30 7292 N 682.882 -0.391992 1.52647 0
M  V30 7293 C 684.112 -1.15692 1.71169 0
M  V30 7294 C 684.52 -1.84285 0.428444 0
M  V30 7295 O 683.863 -1.73393 -0.606669 0
M  V30 7296 C 683.925 -2.25033 2.80357 0
M  V30 7297 C 683.589 -1.76433 4.21569 0
M  V30 7298 C 684.586 -1.2427 5.0483 0
M  V30 7299 C 682.271 -1.82746 4.67877 0
M  V30 7300 C 684.265 -0.790657 6.32477 0
M  V30 7301 C 681.952 -1.37153 5.9551 0
M  V30 7302 C 682.95 -0.853997 6.7764 0
M  V30 7303 O 682.638 -0.404708 8.02881 0
M  V30 7304 H 682.37 -0.35297 0.576531 0
M  V30 7305 H 684.924 -0.464994 2.00067 0
M  V30 7306 H 683.154 -2.97641 2.46874 0
M  V30 7307 H 684.843 -2.86718 2.87311 0
M  V30 7308 H 685.609 -1.18752 4.70237 0
M  V30 7309 H 681.488 -2.21971 4.04042 0
M  V30 7310 H 685.032 -0.386024 6.96531 0
M  V30 7311 H 680.929 -1.42356 6.29607 0
M  V30 7312 H 681.697 -0.526459 8.16805 0
M  V30 7313 N 684.36 -1.4356 -0.65026 0
M  V30 7314 C 685.608 -1.45046 -1.40734 0
M  V30 7315 C 685.929 -0.0769822 -1.94848 0
M  V30 7316 O 685.199 0.888098 -1.74613 0
M  V30 7317 H 683.779 -0.534034 -0.522318 0
M  V30 7318 H 686.441 -1.79186 -0.766703 0
M  V30 7319 H 685.537 -2.16476 -2.24822 0
M  V30 7320 N 685.838 0.888903 -1.30139 0
M  V30 7321 C 687.087 1.63507 -1.18103 0
M  V30 7322 C 687.4 1.93808 0.264141 0
M  V30 7323 O 688.606 2.66744 0.505966 0
M  V30 7324 C 687.062 2.94673 -2.0663 0
M  V30 7325 C 686.67 2.71926 -3.56034 0
M  V30 7326 C 688.414 3.72626 -2.03346 0
M  V30 7327 C 686.321 3.98884 -4.3663 0
M  V30 7328 H 685.251 0.613426 -0.438435 0
M  V30 7329 H 687.902 0.984427 -1.54859 0
M  V30 7330 H 686.284 3.61009 -1.62754 0
M  V30 7331 H 687.458 2.14116 -4.08033 0
M  V30 7332 H 685.773 2.07353 -3.61101 0
M  V30 7333 H 688.37 4.66775 -2.60816 0
M  V30 7334 H 688.713 4.03712 -1.016 0
M  V30 7335 H 689.246 3.13147 -2.45324 0
M  V30 7336 H 685.985 3.72959 -5.39056 0
M  V30 7337 H 685.505 4.56214 -3.89396 0
M  V30 7338 H 687.184 4.66938 -4.47859 0
M  V30 7339 N 687.317 1.12792 1.10072 0
M  V30 7340 C 688.565 0.883796 1.81751 0
M  V30 7341 C 688.886 -0.591891 1.858 0
M  V30 7342 O 688.156 -1.43017 1.33876 0
M  V30 7343 H 686.736 0.323978 0.673088 0
M  V30 7344 H 689.398 1.42314 1.33164 0
M  V30 7345 H 688.494 1.26863 2.85153 0
M  V30 7346 N 688.795 -1.27931 0.920396 0
M  V30 7347 C 689.742 -2.27085 0.412422 0
M  V30 7348 C 690.712 -1.57858 -0.516725 0
M  V30 7349 O 691.897 -1.85717 -0.437475 0
M  V30 7350 C 689.037 -3.43466 -0.335399 0
M  V30 7351 C 688.15 -4.27425 0.627017 0
M  V30 7352 C 687.285 -5.31016 -0.139916 0
M  V30 7353 C 686.324 -6.06641 0.815683 0
M  V30 7354 N 685.461 -7.02052 0.0818439 0
M  V30 7355 H 690.301 -2.69913 1.26298 0
M  V30 7356 H 687.838 -1.32732 0.634076 0
M  V30 7357 H 689.796 -4.09744 -0.785226 0
M  V30 7358 H 688.426 -3.01611 -1.15025 0
M  V30 7359 H 687.478 -3.6113 1.19537 0
M  V30 7360 H 688.79 -4.79969 1.35763 0
M  V30 7361 H 687.944 -6.03208 -0.649998 0
M  V30 7362 H 686.683 -4.79257 -0.903543 0
M  V30 7363 H 685.688 -5.33294 1.33708 0
M  V30 7364 H 686.913 -6.60489 1.57897 0
M  V30 7365 H 684.859 -6.52634 -0.663671 0
M  V30 7366 H 684.776 -7.52249 0.752163 0
M  V30 7367 H 686.044 -7.78432 -0.407825 0
M  V30 7368 N 690.273 -0.685099 -1.4193 0
M  V30 7369 C 691.55 -0.140152 -1.95097 0
M  V30 7370 C 691.93 1.34745 -1.62502 0
M  V30 7371 O 691.278 2.08872 -0.926534 0
M  V30 7372 C 691.488 -0.420268 -3.4646 0
M  V30 7373 C 692.836 -0.342338 -4.23218 0
M  V30 7374 O 693.86 -0.354592 -3.54431 0
M  V30 7375 O 692.719 -0.293404 -5.45712 0
M  V30 7376 H 689.813 -0.00885998 -0.826953 0
M  V30 7377 H 692.359 -0.760539 -1.51703 0
M  V30 7378 H 691.131 -1.45037 -3.63428 0
M  V30 7379 H 690.754 0.231616 -3.96925 0
M  V30 7380 N 691.751 1.51645 -0.429126 0
M  V30 7381 C 692.681 2.30434 0.377148 0
M  V30 7382 C 693.662 1.35493 1.02838 0
M  V30 7383 O 694.847 1.6441 1.03359 0
M  V30 7384 C 691.977 3.14038 1.48315 0
M  V30 7385 C 690.931 4.1719 0.955855 0
M  V30 7386 C 690.257 4.89263 2.15698 0
M  V30 7387 C 691.557 5.223 -0.00402136 0
M  V30 7388 H 693.251 2.98085 -0.280336 0
M  V30 7389 H 690.797 1.43354 -0.136265 0
M  V30 7390 H 692.75 3.67933 2.05435 0
M  V30 7391 H 691.474 2.44193 2.16881 0
M  V30 7392 H 690.133 3.64335 0.406929 0
M  V30 7393 H 689.781 4.15929 2.82864 0
M  V30 7394 H 689.481 5.59009 1.81059 0
M  V30 7395 H 691.005 5.45978 2.73387 0
M  V30 7396 H 692.419 5.71315 0.476607 0
M  V30 7397 H 690.816 5.99525 -0.26258 0
M  V30 7398 H 691.886 4.75638 -0.943236 0
M  V30 7399 N 693.229 0.160201 1.56784 0
M  V30 7400 C 694.454 -0.497373 2.01348 0
M  V30 7401 C 694.879 -1.56757 1.03966 0
M  V30 7402 O 694.237 -1.81292 0.0174455 0
M  V30 7403 C 694.285 -1.0628 3.44582 0
M  V30 7404 O 693.389 -2.17723 3.50244 0
M  V30 7405 H 692.73 -0.120295 0.653012 0
M  V30 7406 H 695.26 0.260821 2.02931 0
M  V30 7407 H 695.27 -1.38819 3.83658 0
M  V30 7408 H 693.945 -0.279166 4.14962 0
M  V30 7409 H 692.522 -1.86313 3.2302 0
M  V30 7410 N 694.707 -1.5719 -0.113559 0
M  V30 7411 C 695.955 -1.84772 -0.818761 0
M  V30 7412 C 696.276 -0.746196 -1.80158 0
M  V30 7413 O 695.546 0.229305 -1.94553 0
M  V30 7414 H 694.126 -0.681737 -0.305359 0
M  V30 7415 H 696.788 -1.94645 -0.0995845 0
M  V30 7416 H 695.884 -2.80878 -1.36067 0
M  V30 7417 N 696.185 0.383891 -1.52853 0
M  V30 7418 C 697.462 1.14296 -1.58732 0
M  V30 7419 C 697.842 2.07585 -0.383611 0
M  V30 7420 O 697.19 2.1971 0.627661 0
M  V30 7421 C 697.4 1.89816 -2.92867 0
M  V30 7422 C 698.748 2.44998 -3.46787 0
M  V30 7423 O 699.772 1.99966 -2.94774 0
M  V30 7424 O 698.631 3.2727 -4.37672 0
M  V30 7425 H 695.725 0.52326 -0.640413 0
M  V30 7426 H 698.271 0.388631 -1.6519 0
M  V30 7427 H 697.043 1.21626 -3.71918 0
M  V30 7428 H 696.666 2.72199 -2.89816 0
M  V30 7429 N 697.663 1.43903 0.642637 0
M  V30 7430 C 698.912 1.45362 1.39831 0
M  V30 7431 C 699.225 0.0856289 1.95412 0
M  V30 7432 O 700.431 -0.0222856 2.71491 0
M  V30 7433 C 698.887 2.55857 2.53111 0
M  V30 7434 C 698.495 3.98811 2.04092 0
M  V30 7435 C 700.239 2.66524 3.30402 0
M  V30 7436 C 698.146 5.00751 3.14647 0
M  V30 7437 H 697.076 0.540777 0.52543 0
M  V30 7438 H 699.727 1.69929 0.692559 0
M  V30 7439 H 698.109 2.2451 3.26207 0
M  V30 7440 H 699.283 4.3967 1.37938 0
M  V30 7441 H 697.598 3.92284 1.39651 0
M  V30 7442 H 700.195 3.39858 4.12796 0
M  V30 7443 H 700.538 1.71949 3.79129 0
M  V30 7444 H 701.071 2.97224 2.64392 0
M  V30 7445 H 697.81 5.96914 2.70876 0
M  V30 7446 H 697.33 4.64495 3.79479 0
M  V30 7447 H 699.009 5.23933 3.79609 0
M  V30 7448 N 699.141 -0.881989 1.30609 0
M  V30 7449 C 700.088 -1.98803 1.17244 0
M  V30 7450 C 701.058 -1.65987 0.0611905 0
M  V30 7451 O 702.243 -1.89385 0.231911 0
M  V30 7452 C 699.383 -3.33867 0.87333 0
M  V30 7453 C 698.496 -3.79354 2.06675 0
M  V30 7454 C 697.631 -5.03078 1.70547 0
M  V30 7455 C 696.67 -5.40981 2.86366 0
M  V30 7456 N 695.807 -6.55886 2.50514 0
M  V30 7457 H 700.647 -2.09566 2.11863 0
M  V30 7458 H 698.184 -1.02607 1.05405 0
M  V30 7459 H 700.142 -4.11612 0.680519 0
M  V30 7460 H 698.772 -3.2278 -0.0359983 0
M  V30 7461 H 697.824 -2.97492 2.37071 0
M  V30 7462 H 699.136 -4.03382 2.93401 0
M  V30 7463 H 698.29 -5.88457 1.47658 0
M  V30 7464 H 697.029 -4.80927 0.809947 0
M  V30 7465 H 696.034 -4.54127 3.09917 0
M  V30 7466 H 697.259 -5.65104 3.76609 0
M  V30 7467 H 695.205 -6.35306 1.63471 0
M  V30 7468 H 695.122 -6.79799 3.30771 0
M  V30 7469 H 696.39 -7.44489 2.30989 0
M  V30 7470 N 700.619 -1.13374 -1.09472 0
M  V30 7471 C 701.847 -0.918351 -1.85402 0
M  V30 7472 C 702.262 0.53281 -1.81126 0
M  V30 7473 O 701.619 1.36879 -1.20708 0
M  V30 7474 C 701.67 -1.39743 -3.33398 0
M  V30 7475 O 701.391 -2.79172 -3.37631 0
M  V30 7476 C 702.892 -1.22042 -4.2617 0
M  V30 7477 H 700.112 -0.327511 -0.585643 0
M  V30 7478 H 702.656 -1.50617 -1.38328 0
M  V30 7479 H 700.811 -0.852619 -3.77901 0
M  V30 7480 H 701.225 -3.00428 -4.29934 0
M  V30 7481 H 702.699 -1.60438 -5.2817 0
M  V30 7482 H 703.176 -0.162047 -4.38901 0
M  V30 7483 H 703.782 -1.75323 -3.87482 0
M  V30 7484 N 702.098 1.27442 -0.927168 0
M  V30 7485 C 703.347 1.93679 -0.563146 0
M  V30 7486 C 703.66 1.73673 0.899837 0
M  V30 7487 O 704.866 2.34247 1.37262 0
M  V30 7488 C 703.322 3.46961 -0.95636 0
M  V30 7489 C 702.93 3.75724 -2.43999 0
M  V30 7490 C 704.674 4.19282 -0.663565 0
M  V30 7491 C 702.581 5.22378 -2.77263 0
M  V30 7492 H 701.511 0.725059 -0.206894 0
M  V30 7493 H 704.162 1.44743 -1.12791 0
M  V30 7494 H 702.544 3.94703 -0.320254 0
M  V30 7495 H 703.718 3.38741 -3.12396 0
M  V30 7496 H 702.033 3.16605 -2.70463 0
M  V30 7497 H 704.63 5.27265 -0.888596 0
M  V30 7498 H 704.973 4.14382 0.399198 0
M  V30 7499 H 705.506 3.7736 -1.25875 0
M  V30 7500 H 702.245 5.32367 -3.82446 0
M  V30 7501 H 701.765 5.6051 -2.13516 0
M  V30 7502 H 703.444 5.9025 -2.64979 0
M  V30 7503 N 703.576 0.692616 1.41565 0
M  V30 7504 C 704.822 0.222664 2.01574 0
M  V30 7505 C 705.155 -1.1737 1.54719 0
M  V30 7506 O 704.43 -1.79161 0.757084 0
M  V30 7507 C 704.713 0.277064 3.59033 0
M  V30 7508 C 704.566 1.71016 4.16021 0
M  V30 7509 C 705.885 -0.36479 4.38586 0
M  V30 7510 H 703.004 0.0823839 0.732381 0
M  V30 7511 H 705.646 0.880778 1.68352 0
M  V30 7512 H 703.796 -0.283288 3.87466 0
M  V30 7513 H 705.468 2.32413 3.98475 0
M  V30 7514 H 703.711 2.24525 3.71175 0
M  V30 7515 H 704.382 1.69978 5.25178 0
M  V30 7516 H 706.858 0.112404 4.15948 0
M  V30 7517 H 705.734 -0.296169 5.481 0
M  V30 7518 H 705.995 -1.44506 4.17816 0
M  V30 7519 N 705.054 -1.51416 0.437162 0
M  V30 7520 C 706.465 -1.86682 -0.0260005 0
M  V30 7521 C 706.816 -1.35432 -1.4196 0
M  V30 7522 O 705.941 -0.705055 -2.04592 0
M  V30 7523 C 706.536 -3.38757 -0.0539577 0
M  V30 7524 C 705.095 -3.7356 -0.461532 0
M  V30 7525 C 704.242 -2.75134 0.345924 0
M  V30 7526 H 707.193 -1.44642 0.653013 0
M  V30 7527 H 707.214 -3.70573 -0.863478 0
M  V30 7528 H 706.726 -3.76028 0.96045 0
M  V30 7529 H 704.827 -3.41878 -1.48155 0
M  V30 7530 H 704.94 -4.78737 -0.186451 0
M  V30 7531 H 703.304 -2.53947 -0.195739 0
M  V30 7532 H 704.087 -3.15247 1.35921 0
M  V30 7533 N 706.532 -0.168513 -1.56696 0
M  V30 7534 C 707.943 0.348694 -1.83415 0
M  V30 7535 C 708.294 1.63257 -1.0882 0
M  V30 7536 O 707.419 2.13707 -0.340333 0
M  V30 7537 C 708.014 0.639423 -3.32711 0
M  V30 7538 C 706.573 1.10108 -3.59935 0
M  V30 7539 C 705.72 0.135464 -2.76969 0
M  V30 7540 H 708.671 -0.392829 -1.53761 0
M  V30 7541 H 708.692 1.49179 -3.50037 0
M  V30 7542 H 708.204 -0.295173 -3.86976 0
M  V30 7543 H 706.305 2.05088 -3.11079 0
M  V30 7544 H 706.418 1.01218 -4.68286 0
M  V30 7545 H 704.782 0.632286 -2.46727 0
M  V30 7546 H 705.565 -0.793104 -3.34013 0
M  V30 7547 N 708.01 1.57248 0.105221 0
M  V30 7548 C 709.259 1.84756 0.809198 0
M  V30 7549 C 709.572 0.756262 1.80389 0
M  V30 7550 O 710.778 0.918158 2.55504 0
M  V30 7551 C 709.234 3.27613 1.48989 0
M  V30 7552 C 708.842 4.44788 0.535484 0
M  V30 7553 C 710.586 3.64356 2.17819 0
M  V30 7554 C 708.493 5.78676 1.22019 0
M  V30 7555 H 707.423 0.689139 0.305946 0
M  V30 7556 H 710.074 1.83395 0.0620371 0
M  V30 7557 H 708.456 3.23485 2.28415 0
M  V30 7558 H 709.63 4.60243 -0.226557 0
M  V30 7559 H 707.945 4.16374 -0.0465769 0
M  V30 7560 H 710.542 4.61663 2.69761 0
M  V30 7561 H 710.885 2.92474 2.96251 0
M  V30 7562 H 711.418 3.70328 1.45264 0
M  V30 7563 H 708.157 6.53763 0.476875 0
M  V30 7564 H 707.677 5.67083 1.9539 0
M  V30 7565 H 709.356 6.22897 1.74952 0
M  V30 7566 N 709.488 -0.375779 1.53054 0
M  V30 7567 C 710.418 -1.46598 1.81745 0
M  V30 7568 C 711.399 -1.56337 0.670286 0
M  V30 7569 O 712.584 -1.71071 0.919158 0
M  V30 7570 C 709.714 -2.84058 1.99821 0
M  V30 7571 C 708.668 -2.8915 3.15557 0
M  V30 7572 C 707.994 -4.29187 3.18908 0
M  V30 7573 C 709.294 -2.57595 4.54359 0
M  V30 7574 H 710.988 -1.22837 2.73041 0
M  V30 7575 H 708.534 -0.589485 1.31381 0
M  V30 7576 H 710.487 -3.60342 2.18475 0
M  V30 7577 H 709.211 -3.09184 1.05226 0
M  V30 7578 H 707.87 -2.15316 2.96706 0
M  V30 7579 H 707.518 -4.51374 2.2197 0
M  V30 7580 H 707.218 -4.33512 3.96662 0
M  V30 7581 H 708.742 -5.07359 3.39734 0
M  V30 7582 H 710.156 -3.23595 4.73243 0
M  V30 7583 H 708.553 -2.73252 5.34279 0
M  V30 7584 H 709.623 -1.52882 4.60169 0
M  V30 7585 N 710.966 -1.44241 -0.634997 0
M  V30 7586 C 711.913 -1.5081 -1.74714 0
M  V30 7587 C 712.883 -0.356147 -1.62237 0
M  V30 7588 O 714.068 -0.565848 -1.82216 0
M  V30 7589 C 711.208 -1.45458 -3.12947 0
M  V30 7590 C 710.321 -2.70998 -3.36428 0
M  V30 7591 C 709.456 -2.57507 -4.64611 0
M  V30 7592 C 708.495 -3.78229 -4.81258 0
M  V30 7593 N 707.632 -3.63438 -6.00714 0
M  V30 7594 H 712.472 -2.45832 -1.68436 0
M  V30 7595 H 710.009 -1.2201 -0.821706 0
M  V30 7596 H 711.967 -1.40347 -3.92885 0
M  V30 7597 H 710.597 -0.540058 -3.1825 0
M  V30 7598 H 709.649 -2.86312 -2.50458 0
M  V30 7599 H 710.961 -3.60619 -3.44609 0
M  V30 7600 H 710.115 -2.50207 -5.52703 0
M  V30 7601 H 708.854 -1.65441 -4.58782 0
M  V30 7602 H 707.859 -3.85918 -3.91596 0
M  V30 7603 H 709.084 -4.71327 -4.88904 0
M  V30 7604 H 707.03 -2.7412 -5.95982 0
M  V30 7605 H 706.947 -4.46672 -6.09934 0
M  V30 7606 H 708.215 -3.60022 -6.91378 0
M  V30 7607 N 712.444 0.87505 -1.31075 0
M  V30 7608 C 713.377 1.98471 -1.12625 0
M  V30 7609 C 714.355 1.6257 -0.0311379 0
M  V30 7610 O 715.539 1.87574 -0.186594 0
M  V30 7611 C 712.666 3.30963 -0.719799 0
M  V30 7612 C 711.712 3.85849 -1.81722 0
M  V30 7613 S 712.545 4.11926 -3.42165 0
M  V30 7614 C 713.701 5.47423 -3.03445 0
M  V30 7615 H 713.934 2.13817 -2.06566 0
M  V30 7616 H 711.467 1.02463 -1.15502 0
M  V30 7617 H 713.425 4.07541 -0.492035 0
M  V30 7618 H 712.086 3.1346 0.200413 0
M  V30 7619 H 711.279 4.81616 -1.48533 0
M  V30 7620 H 710.881 3.16046 -1.99977 0
M  V30 7621 H 713.173 6.28881 -2.52023 0
M  V30 7622 H 714.116 5.85557 -3.98157 0
M  V30 7623 H 714.524 5.10455 -2.41031 0
M  V30 7624 N 713.922 1.13953 1.08869 0
M  V30 7625 C 714.87 0.817664 2.17754 0
M  V30 7626 C 715.864 -0.202444 1.68186 0
M  V30 7627 O 717.07 -0.0590159 1.79903 0
M  V30 7628 H 713.445 0.246671 0.710392 0
M  V30 7629 H 715.416 1.74401 2.4213 0
M  V30 7630 C 714.165 0.3063 3.46348 0
M  V30 7631 H 713.488 1.08259 3.84864 0
M  V30 7632 H 714.928 0.119584 4.23831 0
M  V30 7633 C 713.387 -0.969158 3.22659 0
M  V30 7634 O 713.917 -2.04386 3.45817 0
M  V30 7635 N 712.123 -0.902516 2.7623 0
M  V30 7636 H 711.67 -0.027801 2.57585 0
M  V30 7637 H 711.628 -1.75649 2.60758 0
M  V30 7638 N 715.4 -1.26948 0.933913 0
M  V30 7639 C 716.816 -1.46419 0.635103 0
M  V30 7640 C 717.016 -1.84336 -0.813785 0
M  V30 7641 O 716.072 -1.96061 -1.59111 0
M  V30 7642 C 717.385 -2.55206 1.5903 0
M  V30 7643 C 718.933 -2.69062 1.5992 0
M  V30 7644 C 719.408 -3.81013 2.54152 0
M  V30 7645 N 720.899 -3.88395 2.52395 0
M  V30 7646 C 721.634 -4.74454 3.21996 0
M  V30 7647 N 721.13 -5.64954 4.00997 0
M  V30 7648 N 722.923 -4.68237 3.10983 0
M  V30 7649 H 715.074 -1.00622 1.87053 0
M  V30 7650 H 717.337 -0.503189 0.803433 0
M  V30 7651 H 717.043 -2.34153 2.62422 0
M  V30 7652 H 716.917 -3.52719 1.33677 0
M  V30 7653 H 719.304 -2.89492 0.572569 0
M  V30 7654 H 719.385 -1.72016 1.89325 0
M  V30 7655 H 719.029 -3.61336 3.5693 0
M  V30 7656 H 718.959 -4.77499 2.22041 0
M  V30 7657 H 721.45 -3.23687 1.95025 0
M  V30 7658 H 721.763 -6.27496 4.51074 0
M  V30 7659 H 720.108 -5.6473 4.05099 0
M  V30 7660 H 723.299 -3.96535 2.48753 0
M  V30 7661 H 723.472 -5.35087 3.65494 0
M  V30 7662 N 716.879 -0.700114 -1.41195 0
M  V30 7663 C 717.826 -0.0376652 -2.30769 0
M  V30 7664 C 718.796 0.766544 -1.47354 0
M  V30 7665 O 719.981 0.73365 -1.76131 0
M  V30 7666 C 717.121 0.889452 -3.33441 0
M  V30 7667 C 716.234 0.076373 -4.31932 0
M  V30 7668 C 715.369 1.00155 -5.21673 0
M  V30 7669 C 714.408 0.181644 -6.1183 0
M  V30 7670 N 713.545 1.06087 -6.94039 0
M  V30 7671 H 718.385 -0.80726 -2.86858 0
M  V30 7672 H 715.922 -0.409798 -1.41277 0
M  V30 7673 H 717.88 1.44107 -3.91522 0
M  V30 7674 H 716.51 1.6254 -2.78892 0
M  V30 7675 H 715.562 -0.592223 -3.75762 0
M  V30 7676 H 716.874 -0.559076 -4.95657 0
M  V30 7677 H 716.028 1.62223 -5.8461 0
M  V30 7678 H 714.767 1.67085 -4.58186 0
M  V30 7679 H 713.772 -0.452085 -5.47938 0
M  V30 7680 H 714.997 -0.483925 -6.77374 0
M  V30 7681 H 712.943 1.7161 -6.33156 0
M  V30 7682 H 712.86 0.481094 -7.54468 0
M  V30 7683 H 714.128 1.66822 -7.6144 0
M  V30 7684 N 718.357 1.51182 -0.445186 0
M  V30 7685 C 719.287 2.30821 0.352686 0
M  V30 7686 C 720.268 1.36576 1.01395 0
M  V30 7687 O 721.453 1.65497 1.01609 0
M  V30 7688 C 718.583 3.15593 1.44976 0
M  V30 7689 C 717.537 4.1818 0.911553 0
M  V30 7690 C 716.863 4.91523 2.10497 0
M  V30 7691 C 718.163 5.22266 -0.059418 0
M  V30 7692 H 719.857 2.97771 -0.311936 0
M  V30 7693 H 717.403 1.43201 -0.151461 0
M  V30 7694 H 719.356 3.70091 2.01521 0
M  V30 7695 H 718.08 2.4648 2.14278 0
M  V30 7696 H 716.739 3.64746 0.368264 0
M  V30 7697 H 716.387 4.18906 2.78437 0
M  V30 7698 H 716.087 5.60898 1.7512 0
M  V30 7699 H 717.611 5.48847 2.6758 0
M  V30 7700 H 719.025 5.71789 0.415985 0
M  V30 7701 H 717.422 5.99213 -0.326152 0
M  V30 7702 H 718.492 4.7461 -0.993631 0
M  V30 7703 N 719.835 0.176821 1.56605 0
M  V30 7704 C 720.767 -0.782836 2.15417 0
M  V30 7705 C 721.78 -1.18982 1.11117 0
M  V30 7706 O 722.969 -1.12872 1.38283 0
M  V30 7707 C 720.069 -2.06596 2.68647 0
M  V30 7708 C 719.242 -1.82167 3.9766 0
M  V30 7709 C 718.301 -2.94751 4.35899 0
M  V30 7710 O 717.327 -2.65148 5.03672 0
M  V30 7711 N 718.529 -4.2267 3.97907 0
M  V30 7712 H 721.294 -0.280012 2.98389 0
M  V30 7713 H 718.855 -0.00577529 1.61899 0
M  V30 7714 H 720.847 -2.81018 2.91223 0
M  V30 7715 H 719.417 -2.48054 1.90232 0
M  V30 7716 H 718.637 -0.916208 3.83405 0
M  V30 7717 H 719.925 -1.6322 4.81909 0
M  V30 7718 H 719.323 -4.4958 3.43357 0
M  V30 7719 H 717.88 -4.93778 4.25472 0
M  V30 7720 N 721.313 -1.57302 -0.09688 0
M  V30 7721 C 722.245 -1.98618 -1.14384 0
M  V30 7722 C 723.258 -0.888483 -1.36418 0
M  V30 7723 O 724.447 -1.16661 -1.35101 0
M  V30 7724 C 721.547 -2.28838 -2.49973 0
M  V30 7725 C 720.72 -3.60132 -2.48241 0
M  V30 7726 C 719.779 -3.7831 -3.65743 0
M  V30 7727 O 718.805 -4.50183 -3.48316 0
M  V30 7728 N 720.007 -3.18752 -4.85157 0
M  V30 7729 H 722.772 -2.8904 -0.792202 0
M  V30 7730 H 720.333 -1.59356 -0.285883 0
M  V30 7731 H 722.325 -2.38193 -3.27179 0
M  V30 7732 H 720.895 -1.44431 -2.77233 0
M  V30 7733 H 720.115 -3.61763 -1.56593 0
M  V30 7734 H 721.403 -4.46389 -2.4416 0
M  V30 7735 H 720.801 -2.60368 -5.0222 0
M  V30 7736 H 719.358 -3.33595 -5.59962 0
M  V30 7737 N 722.791 0.367657 -1.53252 0
M  V30 7738 C 724.068 1.12606 -1.59935 0
M  V30 7739 C 724.448 2.07167 -0.405606 0
M  V30 7740 O 723.796 2.20364 0.604323 0
M  V30 7741 C 724.006 1.86699 -2.94863 0
M  V30 7742 C 725.354 2.41306 -3.49366 0
M  V30 7743 O 726.378 1.96828 -2.96879 0
M  V30 7744 O 725.237 3.2261 -4.41118 0
M  V30 7745 H 722.331 0.516438 -0.645926 0
M  V30 7746 H 724.877 0.371088 -1.65593 0
M  V30 7747 H 723.649 1.17674 -3.73187 0
M  V30 7748 H 723.272 2.6911 -2.92687 0
M  V30 7749 N 724.269 1.44576 0.627338 0
M  V30 7750 C 725.68 1.42266 1.20902 0
M  V30 7751 C 726.031 0.139964 1.957 0
M  V30 7752 O 725.156 -0.759489 2.02634 0
M  V30 7753 C 725.751 2.57727 2.19914 0
M  V30 7754 C 724.31 2.58599 2.73502 0
M  V30 7755 C 723.457 2.34145 1.48564 0
M  V30 7756 H 726.408 1.53102 0.417791 0
M  V30 7757 H 726.429 2.30697 3.02588 0
M  V30 7758 H 725.941 3.51068 1.65447 0
M  V30 7759 H 724.042 1.6921 3.31962 0
M  V30 7760 H 724.155 3.57205 3.19282 0
M  V30 7761 H 722.519 1.83313 1.76829 0
M  V30 7762 H 723.302 3.29606 0.959935 0
M  V30 7763 N 725.747 -0.868086 1.31537 0
M  V30 7764 C 726.657 -2.00801 1.21311 0
M  V30 7765 C 727.673 -1.73518 0.129431 0
M  V30 7766 O 728.849 -1.98378 0.347588 0
M  V30 7767 C 725.914 -3.3419 0.922935 0
M  V30 7768 C 724.975 -3.74783 2.0937 0
M  V30 7769 C 724.208 -5.01807 1.81728 0
M  V30 7770 O 724.431 -5.65404 0.753313 0
M  V30 7771 O 723.365 -5.39213 2.67457 0
M  V30 7772 H 727.191 -2.12361 2.17109 0
M  V30 7773 H 724.776 -0.996684 1.11295 0
M  V30 7774 H 726.658 -4.14174 0.777033 0
M  V30 7775 H 725.333 -3.237 -0.00500301 0
M  V30 7776 H 724.24 -2.95432 2.29501 0
M  V30 7777 H 725.573 -3.89902 3.00396 0
M  V30 7778 N 727.225 -1.14528 -1.08264 0
M  V30 7779 C 728.472 -0.914405 -1.80679 0
M  V30 7780 C 728.8 0.558952 -1.86295 0
M  V30 7781 O 728.055 1.43017 -1.33584 0
M  V30 7782 C 728.354 -1.46226 -3.26117 0
M  V30 7783 C 728.02 -2.95451 -3.40616 0
M  V30 7784 C 726.682 -3.36191 -3.4428 0
M  V30 7785 C 729.034 -3.91399 -3.44175 0
M  V30 7786 C 726.362 -4.71539 -3.49096 0
M  V30 7787 C 728.714 -5.26606 -3.50526 0
M  V30 7788 C 727.378 -5.66856 -3.52464 0
M  V30 7789 H 726.648 -0.334604 -0.661151 0
M  V30 7790 H 729.295 -1.4292 -1.27461 0
M  V30 7791 H 727.6 -0.868442 -3.82054 0
M  V30 7792 H 729.297 -1.25955 -3.80705 0
M  V30 7793 H 725.887 -2.62955 -3.38456 0
M  V30 7794 H 730.071 -3.61004 -3.40573 0
M  V30 7795 H 725.327 -5.02082 -3.4889 0
M  V30 7796 H 729.501 -6.00758 -3.52225 0
M  V30 7797 H 727.128 -6.71718 -3.55948 0
M  V30 7798 N 728.703 1.26451 -0.940633 0
M  V30 7799 C 729.636 2.24771 -0.394094 0
M  V30 7800 C 730.614 1.54169 0.516781 0
M  V30 7801 O 731.798 1.82942 0.454352 0
M  V30 7802 C 728.925 3.3591 0.433807 0
M  V30 7803 C 727.971 4.24472 -0.415464 0
M  V30 7804 S 728.804 5.0293 -1.83907 0
M  V30 7805 C 729.96 6.17546 -1.01921 0
M  V30 7806 H 730.193 2.70782 -1.22737 0
M  V30 7807 H 727.726 1.35308 -0.743709 0
M  V30 7808 H 729.684 4.00387 0.905576 0
M  V30 7809 H 728.345 2.88512 1.24175 0
M  V30 7810 H 727.538 5.03525 0.218833 0
M  V30 7811 H 727.14 3.64857 -0.821897 0
M  V30 7812 H 729.432 6.76996 -0.261227 0
M  V30 7813 H 730.375 6.8528 -1.78318 0
M  V30 7814 H 730.783 5.6176 -0.555511 0
M  V30 7815 N 730.181 0.707592 1.40822 0
M  V30 7816 C 731.128 0.0499029 2.30746 0
M  V30 7817 C 732.098 -0.758718 1.47759 0
M  V30 7818 O 733.283 -0.724299 1.76518 0
M  V30 7819 C 730.423 -0.871756 3.33908 0
M  V30 7820 C 729.536 -0.0534655 4.31967 0
M  V30 7821 C 728.671 -0.973869 5.22197 0
M  V30 7822 C 727.71 -0.149194 6.11918 0
M  V30 7823 N 726.847 -1.02404 6.94592 0
M  V30 7824 H 731.687 0.822461 2.86426 0
M  V30 7825 H 729.224 0.417285 1.41057 0
M  V30 7826 H 731.182 -1.42028 3.9228 0
M  V30 7827 H 729.812 -1.61058 2.7975 0
M  V30 7828 H 728.864 0.612142 3.75442 0
M  V30 7829 H 730.176 0.585354 4.95353 0
M  V30 7830 H 729.33 -1.59121 5.85462 0
M  V30 7831 H 728.069 -1.64652 4.59065 0
M  V30 7832 H 727.074 0.481137 5.47691 0
M  V30 7833 H 728.299 0.519841 6.77107 0
M  V30 7834 H 726.245 -1.6825 6.34057 0
M  V30 7835 H 726.162 -0.441076 7.54712 0
M  V30 7836 H 727.43 -1.62782 7.62314 0
M  V30 7837 N 731.66 -1.50943 0.453197 0
M  V30 7838 C 732.888 -2.06628 -0.106135 0
M  V30 7839 C 733.303 -1.31901 -1.35084 0
M  V30 7840 O 732.66 -0.383074 -1.78434 0
M  V30 7841 C 732.711 -3.5914 -0.412368 0
M  V30 7842 O 732.432 -4.31047 0.782948 0
M  V30 7843 C 733.933 -4.31391 -1.02064 0
M  V30 7844 H 731.153 -0.670999 -0.000885896 0
M  V30 7845 H 733.697 -1.94331 0.63684 0
M  V30 7846 H 731.852 -3.71299 -1.10526 0
M  V30 7847 H 732.266 -5.21948 0.516736 0
M  V30 7848 H 733.74 -5.39135 -1.1848 0
M  V30 7849 H 734.217 -3.90714 -2.00598 0
M  V30 7850 H 734.823 -4.23716 -0.366664 0
M  V30 7851 N 733.138 -0.185124 -1.56509 0
M  V30 7852 C 734.088 0.752315 -2.15231 0
M  V30 7853 C 735.072 1.18327 -1.0903 0
M  V30 7854 O 736.264 1.14333 -1.35119 0
M  V30 7855 C 733.393 1.97583 -2.80742 0
M  V30 7856 C 732.479 1.56623 -3.94119 0
M  V30 7857 N 732.87 0.867008 -4.98314 0
M  V30 7858 C 731.168 1.85626 -4.05535 0
M  V30 7859 C 731.869 0.663228 -5.77907 0
M  V30 7860 N 730.845 1.20891 -5.29987 0
M  V30 7861 H 734.647 0.209267 -2.93154 0
M  V30 7862 H 732.161 0.0150444 -1.62393 0
M  V30 7863 H 734.158 2.65779 -3.21197 0
M  V30 7864 H 732.818 2.52369 -2.04303 0
M  V30 7865 H 733.829 0.52355 -5.15247 0
M  V30 7866 H 730.506 2.41992 -3.40215 0
M  V30 7867 H 731.896 0.109273 -6.71811 0
M  V30 7868 N 734.616 1.57351 0.0885366 0
M  V30 7869 C 735.563 2.02523 1.10693 0
M  V30 7870 C 736.533 0.902736 1.39427 0
M  V30 7871 O 737.718 1.16921 1.50779 0
M  V30 7872 C 734.858 2.46013 2.42016 0
M  V30 7873 C 733.971 3.7181 2.19957 0
M  V30 7874 C 733.106 4.04152 3.44724 0
M  V30 7875 C 732.145 5.2304 3.17956 0
M  V30 7876 N 731.282 5.51102 4.35007 0
M  V30 7877 H 736.122 2.89302 0.714742 0
M  V30 7878 H 733.659 1.43084 0.341378 0
M  V30 7879 H 735.617 2.69274 3.18665 0
M  V30 7880 H 734.247 1.62235 2.79069 0
M  V30 7881 H 733.299 3.55987 1.34079 0
M  V30 7882 H 734.611 4.58604 1.96173 0
M  V30 7883 H 733.765 4.28225 4.29777 0
M  V30 7884 H 732.504 3.15893 3.71568 0
M  V30 7885 H 731.509 4.98781 2.31296 0
M  V30 7886 H 732.734 6.12902 2.92451 0
M  V30 7887 H 730.68 4.65802 4.61914 0
M  V30 7888 H 730.597 6.3228 4.14437 0
M  V30 7889 H 731.865 5.79714 5.21106 0
M  V30 7890 N 736.094 -0.359525 1.53444 0
M  V30 7891 C 737.34 -1.09958 1.71116 0
M  V30 7892 C 737.695 -1.8681 0.460414 0
M  V30 7893 O 736.988 -1.83635 -0.5467 0
M  V30 7894 C 737.182 -2.08287 2.90433 0
M  V30 7895 C 737.011 -1.41098 4.26991 0
M  V30 7896 C 735.781 -1.16255 4.91745 0
M  V30 7897 C 737.979 -0.845517 5.07302 0
M  V30 7898 N 735.961 -0.454798 6.12213 0
M  V30 7899 C 737.332 -0.267455 6.19423 0
M  V30 7900 C 739.387 -0.744797 4.92298 0
M  V30 7901 C 738.09 0.401511 7.18179 0
M  V30 7902 C 740.116 -0.0896013 5.91332 0
M  V30 7903 C 739.478 0.47756 7.02779 0
M  V30 7904 H 735.577 -0.387305 0.679352 0
M  V30 7905 H 738.161 -0.38519 1.90852 0
M  V30 7906 H 736.332 -2.77034 2.72226 0
M  V30 7907 H 738.064 -2.75015 2.96899 0
M  V30 7908 H 734.819 -1.44544 4.51003 0
M  V30 7909 H 735.243 -0.116108 6.769 0
M  V30 7910 H 739.885 -1.16905 4.06317 0
M  V30 7911 H 737.603 0.837694 8.03746 0
M  V30 7912 H 741.189 -0.0125162 5.81799 0
M  V30 7913 H 740.069 0.976522 7.78096 0
M  V30 7914 N 737.572 -1.44907 -0.619662 0
M  V30 7915 C 738.819 -1.48292 -1.37898 0
M  V30 7916 C 739.147 -0.119933 -1.9413 0
M  V30 7917 O 738.402 0.879834 -1.74807 0
M  V30 7918 C 738.701 -2.50002 -2.55409 0
M  V30 7919 C 738.367 -3.95031 -2.17397 0
M  V30 7920 C 737.029 -4.34524 -2.06743 0
M  V30 7921 C 739.381 -4.86287 -1.87548 0
M  V30 7922 C 736.709 -5.63183 -1.64445 0
M  V30 7923 C 739.061 -6.15346 -1.4674 0
M  V30 7924 C 737.725 -6.53781 -1.34636 0
M  V30 7925 H 736.995 -0.542638 -0.504603 0
M  V30 7926 H 739.642 -1.78186 -0.701581 0
M  V30 7927 H 737.947 -2.13634 -3.28433 0
M  V30 7928 H 739.644 -2.49864 -3.13639 0
M  V30 7929 H 736.234 -3.63793 -2.26611 0
M  V30 7930 H 740.418 -4.56522 -1.94682 0
M  V30 7931 H 735.674 -5.91769 -1.53687 0
M  V30 7932 H 739.848 -6.85508 -1.22685 0
M  V30 7933 H 737.475 -7.53375 -1.01634 0
M  V30 7934 N 739.05 0.861098 -1.31996 0
M  V30 7935 C 739.982 1.97551 -1.16216 0
M  V30 7936 C 740.995 1.625 -0.0988527 0
M  V30 7937 O 742.184 1.75091 -0.3472 0
M  V30 7938 C 739.284 3.30376 -0.755307 0
M  V30 7939 C 738.457 3.93711 -1.90552 0
M  V30 7940 C 737.516 5.04862 -1.48328 0
M  V30 7941 O 736.542 5.25204 -2.19431 0
M  V30 7942 N 737.744 5.79283 -0.375656 0
M  V30 7943 H 740.509 2.11632 -2.12208 0
M  V30 7944 H 738.07 1.03559 -1.24448 0
M  V30 7945 H 740.062 4.0213 -0.455364 0
M  V30 7946 H 738.632 3.12395 0.113269 0
M  V30 7947 H 737.852 3.14825 -2.37231 0
M  V30 7948 H 739.14 4.32762 -2.67571 0
M  V30 7949 H 738.538 5.65286 0.216284 0
M  V30 7950 H 737.095 6.5166 -0.135289 0
M  V30 7951 N 740.528 1.15101 1.07655 0
M  V30 7952 C 741.758 0.946357 1.83651 0
M  V30 7953 C 742.166 -0.508641 1.82235 0
M  V30 7954 O 741.509 -1.36445 1.22997 0
M  V30 7955 C 741.571 1.37945 3.31981 0
M  V30 7956 C 741.235 2.85155 3.57122 0
M  V30 7957 C 742.232 3.83234 3.51323 0
M  V30 7958 C 739.917 3.2275 3.84887 0
M  V30 7959 C 741.911 5.16914 3.72932 0
M  V30 7960 C 739.598 4.56604 4.06148 0
M  V30 7961 C 740.596 5.53495 4.00165 0
M  V30 7962 O 740.284 6.84931 4.20861 0
M  V30 7963 H 740.016 0.336368 0.586372 0
M  V30 7964 H 742.57 1.53198 1.36819 0
M  V30 7965 H 740.8 0.737205 3.79608 0
M  V30 7966 H 742.489 1.14439 3.89434 0
M  V30 7967 H 743.255 3.55535 3.29878 0
M  V30 7968 H 739.134 2.47921 3.88659 0
M  V30 7969 H 742.678 5.92529 3.68178 0
M  V30 7970 H 738.575 4.84019 4.27078 0
M  V30 7971 H 739.343 6.91304 4.38226 0
M  V30 7972 N 742.006 -1.2595 0.947325 0
M  V30 7973 C 742.936 -2.28521 0.479604 0
M  V30 7974 C 743.917 -1.63469 -0.470293 0
M  V30 7975 O 745.102 -1.90627 -0.370824 0
M  V30 7976 C 742.232 -3.46397 -0.250289 0
M  V30 7977 C 741.186 -4.23578 0.613643 0
M  V30 7978 C 740.512 -5.34131 -0.246568 0
M  V30 7979 C 741.812 -4.86979 1.88809 0
M  V30 7980 H 743.506 -2.67895 1.33688 0
M  V30 7981 H 741.052 -1.28783 0.644274 0
M  V30 7982 H 743.005 -4.17269 -0.588576 0
M  V30 7983 H 741.729 -3.05993 -1.14175 0
M  V30 7984 H 740.388 -3.54478 0.93491 0
M  V30 7985 H 740.036 -4.89968 -1.13756 0
M  V30 7986 H 739.736 -5.86683 0.328123 0
M  V30 7987 H 741.26 -6.07839 -0.579986 0
M  V30 7988 H 742.674 -5.50034 1.61666 0
M  V30 7989 H 741.071 -5.49675 2.40784 0
M  V30 7990 H 742.141 -4.09575 2.5957 0
M  V30 7991 N 743.484 -0.715051 -1.40445 0
M  V30 7992 C 744.895 -0.326763 -1.83818 0
M  V30 7993 C 745.246 1.13851 -1.59789 0
M  V30 7994 O 744.371 1.87611 -1.07848 0
M  V30 7995 C 744.966 -0.586297 -3.33688 0
M  V30 7996 C 743.525 -0.251724 -3.75557 0
M  V30 7997 C 742.672 -0.858928 -2.63662 0
M  V30 7998 H 745.623 -0.914241 -1.2972 0
M  V30 7999 H 745.644 0.148636 -3.8021 0
M  V30 8000 H 745.156 -1.65281 -3.51146 0
M  V30 8001 H 743.257 0.809754 -3.63695 0
M  V30 8002 H 743.37 -0.720348 -4.73654 0
M  V30 8003 H 741.734 -0.287013 -2.53078 0
M  V30 8004 H 742.517 -1.9297 -2.83932 0
M  V30 8005 N 744.962 1.50701 -0.461195 0
M  V30 8006 C 746.208 2.02566 0.0973411 0
M  V30 8007 C 746.541 1.3432 1.40257 0
M  V30 8008 O 745.816 0.465692 1.88843 0
M  V30 8009 C 746.099 3.58919 0.291423 0
M  V30 8010 C 745.952 4.37751 -1.03413 0
M  V30 8011 C 747.271 4.27379 1.05048 0
M  V30 8012 H 744.39 0.73622 0.0339026 0
M  V30 8013 H 747.032 1.80115 -0.604855 0
M  V30 8014 H 745.182 3.78179 0.889539 0
M  V30 8015 H 746.854 4.30085 -1.66806 0
M  V30 8016 H 745.097 4.01885 -1.63313 0
M  V30 8017 H 745.768 5.45384 -0.852085 0
M  V30 8018 H 748.244 4.12534 0.543603 0
M  V30 8019 H 747.12 5.36609 1.15506 0
M  V30 8020 H 747.381 3.89868 2.0846 0
M  V30 8021 N 746.441 0.193421 1.56409 0
M  V30 8022 C 747.371 -0.723334 2.22014 0
M  V30 8023 C 748.352 -1.22254 1.1827 0
M  V30 8024 O 749.537 -1.27168 1.46771 0
M  V30 8025 C 746.667 -1.94366 2.87818 0
M  V30 8026 C 745.621 -1.57943 3.97791 0
M  V30 8027 C 744.947 -2.87623 4.50752 0
M  V30 8028 C 746.247 -0.790639 5.16281 0
M  V30 8029 H 747.941 -0.176426 2.9888 0
M  V30 8030 H 745.487 -0.0834166 1.43758 0
M  V30 8031 H 747.44 -2.5902 3.32396 0
M  V30 8032 H 746.164 -2.51507 2.08355 0
M  V30 8033 H 744.823 -0.956482 3.53903 0
M  V30 8034 H 744.471 -3.4285 3.68053 0
M  V30 8035 H 744.171 -2.63998 5.24956 0
M  V30 8036 H 745.695 -3.53268 4.9803 0
M  V30 8037 H 747.109 -1.34024 5.57414 0
M  V30 8038 H 745.506 -0.65258 5.96541 0
M  V30 8039 H 746.576 0.208633 4.84451 0
M  V30 8040 N 747.919 -1.57396 -0.0801906 0
M  V30 8041 C 749.33 -1.75642 -0.633002 0
M  V30 8042 C 749.681 -0.817708 -1.78348 0
M  V30 8043 O 748.806 0.000233743 -2.164 0
M  V30 8044 C 749.401 -3.18502 -1.15507 0
M  V30 8045 C 747.96 -3.38121 -1.65381 0
M  V30 8046 C 747.107 -2.71386 -0.569661 0
M  V30 8047 H 750.058 -1.58027 0.145949 0
M  V30 8048 H 750.079 -3.22198 -2.02408 0
M  V30 8049 H 749.591 -3.86799 -0.317515 0
M  V30 8050 H 747.692 -2.74926 -2.51488 0
M  V30 8051 H 747.805 -4.46521 -1.73654 0
M  V30 8052 H 746.169 -2.33702 -1.0127 0
M  V30 8053 H 746.952 -3.42332 0.257561 0
M  V30 8054 N 749.397 0.351382 -1.53633 0
M  V30 8055 C 750.344 1.43115 -1.81071 0
M  V30 8056 C 751.314 1.52601 -0.655913 0
M  V30 8057 O 752.499 1.68264 -0.89955 0
M  V30 8058 C 749.639 2.79874 -2.01903 0
M  V30 8059 C 748.752 2.79242 -3.29618 0
M  V30 8060 C 747.887 4.07667 -3.40559 0
M  V30 8061 C 746.926 4.01233 -4.62254 0
M  V30 8062 N 746.063 5.21334 -4.70271 0
M  V30 8063 H 750.903 1.19017 -2.73201 0
M  V30 8064 H 748.44 0.576691 -1.35324 0
M  V30 8065 H 750.398 3.5934 -2.11969 0
M  V30 8066 H 749.028 3.0234 -1.13094 0
M  V30 8067 H 748.08 1.91927 -3.28433 0
M  V30 8068 H 749.392 2.70363 -4.19172 0
M  V30 8069 H 748.546 4.95555 -3.50015 0
M  V30 8070 H 747.285 4.19317 -2.49047 0
M  V30 8071 H 746.29 3.11732 -4.52884 0
M  V30 8072 H 747.515 3.91173 -5.55122 0
M  V30 8073 H 745.461 5.33543 -3.81665 0
M  V30 8074 H 745.378 5.14681 -5.5375 0
M  V30 8075 H 746.646 6.11014 -4.84027 0
M  V30 8076 N 750.875 1.45233 0.611969 0
M  V30 8077 C 751.838 1.53189 1.70487 0
M  V30 8078 C 752.838 0.411839 1.55437 0
M  V30 8079 O 754.028 0.675164 1.60584 0
M  V30 8080 C 751.16 1.42422 3.09723 0
M  V30 8081 H 752.353 2.5056 1.64802 0
M  V30 8082 H 749.906 1.32609 0.827318 0
M  V30 8083 H 750.641 0.462185 3.2099 0
M  V30 8084 H 750.426 2.23658 3.22055 0
M  V30 8085 H 751.916 1.51012 3.89339 0
M  V30 8086 N 752.353 -0.854086 1.3245 0
M  V30 8087 C 753.63 -1.59188 1.1366 0
M  V30 8088 C 754.01 -2.08917 -0.302807 0
M  V30 8089 O 753.358 -1.8795 -1.29951 0
M  V30 8090 C 753.568 -2.73757 2.16467 0
M  V30 8091 C 754.916 -3.43323 2.49829 0
M  V30 8092 O 755.94 -2.83983 2.15017 0
M  V30 8093 O 754.799 -4.50409 3.09506 0
M  V30 8094 H 751.893 -0.701092 0.438633 0
M  V30 8095 H 754.439 -0.898165 1.43983 0
M  V30 8096 H 753.211 -2.3454 3.1322 0
M  V30 8097 H 752.834 -3.50804 1.87142 0
M  V30 8098 N 753.831 -1.1567 -1.07043 0
M  V30 8099 C 754.763 -0.814095 -2.14255 0
M  V30 8100 C 755.776 0.175293 -1.61854 0
M  V30 8101 O 756.965 -0.0483984 -1.78434 0
M  V30 8102 C 754.065 -0.190082 -3.38367 0
M  V30 8103 C 753.238 -1.21768 -4.20109 0
M  V30 8104 C 752.297 -0.614863 -5.22595 0
M  V30 8105 O 751.323 -1.28167 -5.54583 0
M  V30 8106 N 752.525 0.601955 -5.77371 0
M  V30 8107 H 755.29 -1.73677 -2.44247 0
M  V30 8108 H 752.851 -1.05301 -1.22977 0
M  V30 8109 H 754.843 0.22604 -4.04068 0
M  V30 8110 H 753.413 0.635992 -3.06062 0
M  V30 8111 H 752.633 -1.81025 -3.50177 0
M  V30 8112 H 753.921 -1.9114 -4.71533 0
M  V30 8113 H 753.319 1.162 -5.53637 0
M  V30 8114 H 751.876 0.96039 -6.44686 0
M  V30 8115 N 755.309 1.25446 -0.953992 0
M  V30 8116 C 756.555 1.9343 -0.60933 0
M  V30 8117 C 756.888 1.74542 0.851388 0
M  V30 8118 O 756.163 1.09014 1.61078 0
M  V30 8119 C 756.446 3.46844 -0.968041 0
M  V30 8120 C 756.299 3.74961 -2.48444 0
M  V30 8121 C 757.618 4.37334 -0.492641 0
M  V30 8122 H 754.737 0.702502 -0.222844 0
M  V30 8123 H 757.379 1.48076 -1.19053 0
M  V30 8124 H 755.529 3.85604 -0.473465 0
M  V30 8125 H 757.201 3.45841 -3.05273 0
M  V30 8126 H 755.444 3.20589 -2.92241 0
M  V30 8127 H 756.115 4.82246 -2.68594 0
M  V30 8128 H 758.591 4.05873 -0.916878 0
M  V30 8129 H 757.467 5.43439 -0.772331 0
M  V30 8130 H 757.728 4.37908 0.607403 0
M  V30 8131 N 756.787 0.722489 1.40064 0
M  V30 8132 C 758.033 0.27422 2.01543 0
M  V30 8133 C 758.388 -1.12224 1.5628 0
M  V30 8134 O 757.681 -1.75179 0.776063 0
M  V30 8135 C 757.875 0.300682 3.56133 0
M  V30 8136 C 757.704 1.69818 4.16404 0
M  V30 8137 C 756.474 2.30747 4.49537 0
M  V30 8138 C 758.672 2.64962 4.40794 0
M  V30 8139 N 756.654 3.62781 4.9524 0
M  V30 8140 C 758.025 3.81712 4.88565 0
M  V30 8141 C 760.08 2.62885 4.22842 0
M  V30 8142 C 758.783 4.96703 5.20268 0
M  V30 8143 C 760.809 3.77009 4.55652 0
M  V30 8144 C 760.171 4.92492 5.03618 0
M  V30 8145 H 756.27 0.146328 0.768188 0
M  V30 8146 H 758.854 0.94577 1.70186 0
M  V30 8147 H 757.025 -0.340461 3.86905 0
M  V30 8148 H 758.757 -0.164951 4.04364 0
M  V30 8149 H 755.512 1.82783 4.36907 0
M  V30 8150 H 755.936 4.30533 5.22465 0
M  V30 8151 H 760.578 1.74803 3.84972 0
M  V30 8152 H 758.296 5.85425 5.57049 0
M  V30 8153 H 761.882 3.76685 4.43396 0
M  V30 8154 H 760.762 5.79336 5.28525 0
M  V30 8155 N 758.265 -1.50454 0.469181 0
M  V30 8156 C 759.542 -1.9504 -0.147955 0
M  V30 8157 C 759.922 -1.40946 -1.57154 0
M  V30 8158 O 759.27 -0.609663 -2.20217 0
M  V30 8159 C 759.48 -3.48875 -0.0932198 0
M  V30 8160 C 760.828 -4.23655 -0.283056 0
M  V30 8161 O 761.852 -3.55795 -0.169892 0
M  V30 8162 O 760.711 -5.44102 -0.511396 0
M  V30 8163 H 757.805 -0.819283 -0.11271 0
M  V30 8164 H 760.351 -1.6123 0.529446 0
M  V30 8165 H 759.123 -3.80791 0.900784 0
M  V30 8166 H 758.746 -3.89217 -0.812161 0
M  V30 8167 N 759.743 -0.201713 -1.56304 0
M  V30 8168 C 760.991 0.434447 -1.97375 0
M  V30 8169 C 761.312 1.61692 -1.08998 0
M  V30 8170 O 760.582 1.95223 -0.162682 0
M  V30 8171 H 759.162 0.163497 -0.728888 0
M  V30 8172 H 761.824 -0.289988 -1.92731 0
M  V30 8173 H 760.92 0.774136 -3.02347 0
M  V30 8174 N 761.222 1.57436 0.0718424 0
M  V30 8175 C 762.154 2.00412 1.1121 0
M  V30 8176 C 763.167 0.910074 1.34987 0
M  V30 8177 O 764.356 1.18796 1.33228 0
M  V30 8178 C 761.456 2.32786 2.46301 0
M  V30 8179 C 760.629 3.64036 2.4248 0
M  V30 8180 C 759.688 3.8408 3.59679 0
M  V30 8181 O 758.714 4.55667 3.4111 0
M  V30 8182 N 759.916 3.2643 4.80025 0
M  V30 8183 H 762.681 2.90264 0.746118 0
M  V30 8184 H 760.242 1.59791 0.260495 0
M  V30 8185 H 762.234 2.43368 3.23348 0
M  V30 8186 H 760.804 1.48824 2.74901 0
M  V30 8187 H 760.024 3.64208 1.50818 0
M  V30 8188 H 761.312 4.50217 2.37027 0
M  V30 8189 H 760.71 2.68325 4.98014 0
M  V30 8190 H 759.267 3.42461 5.54584 0
M  V30 8191 N 762.7 -0.34323 1.53817 0
M  V30 8192 C 763.647 -1.42153 1.81827 0
M  V30 8193 C 764.617 -1.52251 0.663996 0
M  V30 8194 O 765.802 -1.67784 0.908461 0
M  V30 8195 C 762.942 -2.78799 2.03384 0
M  V30 8196 C 762.055 -2.7749 3.31094 0
M  V30 8197 C 761.19 -4.05856 3.42717 0
M  V30 8198 C 760.229 -3.98776 4.64375 0
M  V30 8199 N 759.366 -5.18833 4.73029 0
M  V30 8200 H 764.206 -1.17567 2.73829 0
M  V30 8201 H 761.743 -0.569506 1.35628 0
M  V30 8202 H 763.701 -3.58211 2.13872 0
M  V30 8203 H 762.331 -3.01736 1.14696 0
M  V30 8204 H 761.383 -1.90182 3.29446 0
M  V30 8205 H 762.695 -2.68137 4.206 0
M  V30 8206 H 761.849 -4.93691 3.52638 0
M  V30 8207 H 760.588 -4.1799 2.51267 0
M  V30 8208 H 759.593 -3.09325 4.5453 0
M  V30 8209 H 760.818 -3.88224 5.57189 0
M  V30 8210 H 758.764 -5.31511 3.84489 0
M  V30 8211 H 758.681 -5.11737 5.56472 0
M  V30 8212 H 759.949 -6.08439 4.87261 0
M  V30 8213 N 764.178 -1.45556 -0.604258 0
M  V30 8214 C 765.594 -1.30035 -0.925368 0
M  V30 8215 C 765.794 -0.255833 -1.99869 0
M  V30 8216 O 764.85 0.349076 -2.50075 0
M  V30 8217 C 766.163 -2.68028 -1.36314 0
M  V30 8218 C 767.711 -2.75951 -1.47717 0
M  V30 8219 C 768.186 -4.14476 -1.94868 0
M  V30 8220 N 769.677 -4.16787 -2.02097 0
M  V30 8221 C 770.412 -5.20845 -2.39809 0
M  V30 8222 N 769.908 -6.35246 -2.76467 0
M  V30 8223 N 771.701 -5.08204 -2.40177 0
M  V30 8224 H 763.852 -2.1214 0.10512 0
M  V30 8225 H 766.115 -0.947871 -0.0156303 0
M  V30 8226 H 765.821 -3.45667 -0.648628 0
M  V30 8227 H 765.695 -2.96711 -2.329 0
M  V30 8228 H 768.082 -1.98613 -2.18258 0
M  V30 8229 H 768.163 -2.50977 -0.494371 0
M  V30 8230 H 767.807 -4.923 -1.24912 0
M  V30 8231 H 767.737 -4.36843 -2.94068 0
M  V30 8232 H 770.228 -3.34233 -1.76343 0
M  V30 8233 H 770.541 -7.10438 -3.04134 0
M  V30 8234 H 768.886 -6.38642 -2.74155 0
M  V30 8235 H 772.077 -4.17874 -2.10947 0
M  V30 8236 H 772.25 -5.89417 -2.69242 0
M  V30 8237 N 765.656 0.84705 -1.32902 0
M  V30 8238 C 766.586 1.97166 -1.25091 0
M  V30 8239 C 767.567 1.69578 -0.133161 0
M  V30 8240 O 768.752 1.91519 -0.321591 0
M  V30 8241 C 765.882 3.33157 -0.981006 0
M  V30 8242 C 764.836 3.75119 -2.06082 0
M  V30 8243 C 764.162 5.08826 -1.64318 0
M  V30 8244 C 765.462 3.89774 -3.47669 0
M  V30 8245 H 767.156 2.03958 -2.19184 0
M  V30 8246 H 764.702 0.979907 -1.05517 0
M  V30 8247 H 766.655 4.11393 -0.912891 0
M  V30 8248 H 765.379 3.266 -0.00445559 0
M  V30 8249 H 764.038 2.9914 -2.11921 0
M  V30 8250 H 763.686 4.98732 -0.653876 0
M  V30 8251 H 763.386 5.37873 -2.36572 0
M  V30 8252 H 764.91 5.89546 -1.58958 0
M  V30 8253 H 766.324 4.58343 -3.44376 0
M  V30 8254 H 764.721 4.30248 -4.18338 0
M  V30 8255 H 765.791 2.92463 -3.86773 0
M  V30 8256 N 767.134 1.16236 1.06428 0
M  V30 8257 C 768.38 0.944431 1.79467 0
M  V30 8258 C 768.713 -0.526558 1.86925 0
M  V30 8259 O 767.988 -1.39061 1.35986 0
M  V30 8260 C 768.271 1.57092 3.24028 0
M  V30 8261 C 768.124 3.11315 3.24658 0
M  V30 8262 C 769.443 1.26447 4.21544 0
M  V30 8263 H 766.562 0.344521 0.651517 0
M  V30 8264 H 769.204 1.43545 1.24478 0
M  V30 8265 H 767.354 1.15337 3.70985 0
M  V30 8266 H 769.026 3.62042 2.85873 0
M  V30 8267 H 767.269 3.44716 2.6335 0
M  V30 8268 H 767.94 3.50269 4.26633 0
M  V30 8269 H 770.416 1.62581 3.83023 0
M  V30 8270 H 769.292 1.72885 5.20963 0
M  V30 8271 H 769.553 0.183068 4.41721 0
M  V30 8272 N 768.612 -1.24939 0.960631 0
M  V30 8273 C 769.837 -1.9742 0.635608 0
M  V30 8274 C 770.262 -1.70857 -0.786737 0
M  V30 8275 O 769.62 -0.968063 -1.53291 0
M  V30 8276 C 769.668 -3.48987 0.907771 0
M  V30 8277 O 768.772 -4.12399 -0.0104053 0
M  V30 8278 H 768.113 -0.61871 0.241027 0
M  V30 8279 H 770.643 -1.58901 1.28886 0
M  V30 8280 H 770.653 -3.99334 0.836453 0
M  V30 8281 H 769.328 -3.6765 1.94439 0
M  V30 8282 H 767.905 -3.72727 0.113631 0
M  V30 8283 N 770.09 -0.729906 -1.39679 0
M  V30 8284 C 771.053 -0.0951668 -2.29002 0
M  V30 8285 C 772.053 0.672471 -1.46063 0
M  V30 8286 O 773.243 0.502245 -1.66803 0
M  V30 8287 C 770.375 0.874631 -3.29489 0
M  V30 8288 H 771.568 -0.882062 -2.86635 0
M  V30 8289 H 769.121 -0.495424 -1.4824 0
M  V30 8290 H 769.856 1.68807 -2.76902 0
M  V30 8291 H 769.641 0.326893 -3.90735 0
M  V30 8292 H 771.131 1.31548 -3.96339 0
M  V30 8293 N 771.568 1.50203 -0.477153 0
M  V30 8294 C 772.515 2.28656 0.31386 0
M  V30 8295 C 773.485 1.33977 0.981802 0
M  V30 8296 O 774.67 1.62919 0.993072 0
M  V30 8297 C 771.81 3.16027 1.38639 0
M  V30 8298 C 770.923 4.25743 0.732615 0
M  V30 8299 C 770.058 5.00363 1.78355 0
M  V30 8300 C 769.097 6.01945 1.11035 0
M  V30 8301 N 768.234 6.6982 2.10441 0
M  V30 8302 H 773.074 2.958 -0.361445 0
M  V30 8303 H 770.611 1.45867 -0.190093 0
M  V30 8304 H 772.569 3.6504 2.01994 0
M  V30 8305 H 771.199 2.50917 2.03077 0
M  V30 8306 H 770.251 3.80398 -0.0136546 0
M  V30 8307 H 771.563 4.98393 0.201513 0
M  V30 8308 H 770.717 5.53124 2.49276 0
M  V30 8309 H 769.456 4.27432 2.34847 0
M  V30 8310 H 768.461 5.48438 0.386797 0
M  V30 8311 H 769.686 6.76851 0.552248 0
M  V30 8312 H 767.632 5.99677 2.65939 0
M  V30 8313 H 767.549 7.38366 1.62332 0
M  V30 8314 H 768.817 7.27196 2.80724 0
M  V30 8315 N 773.046 0.209999 1.56195 0
M  V30 8316 C 773.978 -0.736967 2.17029 0
M  V30 8317 C 774.991 -1.16599 1.13616 0
M  V30 8318 O 776.18 -1.09914 1.40646 0
M  V30 8319 C 773.28 -2.00852 2.72969 0
M  V30 8320 C 772.453 -1.73691 4.01435 0
M  V30 8321 C 771.512 -2.85439 4.42053 0
M  V30 8322 O 770.538 -2.54405 5.09183 0
M  V30 8323 N 771.74 -4.14135 4.06783 0
M  V30 8324 H 774.505 -0.216656 2.98916 0
M  V30 8325 H 772.066 0.0285672 1.61875 0
M  V30 8326 H 774.058 -2.74778 2.97118 0
M  V30 8327 H 772.628 -2.43963 1.95451 0
M  V30 8328 H 771.848 -0.834676 3.85262 0
M  V30 8329 H 773.136 -1.52961 4.85263 0
M  V30 8330 H 772.534 -4.42196 3.52816 0
M  V30 8331 H 771.091 -4.84642 4.35851 0
M  V30 8332 O 774.563 -1.61333 0.0733639 0
M  V30 8333 H 775.254 -1.86233 -0.532616 0
M  V30 END ATOM
M  V30 BEGIN BOND
M  V30 END BOND
M  V30 END CTAB
M  END
$$$$
