drugbank_target|Q72JD8 Hypothetical conserved protein (DB04233)
 OpenBabel12092120443D

  0  0  0     0  0            999 V3000
M  V30 BEGIN CTAB
M  V30 COUNTS 3306 3345 0 0 0
M  V30 BEGIN ATOM
M  V30 1 H -0.908 1.98254 -0.117106 0
M  V30 2 N 0 1.576 0 0
M  V30 3 C 0.933 2.03868 1.02534 0
M  V30 4 C 1.911 0.928543 1.3348 0
M  V30 5 O 3.095 1.19667 1.45644 0
M  V30 6 C 0.222 2.43627 2.35294 0
M  V30 7 C -0.732 3.65373 2.2001 0
M  V30 8 S 0.101 5.13292 1.52614 0
M  V30 9 C 1.257 5.56322 2.86805 0
M  V30 10 H 1.49 2.90518 0.631377 0
M  V30 11 H -0.977 1.52953 0.210867 0
M  V30 12 H 0.981 2.67203 3.11629 0
M  V30 13 H -0.358 1.57376 2.7183 0
M  V30 14 H -1.165 3.90944 3.18086 0
M  V30 15 H -1.563 3.418 1.51819 0
M  V30 16 H 0.729 5.58782 3.83104 0
M  V30 17 H 1.672 6.56266 2.65933 0
M  V30 18 H 2.08 4.83886 2.90714 0
M  V30 19 N 1.4781 -0.272755 1.55222 0
M  V30 20 C 2.4251 -1.33716 1.88119 0
M  V30 21 C 3.3951 -1.49066 0.73271 0
M  V30 22 O 4.5801 -1.63469 0.984002 0
M  V30 23 C 1.7201 -2.69238 2.15882 0
M  V30 24 C 0.8331 -2.62108 3.43399 0
M  V30 25 C -0.0319 -3.89811 3.60861 0
M  V30 26 C -0.9929 -3.77193 4.8207 0
M  V30 27 N -1.8559 -4.9673 4.96189 0
M  V30 28 H 2.9841 -1.04962 2.78903 0
M  V30 29 H 0.5211 -0.507088 1.38083 0
M  V30 30 H 2.4791 -3.48089 2.29978 0
M  V30 31 H 1.1091 -2.96194 1.28331 0
M  V30 32 H 0.1611 -1.74967 3.37773 0
M  V30 33 H 1.4731 -2.48685 4.32386 0
M  V30 34 H 0.6271 -4.77103 3.74777 0
M  V30 35 H -0.6339 -4.06102 2.7006 0
M  V30 36 H -1.6289 -2.88284 4.68159 0
M  V30 37 H -0.4039 -3.62421 5.74307 0
M  V30 38 H -2.4579 -5.13431 4.08319 0
M  V30 39 H -2.5409 -4.85839 5.79221 0
M  V30 40 H -1.2729 -5.85594 5.1449 0
M  V30 41 N 2.9562 -1.48159 -0.537278 0
M  V30 42 C 3.9032 -1.62138 -1.64256 0
M  V30 43 C 4.8732 -0.463668 -1.59497 0
M  V30 44 O 6.0582 -0.686241 -1.78032 0
M  V30 45 C 3.1982 -1.66028 -3.02537 0
M  V30 46 C 2.3112 -2.92855 -3.17585 0
M  V30 47 C 1.4462 -2.87952 -4.46382 0
M  V30 48 C 0.4852 -4.09516 -4.54932 0
M  V30 49 N -0.3778 -4.02733 -5.75109 0
M  V30 50 H 4.4622 -2.56529 -1.51647 0
M  V30 51 H 1.9992 -1.27224 -0.738414 0
M  V30 52 H 3.9572 -1.66265 -3.82638 0
M  V30 53 H 2.5872 -0.751331 -3.13934 0
M  V30 54 H 1.6392 -3.02395 -2.30784 0
M  V30 55 H 2.9512 -3.82822 -3.19764 0
M  V30 56 H 2.1052 -2.8655 -5.34765 0
M  V30 57 H 0.8442 -1.95702 -4.46712 0
M  V30 58 H -0.1508 -4.11201 -3.64957 0
M  V30 59 H 1.0742 -5.02917 -4.56346 0
M  V30 60 H -0.9798 -3.13299 -5.76351 0
M  V30 61 H -1.0628 -4.86397 -5.78752 0
M  V30 62 H 0.2052 -4.05379 -6.65799 0
M  V30 63 N 4.4343 0.785586 -1.36625 0
M  V30 64 C 5.6823 1.54057 -1.30808 0
M  V30 65 C 6.0033 1.94683 0.111157 0
M  V30 66 O 5.2733 1.65241 1.05224 0
M  V30 67 H 3.8533 0.571354 -0.481211 0
M  V30 68 H 6.5153 0.935821 -1.70963 0
M  V30 69 H 5.6113 2.44637 -1.93801 0
M  V30 70 N 5.9124 1.20967 1.01018 0
M  V30 71 C 6.8424 0.988272 2.11555 0
M  V30 72 C 7.8234 -0.0849778 1.69888 0
M  V30 73 O 9.0084 0.0738202 1.9406 0
M  V30 74 C 6.1384 0.546528 3.42973 0
M  V30 75 C 5.0924 1.56375 3.9841 0
M  V30 76 C 4.4184 0.97842 5.25672 0
M  V30 77 C 5.7184 2.94922 4.31066 0
M  V30 78 H 7.4124 1.91276 2.30334 0
M  V30 79 H 4.9584 0.921073 1.1069 0
M  V30 80 H 6.9114 0.378839 4.19694 0
M  V30 81 H 5.6354 -0.413598 3.23971 0
M  V30 82 H 4.2944 1.71891 3.23804 0
M  V30 83 H 3.9424 0.0101688 5.02999 0
M  V30 84 H 3.6424 1.65784 5.63728 0
M  V30 85 H 5.1664 0.821939 6.05043 0
M  V30 86 H 6.5804 2.8288 4.9865 0
M  V30 87 H 4.9774 3.5983 4.80253 0
M  V30 88 H 6.0474 3.4616 3.39561 0
M  V30 89 N 7.3905 -1.2043 1.01659 0
M  V30 90 C 8.3205 -2.25466 0.607226 0
M  V30 91 C 9.3015 -1.65853 -0.377716 0
M  V30 92 O 10.4865 -1.92409 -0.263149 0
M  V30 93 C 7.6165 -3.47256 -0.0552949 0
M  V30 94 C 6.5705 -4.19462 0.850632 0
M  V30 95 C 5.8965 -5.34673 0.0538859 0
M  V30 96 C 7.1965 -4.75603 2.15868 0
M  V30 97 H 8.8905 -2.59962 1.48526 0
M  V30 98 H 6.4365 -1.2496 0.715605 0
M  V30 99 H 8.3895 -4.19917 -0.353233 0
M  V30 100 H 7.1135 -3.11924 -0.968045 0
M  V30 101 H 5.7725 -3.48667 1.13257 0
M  V30 102 H 5.4205 -4.95585 -0.860514 0
M  V30 103 H 5.1205 -5.83913 0.657192 0
M  V30 104 H 6.6445 -6.10138 -0.237598 0
M  V30 105 H 8.0585 -5.40083 1.92311 0
M  V30 106 H 6.4555 -5.3528 2.71284 0
M  V30 107 H 7.5255 -3.94346 2.82169 0
M  V30 108 N 8.8686 -0.792821 -1.36206 0
M  V30 109 C 9.8316 -0.199459 -2.2833 0
M  V30 110 C 10.8316 0.605189 -1.48977 0
M  V30 111 O 12.0216 0.425685 -1.68919 0
M  V30 112 C 9.1536 0.723523 -3.33134 0
M  V30 113 H 10.3466 -1.01181 -2.82316 0
M  V30 114 H 7.8996 -0.562485 -1.45828 0
M  V30 115 H 8.6346 1.56008 -2.84309 0
M  V30 116 H 8.4196 0.148436 -3.91819 0
M  V30 117 H 9.9096 1.13344 -4.01924 0
M  V30 118 N 10.3467 1.47872 -0.545128 0
M  V30 119 C 11.3097 2.28337 0.198717 0
M  V30 120 C 12.3097 1.36255 0.853888 0
M  V30 121 O 13.4997 1.59003 0.711606 0
M  V30 122 C 10.6317 3.15585 1.28915 0
M  V30 123 H 11.8247 2.95567 -0.507941 0
M  V30 124 H 9.3777 1.53362 -0.301616 0
M  V30 125 H 10.1127 2.53019 2.02859 0
M  V30 126 H 9.8977 3.83337 0.824309 0
M  V30 127 H 11.3877 3.76243 1.81194 0
M  V30 128 N 11.8248 0.280983 1.55075 0
M  V30 129 C 12.7548 -0.597469 2.25727 0
M  V30 130 C 13.7358 -1.15417 1.24952 0
M  V30 131 O 14.9208 -1.18722 1.53684 0
M  V30 132 C 12.0508 -1.7789 2.98283 0
M  V30 133 C 11.0048 -1.35347 4.06036 0
M  V30 134 C 10.3308 -2.61846 4.66198 0
M  V30 135 C 11.6308 -0.499354 5.19907 0
M  V30 136 H 13.3248 -0.00824265 2.99399 0
M  V30 137 H 10.8708 -0.0025244 1.44 0
M  V30 138 H 12.8238 -2.39937 3.46422 0
M  V30 139 H 11.5478 -2.39405 2.22155 0
M  V30 140 H 10.2068 -0.756156 3.58717 0
M  V30 141 H 9.8548 -3.21632 3.86732 0
M  V30 142 H 9.5548 -2.3409 5.38958 0
M  V30 143 H 11.0788 -3.24732 5.1709 0
M  V30 144 H 12.4928 -1.02498 5.64063 0
M  V30 145 H 10.8898 -0.316424 5.99265 0
M  V30 146 H 11.9598 0.480459 4.82514 0
M  V30 147 N 13.3029 -1.57598 0.00835791 0
M  V30 148 C 14.2659 -2.07884 -0.965242 0
M  V30 149 C 15.2659 -0.989825 -1.26725 0
M  V30 150 O 16.4559 -1.25218 -1.21104 0
M  V30 151 C 13.5879 -2.52731 -2.28779 0
M  V30 152 H 14.7809 -2.95178 -0.530112 0
M  V30 153 H 12.3339 -1.54458 -0.239283 0
M  V30 154 H 13.0689 -1.68705 -2.76964 0
M  V30 155 H 12.8539 -3.32272 -2.08177 0
M  V30 156 H 14.3439 -2.91933 -2.98605 0
M  V30 157 N 14.781 0.264519 -1.55364 0
M  V30 158 C 16.029 0.993021 -1.76021 0
M  V30 159 C 16.35 1.86511 -0.569099 0
M  V30 160 O 15.62 1.91438 0.415735 0
M  V30 161 H 14.2 0.369639 -0.649135 0
M  V30 162 H 16.862 0.286707 -1.9278 0
M  V30 163 H 15.958 1.62502 -2.66457 0
M  V30 164 N 16.2591 1.48442 0.529413 0
M  V30 165 C 17.5061 1.56488 1.28521 0
M  V30 166 C 17.8341 0.239042 1.93025 0
M  V30 167 O 17.0891 -0.770713 1.79885 0
M  V30 168 C 17.3881 2.6523 2.39558 0
M  V30 169 C 17.0541 4.07648 1.92702 0
M  V30 170 C 15.7161 4.46411 1.79641 0
M  V30 171 C 18.0681 4.96896 1.573 0
M  V30 172 C 15.3961 5.72226 1.29514 0
M  V30 173 C 17.7481 6.23202 1.08636 0
M  V30 174 C 16.4121 6.60821 0.941919 0
M  V30 175 H 15.6821 0.572631 0.470292 0
M  V30 176 H 18.3291 1.82161 0.59072 0
M  V30 177 H 16.6341 2.33419 3.14679 0
M  V30 178 H 18.3311 2.68671 2.97686 0
M  V30 179 H 14.9211 3.77036 2.03819 0
M  V30 180 H 19.1051 4.67626 1.66251 0
M  V30 181 H 14.3611 6.00097 1.17019 0
M  V30 182 H 18.5351 6.91753 0.803136 0
M  V30 183 H 16.1621 7.58198 0.5513 0
M  V30 184 N 17.7372 -0.778329 1.37039 0
M  V30 185 C 18.6672 -1.90546 1.34962 0
M  V30 186 C 19.6482 -1.68681 0.219274 0
M  V30 187 O 20.8332 -1.89634 0.418624 0
M  V30 188 C 17.9632 -3.27734 1.14925 0
M  V30 189 C 16.9172 -3.64147 2.24902 0
M  V30 190 C 16.2432 -4.99806 1.89996 0
M  V30 191 C 17.5432 -3.71579 3.67051 0
M  V30 192 H 19.2372 -1.92541 2.29277 0
M  V30 193 H 16.7832 -0.924948 1.10366 0
M  V30 194 H 18.7362 -4.06215 1.12104 0
M  V30 195 H 17.4602 -3.26154 0.170631 0
M  V30 196 H 16.1192 -2.8797 2.26868 0
M  V30 197 H 15.7672 -4.94759 0.906796 0
M  V30 198 H 15.4672 -5.25139 2.63634 0
M  V30 199 H 16.9912 -5.80694 1.88749 0
M  V30 200 H 18.4052 -4.40227 3.67251 0
M  V30 201 H 16.8022 -4.08405 4.39688 0
M  V30 202 H 17.8722 -2.72404 4.01154 0
M  V30 203 N 19.2153 -1.21501 -1.00376 0
M  V30 204 C 20.4433 -1.059 -1.77744 0
M  V30 205 C 20.8583 0.391125 -1.84704 0
M  V30 206 O 20.2153 1.27133 -1.30933 0
M  V30 207 C 20.2663 -1.65111 -3.21591 0
M  V30 208 O 19.9873 -3.0445 -3.15027 0
M  V30 209 C 21.4883 -1.54637 -4.15454 0
M  V30 210 H 18.7083 -0.371825 -0.558558 0
M  V30 211 H 21.2523 -1.60865 -1.26264 0
M  V30 212 H 19.4073 -1.14235 -3.70175 0
M  V30 213 H 19.8213 -3.3278 -4.0541 0
M  V30 214 H 21.2953 -2.00808 -5.14179 0
M  V30 215 H 21.7723 -0.501022 -4.36333 0
M  V30 216 H 22.3783 -2.04767 -3.72761 0
M  V30 217 N 20.6934 1.19889 -1.02296 0
M  V30 218 C 21.6234 2.25141 -0.619174 0
M  V30 219 C 22.6044 1.66051 0.368915 0
M  V30 220 O 23.7894 1.92546 0.252941 0
M  V30 221 C 20.9194 3.4728 0.0368783 0
M  V30 222 C 19.8734 4.19005 -0.872865 0
M  V30 223 C 19.1994 5.34637 -0.0822402 0
M  V30 224 C 20.4994 4.74452 -2.18387 0
M  V30 225 H 22.1934 2.59171 -1.49903 0
M  V30 226 H 19.7394 1.24579 -0.722222 0
M  V30 227 H 21.6924 4.20098 0.330958 0
M  V30 228 H 20.4164 3.12433 0.95149 0
M  V30 229 H 19.0754 3.48061 -1.15105 0
M  V30 230 H 18.7234 4.96034 0.83422 0
M  V30 231 H 18.4234 5.83557 -0.688149 0
M  V30 232 H 19.9474 6.10255 0.205238 0
M  V30 233 H 21.3614 5.39055 -1.95172 0
M  V30 234 H 19.7584 5.33834 -2.74119 0
M  V30 235 H 20.8284 3.92844 -2.84257 0
M  V30 236 N 22.1715 0.800033 1.35784 0
M  V30 237 C 23.1345 0.211565 2.28221 0
M  V30 238 C 24.1345 -0.59728 1.49296 0
M  V30 239 O 25.3245 -0.416721 1.69142 0
M  V30 240 C 22.4565 -0.705846 3.33513 0
M  V30 241 H 23.6495 1.02677 2.81776 0
M  V30 242 H 21.2025 0.570211 1.45528 0
M  V30 243 H 21.9375 -1.54498 2.85133 0
M  V30 244 H 21.7225 -0.127655 3.91892 0
M  V30 245 H 23.2125 -1.11211 4.02519 0
M  V30 246 N 23.6496 -1.47581 0.552962 0
M  V30 247 C 24.5826 -2.26883 -0.244857 0
M  V30 248 C 25.5606 -1.33784 -0.924147 0
M  V30 249 O 26.7446 -1.6316 -0.943981 0
M  V30 250 C 23.8716 -3.10695 -1.34856 0
M  V30 251 C 22.9176 -4.19339 -0.778268 0
M  V30 252 S 23.7506 -5.34207 0.37184 0
M  V30 253 C 24.9066 -6.21584 -0.733779 0
M  V30 254 H 25.1396 -2.94202 0.428087 0
M  V30 255 H 22.6726 -1.50628 0.339197 0
M  V30 256 H 24.6306 -3.59555 -1.98066 0
M  V30 257 H 23.2916 -2.42746 -1.99332 0
M  V30 258 H 22.4846 -4.77695 -1.60696 0
M  V30 259 H 22.0866 -3.73338 -0.222422 0
M  V30 260 H 24.3786 -6.57676 -1.62692 0
M  V30 261 H 25.3216 -7.07851 -0.187668 0
M  V30 262 H 25.7296 -5.55125 -1.02454 0
M  V30 263 N 25.1277 -0.289203 -1.54924 0
M  V30 264 C 26.0907 0.579144 -2.21762 0
M  V30 265 C 27.0907 1.07047 -1.1999 0
M  V30 266 O 28.2807 0.968384 -1.44803 0
M  V30 267 C 25.4127 1.80055 -2.8947 0
M  V30 268 H 26.6057 -0.00464908 -2.999 0
M  V30 269 H 24.1587 -0.0399306 -1.56249 0
M  V30 270 H 24.8937 2.42449 -2.15381 0
M  V30 271 H 24.6787 1.45602 -3.64064 0
M  V30 272 H 26.1687 2.41773 -3.40493 0
M  V30 273 N 26.6058 1.57591 -0.0167156 0
M  V30 274 C 27.5378 2.06343 0.997753 0
M  V30 275 C 28.5508 0.984469 1.29661 0
M  V30 276 O 29.7398 1.26093 1.26344 0
M  V30 277 C 26.8398 2.46255 2.32834 0
M  V30 278 C 26.0128 3.77083 2.21646 0
M  V30 279 C 25.0718 4.0368 3.37534 0
M  V30 280 O 24.0978 4.7411 3.14973 0
M  V30 281 N 25.2998 3.52881 4.60929 0
M  V30 282 H 28.0648 2.93997 0.581875 0
M  V30 283 H 25.6258 1.61002 0.170316 0
M  V30 284 H 27.6178 2.61149 3.09166 0
M  V30 285 H 26.1878 1.64032 2.66106 0
M  V30 286 H 25.4078 3.72106 1.30119 0
M  V30 287 H 26.6958 4.62822 2.11361 0
M  V30 288 H 26.0938 2.95878 4.82154 0
M  V30 289 H 24.6508 3.73076 5.34469 0
M  V30 290 N 28.0839 -0.256276 1.55502 0
M  V30 291 C 29.0309 -1.31714 1.89526 0
M  V30 292 C 30.0009 -1.4828 0.748479 0
M  V30 293 O 31.1859 -1.62416 1.00128 0
M  V30 294 C 28.3259 -2.66933 2.18725 0
M  V30 295 C 27.4389 -2.58452 3.4616 0
M  V30 296 C 26.5739 -3.85961 3.64976 0
M  V30 297 C 25.6129 -3.72059 4.86044 0
M  V30 298 N 24.7499 -4.9144 5.01429 0
M  V30 299 H 29.5899 -1.01998 2.80001 0
M  V30 300 H 27.1269 -0.492413 1.38613 0
M  V30 301 H 29.0849 -3.4563 2.33657 0
M  V30 302 H 27.7149 -2.94816 1.31466 0
M  V30 303 H 26.7669 -1.71374 3.3961 0
M  V30 304 H 28.0789 -2.44085 4.34999 0
M  V30 305 H 27.2329 -4.73101 3.79816 0
M  V30 306 H 25.9719 -4.03215 2.74353 0
M  V30 307 H 24.9769 -2.83302 4.7119 0
M  V30 308 H 26.2019 -3.56309 5.78118 0
M  V30 309 H 24.1479 -5.09072 4.13741 0
M  V30 310 H 24.0649 -4.79668 5.84341 0
M  V30 311 H 25.3329 -5.80104 5.20672 0
M  V30 312 N 29.562 -1.4872 -0.521534 0
M  V30 313 C 30.809 -1.57168 -1.27689 0
M  V30 314 C 31.137 -0.249275 -1.92896 0
M  V30 315 O 30.392 0.761162 -1.80291 0
M  V30 316 C 30.691 -2.66497 -2.38148 0
M  V30 317 C 30.357 -4.08664 -1.90538 0
M  V30 318 C 29.019 -4.47357 -1.77271 0
M  V30 319 C 31.371 -4.97724 -1.54663 0
M  V30 320 C 28.699 -5.72905 -1.26478 0
M  V30 321 C 31.051 -6.2377 -1.05329 0
M  V30 322 C 29.715 -6.61311 -0.906861 0
M  V30 323 H 28.985 -0.575117 -0.467249 0
M  V30 324 H 31.632 -1.82472 -0.581051 0
M  V30 325 H 29.937 -2.35085 -3.13437 0
M  V30 326 H 31.634 -2.70246 -2.96257 0
M  V30 327 H 28.224 -3.78111 -2.01816 0
M  V30 328 H 32.408 -4.68501 -1.63768 0
M  V30 329 H 27.664 -6.00709 -1.13835 0
M  V30 330 H 31.838 -6.9217 -0.76644 0
M  V30 331 H 29.465 -7.5848 -0.511083 0
M  V30 332 N 31.0401 0.771051 -1.3745 0
M  V30 333 C 32.2651 1.56529 -1.36065 0
M  V30 334 C 32.6901 1.88029 0.0515859 0
M  V30 335 O 32.0481 1.49282 1.02882 0
M  V30 336 C 32.0961 2.85187 -2.20683 0
M  V30 337 O 31.2001 3.79593 -1.61193 0
M  V30 338 H 30.5411 0.47411 -0.464883 0
M  V30 339 H 33.0711 0.954269 -1.80983 0
M  V30 340 H 33.0811 3.34283 -2.33921 0
M  V30 341 H 31.7561 2.61588 -3.23334 0
M  V30 342 H 30.3331 3.38239 -1.56999 0
M  V30 343 N 32.5182 1.22032 0.997298 0
M  V30 344 C 33.7642 1.04376 1.73878 0
M  V30 345 C 34.0972 -0.420716 1.89588 0
M  V30 346 O 33.3722 -1.31202 1.43583 0
M  V30 347 C 33.6552 1.75047 3.14691 0
M  V30 348 C 33.5082 3.29062 3.06656 0
M  V30 349 C 34.8272 1.49928 4.13775 0
M  V30 350 H 31.9462 0.380578 0.631133 0
M  V30 351 H 34.5882 1.50312 1.16217 0
M  V30 352 H 32.7382 1.35996 3.63919 0
M  V30 353 H 34.4102 3.7753 2.65083 0
M  V30 354 H 32.6532 3.58967 2.43568 0
M  V30 355 H 33.3242 3.73683 4.06282 0
M  V30 356 H 35.8002 1.83842 3.73285 0
M  V30 357 H 34.6762 2.01878 5.10428 0
M  V30 358 H 34.9372 0.430929 4.39995 0
M  V30 359 N 33.9963 -1.19345 1.0293 0
M  V30 360 C 34.9063 -2.26245 0.620515 0
M  V30 361 C 35.9223 -1.70486 -0.347928 0
M  V30 362 O 37.0983 -2.00347 -0.205704 0
M  V30 363 C 34.1633 -3.46693 -0.0218957 0
M  V30 364 C 33.2243 -4.17632 0.994102 0
M  V30 365 C 32.4573 -5.32329 0.382253 0
M  V30 366 O 32.6803 -5.64552 -0.814676 0
M  V30 367 O 31.6143 -5.91664 1.10531 0
M  V30 368 H 35.4403 -2.63453 1.51083 0
M  V30 369 H 33.0253 -1.26207 0.799513 0
M  V30 370 H 34.9073 -4.19683 -0.380072 0
M  V30 371 H 33.5823 -3.11333 -0.886209 0
M  V30 372 H 32.4893 -3.4676 1.40387 0
M  V30 373 H 33.8223 -4.56964 1.8288 0
M  V30 374 N 35.4744 -0.807222 -1.35358 0
M  V30 375 C 36.4374 -0.223665 -2.28106 0
M  V30 376 C 37.4374 0.589354 -1.4961 0
M  V30 377 O 38.6274 0.407745 -1.69361 0
M  V30 378 C 35.7594 0.688149 -3.33882 0
M  V30 379 H 36.9524 -1.04169 -2.81227 0
M  V30 380 H 34.5054 -0.577921 -1.45223 0
M  V30 381 H 35.2404 1.52984 -2.85948 0
M  V30 382 H 35.0254 0.10687 -3.91954 0
M  V30 383 H 36.5154 1.09075 -4.03104 0
M  V30 384 N 36.9525 1.47285 -0.560781 0
M  V30 385 C 38.2005 2.02064 -0.0379868 0
M  V30 386 C 38.5215 1.43711 1.31803 0
M  V30 387 O 37.7915 0.61362 1.86042 0
M  V30 388 H 36.3715 0.746918 -0.0110531 0
M  V30 389 H 39.0335 1.80648 -0.731598 0
M  V30 390 H 38.1295 3.12064 0.0474463 0
M  V30 391 N 38.4306 0.297415 1.54768 0
M  V30 392 C 39.3936 -0.567375 2.22066 0
M  V30 393 C 40.3936 -1.06409 1.20556 0
M  V30 394 O 41.5836 -0.960691 1.45315 0
M  V30 395 C 38.7156 -1.78517 2.90421 0
M  V30 396 H 39.9086 0.0205534 2.99893 0
M  V30 397 H 37.4616 0.0482163 1.56226 0
M  V30 398 H 38.1966 -2.41303 2.16664 0
M  V30 399 H 37.9816 -1.43669 3.64831 0
M  V30 400 H 39.4716 -2.39964 3.41771 0
M  V30 401 N 39.9087 -1.5758 0.0250728 0
M  V30 402 C 41.1567 -1.91255 -0.653151 0
M  V30 403 C 41.4777 -0.901691 -1.729 0
M  V30 404 O 40.7477 0.0573785 -1.95816 0
M  V30 405 H 39.3277 -0.705942 -0.244243 0
M  V30 406 H 41.9897 -1.94767 0.0719209 0
M  V30 407 H 41.0857 -2.91752 -1.10847 0
M  V30 408 N 41.3868 0.248026 -1.55636 0
M  V30 409 C 42.6338 0.976224 -1.77415 0
M  V30 410 C 42.9618 1.85361 -0.589193 0
M  V30 411 O 42.2168 1.90973 0.427529 0
M  V30 412 C 42.5158 1.86819 -3.04686 0
M  V30 413 C 42.1818 1.14625 -4.36087 0
M  V30 414 C 40.8438 0.946723 -4.71795 0
M  V30 415 C 43.1958 0.634463 -5.17324 0
M  V30 416 C 40.5238 0.223091 -5.86276 0
M  V30 417 C 42.8758 -0.0756959 -6.32555 0
M  V30 418 C 41.5398 -0.286711 -6.66884 0
M  V30 419 H 40.8098 0.357226 -0.649208 0
M  V30 420 H 43.4568 0.246415 -1.89908 0
M  V30 421 H 41.7618 2.66502 -2.872 0
M  V30 422 H 43.4588 2.43329 -3.18735 0
M  V30 423 H 40.0488 1.3117 -4.08035 0
M  V30 424 H 44.2328 0.77616 -4.90193 0
M  V30 425 H 39.4888 0.0491185 -6.1138 0
M  V30 426 H 43.6628 -0.479899 -6.94745 0
M  V30 427 H 41.2898 -0.849389 -7.5544 0
M  V30 428 N 42.8649 1.48995 0.513639 0
M  V30 429 C 44.0949 1.61297 1.291 0
M  V30 430 C 44.5029 0.278656 1.87137 0
M  V30 431 O 43.8459 -0.744325 1.67945 0
M  V30 432 C 43.9079 2.61326 2.46879 0
M  V30 433 C 43.5719 4.05993 2.09807 0
M  V30 434 C 44.5689 4.93183 1.64519 0
M  V30 435 C 42.2539 4.51642 2.19829 0
M  V30 436 C 44.2479 6.24056 1.2974 0
M  V30 437 C 41.9349 5.82532 1.84662 0
M  V30 438 C 42.9329 6.68562 1.3969 0
M  V30 439 O 42.6209 7.97014 1.04992 0
M  V30 440 H 42.3529 0.546236 0.39825 0
M  V30 441 H 44.9069 1.95673 0.62459 0
M  V30 442 H 43.1369 2.22104 3.16554 0
M  V30 443 H 44.8259 2.6329 3.08923 0
M  V30 444 H 45.5919 4.59147 1.56233 0
M  V30 445 H 41.4709 3.84855 2.53786 0
M  V30 446 H 45.0149 6.91161 0.945659 0
M  V30 447 H 40.9119 6.16099 1.92594 0
M  V30 448 H 41.6799 8.09913 1.18249 0
M  V30 449 N 44.343 -0.763751 1.37857 0
M  V30 450 C 45.591 -1.51957 1.33243 0
M  V30 451 C 45.912 -1.94835 -0.0801709 0
M  V30 452 O 45.182 -1.66894 -1.02582 0
M  V30 453 H 43.762 -0.563626 0.49024 0
M  V30 454 H 46.424 -0.908504 1.7243 0
M  V30 455 H 45.52 -2.41523 1.97669 0
M  V30 456 N 45.8211 -1.22559 -0.990812 0
M  V30 457 C 47.0691 -1.04933 -1.72724 0
M  V30 458 C 47.3901 0.416158 -1.90508 0
M  V30 459 O 46.6601 1.29918 -1.46622 0
M  V30 460 H 45.2401 -0.385296 -0.639965 0
M  V30 461 H 47.9021 -1.54105 -1.19322 0
M  V30 462 H 46.9981 -1.52886 -2.72089 0
M  V30 463 N 47.2992 1.18797 -1.03562 0
M  V30 464 C 48.5462 1.8865 -0.736023 0
M  V30 465 C 48.8742 1.80041 0.735889 0
M  V30 466 O 48.1292 1.19179 1.55225 0
M  V30 467 C 48.4282 3.38692 -1.14117 0
M  V30 468 C 48.0942 3.67504 -2.6125 0
M  V30 469 C 46.7562 3.75078 -3.01447 0
M  V30 470 C 49.1082 3.80293 -3.56408 0
M  V30 471 C 46.4362 3.92915 -4.35701 0
M  V30 472 C 48.7882 3.99645 -4.90374 0
M  V30 473 C 47.4522 4.05453 -5.30249 0
M  V30 474 H 46.7222 0.690321 -0.26933 0
M  V30 475 H 49.3692 1.40641 -1.29971 0
M  V30 476 H 47.6742 3.88645 -0.496202 0
M  V30 477 H 49.3712 3.91072 -0.886789 0
M  V30 478 H 45.9612 3.62223 -2.29113 0
M  V30 479 H 50.1452 3.73779 -3.26501 0
M  V30 480 H 45.4012 3.95653 -4.66121 0
M  V30 481 H 49.5752 4.08482 -5.64017 0
M  V30 482 H 47.2022 4.19027 -6.34288 0
M  V30 483 N 48.7773 0.814389 1.34928 0
M  V30 484 C 50.0253 0.397636 1.9815 0
M  V30 485 C 50.3463 -1.04069 1.64908 0
M  V30 486 O 49.6163 -1.72121 0.93548 0
M  V30 487 H 48.1963 0.144043 0.732981 0
M  V30 488 H 50.8583 1.04195 1.6471 0
M  V30 489 H 49.9543 0.509688 3.0791 0
M  V30 490 N 50.2554 -1.46986 0.568584 0
M  V30 491 C 51.5034 -2.02041 0.0487022 0
M  V30 492 C 51.8244 -1.44408 -1.31039 0
M  V30 493 O 51.0944 -0.623477 -1.85714 0
M  V30 494 H 49.6744 -0.746849 0.015014 0
M  V30 495 H 52.3364 -1.80257 0.741168 0
M  V30 496 H 51.4324 -3.12085 -0.0308961 0
M  V30 497 N 51.7335 -0.305618 -1.54608 0
M  V30 498 C 52.6655 0.602161 -2.21149 0
M  V30 499 C 53.6785 1.09394 -1.20569 0
M  V30 500 O 54.8675 1.0106 -1.47136 0
M  V30 501 C 51.9675 1.83692 -2.84799 0
M  V30 502 C 51.1405 1.48686 -4.11353 0
M  V30 503 C 50.1995 2.57725 -4.58764 0
M  V30 504 O 49.2255 2.22623 -5.23858 0
M  V30 505 N 50.4275 3.88346 -4.31471 0
M  V30 506 H 53.1925 0.0324966 -2.99682 0
M  V30 507 H 50.7535 -0.128021 -1.61393 0
M  V30 508 H 52.7455 2.55994 -3.13448 0
M  V30 509 H 51.3155 2.31486 -2.10078 0
M  V30 510 H 50.5355 0.596269 -3.89664 0
M  V30 511 H 51.8235 1.22842 -4.93748 0
M  V30 512 H 51.2215 4.19671 -3.79331 0
M  V30 513 H 49.7785 4.56932 -4.64818 0
M  V30 514 N 53.2116 1.57565 -0.0334293 0
M  V30 515 C 54.1416 2.13511 0.945265 0
M  V30 516 C 55.1226 1.05231 1.33643 0
M  V30 517 O 56.3076 1.33084 1.41429 0
M  V30 518 C 53.4376 2.6657 2.22616 0
M  V30 519 C 52.3916 3.79676 1.97561 0
M  V30 520 C 51.7176 4.1918 3.31952 0
M  V30 521 C 53.0176 5.0557 1.31135 0
M  V30 522 H 54.7116 2.95538 0.479325 0
M  V30 523 H 52.2576 1.42166 0.229115 0
M  V30 524 H 54.2106 3.04344 2.91466 0
M  V30 525 H 52.9346 1.8171 2.71384 0
M  V30 526 H 51.5936 3.42347 1.31127 0
M  V30 527 H 51.2416 3.31296 3.78487 0
M  V30 528 H 50.9416 4.95402 3.15992 0
M  V30 529 H 52.4656 4.59541 4.02063 0
M  V30 530 H 53.8796 5.40903 1.89992 0
M  V30 531 H 52.2766 5.86818 1.25559 0
M  V30 532 H 53.3466 4.84062 0.284894 0
M  V30 533 N 54.6897 -0.239769 1.55765 0
M  V30 534 C 55.6527 -1.28038 1.90103 0
M  V30 535 C 56.6527 -1.40723 0.778055 0
M  V30 536 O 57.8427 -1.39301 1.04599 0
M  V30 537 C 54.9747 -2.65702 2.13577 0
M  V30 538 H 56.1677 -0.988048 2.83157 0
M  V30 539 H 53.7207 -0.479382 1.48767 0
M  V30 540 H 54.4557 -3.00063 1.23015 0
M  V30 541 H 54.2407 -2.57875 2.95369 0
M  V30 542 H 55.7307 -3.40828 2.41301 0
M  V30 543 N 56.1678 -1.49265 -0.50573 0
M  V30 544 C 57.4138 -1.58748 -1.26202 0
M  V30 545 C 57.7468 -0.271227 -1.92297 0
M  V30 546 O 57.0218 0.724831 -1.80489 0
M  V30 547 C 57.3048 -2.74332 -2.33268 0
M  V30 548 C 57.1578 -4.15737 -1.71705 0
M  V30 549 C 58.4768 -2.85576 -3.34865 0
M  V30 550 H 55.5958 -0.577826 -0.457478 0
M  V30 551 H 58.2378 -1.81532 -0.560897 0
M  V30 552 H 56.3878 -2.55036 -2.93068 0
M  V30 553 H 58.0598 -4.46537 -1.15769 0
M  V30 554 H 56.3028 -4.21605 -1.02135 0
M  V30 555 H 56.9738 -4.92477 -2.49341 0
M  V30 556 H 59.4498 -3.03127 -2.8505 0
M  V30 557 H 58.3258 -3.68135 -4.07146 0
M  V30 558 H 58.5868 -1.94732 -3.96903 0
M  V30 559 N 57.6459 0.756429 -1.3826 0
M  V30 560 C 58.8919 1.51772 -1.34511 0
M  V30 561 C 59.2249 1.94089 0.0656691 0
M  V30 562 O 58.4999 1.65221 1.02626 0
M  V30 563 C 58.7829 2.77226 -2.29821 0
M  V30 564 C 58.6359 2.41065 -3.79747 0
M  V30 565 C 59.9549 3.79236 -2.23312 0
M  V30 566 H 57.0739 0.550578 -0.489931 0
M  V30 567 H 59.7159 0.866607 -1.69086 0
M  V30 568 H 57.8659 3.32784 -2.00467 0
M  V30 569 H 59.5379 1.91303 -4.19763 0
M  V30 570 H 57.7809 1.7356 -3.97567 0
M  V30 571 H 58.4519 3.3081 -4.41892 0
M  V30 572 H 60.9279 3.3321 -2.49219 0
M  V30 573 H 59.8039 4.64714 -2.92116 0
M  V30 574 H 60.0649 4.24615 -1.23102 0
M  V30 575 N 59.124 1.23083 0.984299 0
M  V30 576 C 60.087 1.00979 2.05757 0
M  V30 577 C 61.087 -0.0269573 1.60777 0
M  V30 578 O 62.277 0.212403 1.729 0
M  V30 579 C 59.409 0.527072 3.36801 0
M  V30 580 H 60.602 1.9622 2.26799 0
M  V30 581 H 58.155 1.05072 1.15714 0
M  V30 582 H 58.89 -0.429294 3.21446 0
M  V30 583 H 58.675 1.27515 3.70786 0
M  V30 584 H 60.165 0.392942 4.15747 0
M  V30 585 N 60.6021 -1.18246 1.0419 0
M  V30 586 C 61.5121 -2.25574 0.644476 0
M  V30 587 C 62.5281 -1.70845 -0.329826 0
M  V30 588 O 63.7041 -2.00554 -0.184443 0
M  V30 589 C 60.7691 -3.46697 0.014877 0
M  V30 590 C 59.8301 -4.16554 1.03834 0
M  V30 591 C 59.0631 -5.31894 0.438692 0
M  V30 592 O 59.2861 -5.65385 -0.754752 0
M  V30 593 O 58.2201 -5.90459 1.168 0
M  V30 594 H 62.0461 -2.61836 1.53869 0
M  V30 595 H 59.6311 -1.25352 0.812854 0
M  V30 596 H 61.5131 -4.20062 -0.335538 0
M  V30 597 H 60.1881 -3.12255 -0.853138 0
M  V30 598 H 59.0951 -3.45251 1.44057 0
M  V30 599 H 60.4281 -4.54998 1.87716 0
M  V30 600 N 62.0802 -0.821533 -1.34494 0
M  V30 601 C 63.3572 -0.33159 -1.92769 0
M  V30 602 C 63.7372 1.18088 -1.74981 0
M  V30 603 O 63.0852 1.98733 -1.12772 0
M  V30 604 C 63.2952 -0.759398 -3.40638 0
M  V30 605 C 64.6432 -0.757433 -4.1779 0
M  V30 606 O 65.6672 -0.70189 -3.49216 0
M  V30 607 O 64.5262 -0.829361 -5.4017 0
M  V30 608 H 61.6202 -0.0902502 -0.822061 0
M  V30 609 H 64.1662 -0.906231 -1.43477 0
M  V30 610 H 62.9382 -1.8012 -3.47379 0
M  V30 611 H 62.5612 -0.160378 -3.97276 0
M  V30 612 N 63.5583 1.46682 -0.576371 0
M  V30 613 C 64.4883 2.33028 0.148397 0
M  V30 614 C 65.4693 1.44961 0.889956 0
M  V30 615 O 66.6543 1.73789 0.866662 0
M  V30 616 C 63.7843 3.27117 1.1667 0
M  V30 617 C 62.7383 4.24575 0.540386 0
M  V30 618 C 62.0643 5.08126 1.6647 0
M  V30 619 C 63.3643 5.19722 -0.518331 0
M  V30 620 H 65.0583 2.93875 -0.572509 0
M  V30 621 H 62.6043 1.41315 -0.276768 0
M  V30 622 H 64.5573 3.86374 1.68204 0
M  V30 623 H 63.2813 2.64364 1.9178 0
M  V30 624 H 61.9403 3.66571 0.0461769 0
M  V30 625 H 61.5883 4.41762 2.40531 0
M  V30 626 H 61.2883 5.74122 1.25131 0
M  V30 627 H 62.8123 5.70246 2.18293 0
M  V30 628 H 64.2263 5.73232 -0.0883058 0
M  V30 629 H 62.6233 5.94026 -0.851679 0
M  V30 630 H 63.6933 4.64037 -1.40703 0
M  V30 631 N 65.0364 0.313813 1.54444 0
M  V30 632 C 65.9994 -0.54379 2.22656 0
M  V30 633 C 66.9994 -1.05124 1.21678 0
M  V30 634 O 68.1894 -0.945225 1.46325 0
M  V30 635 C 65.3214 -1.75427 2.92298 0
M  V30 636 H 66.5144 0.0523599 2.99854 0
M  V30 637 H 64.0674 0.0647834 1.56166 0
M  V30 638 H 64.8024 -2.38991 2.19211 0
M  V30 639 H 64.5874 -1.39791 3.66334 0
M  V30 640 H 66.0774 -2.36325 3.44297 0
M  V30 641 N 66.5145 -1.57545 0.0417849 0
M  V30 642 C 67.9255 -1.80011 -0.495259 0
M  V30 643 C 68.2765 -0.953199 -1.71489 0
M  V30 644 O 67.4015 -0.167138 -2.15754 0
M  V30 645 C 67.9965 -3.26482 -0.905265 0
M  V30 646 C 66.5555 -3.499 -1.38734 0
M  V30 647 C 65.7025 -2.74979 -0.358056 0
M  V30 648 H 68.6535 -1.56425 0.267736 0
M  V30 649 H 68.6745 -3.36887 -1.76882 0
M  V30 650 H 68.1865 -3.88096 -0.017401 0
M  V30 651 H 66.2875 -2.93553 -2.29471 0
M  V30 652 H 66.4005 -4.58615 -1.38598 0
M  V30 653 H 64.7645 -2.40834 -0.828912 0
M  V30 654 H 65.5475 -3.39315 0.521561 0
M  V30 655 N 67.9926 0.231505 -1.5589 0
M  V30 656 C 69.2406 0.955461 -1.78088 0
M  V30 657 C 69.5616 1.85262 -0.608533 0
M  V30 658 O 68.8316 1.92277 0.375035 0
M  V30 659 H 67.4116 0.355787 -0.656829 0
M  V30 660 H 70.0736 0.245751 -1.93344 0
M  V30 661 H 69.1696 1.56814 -2.69844 0
M  V30 662 N 69.4707 1.49531 0.497807 0
M  V30 663 C 70.4007 1.6935 1.60757 0
M  V30 664 C 71.3817 0.542218 1.61227 0
M  V30 665 O 72.5667 0.778417 1.77917 0
M  V30 666 C 69.6967 1.76298 2.99226 0
M  V30 667 C 68.6507 2.91248 3.13622 0
M  V30 668 C 67.9767 2.83312 4.53474 0
M  V30 669 C 69.2767 4.3214 2.93346 0
M  V30 670 H 70.9707 2.62263 1.44425 0
M  V30 671 H 68.5167 1.26208 0.693367 0
M  V30 672 H 70.4697 1.88749 3.76765 0
M  V30 673 H 69.1937 0.799871 3.16654 0
M  V30 674 H 67.8527 2.78404 2.38509 0
M  V30 675 H 67.5007 1.84902 4.67782 0
M  V30 676 H 67.2007 3.60465 4.64046 0
M  V30 677 H 68.7247 2.97775 5.33069 0
M  V30 678 H 70.1387 4.45649 3.60652 0
M  V30 679 H 68.5357 5.1054 3.15387 0
M  V30 680 H 69.6057 4.46363 1.89441 0
M  V30 681 N 70.9488 -0.749086 1.3866 0
M  V30 682 C 72.3598 -1.32664 1.31366 0
M  V30 683 C 72.7108 -1.96179 -0.028484 0
M  V30 684 O 71.8358 -1.9537 -0.93057 0
M  V30 685 C 72.4308 -2.41219 2.37905 0
M  V30 686 C 70.9898 -2.94684 2.34176 0
M  V30 687 C 70.1368 -1.68108 2.20533 0
M  V30 688 H 73.0878 -0.547628 1.48952 0
M  V30 689 H 73.1088 -3.21268 2.0388 0
M  V30 690 H 72.6208 -1.94962 3.35576 0
M  V30 691 H 70.7218 -3.45258 1.401 0
M  V30 692 H 70.8348 -3.48757 3.2849 0
M  V30 693 H 69.1988 -1.91907 1.67463 0
M  V30 694 H 69.9818 -1.23923 3.20153 0
M  V30 695 N 72.4269 -1.23603 -0.977757 0
M  V30 696 C 73.3569 -1.04401 -2.0886 0
M  V30 697 C 74.3379 0.0399052 -1.70053 0
M  V30 698 O 75.5229 -0.125246 -1.93796 0
M  V30 699 C 72.6529 -0.637269 -3.41403 0
M  V30 700 C 71.6069 -1.66883 -3.94124 0
M  V30 701 C 70.9329 -1.11745 -5.22893 0
M  V30 702 C 72.2329 -3.06247 -4.23096 0
M  V30 703 H 73.9269 -1.97316 -2.25182 0
M  V30 704 H 71.4729 -0.950096 -1.08209 0
M  V30 705 H 73.4259 -0.48998 -4.18542 0
M  V30 706 H 72.1499 0.327557 -3.24953 0
M  V30 707 H 70.8089 -1.80416 -3.19133 0
M  V30 708 H 70.4569 -0.143527 -5.02795 0
M  V30 709 H 70.1569 -1.80672 -5.59134 0
M  V30 710 H 71.6809 -0.982067 -6.02651 0
M  V30 711 H 73.0949 -2.96001 -4.90975 0
M  V30 712 H 71.4919 -3.72436 -4.70544 0
M  V30 713 H 72.5619 -3.55041 -3.30263 0
M  V30 714 N 73.905 1.17692 -1.04816 0
M  V30 715 C 75.153 1.87488 -0.754497 0
M  V30 716 C 75.474 1.81205 0.720407 0
M  V30 717 O 74.744 1.23544 1.52032 0
M  V30 718 H 73.324 0.694101 -0.276102 0
M  V30 719 H 75.986 1.42793 -1.32651 0
M  V30 720 H 75.082 2.93328 -1.06606 0
M  V30 721 N 75.3831 0.828654 1.34056 0
M  V30 722 C 76.6291 0.42008 1.98402 0
M  V30 723 C 76.9621 -1.01564 1.65525 0
M  V30 724 O 76.2371 -1.70834 0.929831 0
M  V30 725 C 76.5201 0.62927 3.54559 0
M  V30 726 C 76.3731 2.11152 3.97159 0
M  V30 727 C 77.6921 0.0688756 4.40046 0
M  V30 728 H 74.8111 0.154104 0.720709 0
M  V30 729 H 77.4531 1.04228 1.5886 0
M  V30 730 H 75.6031 0.0996418 3.88372 0
M  V30 731 H 77.2751 2.70522 3.73651 0
M  V30 732 H 75.5181 2.59985 3.47261 0
M  V30 733 H 76.1891 2.20868 5.05887 0
M  V30 734 H 78.6651 0.521458 4.1282 0
M  V30 735 H 77.5411 0.245006 5.48353 0
M  V30 736 H 77.8021 -1.0266 4.30015 0
M  V30 737 N 76.8612 -1.46375 0.584142 0
M  V30 738 C 78.2772 -1.57694 0.245929 0
M  V30 739 C 78.4772 -1.57903 -1.25175 0
M  V30 740 O 77.5332 -1.49676 -2.03355 0
M  V30 741 C 78.8462 -2.87028 0.896402 0
M  V30 742 C 80.3942 -3.00662 0.870127 0
M  V30 743 C 80.8692 -4.32734 1.50017 0
M  V30 744 N 82.3602 -4.39436 1.46458 0
M  V30 745 C 83.0952 -5.40248 1.92144 0
M  V30 746 N 82.5912 -6.47726 2.4581 0
M  V30 747 N 84.3842 -5.31459 1.83052 0
M  V30 748 H 76.5352 -1.44483 1.55687 0
M  V30 749 H 78.7982 -0.689291 0.650831 0
M  V30 750 H 78.5042 -2.9269 1.95002 0
M  V30 751 H 78.3782 -3.75014 0.405486 0
M  V30 752 H 80.7652 -2.94581 -0.174871 0
M  V30 753 H 80.8462 -2.14148 1.39908 0
M  V30 754 H 80.4902 -4.39573 2.54437 0
M  V30 755 H 80.4202 -5.18025 0.946432 0
M  V30 756 H 82.9112 -3.62367 1.07231 0
M  V30 757 H 83.2242 -7.20863 2.78525 0
M  V30 758 H 81.5692 -6.48542 2.49836 0
M  V30 759 H 84.7602 -4.46396 1.40883 0
M  V30 760 H 84.9332 -6.09881 2.18973 0
M  V30 761 N 78.3393 -0.321999 -1.54275 0
M  V30 762 C 79.2693 0.537411 -2.27231 0
M  V30 763 C 80.2503 1.12064 -1.27968 0
M  V30 764 O 81.4353 1.14606 -1.56777 0
M  V30 765 C 78.5653 1.69919 -3.02894 0
M  V30 766 C 77.5193 1.24534 -4.09482 0
M  V30 767 C 76.8453 2.49394 -4.72977 0
M  V30 768 C 78.1453 0.361335 -5.21049 0
M  V30 769 H 79.8393 -0.0711406 -2.99315 0
M  V30 770 H 77.3853 -0.0356555 -1.43956 0
M  V30 771 H 79.3383 2.30668 -3.52662 0
M  V30 772 H 78.0623 2.33431 -2.28424 0
M  V30 773 H 76.7213 0.660782 -3.60596 0
M  V30 774 H 76.3693 3.11265 -3.95124 0
M  V30 775 H 76.0693 2.19718 -5.44975 0
M  V30 776 H 77.5933 3.10908 -5.25517 0
M  V30 777 H 79.0073 0.875072 -5.66582 0
M  V30 778 H 77.4043 0.157428 -5.99893 0
M  V30 779 H 78.4743 -0.60822 -4.8107 0
M  V30 780 N 79.8174 1.5752 -0.0501392 0
M  V30 781 C 81.0654 1.9227 0.622642 0
M  V30 782 C 81.3864 0.929083 1.71444 0
M  V30 783 O 80.6564 -0.0262186 1.95882 0
M  V30 784 H 79.2364 0.709739 0.232981 0
M  V30 785 H 81.8984 1.94628 -0.102898 0
M  V30 786 H 80.9944 2.93479 1.06191 0
M  V30 787 N 81.2955 -0.223234 1.56011 0
M  V30 788 C 82.5415 -0.949279 1.79211 0
M  V30 789 C 82.8745 -1.84054 0.619494 0
M  V30 790 O 82.1495 -1.90726 -0.381317 0
M  V30 791 C 82.4325 -1.78965 3.12479 0
M  V30 792 C 82.2855 -0.924997 4.40186 0
M  V30 793 C 83.6045 -2.76774 3.42175 0
M  V30 794 H 80.7235 -0.343676 0.651963 0
M  V30 795 H 83.3655 -0.218253 1.88742 0
M  V30 796 H 81.5155 -2.41291 3.04485 0
M  V30 797 H 83.1875 -0.318615 4.60198 0
M  V30 798 H 81.4305 -0.230344 4.33188 0
M  V30 799 H 82.1015 -1.54735 5.29869 0
M  V30 800 H 84.5775 -2.24584 3.50287 0
M  V30 801 H 83.4535 -3.32678 4.36597 0
M  V30 802 H 83.7145 -3.54429 2.64258 0
M  V30 803 N 82.7736 -1.49793 -0.48987 0
M  V30 804 C 84.0216 -1.59525 -1.24081 0
M  V30 805 C 84.3426 -0.288953 -1.92847 0
M  V30 806 O 83.6126 0.692436 -1.83254 0
M  V30 807 H 82.1926 -0.587796 -0.460983 0
M  V30 808 H 84.8546 -1.86477 -0.566778 0
M  V30 809 H 83.9506 -2.39696 -1.99881 0
M  V30 810 N 84.2517 0.741722 -1.39055 0
M  V30 811 C 85.4987 1.50114 -1.35912 0
M  V30 812 C 85.8267 1.94443 0.0470937 0
M  V30 813 O 85.0817 1.66612 1.02659 0
M  V30 814 C 85.3807 2.7592 -2.27163 0
M  V30 815 C 85.0467 2.50493 -3.74919 0
M  V30 816 C 83.7087 2.43267 -4.1518 0
M  V30 817 C 86.0607 2.28585 -4.684 0
M  V30 818 C 83.3887 2.12166 -5.46994 0
M  V30 819 C 85.7407 1.99002 -6.00484 0
M  V30 820 C 84.4047 1.90241 -6.39816 0
M  V30 821 H 83.6747 0.549306 -0.497336 0
M  V30 822 H 86.3217 0.851896 -1.71508 0
M  V30 823 H 84.6267 3.45553 -1.84663 0
M  V30 824 H 86.3237 3.33923 -2.22028 0
M  V30 825 H 82.9137 2.56992 -3.43006 0
M  V30 826 H 87.0977 2.33139 -4.38132 0
M  V30 827 H 82.3537 2.03901 -5.76398 0
M  V30 828 H 86.5277 1.81057 -6.72452 0
M  V30 829 H 84.1547 1.65907 -7.41875 0
M  V30 830 N 85.7298 1.2412 0.971189 0
M  V30 831 C 86.6928 1.03156 2.04674 0
M  V30 832 C 87.6928 -0.00990322 1.60797 0
M  V30 833 O 88.8828 0.230729 1.72665 0
M  V30 834 C 86.0148 0.562765 3.36223 0
M  V30 835 H 87.2078 1.98614 2.24705 0
M  V30 836 H 84.7608 1.06293 1.14593 0
M  V30 837 H 85.4958 -0.395176 3.21883 0
M  V30 838 H 85.2808 1.31441 3.69413 0
M  V30 839 H 86.7708 0.437015 4.15307 0
M  V30 840 N 87.2079 -1.17134 1.05439 0
M  V30 841 C 88.4359 -1.91372 0.786414 0
M  V30 842 C 88.8509 -1.76955 -0.658202 0
M  V30 843 O 88.2079 -1.10838 -1.44987 0
M  V30 844 C 88.2589 -3.42356 1.1608 0
M  V30 845 O 87.9799 -3.56332 2.54871 0
M  V30 846 C 89.4809 -4.33663 0.919322 0
M  V30 847 H 86.7009 -0.607118 0.285743 0
M  V30 848 H 89.2449 -1.48525 1.40572 0
M  V30 849 H 87.3999 -3.82939 0.586191 0
M  V30 850 H 87.8139 -4.49896 2.69618 0
M  V30 851 H 89.2879 -5.38099 1.231 0
M  V30 852 H 89.7649 -4.38959 -0.145359 0
M  V30 853 H 90.3709 -3.98796 1.47789 0
M  V30 854 N 88.686 -0.835752 -1.33615 0
M  V30 855 C 89.911 -0.442389 -2.02627 0
M  V30 856 C 90.336 0.947735 -1.62479 0
M  V30 857 O 89.694 1.61907 -0.815826 0
M  V30 858 C 89.742 -0.567216 -3.56111 0
M  V30 859 O 88.846 0.407799 -4.10379 0
M  V30 860 H 88.187 -0.180278 -0.639059 0
M  V30 861 H 90.717 -1.12972 -1.70583 0
M  V30 862 H 90.727 -0.447708 -4.05536 0
M  V30 863 H 89.402 -1.58103 -3.84677 0
M  V30 864 H 87.979 0.246107 -3.72087 0
M  V30 865 N 90.1641 1.46063 -0.591896 0
M  V30 866 C 91.4411 1.95595 -0.0137119 0
M  V30 867 C 91.8211 1.5345 1.4497 0
M  V30 868 O 91.1691 0.789543 2.14426 0
M  V30 869 C 91.3791 3.48453 -0.195373 0
M  V30 870 C 92.7271 4.24546 -0.0679765 0
M  V30 871 O 93.7511 3.55982 -0.124681 0
M  V30 872 O 92.6101 5.46467 0.0600579 0
M  V30 873 H 89.7041 0.825795 0.0446279 0
M  V30 874 H 92.2501 1.56303 -0.660859 0
M  V30 875 H 91.0221 3.72045 -1.21235 0
M  V30 876 H 90.6451 3.94597 0.487775 0
M  V30 877 N 91.6422 0.330177 1.54103 0
M  V30 878 C 92.6052 -0.520144 2.2322 0
M  V30 879 C 93.6052 -1.03828 1.22786 0
M  V30 880 O 94.7952 -0.929652 1.4732 0
M  V30 881 C 91.9272 -1.72317 2.94142 0
M  V30 882 H 93.1202 0.0841605 2.99782 0
M  V30 883 H 90.6732 0.0813433 1.56088 0
M  V30 884 H 91.4082 -2.36653 2.21734 0
M  V30 885 H 91.1932 -1.35898 3.67796 0
M  V30 886 H 92.6832 -2.3266 3.46784 0
M  V30 887 N 93.1203 -1.57491 0.0584922 0
M  V30 888 C 94.0503 -2.14988 -0.911178 0
M  V30 889 C 95.0313 -1.07343 -1.31952 0
M  V30 890 O 96.2163 -1.35318 -1.39294 0
M  V30 891 C 93.3463 -2.70078 -2.18347 0
M  V30 892 C 92.3003 -3.82771 -1.91495 0
M  V30 893 C 91.6263 -4.24408 -3.25241 0
M  V30 894 C 92.9263 -5.07592 -1.23075 0
M  V30 895 H 94.6203 -2.96263 -0.432246 0
M  V30 896 H 92.1663 -1.42512 -0.206469 0
M  V30 897 H 94.1193 -3.08943 -2.86587 0
M  V30 898 H 92.8433 -1.86005 -2.68458 0
M  V30 899 H 91.5023 -3.44389 -1.25664 0
M  V30 900 H 91.1503 -3.37275 -3.73168 0
M  V30 901 H 90.8503 -5.00366 -3.08071 0
M  V30 902 H 92.3743 -4.65879 -3.94701 0
M  V30 903 H 93.7883 -5.43857 -1.81362 0
M  V30 904 H 92.1853 -5.88741 -1.16207 0
M  V30 905 H 93.2553 -4.84454 -0.207847 0
M  V30 906 N 94.5984 0.214957 -1.56127 0
M  V30 907 C 95.8754 0.963093 -1.70247 0
M  V30 908 C 96.2554 2.02166 -0.60764 0
M  V30 909 O 95.6034 2.25244 0.384385 0
M  V30 910 C 95.8134 1.56756 -3.11815 0
M  V30 911 C 97.1614 2.0573 -3.7143 0
M  V30 912 O 98.1854 1.66637 -3.14818 0
M  V30 913 O 97.0444 2.77603 -4.70743 0
M  V30 914 H 94.1384 0.450321 -0.693643 0
M  V30 915 H 96.6844 0.206219 -1.68442 0
M  V30 916 H 95.4564 0.803533 -3.82961 0
M  V30 917 H 95.0794 2.3898 -3.17765 0
M  V30 918 N 96.0765 1.50051 0.48192 0
M  V30 919 C 97.3535 1.51009 1.2432 0
M  V30 920 C 97.7335 0.248587 2.09631 0
M  V30 921 O 97.0815 -0.768409 2.15192 0
M  V30 922 C 97.2915 2.79981 2.08355 0
M  V30 923 C 98.6395 3.3022 2.66908 0
M  V30 924 O 99.6635 2.81228 2.18607 0
M  V30 925 O 98.5225 4.15595 3.54884 0
M  V30 926 H 95.6165 0.605239 0.563573 0
M  V30 927 H 98.1625 1.62332 0.494627 0
M  V30 928 H 96.9345 3.63275 1.45419 0
M  V30 929 H 96.5575 2.7161 2.90368 0
M  V30 930 N 97.5546 -0.734337 1.39446 0
M  V30 931 C 98.8026 -1.49096 1.36436 0
M  V30 932 C 99.1236 -1.94961 -0.0388255 0
M  V30 933 O 98.3936 -1.69033 -0.990191 0
M  V30 934 H 96.9736 -0.5531 0.502085 0
M  V30 935 H 99.6356 -0.871725 1.74319 0
M  V30 936 H 98.7316 -2.37276 2.02747 0
M  V30 937 N 99.0327 -1.24633 -0.964593 0
M  V30 938 C 100.263 -1.11339 -1.74032 0
M  V30 939 C 100.671 0.336593 -1.86182 0
M  V30 940 O 100.014 1.24389 -1.35178 0
M  V30 941 C 100.076 -1.68284 -3.1768 0
M  V30 942 C 99.7397 -3.17196 -3.28992 0
M  V30 943 C 100.737 -4.14308 -3.14078 0
M  V30 944 C 98.4217 -3.57215 -3.53133 0
M  V30 945 C 100.416 -5.4942 -3.23135 0
M  V30 946 C 98.1027 -4.92468 -3.61827 0
M  V30 947 C 99.1007 -5.8838 -3.46841 0
M  V30 948 O 98.7887 -7.21173 -3.55197 0
M  V30 949 H 98.5207 -0.389551 -0.552472 0
M  V30 950 H 101.075 -1.65282 -1.21946 0
M  V30 951 H 99.3047 -1.08777 -3.71085 0
M  V30 952 H 100.994 -1.50234 -3.77074 0
M  V30 953 H 101.76 -3.84731 -2.95308 0
M  V30 954 H 97.6387 -2.83063 -3.63863 0
M  V30 955 H 101.183 -6.24263 -3.11355 0
M  V30 956 H 97.0797 -5.21714 -3.80111 0
M  V30 957 H 97.8477 -7.29135 -3.71892 0
M  V30 958 N 100.511 1.16574 -1.06058 0
M  V30 959 C 101.788 1.83048 -0.689416 0
M  V30 960 C 102.168 1.94122 0.829443 0
M  V30 961 O 101.516 1.48249 1.7388 0
M  V30 962 C 101.726 3.20186 -1.38859 0
M  V30 963 C 103.074 3.95989 -1.53226 0
M  V30 964 O 104.098 3.29696 -1.3483 0
M  V30 965 O 102.957 5.14813 -1.83384 0
M  V30 966 H 100.051 0.790258 -0.243764 0
M  V30 967 H 102.597 1.23797 -1.16071 0
M  V30 968 H 101.369 3.07146 -2.4244 0
M  V30 969 H 100.992 3.87112 -0.907216 0
M  V30 970 N 101.989 0.842826 1.3317 0
M  V30 971 C 102.919 0.294028 2.31641 0
M  V30 972 C 103.9 -0.600401 1.59151 0
M  V30 973 O 105.085 -0.523124 1.87022 0
M  V30 974 C 102.215 -0.528416 3.43257 0
M  V30 975 C 101.169 0.27056 4.27144 0
M  V30 976 C 100.495 -0.675881 5.30411 0
M  V30 977 C 101.795 1.48981 5.00602 0
M  V30 978 H 103.489 1.11681 2.77791 0
M  V30 979 H 101.035 0.538478 1.33553 0
M  V30 980 H 102.988 -0.922674 4.11175 0
M  V30 981 H 101.712 -1.38445 2.95805 0
M  V30 982 H 100.371 0.646427 3.60856 0
M  V30 983 H 100.019 -1.52842 4.79216 0
M  V30 984 H 99.7189 -0.145374 5.8742 0
M  V30 985 H 101.243 -1.06757 6.01195 0
M  V30 986 H 102.657 1.16849 5.61266 0
M  V30 987 H 101.054 1.95739 5.6728 0
M  V30 988 H 102.124 2.25746 4.29147 0
M  V30 989 N 103.467 -1.45747 0.599634 0
M  V30 990 C 104.715 -2.01893 0.0915472 0
M  V30 991 C 105.036 -1.47155 -1.27946 0
M  V30 992 O 104.306 -0.66273 -1.84349 0
M  V30 993 H 102.886 -0.746363 0.0308524 0
M  V30 994 H 105.548 -1.78645 0.779237 0
M  V30 995 H 104.644 -3.1208 0.0353086 0
M  V30 996 N 104.945 -0.338344 -1.53925 0
M  V30 997 C 106.193 0.259245 -2.0043 0
M  V30 998 C 106.514 1.51484 -1.22791 0
M  V30 999 O 105.784 1.93037 -0.33368 0
M  V30 1000 H 104.364 0.0987845 -0.740439 0
M  V30 1001 H 107.026 -0.458302 -1.89435 0
M  V30 1002 H 106.122 0.505334 -3.07982 0
M  V30 1003 N 106.423 1.57458 -0.0668435 0
M  V30 1004 C 107.671 1.92919 0.602214 0
M  V30 1005 C 107.992 0.947215 1.70449 0
M  V30 1006 O 107.262 -0.00544117 1.95899 0
M  V30 1007 H 105.842 0.71217 0.22544 0
M  V30 1008 H 108.504 1.94508 -0.123535 0
M  V30 1009 H 107.6 2.94589 1.03073 0
M  V30 1010 N 107.901 -0.206675 1.56239 0
M  V30 1011 C 109.129 -0.945345 1.8404 0
M  V30 1012 C 109.544 -1.77336 0.647885 0
M  V30 1013 O 108.901 -1.78425 -0.383511 0
M  V30 1014 C 108.952 -1.8509 3.10522 0
M  V30 1015 O 108.673 -1.05634 4.25174 0
M  V30 1016 C 110.174 -2.70222 3.51418 0
M  V30 1017 H 107.394 -0.276372 0.61144 0
M  V30 1018 H 109.938 -0.217417 2.03341 0
M  V30 1019 H 108.093 -2.53259 2.93153 0
M  V30 1020 H 108.507 -1.67238 4.97124 0
M  V30 1021 H 109.981 -3.29438 4.42916 0
M  V30 1022 H 110.458 -3.43358 2.73864 0
M  V30 1023 H 111.064 -2.07443 3.71278 0
M  V30 1024 N 109.379 -1.50304 -0.473955 0
M  V30 1025 C 110.607 -1.64902 -1.24959 0
M  V30 1026 C 111.022 -0.331198 -1.85872 0
M  V30 1027 O 110.379 0.68652 -1.69095 0
M  V30 1028 C 110.43 -2.73803 -2.36038 0
M  V30 1029 O 110.151 -4.00477 -1.77624 0
M  V30 1030 C 111.652 -2.99349 -3.26964 0
M  V30 1031 H 108.872 -0.554383 -0.378022 0
M  V30 1032 H 111.416 -1.9651 -0.566054 0
M  V30 1033 H 109.571 -2.44898 -3.00173 0
M  V30 1034 H 109.985 -4.60678 -2.5075 0
M  V30 1035 H 111.459 -3.79217 -4.01121 0
M  V30 1036 H 111.936 -2.10307 -3.85574 0
M  V30 1037 H 112.542 -3.29774 -2.68569 0
M  V30 1038 N 110.857 0.726932 -1.39834 0
M  V30 1039 C 112.103 1.48771 -1.38704 0
M  V30 1040 C 112.458 1.92394 0.0146387 0
M  V30 1041 O 111.751 1.64474 0.982797 0
M  V30 1042 C 111.945 2.73495 -2.30077 0
M  V30 1043 C 111.774 2.42068 -3.78989 0
M  V30 1044 C 110.544 2.33966 -4.4787 0
M  V30 1045 C 112.742 2.0708 -4.70768 0
M  V30 1046 N 110.724 1.95095 -5.82075 0
M  V30 1047 C 112.095 1.78719 -5.93683 0
M  V30 1048 C 114.15 1.93618 -4.58712 0
M  V30 1049 C 112.853 1.3825 -7.05889 0
M  V30 1050 C 114.879 1.54553 -5.70848 0
M  V30 1051 C 114.241 1.27082 -6.92842 0
M  V30 1052 H 110.34 0.542919 -0.562817 0
M  V30 1053 H 112.924 0.84408 -1.75452 0
M  V30 1054 H 111.095 3.35625 -1.95474 0
M  V30 1055 H 112.827 3.39755 -2.19883 0
M  V30 1056 H 109.582 2.51331 -4.0141 0
M  V30 1057 H 110.006 1.7823 -6.53118 0
M  V30 1058 H 114.648 2.13522 -3.64922 0
M  V30 1059 H 112.366 1.17088 -7.99572 0
M  V30 1060 H 115.952 1.44731 -5.6351 0
M  V30 1061 H 114.832 0.973069 -7.78139 0
M  V30 1062 N 112.336 1.25143 0.95797 0
M  V30 1063 C 113.584 1.09476 1.69881 0
M  V30 1064 C 113.905 -0.365502 1.91544 0
M  V30 1065 O 113.175 -1.25985 1.50015 0
M  V30 1066 H 111.755 0.402128 0.629525 0
M  V30 1067 H 114.417 1.57214 1.15194 0
M  V30 1068 H 113.513 1.60046 2.6794 0
M  V30 1069 N 113.814 -1.1601 1.06675 0
M  V30 1070 C 115.091 -1.82679 0.699114 0
M  V30 1071 C 115.471 -1.94559 -0.819137 0
M  V30 1072 O 114.819 -1.49169 -1.73092 0
M  V30 1073 C 115.029 -3.19445 1.40555 0
M  V30 1074 C 116.377 -3.95171 1.55323 0
M  V30 1075 O 117.401 -3.28976 1.36577 0
M  V30 1076 O 116.26 -5.13833 1.86112 0
M  V30 1077 H 113.354 -0.788954 0.247951 0
M  V30 1078 H 115.9 -1.23179 1.16726 0
M  V30 1079 H 114.672 -3.05856 2.44065 0
M  V30 1080 H 114.295 -3.86625 0.927733 0
M  V30 1081 N 115.292 -0.849877 -1.32721 0
M  V30 1082 C 116.538 -0.451591 -1.97708 0
M  V30 1083 C 116.871 0.989175 -1.6712 0
M  V30 1084 O 116.146 1.69334 -0.956891 0
M  V30 1085 C 116.429 -0.685598 -3.53513 0
M  V30 1086 C 116.282 -2.17444 -3.93749 0
M  V30 1087 C 117.601 -0.138874 -4.39881 0
M  V30 1088 H 114.72 -0.16555 -0.718166 0
M  V30 1089 H 117.362 -1.06742 -1.57182 0
M  V30 1090 H 115.512 -0.161416 -3.88165 0
M  V30 1091 H 117.184 -2.76433 -3.693 0
M  V30 1092 H 115.427 -2.65476 -3.43081 0
M  V30 1093 H 116.098 -2.28888 -5.02309 0
M  V30 1094 H 118.574 -0.587068 -4.11938 0
M  V30 1095 H 117.45 -0.332213 -5.47894 0
M  V30 1096 H 117.711 0.95806 -4.31594 0
M  V30 1097 N 116.77 1.45427 -0.607355 0
M  V30 1098 C 117.717 2.3053 0.111625 0
M  V30 1099 C 118.687 1.4209 0.860216 0
M  V30 1100 O 119.872 1.71019 0.845998 0
M  V30 1101 C 117.012 3.26992 1.10319 0
M  V30 1102 C 116.125 4.30535 0.355493 0
M  V30 1103 C 115.26 5.14105 1.33676 0
M  V30 1104 C 114.299 6.09376 0.576862 0
M  V30 1105 N 113.436 6.85727 1.5074 0
M  V30 1106 H 118.276 2.91477 -0.620093 0
M  V30 1107 H 115.813 1.43631 -0.317594 0
M  V30 1108 H 117.771 3.81385 1.6912 0
M  V30 1109 H 116.401 2.67799 1.80232 0
M  V30 1110 H 115.453 3.78805 -0.348023 0
M  V30 1111 H 116.765 4.98235 -0.237423 0
M  V30 1112 H 115.919 5.72897 1.99684 0
M  V30 1113 H 114.658 4.46423 1.9636 0
M  V30 1114 H 113.663 5.49715 -0.0968519 0
M  V30 1115 H 114.888 6.79085 -0.0449341 0
M  V30 1116 H 112.834 6.20735 2.12189 0
M  V30 1117 H 112.751 7.49778 0.967913 0
M  V30 1118 H 114.019 7.4906 2.15706 0
M  V30 1119 N 118.248 0.346503 1.53744 0
M  V30 1120 C 119.158 -0.517293 2.28826 0
M  V30 1121 C 120.174 -1.10935 1.3405 0
M  V30 1122 O 121.35 -1.1244 1.6709 0
M  V30 1123 C 118.415 -1.65098 3.04866 0
M  V30 1124 C 117.476 -1.0884 4.15274 0
M  V30 1125 C 116.709 -2.16806 4.87679 0
M  V30 1126 O 116.932 -3.3758 4.59778 0
M  V30 1127 O 115.866 -1.80934 5.74061 0
M  V30 1128 H 119.692 0.0931396 3.03557 0
M  V30 1129 H 117.277 0.111458 1.48984 0
M  V30 1130 H 119.159 -2.31053 3.5241 0
M  V30 1131 H 117.834 -2.24717 2.32989 0
M  V30 1132 H 116.741 -0.3933 3.72027 0
M  V30 1133 H 118.074 -0.537036 4.89261 0
M  V30 1134 N 119.726 -1.57421 0.075193 0
M  V30 1135 C 120.689 -2.11791 -0.876203 0
M  V30 1136 C 121.689 -1.04268 -1.22412 0
M  V30 1137 O 122.879 -1.30242 -1.15684 0
M  V30 1138 C 120.011 -2.62207 -2.17854 0
M  V30 1139 H 121.204 -2.9716 -0.40444 0
M  V30 1140 H 118.757 -1.55333 -0.173557 0
M  V30 1141 H 119.492 -1.803 -2.6956 0
M  V30 1142 H 119.277 -3.40802 -1.93897 0
M  V30 1143 H 120.767 -3.04335 -2.85955 0
M  V30 1144 N 121.204 0.198386 -1.56346 0
M  V30 1145 C 122.452 0.91747 -1.80075 0
M  V30 1146 C 122.773 1.83929 -0.647692 0
M  V30 1147 O 122.043 1.93029 0.334166 0
M  V30 1148 H 120.623 0.341774 -0.664228 0
M  V30 1149 H 123.285 0.204684 -1.93822 0
M  V30 1150 H 122.381 1.51055 -2.7311 0
M  V30 1151 N 122.682 1.50554 0.465978 0
M  V30 1152 C 123.629 1.6979 1.56333 0
M  V30 1153 C 124.599 0.539239 1.57103 0
M  V30 1154 O 125.784 0.770401 1.74555 0
M  V30 1155 C 122.924 1.80273 2.94271 0
M  V30 1156 C 122.037 3.07674 3.0325 0
M  V30 1157 C 121.172 3.08922 4.32135 0
M  V30 1158 C 120.211 4.30755 4.34875 0
M  V30 1159 N 119.348 4.29714 5.55239 0
M  V30 1160 H 124.188 2.63472 1.39235 0
M  V30 1161 H 121.725 1.30602 0.676873 0
M  V30 1162 H 123.683 1.84332 3.74269 0
M  V30 1163 H 122.313 0.900258 3.09992 0
M  V30 1164 H 121.365 3.13062 2.16094 0
M  V30 1165 H 122.677 3.97642 3.01135 0
M  V30 1166 H 121.831 3.11738 5.20485 0
M  V30 1167 H 120.57 2.16792 4.36866 0
M  V30 1168 H 119.575 4.28146 3.44922 0
M  V30 1169 H 120.8 5.24117 4.31831 0
M  V30 1170 H 118.746 3.4044 5.60746 0
M  V30 1171 H 118.663 5.13456 5.54886 0
M  V30 1172 H 119.931 4.36683 6.457 0
M  V30 1173 N 124.16 -0.719506 1.40217 0
M  V30 1174 C 125.407 -1.47933 1.38283 0
M  V30 1175 C 125.735 -1.94493 -0.0161536 0
M  V30 1176 O 124.99 -1.68224 -0.999956 0
M  V30 1177 C 125.289 -2.72271 2.31524 0
M  V30 1178 C 124.955 -2.44496 3.78857 0
M  V30 1179 C 123.617 -2.36631 4.18998 0
M  V30 1180 C 125.969 -2.21104 4.71977 0
M  V30 1181 C 123.297 -2.03437 5.503 0
M  V30 1182 C 125.649 -1.89423 6.03574 0
M  V30 1183 C 124.313 -1.80038 6.42762 0
M  V30 1184 H 123.583 -0.541325 0.506012 0
M  V30 1185 H 126.23 -0.824502 1.72842 0
M  V30 1186 H 124.535 -3.42572 1.90137 0
M  V30 1187 H 126.232 -3.30348 2.27313 0
M  V30 1188 H 122.822 -2.51503 3.47051 0
M  V30 1189 H 127.006 -2.26139 4.41786 0
M  V30 1190 H 122.262 -1.94705 5.79569 0
M  V30 1191 H 126.436 -1.70336 6.75247 0
M  V30 1192 H 124.063 -1.54083 7.44421 0
M  V30 1193 N 125.638 -1.25649 -0.95132 0
M  V30 1194 C 126.863 -1.13443 -1.73624 0
M  V30 1195 C 127.288 0.307565 -1.85568 0
M  V30 1196 O 126.646 1.22282 -1.33854 0
M  V30 1197 C 126.694 -1.79723 -3.12621 0
M  V30 1198 O 125.798 -1.07912 -3.98031 0
M  V30 1199 H 125.139 -0.395872 -0.533086 0
M  V30 1200 H 127.669 -1.66276 -1.1922 0
M  V30 1201 H 127.679 -1.86141 -3.63064 0
M  V30 1202 H 126.354 -2.84633 -3.03244 0
M  V30 1203 H 124.931 -1.09398 -3.56492 0
M  V30 1204 N 127.117 1.15442 -1.07289 0
M  V30 1205 C 128.027 2.23786 -0.704057 0
M  V30 1206 C 129.043 1.7166 0.284413 0
M  V30 1207 O 130.219 2.00972 0.131205 0
M  V30 1208 C 127.284 3.46535 -0.106792 0
M  V30 1209 C 126.345 4.13654 -1.14842 0
M  V30 1210 C 125.578 5.30544 -0.57956 0
M  V30 1211 O 125.801 5.67187 0.604585 0
M  V30 1212 O 124.735 5.87154 -1.32414 0
M  V30 1213 H 128.561 2.57664 -1.60757 0
M  V30 1214 H 126.146 1.23152 -0.845803 0
M  V30 1215 H 128.028 4.20804 0.224048 0
M  V30 1216 H 126.703 3.14407 0.770049 0
M  V30 1217 H 125.61 3.4131 -1.5316 0
M  V30 1218 H 126.943 4.49861 -1.99714 0
M  V30 1219 N 128.595 0.856903 1.32268 0
M  V30 1220 C 129.841 0.471355 1.97863 0
M  V30 1221 C 130.196 -0.962896 1.66572 0
M  V30 1222 O 129.489 -1.66686 0.944797 0
M  V30 1223 C 129.683 0.649919 3.51441 0
M  V30 1224 C 129.512 2.09997 3.97657 0
M  V30 1225 C 128.282 2.73893 4.2463 0
M  V30 1226 C 130.48 3.07081 4.1256 0
M  V30 1227 N 128.462 4.09786 4.57109 0
M  V30 1228 C 129.833 4.27968 4.48602 0
M  V30 1229 C 131.888 3.03247 3.949 0
M  V30 1230 C 130.591 5.45521 4.68827 0
M  V30 1231 C 132.617 4.20046 4.16311 0
M  V30 1232 C 131.979 5.39692 4.52672 0
M  V30 1233 H 128.078 0.221263 0.750044 0
M  V30 1234 H 130.662 1.10876 1.60045 0
M  V30 1235 H 128.833 0.0421938 3.88377 0
M  V30 1236 H 130.565 0.234044 4.04023 0
M  V30 1237 H 127.32 2.24918 4.16784 0
M  V30 1238 H 127.744 4.7989 4.7753 0
M  V30 1239 H 132.386 2.11863 3.65888 0
M  V30 1240 H 130.104 6.37434 4.96693 0
M  V30 1241 H 133.69 4.18517 4.04147 0
M  V30 1242 H 132.57 6.28566 4.68907 0
M  V30 1243 N 130.073 -1.45103 0.615059 0
M  V30 1244 C 131.321 -2.01784 0.112955 0
M  V30 1245 C 131.642 -1.48504 -1.26378 0
M  V30 1246 O 130.912 -0.682245 -1.83636 0
M  V30 1247 H 129.492 -0.745993 0.0387668 0
M  V30 1248 H 132.154 -1.77808 0.798141 0
M  V30 1249 H 131.25 -3.12025 0.0684069 0
M  V30 1250 N 131.551 -0.354651 -1.53558 0
M  V30 1251 C 132.483 0.5315 -2.22952 0
M  V30 1252 C 133.496 1.05503 -1.23988 0
M  V30 1253 O 134.685 0.963279 -1.50277 0
M  V30 1254 C 131.785 1.74538 -2.90499 0
M  V30 1255 C 130.958 1.35524 -4.15875 0
M  V30 1256 C 130.017 2.42999 -4.66731 0
M  V30 1257 O 129.043 2.05844 -5.30676 0
M  V30 1258 N 130.245 3.74423 -4.43608 0
M  V30 1259 H 133.01 -0.0628615 -2.99634 0
M  V30 1260 H 130.571 -0.179302 -1.60904 0
M  V30 1261 H 132.563 2.45892 -3.21433 0
M  V30 1262 H 131.133 2.24686 -2.17336 0
M  V30 1263 H 130.353 0.471998 -3.91364 0
M  V30 1264 H 131.641 1.07071 -4.97406 0
M  V30 1265 H 131.039 4.07391 -3.92491 0
M  V30 1266 H 129.596 4.41913 -4.7912 0
M  V30 1267 N 133.029 1.57378 -0.0835403 0
M  V30 1268 C 133.977 2.14602 0.89714 0
M  V30 1269 C 134.971 1.08589 1.30018 0
M  V30 1270 O 136.177 1.26952 1.27606 0
M  V30 1271 H 132.552 0.686346 0.3073 0
M  V30 1272 H 134.523 2.95845 0.38969 0
M  V30 1273 C 133.272 2.73188 2.15089 0
M  V30 1274 H 132.595 3.54442 1.84962 0
M  V30 1275 H 134.035 3.1681 2.81793 0
M  V30 1276 C 132.494 1.68517 2.91725 0
M  V30 1277 O 133.024 1.11718 3.85852 0
M  V30 1278 N 131.23 1.39277 2.55049 0
M  V30 1279 H 130.777 1.85655 1.78577 0
M  V30 1280 H 130.735 0.694791 3.06627 0
M  V30 1281 N 134.507 -0.190092 1.56449 0
M  V30 1282 C 135.753 -0.911052 1.81184 0
M  V30 1283 C 136.086 -1.82699 0.658396 0
M  V30 1284 O 135.361 -1.91491 -0.340775 0
M  V30 1285 C 135.644 -1.72297 3.16205 0
M  V30 1286 C 135.497 -0.831419 4.42049 0
M  V30 1287 C 136.816 -2.69454 3.47969 0
M  V30 1288 H 133.935 -0.32977 0.659106 0
M  V30 1289 H 136.577 -0.178169 1.89163 0
M  V30 1290 H 134.727 -2.34778 3.09534 0
M  V30 1291 H 136.399 -0.220929 4.60771 0
M  V30 1292 H 134.642 -0.138406 4.33579 0
M  V30 1293 H 135.313 -1.43461 5.33032 0
M  V30 1294 H 137.789 -2.17104 3.54972 0
M  V30 1295 H 136.665 -3.23342 4.43555 0
M  V30 1296 H 136.926 -3.48744 2.71717 0
M  V30 1297 N 135.985 -1.50799 -0.457987 0
M  V30 1298 C 137.213 -1.66218 -1.23203 0
M  V30 1299 C 137.628 -0.350894 -1.85511 0
M  V30 1300 O 136.985 0.668546 -1.69814 0
M  V30 1301 C 137.036 -2.76291 -2.33121 0
M  V30 1302 O 136.757 -4.02338 -1.73366 0
M  V30 1303 C 138.258 -3.028 -3.2377 0
M  V30 1304 H 135.478 -0.558361 -0.372121 0
M  V30 1305 H 138.022 -1.97099 -0.545179 0
M  V30 1306 H 136.177 -2.48068 -2.97558 0
M  V30 1307 H 136.591 -4.63312 -2.4585 0
M  V30 1308 H 138.065 -3.8345 -3.97077 0
M  V30 1309 H 138.542 -2.14385 -3.83322 0
M  V30 1310 H 139.148 -3.32604 -2.65056 0
M  V30 1311 N 137.463 0.71206 -1.40597 0
M  V30 1312 C 138.393 1.83889 -1.43899 0
M  V30 1313 C 139.374 1.67442 -0.299504 0
M  V30 1314 O 140.559 1.87421 -0.508624 0
M  V30 1315 C 137.689 3.21877 -1.30431 0
M  V30 1316 C 136.643 3.53002 -2.42019 0
M  V30 1317 C 135.969 4.90172 -2.13626 0
M  V30 1318 C 137.269 3.53643 -3.84362 0
M  V30 1319 H 138.963 1.81383 -2.38203 0
M  V30 1320 H 136.509 0.871237 -1.14654 0
M  V30 1321 H 138.462 4.00404 -1.31357 0
M  V30 1322 H 137.186 3.24968 -0.326049 0
M  V30 1323 H 135.845 2.76818 -2.40349 0
M  V30 1324 H 135.493 4.89869 -1.14182 0
M  V30 1325 H 135.193 5.11962 -2.88389 0
M  V30 1326 H 136.717 5.71028 -2.1624 0
M  V30 1327 H 138.131 4.22203 -3.87837 0
M  V30 1328 H 136.528 3.86961 -4.58673 0
M  V30 1329 H 137.598 2.52954 -4.13693 0
M  V30 1330 N 138.941 1.26152 0.944643 0
M  V30 1331 C 140.166 1.14363 1.7302 0
M  V30 1332 C 140.591 -0.29772 1.85729 0
M  V30 1333 O 139.949 -1.2157 1.34501 0
M  V30 1334 C 139.997 1.81378 3.11664 0
M  V30 1335 O 139.101 1.10022 3.97453 0
M  V30 1336 H 138.442 0.398694 0.53098 0
M  V30 1337 H 140.972 1.66906 1.18337 0
M  V30 1338 H 140.982 1.88064 3.62072 0
M  V30 1339 H 139.657 2.86237 3.0173 0
M  V30 1340 H 138.234 1.11287 3.55907 0
M  V30 1341 N 140.419 -1.14872 1.07899 0
M  V30 1342 C 141.349 -2.2193 0.725887 0
M  V30 1343 C 142.33 -1.67622 -0.28927 0
M  V30 1344 O 143.515 -1.93533 -0.160787 0
M  V30 1345 C 140.645 -3.47061 0.128856 0
M  V30 1346 C 139.599 -4.14363 1.07178 0
M  V30 1347 C 138.925 -5.33636 0.337229 0
M  V30 1348 C 140.225 -4.63492 2.40775 0
M  V30 1349 H 141.919 -2.51724 1.62097 0
M  V30 1350 H 139.465 -1.20991 0.780838 0
M  V30 1351 H 141.418 -4.21199 -0.130147 0
M  V30 1352 H 140.142 -3.16617 -0.80134 0
M  V30 1353 H 138.801 -3.42173 1.3158 0
M  V30 1354 H 138.449 -4.99449 -0.596606 0
M  V30 1355 H 138.149 -5.79609 0.965788 0
M  V30 1356 H 139.673 -6.10539 0.0861567 0
M  V30 1357 H 141.087 -5.2913 2.20669 0
M  V30 1358 H 139.484 -5.20148 2.99276 0
M  V30 1359 H 140.554 -3.78834 3.02676 0
M  V30 1360 N 141.898 -0.863906 -1.31812 0
M  V30 1361 C 143.175 -0.39275 -1.91616 0
M  V30 1362 C 143.555 1.12461 -1.7865 0
M  V30 1363 O 142.903 1.95045 -1.19037 0
M  V30 1364 C 143.113 -0.867385 -3.38049 0
M  V30 1365 C 144.461 -0.889966 -4.15168 0
M  V30 1366 O 145.485 -0.812635 -3.46806 0
M  V30 1367 O 144.344 -1.00079 -5.37258 0
M  V30 1368 H 141.438 -0.116358 -0.818773 0
M  V30 1369 H 143.984 -0.951418 -1.40521 0
M  V30 1370 H 142.756 -1.91081 -3.41473 0
M  V30 1371 H 142.379 -0.286687 -3.96565 0
M  V30 1372 N 143.376 1.44774 -0.622745 0
M  V30 1373 C 144.622 2.0242 -0.124083 0
M  V30 1374 C 144.955 1.4881 1.24777 0
M  V30 1375 O 144.23 0.668799 1.8264 0
M  V30 1376 C 144.513 3.59957 -0.101619 0
M  V30 1377 C 144.366 4.23867 -1.50521 0
M  V30 1378 C 145.685 4.36284 0.578272 0
M  V30 1379 H 142.804 0.735528 -0.0465645 0
M  V30 1380 H 145.446 1.72447 -0.797617 0
M  V30 1381 H 143.596 3.85623 0.471934 0
M  V30 1382 H 145.268 4.09336 -2.12701 0
M  V30 1383 H 143.511 3.81684 -2.06154 0
M  V30 1384 H 144.182 5.32843 -1.4416 0
M  V30 1385 H 146.658 4.16001 0.0906057 0
M  V30 1386 H 145.534 5.46004 0.563149 0
M  V30 1387 H 145.795 4.10271 1.64713 0
M  V30 1388 N 144.854 0.36279 1.53368 0
M  V30 1389 C 145.784 -0.476976 2.28576 0
M  V30 1390 C 146.765 -1.08631 1.30894 0
M  V30 1391 O 147.95 -1.10409 1.59761 0
M  V30 1392 C 145.08 -1.61828 3.07293 0
M  V30 1393 C 144.034 -1.13633 4.1264 0
M  V30 1394 C 143.36 -2.36766 4.79423 0
M  V30 1395 C 144.66 -0.223061 5.21823 0
M  V30 1396 H 146.354 0.150474 2.99022 0
M  V30 1397 H 143.9 0.0738103 1.43811 0
M  V30 1398 H 145.853 -2.21237 3.58653 0
M  V30 1399 H 144.577 -2.27292 2.34533 0
M  V30 1400 H 143.236 -0.564945 3.62221 0
M  V30 1401 H 142.884 -3.0068 4.03238 0
M  V30 1402 H 142.584 -2.05192 5.50609 0
M  V30 1403 H 144.108 -2.96865 5.33576 0
M  V30 1404 H 145.522 -0.724545 5.68703 0
M  V30 1405 H 143.919 0.001678 6.001 0
M  V30 1406 H 144.989 0.735553 4.79289 0
M  V30 1407 N 146.332 -1.57332 0.0918853 0
M  V30 1408 C 147.562 -1.98286 -0.580205 0
M  V30 1409 C 147.97 -0.969713 -1.6246 0
M  V30 1410 O 147.313 0.0493501 -1.83634 0
M  V30 1411 C 147.375 -3.35603 -1.28882 0
M  V30 1412 C 147.039 -4.55285 -0.395559 0
M  V30 1413 C 148.036 -5.18687 0.355002 0
M  V30 1414 C 145.721 -5.01314 -0.314556 0
M  V30 1415 C 147.715 -6.26484 1.17458 0
M  V30 1416 C 145.402 -6.08979 0.508677 0
M  V30 1417 C 146.4 -6.71429 1.2519 0
M  V30 1418 O 146.088 -7.77018 2.06151 0
M  V30 1419 H 145.82 -0.656678 -0.160466 0
M  V30 1420 H 148.374 -2.04721 0.16688 0
M  V30 1421 H 146.604 -3.25842 -2.08241 0
M  V30 1422 H 148.293 -3.61026 -1.85512 0
M  V30 1423 H 149.059 -4.84058 0.302134 0
M  V30 1424 H 144.938 -4.5247 -0.882697 0
M  V30 1425 H 148.482 -6.75159 1.75518 0
M  V30 1426 H 144.379 -6.4304 0.563037 0
M  V30 1427 H 145.147 -7.93991 1.98799 0
M  V30 1428 N 147.81 0.181792 -1.56548 0
M  V30 1429 C 148.757 1.22521 -1.95595 0
M  V30 1430 C 149.727 1.4454 -0.818373 0
M  V30 1431 O 150.912 1.57454 -1.07763 0
M  V30 1432 C 148.052 2.56193 -2.31212 0
M  V30 1433 C 147.165 2.41641 -3.58097 0
M  V30 1434 C 146.3 3.68108 -3.82975 0
M  V30 1435 C 145.339 3.48445 -5.03242 0
M  V30 1436 N 144.476 4.66956 -5.24306 0
M  V30 1437 H 149.316 0.885226 -2.84548 0
M  V30 1438 H 146.853 0.425718 -1.40805 0
M  V30 1439 H 148.811 3.34088 -2.49882 0
M  V30 1440 H 147.441 2.88208 -1.45382 0
M  V30 1441 H 146.493 1.54976 -3.474 0
M  V30 1442 H 147.805 2.23052 -4.46149 0
M  V30 1443 H 146.959 4.54441 -4.01956 0
M  V30 1444 H 145.698 3.89666 -2.93278 0
M  V30 1445 H 144.703 2.60499 -4.8417 0
M  V30 1446 H 145.928 3.2832 -5.9446 0
M  V30 1447 H 143.874 4.88752 -4.37559 0
M  V30 1448 H 143.791 4.51242 -6.06561 0
M  V30 1449 H 145.059 5.54602 -5.47756 0
M  V30 1450 N 149.288 1.51039 0.449983 0
M  V30 1451 C 150.699 1.557 1.03026 0
M  V30 1452 C 151.05 0.372939 1.92623 0
M  V30 1453 O 150.175 -0.511771 2.10261 0
M  V30 1454 C 150.77 2.82171 1.87523 0
M  V30 1455 C 149.329 2.89444 2.40622 0
M  V30 1456 C 148.476 2.50228 1.19504 0
M  V30 1457 H 151.427 1.56999 0.231745 0
M  V30 1458 H 151.448 2.65219 2.72835 0
M  V30 1459 H 150.96 3.68331 1.22286 0
M  V30 1460 H 149.061 2.07685 3.0935 0
M  V30 1461 H 149.174 3.92816 2.74285 0
M  V30 1462 H 147.538 2.03139 1.53644 0
M  V30 1463 H 148.321 3.38719 0.558972 0
M  V30 1464 N 150.766 -0.704594 1.40972 0
M  V30 1465 C 151.991 -1.49858 1.43378 0
M  V30 1466 C 152.416 -1.88061 0.038184 0
M  V30 1467 O 151.774 -1.5402 -0.956425 0
M  V30 1468 C 151.822 -2.74333 2.34038 0
M  V30 1469 O 150.926 -3.7147 1.7912 0
M  V30 1470 H 150.267 -0.45139 0.486974 0
M  V30 1471 H 152.797 -0.866832 1.8533 0
M  V30 1472 H 152.807 -3.22741 2.49604 0
M  V30 1473 H 151.482 -2.45863 3.35446 0
M  V30 1474 H 150.059 -3.30363 1.72958 0
M  V30 1475 N 152.244 -1.26651 -0.937939 0
M  V30 1476 C 153.492 -1.12165 -1.68118 0
M  V30 1477 C 153.813 0.334983 -1.92101 0
M  V30 1478 O 153.083 1.23583 -1.52 0
M  V30 1479 H 151.663 -0.412093 -0.623048 0
M  V30 1480 H 154.325 -1.59027 -1.12678 0
M  V30 1481 H 153.421 -1.64289 -2.6536 0
M  V30 1482 N 153.722 1.14298 -1.08507 0
M  V30 1483 C 154.652 2.21542 -0.737646 0
M  V30 1484 C 155.633 1.67773 0.280377 0
M  V30 1485 O 156.818 1.93616 0.150521 0
M  V30 1486 C 153.948 3.46988 -0.147259 0
M  V30 1487 C 152.902 4.13789 -1.09374 0
M  V30 1488 C 152.228 5.33449 -0.365524 0
M  V30 1489 C 153.528 4.62208 -2.4323 0
M  V30 1490 H 155.222 2.5086 -1.6343 0
M  V30 1491 H 152.768 1.20576 -0.787243 0
M  V30 1492 H 154.721 4.21262 0.107808 0
M  V30 1493 H 153.445 3.17037 0.784538 0
M  V30 1494 H 152.104 3.4147 -1.33393 0
M  V30 1495 H 151.752 4.99759 0.57011 0
M  V30 1496 H 151.452 5.79088 -0.996512 0
M  V30 1497 H 152.976 6.10485 -0.118534 0
M  V30 1498 H 154.39 5.27952 -2.23472 0
M  V30 1499 H 152.787 5.18553 -3.02031 0
M  V30 1500 H 153.857 3.77224 -3.04681 0
M  V30 1501 N 155.201 0.870884 1.31352 0
M  V30 1502 C 156.449 0.48132 1.96285 0
M  V30 1503 C 156.77 -0.969813 1.69173 0
M  V30 1504 O 156.04 -1.67998 1.00764 0
M  V30 1505 H 154.62 0.175002 0.726212 0
M  V30 1506 H 157.282 1.11087 1.60143 0
M  V30 1507 H 156.378 0.639825 3.05471 0
M  V30 1508 N 156.679 -1.44442 0.630414 0
M  V30 1509 C 157.609 -2.33418 -0.0618083 0
M  V30 1510 C 158.59 -1.48165 -0.835541 0
M  V30 1511 O 159.775 -1.76886 -0.801564 0
M  V30 1512 C 156.905 -3.31222 -1.04449 0
M  V30 1513 C 155.859 -4.26288 -0.382436 0
M  V30 1514 C 155.185 -5.13954 -1.47497 0
M  V30 1515 C 156.485 -5.1744 0.710865 0
M  V30 1516 H 158.179 -2.91548 0.681184 0
M  V30 1517 H 155.725 -1.40191 0.329026 0
M  V30 1518 H 157.678 -3.92351 -1.53748 0
M  V30 1519 H 156.402 -2.71299 -1.81836 0
M  V30 1520 H 155.061 -3.6649 0.0899054 0
M  V30 1521 H 154.709 -4.50385 -2.2397 0
M  V30 1522 H 154.409 -5.7837 -1.03737 0
M  V30 1523 H 155.933 -5.77955 -1.96979 0
M  V30 1524 H 157.347 -5.72509 0.300996 0
M  V30 1525 H 155.744 -5.90455 1.07156 0
M  V30 1526 H 156.814 -4.58496 1.57829 0
M  V30 1527 N 158.157 -0.370918 -1.53173 0
M  V30 1528 C 159.568 0.107139 -1.86392 0
M  V30 1529 C 159.919 1.47714 -1.29132 0
M  V30 1530 O 159.044 2.07464 -0.615439 0
M  V30 1531 C 159.639 0.201187 -3.38202 0
M  V30 1532 C 158.198 0.623507 -3.712 0
M  V30 1533 C 157.345 -0.225978 -2.76378 0
M  V30 1534 H 160.296 -0.58951 -1.47345 0
M  V30 1535 H 160.317 1.02377 -3.66468 0
M  V30 1536 H 159.829 -0.796058 -3.79848 0
M  V30 1537 H 157.93 1.62879 -3.35114 0
M  V30 1538 H 158.043 0.394414 -4.77474 0
M  V30 1539 H 156.407 0.305962 -2.52856 0
M  V30 1540 H 157.19 -1.22086 -3.20858 0
M  V30 1541 N 159.635 1.57281 -0.100228 0
M  V30 1542 C 160.881 1.94826 0.563101 0
M  V30 1543 C 161.214 0.982475 1.67514 0
M  V30 1544 O 160.489 0.0164069 1.94493 0
M  V30 1545 C 160.772 3.42453 1.11346 0
M  V30 1546 C 160.625 4.498 0.00612081 0
M  V30 1547 C 161.944 3.91506 2.01024 0
M  V30 1548 H 159.063 0.708428 0.203221 0
M  V30 1549 H 161.705 1.8922 -0.171979 0
M  V30 1550 H 159.855 3.47361 1.7399 0
M  V30 1551 H 161.527 4.57 -0.628357 0
M  V30 1552 H 159.77 4.28756 -0.659581 0
M  V30 1553 H 160.441 5.50306 0.432109 0
M  V30 1554 H 162.917 3.88784 1.48278 0
M  V30 1555 H 161.793 4.95358 2.36457 0
M  V30 1556 H 162.054 3.31099 2.92961 0
M  V30 1557 N 161.113 -0.173488 1.56642 0
M  V30 1558 C 162.023 -1.23482 1.99473 0
M  V30 1559 C 163.039 -1.48567 0.905752 0
M  V30 1560 O 164.215 -1.60758 1.21321 0
M  V30 1561 C 161.28 -2.55444 2.34413 0
M  V30 1562 C 160.341 -2.38241 3.57127 0
M  V30 1563 C 159.574 -3.63909 3.90392 0
M  V30 1564 O 159.797 -4.68996 3.24653 0
M  V30 1565 O 158.731 -3.58149 4.83749 0
M  V30 1566 H 162.557 -0.901279 2.90018 0
M  V30 1567 H 160.142 -0.380185 1.44482 0
M  V30 1568 H 162.024 -3.33292 2.57865 0
M  V30 1569 H 160.699 -2.88382 1.4703 0
M  V30 1570 H 159.606 -1.58431 3.38896 0
M  V30 1571 H 160.939 -2.10228 4.45045 0
M  V30 1572 N 162.591 -1.51276 -0.441967 0
M  V30 1573 C 163.837 -1.63958 -1.19355 0
M  V30 1574 C 164.17 -0.352543 -1.90973 0
M  V30 1575 O 163.445 0.647627 -1.83401 0
M  V30 1576 C 163.728 -2.83979 -2.21422 0
M  V30 1577 C 163.581 -4.22646 -1.53918 0
M  V30 1578 C 164.9 -2.99521 -3.22451 0
M  V30 1579 H 162.019 -0.596709 -0.432559 0
M  V30 1580 H 164.661 -1.83748 -0.483398 0
M  V30 1581 H 162.811 -2.67237 -2.81987 0
M  V30 1582 H 164.483 -4.51045 -0.967256 0
M  V30 1583 H 162.726 -4.25558 -0.841615 0
M  V30 1584 H 163.397 -5.02609 -2.28229 0
M  V30 1585 H 165.873 -3.14944 -2.71937 0
M  V30 1586 H 164.749 -3.85072 -3.91166 0
M  V30 1587 H 165.01 -2.11391 -3.88287 0
M  V30 1588 N 164.069 0.697108 -1.41344 0
M  V30 1589 C 165.032 1.79281 -1.42797 0
M  V30 1590 C 166.032 1.57607 -0.318837 0
M  V30 1591 O 167.222 1.64309 -0.578642 0
M  V30 1592 C 164.354 3.17632 -1.23785 0
M  V30 1593 H 165.547 1.79385 -2.40335 0
M  V30 1594 H 163.1 0.904582 -1.27464 0
M  V30 1595 H 163.835 3.23167 -0.270814 0
M  V30 1596 H 163.62 3.34765 -2.04144 0
M  V30 1597 H 165.11 3.97617 -1.27633 0
M  V30 1598 N 165.547 1.27147 0.931209 0
M  V30 1599 C 166.958 1.12044 1.49342 0
M  V30 1600 C 167.309 -0.295795 1.93957 0
M  V30 1601 O 166.434 -1.18835 1.80852 0
M  V30 1602 C 167.029 2.02781 2.71414 0
M  V30 1603 C 165.588 1.91794 3.2387 0
M  V30 1604 C 164.735 1.95543 1.96617 0
M  V30 1605 H 167.686 1.40091 0.745672 0
M  V30 1606 H 167.707 1.58156 3.46074 0
M  V30 1607 H 167.219 3.05848 2.38911 0
M  V30 1608 H 165.32 0.916992 3.6114 0
M  V30 1609 H 165.433 2.77852 3.90302 0
M  V30 1610 H 163.797 1.39722 2.12955 0
M  V30 1611 H 164.58 3.00259 1.66432 0
M  V30 1612 N 167.025 -1.13721 1.09112 0
M  V30 1613 C 168.255 -1.88499 0.845671 0
M  V30 1614 C 168.663 -1.79218 -0.606432 0
M  V30 1615 O 168.006 -1.1544 -1.42896 0
M  V30 1616 C 168.068 -3.38954 1.19793 0
M  V30 1617 C 167.732 -3.72018 2.65428 0
M  V30 1618 C 168.729 -3.7153 3.63677 0
M  V30 1619 C 166.414 -4.01775 3.01467 0
M  V30 1620 C 168.408 -4.00336 4.95994 0
M  V30 1621 C 166.095 -4.30243 4.33975 0
M  V30 1622 C 167.093 -4.29508 5.31048 0
M  V30 1623 O 166.781 -4.5728 6.61173 0
M  V30 1624 H 166.513 -0.603702 0.304171 0
M  V30 1625 H 169.067 -1.44903 1.45576 0
M  V30 1626 H 167.297 -3.83039 0.530871 0
M  V30 1627 H 168.986 -3.95052 0.932146 0
M  V30 1628 H 169.752 -3.4862 3.37179 0
M  V30 1629 H 165.631 -4.01496 2.26544 0
M  V30 1630 H 169.175 -3.99678 5.71755 0
M  V30 1631 H 165.072 -4.52625 4.60219 0
M  V30 1632 H 165.84 -4.74964 6.66597 0
M  V30 1633 N 168.503 -0.877838 -1.30888 0
M  V30 1634 C 169.75 -0.492696 -1.96415 0
M  V30 1635 C 170.078 0.956671 -1.69346 0
M  V30 1636 O 169.333 1.68993 -0.986913 0
M  V30 1637 C 169.632 -0.705748 -3.50363 0
M  V30 1638 C 169.298 -2.1291 -3.97467 0
M  V30 1639 C 167.96 -2.51834 -4.1004 0
M  V30 1640 C 170.312 -3.05702 -4.22132 0
M  V30 1641 C 167.64 -3.82775 -4.44635 0
M  V30 1642 C 169.992 -4.36166 -4.58194 0
M  V30 1643 C 168.656 -4.74993 -4.68975 0
M  V30 1644 H 167.926 -0.18029 -0.718733 0
M  V30 1645 H 170.573 -1.11233 -1.55883 0
M  V30 1646 H 168.878 -0.00303058 -3.918 0
M  V30 1647 H 170.575 -0.387456 -3.99124 0
M  V30 1648 H 167.165 -1.81694 -3.88182 0
M  V30 1649 H 171.349 -2.76853 -4.11906 0
M  V30 1650 H 166.605 -4.12609 -4.51181 0
M  V30 1651 H 170.779 -5.08111 -4.76231 0
M  V30 1652 H 168.406 -5.76495 -4.95537 0
M  V30 1653 N 169.982 1.44106 -0.638065 0
M  V30 1654 C 171.23 2.01579 -0.145043 0
M  V30 1655 C 171.551 1.50496 1.24 0
M  V30 1656 O 170.821 0.711374 1.82527 0
M  V30 1657 H 169.401 0.745282 -0.05063 0
M  V30 1658 H 172.063 1.76516 -0.826327 0
M  V30 1659 H 171.159 3.11877 -0.118039 0
M  V30 1660 N 171.46 0.379036 1.52974 0
M  V30 1661 C 172.706 -0.206727 2.01744 0
M  V30 1662 C 173.039 -1.47314 1.26539 0
M  V30 1663 O 172.314 -1.91084 0.362903 0
M  V30 1664 C 172.597 -0.485066 3.56818 0
M  V30 1665 C 172.45 0.795919 4.42702 0
M  V30 1666 C 173.769 -1.28003 4.21074 0
M  V30 1667 H 170.888 -0.0736607 0.73331 0
M  V30 1668 H 173.53 0.506581 1.83122 0
M  V30 1669 H 171.68 -1.09272 3.72816 0
M  V30 1670 H 173.352 1.43307 4.38476 0
M  V30 1671 H 171.595 1.41344 4.10127 0
M  V30 1672 H 172.266 0.555947 5.49193 0
M  V30 1673 H 174.742 -0.765867 4.08991 0
M  V30 1674 H 173.618 -1.44352 5.29579 0
M  V30 1675 H 173.879 -2.29236 3.78026 0
M  V30 1676 N 172.938 -1.57226 0.108567 0
M  V30 1677 C 174.354 -1.5766 -0.248058 0
M  V30 1678 C 174.554 -1.12063 -1.67464 0
M  V30 1679 O 173.61 -0.803236 -2.39383 0
M  V30 1680 C 174.923 -3.0069 -0.0242287 0
M  V30 1681 C 176.471 -3.12868 -0.0909372 0
M  V30 1682 C 176.946 -4.57879 0.105067 0
M  V30 1683 N 178.437 -4.63172 0.0506846 0
M  V30 1684 C 179.172 -5.73126 0.177396 0
M  V30 1685 N 178.668 -6.91866 0.359696 0
M  V30 1686 N 180.461 -5.61977 0.117709 0
M  V30 1687 H 172.612 -1.85169 1.04049 0
M  V30 1688 H 174.875 -0.85529 0.40888 0
M  V30 1689 H 174.581 -3.38299 0.961604 0
M  V30 1690 H 174.455 -3.6945 -0.76068 0
M  V30 1691 H 176.842 -2.75124 -1.06729 0
M  V30 1692 H 176.923 -2.46672 0.677225 0
M  V30 1693 H 176.567 -4.96321 1.07834 0
M  V30 1694 H 176.497 -5.22153 -0.682954 0
M  V30 1695 H 178.988 -3.778 -0.0871266 0
M  V30 1696 H 179.301 -7.71503 0.447529 0
M  V30 1697 H 177.646 -6.93874 0.395536 0
M  V30 1698 H 180.837 -4.68094 -0.0236741 0
M  V30 1699 H 181.01 -6.47627 0.219905 0
M  V30 1700 N 174.416 0.165178 -1.56732 0
M  V30 1701 C 175.646 0.894919 -1.86212 0
M  V30 1702 C 176.054 1.76066 -0.692627 0
M  V30 1703 O 175.397 1.80387 0.347303 0
M  V30 1704 C 175.459 1.8174 -3.10179 0
M  V30 1705 C 175.123 1.13064 -4.42793 0
M  V30 1706 C 176.12 0.493169 -5.17556 0
M  V30 1707 C 173.805 1.12556 -4.89527 0
M  V30 1708 C 175.799 -0.140209 -6.37246 0
M  V30 1709 C 173.486 0.488366 -6.09145 0
M  V30 1710 C 174.484 -0.143411 -6.82849 0
M  V30 1711 O 174.172 -0.77055 -8.00199 0
M  V30 1712 H 173.904 0.265114 -0.621844 0
M  V30 1713 H 176.458 0.168242 -2.0471 0
M  V30 1714 H 174.688 2.58455 -2.87642 0
M  V30 1715 H 176.377 2.4175 -3.26055 0
M  V30 1716 H 177.143 0.489023 -4.82528 0
M  V30 1717 H 173.022 1.60672 -4.32094 0
M  V30 1718 H 176.566 -0.633932 -6.94714 0
M  V30 1719 H 172.463 0.490116 -6.43637 0
M  V30 1720 H 173.231 -0.670408 -8.1575 0
M  V30 1721 N 175.894 1.51508 0.433938 0
M  V30 1722 C 176.842 1.73646 1.54757 0
M  V30 1723 C 177.836 0.602854 1.5831 0
M  V30 1724 O 179.042 0.784318 1.62014 0
M  V30 1725 H 175.417 0.548718 0.51421 0
M  V30 1726 H 177.388 2.66991 1.33261 0
M  V30 1727 C 176.137 1.88172 2.92381 0
M  V30 1728 H 175.46 2.74808 2.90381 0
M  V30 1729 H 176.9 2.07672 3.6966 0
M  V30 1730 C 175.359 0.64239 3.30719 0
M  V30 1731 O 175.889 -0.201362 4.01195 0
M  V30 1732 N 174.095 0.485489 2.86516 0
M  V30 1733 H 173.642 1.17318 2.29334 0
M  V30 1734 H 173.6 -0.342482 3.12529 0
M  V30 1735 N 177.372 -0.689602 1.41712 0
M  V30 1736 C 178.619 -1.44966 1.4139 0
M  V30 1737 C 178.947 -1.94484 0.025105 0
M  V30 1738 O 178.202 -1.70307 -0.964048 0
M  V30 1739 C 178.501 -2.67298 2.37247 0
M  V30 1740 C 178.167 -2.36405 3.83958 0
M  V30 1741 C 176.829 -2.27691 4.23923 0
M  V30 1742 C 179.181 -2.11043 4.76561 0
M  V30 1743 C 176.509 -1.91719 5.54492 0
M  V30 1744 C 178.861 -1.76578 6.07456 0
M  V30 1745 C 177.525 -1.66363 6.46436 0
M  V30 1746 H 176.795 -0.53047 0.517381 0
M  V30 1747 H 179.442 -0.787655 1.74552 0
M  V30 1748 H 177.747 -3.38461 1.9736 0
M  V30 1749 H 179.444 -3.25452 2.34269 0
M  V30 1750 H 176.034 -2.44085 3.52308 0
M  V30 1751 H 180.218 -2.16717 4.46483 0
M  V30 1752 H 175.474 -1.82367 5.83568 0
M  V30 1753 H 179.648 -1.55974 6.78708 0
M  V30 1754 H 177.275 -1.38258 7.47522 0
M  V30 1755 N 178.85 -1.27639 -0.924453 0
M  V30 1756 C 180.097 -1.14167 -1.67249 0
M  V30 1757 C 180.425 0.311863 -1.91984 0
M  V30 1758 O 179.68 1.24425 -1.51053 0
M  V30 1759 C 179.979 -1.87407 -3.04325 0
M  V30 1760 C 179.645 -3.37249 -2.99289 0
M  V30 1761 C 178.307 -3.7812 -2.97622 0
M  V30 1762 C 180.659 -4.32845 -2.90336 0
M  V30 1763 C 177.987 -5.12944 -2.8479 0
M  V30 1764 C 180.339 -5.6773 -2.79045 0
M  V30 1765 C 179.003 -6.07889 -2.7573 0
M  V30 1766 H 178.273 -0.417766 -0.612007 0
M  V30 1767 H 180.92 -1.58286 -1.07786 0
M  V30 1768 H 179.225 -1.35805 -3.67511 0
M  V30 1769 H 180.922 -1.74408 -3.61086 0
M  V30 1770 H 177.512 -3.04748 -3.01374 0
M  V30 1771 H 181.696 -4.02239 -2.90719 0
M  V30 1772 H 176.952 -5.432 -2.80612 0
M  V30 1773 H 181.126 -6.41472 -2.71083 0
M  V30 1774 H 178.753 -7.12314 -2.65544 0
M  V30 1775 N 180.328 1.1314 -1.09713 0
M  V30 1776 C 181.553 1.88862 -0.857081 0
M  V30 1777 C 181.978 1.78729 0.586304 0
M  V30 1778 O 181.336 1.13692 1.41222 0
M  V30 1779 C 181.384 3.36325 -1.30069 0
M  V30 1780 O 180.488 4.09815 -0.461007 0
M  V30 1781 H 179.829 0.587108 -0.310162 0
M  V30 1782 H 182.359 1.43129 -1.46203 0
M  V30 1783 H 182.369 3.87157 -1.28738 0
M  V30 1784 H 181.044 3.43017 -2.35185 0
M  V30 1785 H 179.621 3.68986 -0.538888 0
M  V30 1786 N 181.806 0.884767 1.30421 0
M  V30 1787 C 183.054 0.502112 1.95763 0
M  V30 1788 C 183.375 -0.951815 1.70192 0
M  V30 1789 O 182.645 -1.6692 1.0254 0
M  V30 1790 H 181.225 0.182694 0.724315 0
M  V30 1791 H 183.887 1.1278 1.58955 0
M  V30 1792 H 182.983 0.672188 3.04775 0
M  V30 1793 N 183.284 -1.43765 0.645699 0
M  V30 1794 C 184.532 -2.01499 0.155731 0
M  V30 1795 C 184.853 -1.51151 -1.232 0
M  V30 1796 O 184.123 -0.721044 -1.82148 0
M  V30 1797 H 182.703 -0.745003 0.0545817 0
M  V30 1798 H 185.365 -1.76075 0.835677 0
M  V30 1799 H 184.461 -3.1181 0.134577 0
M  V30 1800 N 184.763 -0.387143 -1.52771 0
M  V30 1801 C 185.993 0.195585 -2.05672 0
M  V30 1802 C 186.401 1.41241 -1.25887 0
M  V30 1803 O 185.744 1.81265 -0.298081 0
M  V30 1804 C 185.806 0.632327 -3.53895 0
M  V30 1805 C 185.47 -0.470739 -4.54569 0
M  V30 1806 C 186.467 -1.32746 -5.02667 0
M  V30 1807 C 184.152 -0.637151 -4.98243 0
M  V30 1808 C 186.146 -2.33574 -5.93061 0
M  V30 1809 C 183.833 -1.64877 -5.88438 0
M  V30 1810 C 184.831 -2.49649 -6.35739 0
M  V30 1811 O 184.519 -3.49082 -7.24153 0
M  V30 1812 H 184.251 0.033658 -0.675162 0
M  V30 1813 H 186.805 -0.550221 -1.97893 0
M  V30 1814 H 185.035 1.43008 -3.59285 0
M  V30 1815 H 186.724 1.14048 -3.89548 0
M  V30 1816 H 187.49 -1.21019 -4.69659 0
M  V30 1817 H 183.369 0.0129567 -4.60998 0
M  V30 1818 H 186.913 -2.99777 -6.29904 0
M  V30 1819 H 182.81 -1.76643 -6.2086 0
M  V30 1820 H 183.578 -3.45065 -7.42208 0
M  V30 1821 N 186.241 1.57166 -0.116904 0
M  V30 1822 C 187.469 1.99473 0.549383 0
M  V30 1823 C 187.884 0.996541 1.60357 0
M  V30 1824 O 187.241 -0.0108731 1.82497 0
M  V30 1825 C 187.292 3.41788 1.17741 0
M  V30 1826 O 187.013 4.37788 0.165362 0
M  V30 1827 C 188.514 3.99216 1.92722 0
M  V30 1828 H 185.734 0.655009 0.145616 0
M  V30 1829 H 188.278 2.03494 -0.202625 0
M  V30 1830 H 186.433 3.38713 1.88021 0
M  V30 1831 H 186.847 5.20806 0.621403 0
M  V30 1832 H 188.321 5.00882 2.31995 0
M  V30 1833 H 188.798 3.3824 2.80161 0
M  V30 1834 H 189.404 4.0583 1.27209 0
M  V30 1835 N 187.719 -0.156864 1.56817 0
M  V30 1836 C 188.996 -0.899244 1.73704 0
M  V30 1837 C 189.376 -1.99771 0.682254 0
M  V30 1838 O 188.724 -2.26515 -0.300522 0
M  V30 1839 C 188.934 -1.45075 3.17418 0
M  V30 1840 C 190.282 -1.91802 3.7881 0
M  V30 1841 O 191.306 -1.54838 3.20786 0
M  V30 1842 O 190.165 -2.5994 4.80722 0
M  V30 1843 H 187.259 -0.424267 0.709878 0
M  V30 1844 H 189.805 -0.143561 1.69092 0
M  V30 1845 H 188.577 -0.660846 3.85679 0
M  V30 1846 H 188.2 -2.27021 3.26416 0
M  V30 1847 N 189.197 -1.51736 -0.425897 0
M  V30 1848 C 190.608 -1.5732 -1.00536 0
M  V30 1849 C 190.959 -0.403537 -1.92005 0
M  V30 1850 O 190.084 0.478256 -2.11049 0
M  V30 1851 C 190.679 -2.85119 -1.8301 0
M  V30 1852 C 189.238 -2.93236 -2.35987 0
M  V30 1853 C 188.385 -2.52098 -1.15508 0
M  V30 1854 H 191.336 -1.57348 -0.206739 0
M  V30 1855 H 191.357 -2.69526 -2.68581 0
M  V30 1856 H 190.869 -3.7023 -1.16411 0
M  V30 1857 H 188.97 -2.12581 -3.06007 0
M  V30 1858 H 189.083 -3.9713 -2.68001 0
M  V30 1859 H 187.447 -2.05558 -1.50393 0
M  V30 1860 H 188.23 -3.39565 -0.505014 0
M  V30 1861 N 190.675 0.682077 -1.42076 0
M  V30 1862 C 191.585 1.82535 -1.47371 0
M  V30 1863 C 192.601 1.7017 -0.363079 0
M  V30 1864 O 193.777 1.91848 -0.612875 0
M  V30 1865 C 190.842 3.18624 -1.36674 0
M  V30 1866 C 189.903 3.42999 -2.58167 0
M  V30 1867 C 189.136 4.72595 -2.4797 0
M  V30 1868 O 189.359 5.50006 -1.5116 0
M  V30 1869 O 188.293 4.98054 -3.37974 0
M  V30 1870 H 192.119 1.81023 -2.43853 0
M  V30 1871 H 189.704 0.836887 -1.2376 0
M  V30 1872 H 191.586 3.99847 -1.33043 0
M  V30 1873 H 190.261 3.20789 -0.433138 0
M  V30 1874 H 189.168 2.61653 -2.67373 0
M  V30 1875 H 190.501 3.45659 -3.50401 0
M  V30 1876 N 192.153 1.28127 0.917671 0
M  V30 1877 C 193.43 1.05761 1.64542 0
M  V30 1878 C 193.81 -0.404344 2.07191 0
M  V30 1879 O 193.158 -1.38963 1.81388 0
M  V30 1880 C 193.368 2.02857 2.83989 0
M  V30 1881 C 194.716 2.32786 3.551 0
M  V30 1882 O 195.74 2.0091 2.94132 0
M  V30 1883 O 194.599 2.87169 4.64969 0
M  V30 1884 H 191.693 0.403916 0.721652 0
M  V30 1885 H 194.239 1.39431 0.967322 0
M  V30 1886 H 193.011 3.01407 2.49538 0
M  V30 1887 H 192.634 1.69809 3.59514 0
M  V30 1888 N 193.631 -1.12557 1.10312 0
M  V30 1889 C 194.579 -2.20325 0.745629 0
M  V30 1890 C 195.573 -1.67429 -0.25763 0
M  V30 1891 O 196.779 -1.79612 -0.118132 0
M  V30 1892 H 193.154 -0.718118 0.223182 0
M  V30 1893 H 195.125 -2.47733 1.66346 0
M  V30 1894 C 193.874 -3.47168 0.192262 0
M  V30 1895 H 193.197 -3.88215 0.955475 0
M  V30 1896 H 194.637 -4.23995 -0.0198274 0
M  V30 1897 C 193.096 -3.19298 -1.07472 0
M  V30 1898 O 193.626 -3.3891 -2.15645 0
M  V30 1899 N 191.832 -2.73113 -0.992847 0
M  V30 1900 H 191.379 -2.57354 -0.112474 0
M  V30 1901 H 191.337 -2.54842 -1.84127 0
M  V30 1902 N 195.109 -0.891671 -1.2995 0
M  V30 1903 C 196.039 -0.379797 -2.30391 0
M  V30 1904 C 197.02 0.540919 -1.6127 0
M  V30 1905 O 198.205 0.453352 -1.88834 0
M  V30 1906 C 195.335 0.400654 -3.44981 0
M  V30 1907 C 194.289 -0.428905 -4.25846 0
M  V30 1908 C 193.615 0.478557 -5.32554 0
M  V30 1909 C 194.915 -1.67458 -4.94727 0
M  V30 1910 H 196.609 -1.21914 -2.73454 0
M  V30 1911 H 194.155 -0.587675 -1.31462 0
M  V30 1912 H 196.108 0.769434 -4.14316 0
M  V30 1913 H 194.832 1.27371 -3.0074 0
M  V30 1914 H 193.491 -0.779911 -3.58208 0
M  V30 1915 H 193.139 1.34951 -4.84559 0
M  V30 1916 H 192.839 -0.0727433 -5.87555 0
M  V30 1917 H 194.363 0.843705 -6.04743 0
M  V30 1918 H 195.777 -1.376 -5.56542 0
M  V30 1919 H 194.174 -2.16659 -5.59624 0
M  V30 1920 H 195.244 -2.41518 -4.20473 0
M  V30 1921 N 196.587 1.43421 -0.653314 0
M  V30 1922 C 197.815 2.06163 -0.174491 0
M  V30 1923 C 198.23 1.48969 1.1599 0
M  V30 1924 O 197.587 0.621042 1.71608 0
M  V30 1925 C 197.638 3.61417 -0.0774865 0
M  V30 1926 O 197.359 4.16485 -1.35912 0
M  V30 1927 C 198.86 4.41235 0.427402 0
M  V30 1928 H 196.08 0.664946 -0.0899353 0
M  V30 1929 H 198.624 1.83924 -0.893988 0
M  V30 1930 H 196.779 3.82841 0.59257 0
M  V30 1931 H 197.193 5.10153 -1.21839 0
M  V30 1932 H 198.667 5.5021 0.44423 0
M  V30 1933 H 199.144 4.14268 1.45873 0
M  V30 1934 H 199.75 4.2478 -0.210167 0
M  V30 1935 N 198.065 0.39524 1.52563 0
M  V30 1936 C 199.314 -0.186321 2.00838 0
M  V30 1937 C 199.627 -1.47402 1.28577 0
M  V30 1938 O 200.833 -2.13599 1.67593 0
M  V30 1939 C 199.289 -0.382595 3.57861 0
M  V30 1940 C 198.897 0.892202 4.39026 0
M  V30 1941 C 200.641 -0.9202 4.14406 0
M  V30 1942 C 198.548 0.66388 5.87662 0
M  V30 1943 H 197.478 -0.0734041 0.750418 0
M  V30 1944 H 200.129 0.518552 1.76021 0
M  V30 1945 H 198.511 -1.14946 3.7895 0
M  V30 1946 H 199.685 1.66414 4.29701 0
M  V30 1947 H 198 1.35519 3.9373 0
M  V30 1948 H 200.597 -1.10683 5.23119 0
M  V30 1949 H 200.94 -1.89096 3.70875 0
M  V30 1950 H 201.473 -0.212751 3.97231 0
M  V30 1951 H 198.212 1.6058 6.35527 0
M  V30 1952 H 197.732 -0.0690193 5.9976 0
M  V30 1953 H 199.411 0.300699 6.46301 0
M  V30 1954 N 199.544 -1.57102 0.125237 0
M  V30 1955 C 200.491 -2.15641 -0.822655 0
M  V30 1956 C 201.461 -1.08313 -1.25927 0
M  V30 1957 O 202.646 -1.36251 -1.33567 0
M  V30 1958 C 199.786 -2.76504 -2.06494 0
M  V30 1959 C 198.899 -3.98158 -1.67612 0
M  V30 1960 C 198.034 -4.47088 -2.86854 0
M  V30 1961 C 197.073 -5.6126 -2.44242 0
M  V30 1962 N 196.21 -6.04905 -3.56419 0
M  V30 1963 H 201.05 -2.96313 -0.316625 0
M  V30 1964 H 198.587 -1.46388 -0.144588 0
M  V30 1965 H 200.545 -3.09925 -2.79289 0
M  V30 1966 H 199.175 -1.98512 -2.54545 0
M  V30 1967 H 198.227 -3.70858 -0.846661 0
M  V30 1968 H 199.539 -4.80934 -1.32301 0
M  V30 1969 H 198.693 -4.82451 -3.67867 0
M  V30 1970 H 197.432 -3.63275 -3.25396 0
M  V30 1971 H 196.437 -5.25495 -1.61663 0
M  V30 1972 H 197.662 -6.46843 -2.0681 0
M  V30 1973 H 195.608 -5.24032 -3.94623 0
M  V30 1974 H 195.525 -6.82552 -3.25051 0
M  V30 1975 H 196.793 -6.44907 -4.37853 0
M  V30 1976 N 201.022 0.148545 -1.56898 0
M  V30 1977 C 201.985 1.16736 -1.97244 0
M  V30 1978 C 202.985 1.35947 -0.858777 0
M  V30 1979 O 204.175 1.32966 -1.12542 0
M  V30 1980 C 201.307 2.52798 -2.28705 0
M  V30 1981 H 202.5 0.821279 -2.88435 0
M  V30 1982 H 200.053 0.391831 -1.51309 0
M  V30 1983 H 200.788 2.92381 -1.403 0
M  V30 1984 H 200.573 2.40216 -3.09901 0
M  V30 1985 H 202.063 3.26179 -2.60762 0
M  V30 1986 N 202.5 1.5196 0.417844 0
M  V30 1987 C 203.432 1.70895 1.52733 0
M  V30 1988 C 204.445 0.589405 1.51756 0
M  V30 1989 O 205.634 0.864312 1.56179 0
M  V30 1990 C 202.734 1.72627 2.91639 0
M  V30 1991 C 201.907 3.01479 3.16905 0
M  V30 1992 C 200.966 2.95139 4.35637 0
M  V30 1993 O 199.992 3.69059 4.3334 0
M  V30 1994 N 201.194 2.12328 5.40275 0
M  V30 1995 H 203.959 2.66612 1.36888 0
M  V30 1996 H 201.52 1.50089 0.607037 0
M  V30 1997 H 203.512 1.65928 3.6912 0
M  V30 1998 H 202.082 0.844216 3.00985 0
M  V30 1999 H 201.302 3.21895 2.27546 0
M  V30 2000 H 202.59 3.86736 3.30625 0
M  V30 2001 H 201.988 1.51685 5.44985 0
M  V30 2002 H 200.545 2.11494 6.16534 0
M  V30 2003 N 203.978 -0.674533 1.42435 0
M  V30 2004 C 205.206 -1.46283 1.46317 0
M  V30 2005 C 205.621 -1.88653 0.0745836 0
M  V30 2006 O 204.978 -1.58151 -0.91074 0
M  V30 2007 C 205.029 -2.71178 2.3905 0
M  V30 2008 O 204.75 -2.30586 3.72507 0
M  V30 2009 C 206.251 -3.64738 2.51955 0
M  V30 2010 H 203.471 -0.450104 0.497642 0
M  V30 2011 H 206.015 -0.828792 1.86953 0
M  V30 2012 H 204.17 -3.3077 2.01667 0
M  V30 2013 H 204.584 -3.11241 4.22172 0
M  V30 2014 H 206.058 -4.49096 3.20962 0
M  V30 2015 H 206.535 -4.10656 1.55752 0
M  V30 2016 H 207.141 -3.11038 2.90061 0
M  V30 2017 N 205.456 -1.28612 -0.910864 0
M  V30 2018 C 206.705 -1.15311 -1.65488 0
M  V30 2019 C 207.018 0.296999 -1.93332 0
M  V30 2020 O 208.224 0.551168 -2.65847 0
M  V30 2021 C 206.68 -2.01599 -2.98137 0
M  V30 2022 C 206.288 -3.51367 -2.7793 0
M  V30 2023 C 208.032 -1.96993 -3.76024 0
M  V30 2024 C 205.939 -4.29797 -4.06237 0
M  V30 2025 H 204.869 -0.42796 -0.620779 0
M  V30 2026 H 207.52 -1.53166 -1.01057 0
M  V30 2027 H 205.902 -1.56603 -3.63719 0
M  V30 2028 H 207.076 -4.0434 -2.21011 0
M  V30 2029 H 205.391 -3.57529 -2.13452 0
M  V30 2030 H 207.988 -2.52856 -4.71135 0
M  V30 2031 H 208.331 -0.94733 -4.05378 0
M  V30 2032 H 208.864 -2.39973 -3.17266 0
M  V30 2033 H 205.603 -5.32648 -3.82055 0
M  V30 2034 H 205.123 -3.81596 -4.62757 0
M  V30 2035 H 206.802 -4.39869 -4.74473 0
M  V30 2036 N 206.934 1.1197 -1.10907 0
M  V30 2037 C 208.159 1.87942 -0.877064 0
M  V30 2038 C 208.584 1.79341 0.567314 0
M  V30 2039 O 207.942 1.15184 1.40009 0
M  V30 2040 C 207.99 3.34926 -1.33629 0
M  V30 2041 O 207.094 4.09303 -0.504447 0
M  V30 2042 H 206.435 0.583785 -0.316371 0
M  V30 2043 H 208.965 1.4157 -1.47712 0
M  V30 2044 H 208.975 3.8577 -1.32837 0
M  V30 2045 H 207.65 3.40504 -2.3881 0
M  V30 2046 H 206.227 3.68393 -0.577993 0
M  V30 2047 N 208.412 0.89855 1.29475 0
M  V30 2048 C 209.637 0.538561 2.00285 0
M  V30 2049 C 210.062 -0.869135 1.66816 0
M  V30 2050 O 209.42 -1.57831 0.892145 0
M  V30 2051 C 209.468 0.736475 3.52999 0
M  V30 2052 O 208.572 -0.211537 4.11857 0
M  V30 2053 H 207.913 0.210563 0.62973 0
M  V30 2054 H 210.443 1.20982 1.64998 0
M  V30 2055 H 210.453 0.640685 4.02938 0
M  V30 2056 H 209.128 1.76276 3.76696 0
M  V30 2057 H 207.705 -0.0682991 3.72837 0
M  V30 2058 N 209.89 -1.43072 0.660911 0
M  V30 2059 C 210.838 -2.32569 -0.0378199 0
M  V30 2060 C 211.832 -1.49046 -0.805092 0
M  V30 2061 O 213.038 -1.65206 -0.714624 0
M  V30 2062 H 209.413 -0.75136 -0.031019 0
M  V30 2063 H 211.384 -2.89216 0.734609 0
M  V30 2064 C 210.133 -3.33453 -0.985124 0
M  V30 2065 H 209.456 -3.97752 -0.404147 0
M  V30 2066 H 210.896 -3.98691 -1.44297 0
M  V30 2067 C 209.355 -2.64642 -2.08486 0
M  V30 2068 O 209.885 -2.46776 -3.16961 0
M  V30 2069 N 208.091 -2.23891 -1.8526 0
M  V30 2070 H 207.638 -2.38621 -0.970449 0
M  V30 2071 H 207.596 -1.78181 -2.59034 0
M  V30 2072 N 211.368 -0.403325 -1.52352 0
M  V30 2073 C 212.3 0.4603 -2.2453 0
M  V30 2074 C 213.313 1.01505 -1.27282 0
M  V30 2075 O 214.502 0.914982 -1.53266 0
M  V30 2076 C 211.602 1.65208 -2.95905 0
M  V30 2077 C 210.775 1.22224 -4.19976 0
M  V30 2078 C 209.834 2.28028 -4.74226 0
M  V30 2079 O 208.86 1.88857 -5.36956 0
M  V30 2080 N 210.062 3.6012 -4.55295 0
M  V30 2081 H 212.827 -0.158156 -2.99282 0
M  V30 2082 H 210.388 -0.230402 -1.60252 0
M  V30 2083 H 212.38 2.35541 -3.29093 0
M  V30 2084 H 210.95 2.17658 -2.24374 0
M  V30 2085 H 210.17 0.34725 -3.92668 0
M  V30 2086 H 211.458 0.911924 -5.00561 0
M  V30 2087 H 210.856 3.94698 -4.05253 0
M  V30 2088 H 209.413 4.26447 -4.92936 0
M  V30 2089 N 212.846 1.57033 -0.133567 0
M  V30 2090 C 213.776 2.1909 0.807567 0
M  V30 2091 C 214.757 1.13517 1.26681 0
M  V30 2092 O 215.942 1.41809 1.32679 0
M  V30 2093 C 213.072 2.80188 2.05212 0
M  V30 2094 C 212.026 3.91471 1.73015 0
M  V30 2095 C 211.352 4.39443 3.04622 0
M  V30 2096 C 212.652 5.12886 0.987168 0
M  V30 2097 H 214.346 2.97988 0.290403 0
M  V30 2098 H 211.892 1.43335 0.138239 0
M  V30 2099 H 213.845 3.22264 2.71521 0
M  V30 2100 H 212.569 1.98601 2.59278 0
M  V30 2101 H 211.228 3.49993 1.0909 0
M  V30 2102 H 210.876 3.54695 3.56651 0
M  V30 2103 H 210.576 5.14495 2.83847 0
M  V30 2104 H 212.1 4.8418 3.72024 0
M  V30 2105 H 213.514 5.51891 1.55208 0
M  V30 2106 H 211.911 5.93615 0.87985 0
M  V30 2107 H 212.981 4.84894 -0.0235286 0
M  V30 2108 N 214.325 -0.140222 1.56975 0
M  V30 2109 C 215.573 -0.850005 1.83356 0
M  V30 2110 C 215.894 -1.81399 0.71551 0
M  V30 2111 O 215.164 -1.94136 -0.262294 0
M  V30 2112 H 213.744 -0.316886 0.676456 0
M  V30 2113 H 216.406 -0.132608 1.94448 0
M  V30 2114 H 215.502 -1.40814 2.78528 0
M  V30 2115 N 215.803 -1.52179 -0.40978 0
M  V30 2116 C 216.733 -1.78435 -1.5061 0
M  V30 2117 C 217.714 -0.635295 -1.57791 0
M  V30 2118 O 218.899 -0.880823 -1.73076 0
M  V30 2119 C 216.029 -1.93444 -2.88439 0
M  V30 2120 C 214.983 -3.09038 -2.96108 0
M  V30 2121 C 214.309 -3.09268 -4.36185 0
M  V30 2122 C 215.609 -4.48508 -2.67652 0
M  V30 2123 H 217.303 -2.70237 -1.28889 0
M  V30 2124 H 214.849 -1.30036 -0.618605 0
M  V30 2125 H 216.802 -2.10394 -3.65119 0
M  V30 2126 H 215.526 -0.983129 -3.11452 0
M  V30 2127 H 214.185 -2.91837 -2.21872 0
M  V30 2128 H 213.833 -2.11861 -4.56206 0
M  V30 2129 H 213.533 -3.86907 -4.42241 0
M  V30 2130 H 215.057 -3.28348 -5.14801 0
M  V30 2131 H 216.471 -4.65918 -3.34056 0
M  V30 2132 H 214.868 -5.28059 -2.85085 0
M  V30 2133 H 215.938 -4.56649 -1.63095 0
M  V30 2134 N 217.281 0.66697 -1.42791 0
M  V30 2135 C 218.529 1.42417 -1.43394 0
M  V30 2136 C 218.85 1.94925 -0.0542373 0
M  V30 2137 O 218.12 1.73564 0.908415 0
M  V30 2138 H 216.7 0.528515 -0.527902 0
M  V30 2139 H 219.362 0.787562 -1.78279 0
M  V30 2140 H 218.458 2.27333 -2.13837 0
M  V30 2141 N 218.759 1.29093 0.90403 0
M  V30 2142 C 219.689 1.16401 2.02418 0
M  V30 2143 C 220.67 0.0593085 1.69997 0
M  V30 2144 O 221.855 0.238021 1.92736 0
M  V30 2145 C 218.985 0.835233 3.37107 0
M  V30 2146 C 217.939 1.89578 3.83724 0
M  V30 2147 C 217.265 1.42041 5.15489 0
M  V30 2148 C 218.565 3.30394 4.04521 0
M  V30 2149 H 220.259 2.10109 2.13295 0
M  V30 2150 H 217.805 1.01157 1.02486 0
M  V30 2151 H 219.758 0.733169 4.14973 0
M  V30 2152 H 218.482 -0.137543 3.2631 0
M  V30 2153 H 217.141 1.98715 3.08071 0
M  V30 2154 H 216.789 0.436426 5.01103 0
M  V30 2155 H 216.489 2.12964 5.4765 0
M  V30 2156 H 218.013 1.33176 5.959 0
M  V30 2157 H 219.427 3.24123 4.72882 0
M  V30 2158 H 217.824 3.99237 4.48029 0
M  V30 2159 H 218.894 3.73692 3.09002 0
M  V30 2160 N 220.237 -1.11381 1.11499 0
M  V30 2161 C 221.485 -1.8277 0.862524 0
M  V30 2162 C 221.806 -1.85097 -0.613534 0
M  V30 2163 O 221.076 -1.32198 -1.4457 0
M  V30 2164 H 219.656 -0.676823 0.316101 0
M  V30 2165 H 222.318 -1.34816 1.4075 0
M  V30 2166 H 221.414 -2.86614 1.23527 0
M  V30 2167 N 221.715 -0.905404 -1.28997 0
M  V30 2168 C 222.961 -0.535039 -1.95615 0
M  V30 2169 C 223.294 0.917404 -1.71165 0
M  V30 2170 O 222.569 1.65123 -1.02785 0
M  V30 2171 C 222.852 -0.834918 -3.50287 0
M  V30 2172 C 222.705 -2.33948 -3.84172 0
M  V30 2173 C 224.024 -0.325318 -4.38896 0
M  V30 2174 H 221.143 -0.195861 -0.710498 0
M  V30 2175 H 223.785 -1.13313 -1.52513 0
M  V30 2176 H 221.935 -0.325904 -3.87131 0
M  V30 2177 H 223.607 -2.91847 -3.57243 0
M  V30 2178 H 221.85 -2.79789 -3.31513 0
M  V30 2179 H 222.521 -2.49987 -4.92149 0
M  V30 2180 H 224.997 -0.761256 -4.09077 0
M  V30 2181 H 223.873 -0.564295 -5.45992 0
M  V30 2182 H 224.134 0.774144 -4.35269 0
M  V30 2183 N 223.193 1.4272 -0.668489 0
M  V30 2184 C 224.609 1.55992 -0.33745 0
M  V30 2185 C 224.809 1.64933 1.15756 0
M  V30 2186 O 223.865 1.61278 1.94282 0
M  V30 2187 C 225.178 2.81314 -1.06222 0
M  V30 2188 C 226.726 2.95078 -1.04394 0
M  V30 2189 C 227.201 4.23252 -1.74991 0
M  V30 2190 N 228.692 4.3015 -1.71829 0
M  V30 2191 C 229.427 5.28127 -2.23315 0
M  V30 2192 N 228.923 6.32293 -2.83156 0
M  V30 2193 N 230.716 5.19882 -2.13726 0
M  V30 2194 H 222.867 1.3516 -1.63846 0
M  V30 2195 H 225.13 0.650174 -0.689912 0
M  V30 2196 H 224.836 2.80823 -2.11734 0
M  V30 2197 H 224.71 3.72012 -0.62344 0
M  V30 2198 H 227.097 2.951 0.0028244 0
M  V30 2199 H 227.178 2.05627 -1.52155 0
M  V30 2200 H 226.822 4.2399 -2.79633 0
M  V30 2201 H 226.752 5.11626 -1.24685 0
M  V30 2202 H 229.243 3.55499 -1.28175 0
M  V30 2203 H 229.556 7.03398 -3.20079 0
M  V30 2204 H 227.901 6.32873 -2.87223 0
M  V30 2205 H 231.092 4.37423 -1.66669 0
M  V30 2206 H 231.265 5.96077 -2.54158 0
M  V30 2207 N 224.671 0.411399 1.52136 0
M  V30 2208 C 225.634 -0.401089 2.25663 0
M  V30 2209 C 226.634 -0.971732 1.28117 0
M  V30 2210 O 227.824 -0.850254 1.52041 0
M  V30 2211 C 224.956 -1.56483 3.02863 0
M  V30 2212 H 226.149 0.24295 2.98914 0
M  V30 2213 H 223.702 0.163968 1.55438 0
M  V30 2214 H 224.437 -2.24567 2.33967 0
M  V30 2215 H 224.222 -1.16211 3.74483 0
M  V30 2216 H 225.712 -2.13951 3.58629 0
M  V30 2217 N 226.149 -1.5696 0.141893 0
M  V30 2218 C 227.112 -2.15316 -0.785587 0
M  V30 2219 C 228.112 -1.09366 -1.1788 0
M  V30 2220 O 229.302 -1.35031 -1.10056 0
M  V30 2221 C 226.434 -2.71211 -2.06537 0
M  V30 2222 H 227.627 -2.98608 -0.278041 0
M  V30 2223 H 225.18 -1.5593 -0.107519 0
M  V30 2224 H 225.915 -1.91571 -2.6167 0
M  V30 2225 H 225.7 -3.4872 -1.79268 0
M  V30 2226 H 227.19 -3.16189 -2.72789 0
M  V30 2227 N 227.627 0.131896 -1.57047 0
M  V30 2228 C 228.857 0.855219 -1.88068 0
M  V30 2229 C 229.265 1.74557 -0.729817 0
M  V30 2230 O 228.608 1.81083 0.308962 0
M  V30 2231 C 228.67 1.75119 -3.13964 0
M  V30 2232 C 228.334 1.03646 -4.45091 0
M  V30 2233 C 229.331 0.383276 -5.18485 0
M  V30 2234 C 227.016 1.02148 -4.91804 0
M  V30 2235 C 229.01 -0.275347 -6.36805 0
M  V30 2236 C 226.697 0.359047 -6.10044 0
M  V30 2237 C 227.695 -0.288222 -6.82392 0
M  V30 2238 O 227.383 -0.94011 -7.98384 0
M  V30 2239 H 227.115 0.251864 -0.627328 0
M  V30 2240 H 229.669 0.124782 -2.05021 0
M  V30 2241 H 227.899 2.52295 -2.9306 0
M  V30 2242 H 229.588 2.3478 -3.31109 0
M  V30 2243 H 230.354 0.386562 -4.83457 0
M  V30 2244 H 226.233 1.5147 -4.35405 0
M  V30 2245 H 229.777 -0.781148 -6.93213 0
M  V30 2246 H 225.674 0.35348 -6.44531 0
M  V30 2247 H 226.442 -0.84329 -8.14144 0
M  V30 2248 N 229.106 1.52395 0.401703 0
M  V30 2249 C 230.517 1.58899 0.980202 0
M  V30 2250 C 230.868 0.434032 1.91339 0
M  V30 2251 O 229.993 -0.444619 2.11783 0
M  V30 2252 C 230.588 2.87994 1.78451 0
M  V30 2253 C 229.147 2.96953 2.31292 0
M  V30 2254 C 228.294 2.53903 1.11483 0
M  V30 2255 H 231.245 1.57657 0.18168 0
M  V30 2256 H 231.266 2.73765 2.64259 0
M  V30 2257 H 230.778 3.72035 1.10506 0
M  V30 2258 H 228.879 2.17422 3.02586 0
M  V30 2259 H 228.992 4.01344 2.61649 0
M  V30 2260 H 227.356 2.07925 1.47104 0
M  V30 2261 H 228.139 3.40326 0.450928 0
M  V30 2262 N 230.584 -0.659388 1.43143 0
M  V30 2263 C 231.514 -1.78422 1.50625 0
M  V30 2264 C 232.495 -1.66216 0.361443 0
M  V30 2265 O 233.68 -1.85404 0.577834 0
M  V30 2266 C 230.81 -3.16815 1.42287 0
M  V30 2267 C 229.764 -3.43777 2.54954 0
M  V30 2268 C 229.09 -4.81905 2.31671 0
M  V30 2269 C 230.39 -3.39134 3.97222 0
M  V30 2270 H 232.084 -1.72417 2.44771 0
M  V30 2271 H 229.63 -0.828084 1.17808 0
M  V30 2272 H 231.583 -3.95253 1.46127 0
M  V30 2273 H 230.307 -3.23534 0.446435 0
M  V30 2274 H 228.966 -2.67707 2.50457 0
M  V30 2275 H 228.614 -4.85294 1.32284 0
M  V30 2276 H 228.314 -5.00906 3.07192 0
M  V30 2277 H 229.838 -5.62609 2.37284 0
M  V30 2278 H 231.252 -4.07518 4.03239 0
M  V30 2279 H 229.649 -3.69671 4.72719 0
M  V30 2280 H 230.719 -2.37426 4.22797 0
M  V30 2281 N 232.062 -1.29571 -0.897171 0
M  V30 2282 C 232.995 -1.0924 -2.00354 0
M  V30 2283 C 233.973 -0.00354011 -1.626 0
M  V30 2284 O 235.157 -0.15473 -1.87864 0
M  V30 2285 C 232.284 -0.66352 -3.32137 0
M  V30 2286 C 231.33 -1.75146 -3.88878 0
M  V30 2287 S 232.163 -3.35124 -4.17674 0
M  V30 2288 C 233.319 -2.9411 -5.52494 0
M  V30 2289 H 233.552 -2.02907 -2.17292 0
M  V30 2290 H 231.085 -1.13746 -1.04408 0
M  V30 2291 H 233.043 -0.422791 -4.08317 0
M  V30 2292 H 231.704 0.253588 -3.13075 0
M  V30 2293 H 230.897 -1.40337 -4.84068 0
M  V30 2294 H 230.499 -1.94584 -3.19395 0
M  V30 2295 H 232.791 -2.41312 -6.33068 0
M  V30 2296 H 233.734 -3.88161 -5.9223 0
M  V30 2297 H 234.142 -2.32332 -5.14473 0
M  V30 2298 N 233.54 1.10788 -1.12088 0
M  V30 2299 C 234.951 1.64181 -0.88891 0
M  V30 2300 C 235.302 1.87508 0.577498 0
M  V30 2301 O 234.427 1.61434 1.44112 0
M  V30 2302 C 235.022 2.98257 -1.60712 0
M  V30 2303 C 233.581 3.4853 -1.42139 0
M  V30 2304 C 232.728 2.23208 -1.6454 0
M  V30 2305 H 235.679 0.943368 -1.27618 0
M  V30 2306 H 235.7 3.65552 -1.05604 0
M  V30 2307 H 235.212 2.81246 -2.67436 0
M  V30 2308 H 233.313 3.70692 -0.376552 0
M  V30 2309 H 233.426 4.26882 -2.17505 0
M  V30 2310 H 231.79 2.31169 -1.06925 0
M  V30 2311 H 232.573 2.08733 -2.72554 0
M  V30 2312 N 235.018 0.912232 1.28515 0
M  V30 2313 C 235.966 0.389597 2.29314 0
M  V30 2314 C 236.96 -0.517915 1.61289 0
M  V30 2315 O 238.166 -0.399328 1.75515 0
M  V30 2316 H 234.541 0.107386 0.744293 0
M  V30 2317 H 236.512 1.25286 2.70825 0
M  V30 2318 C 235.261 -0.356496 3.45868 0
M  V30 2319 H 234.584 0.332608 3.98414 0
M  V30 2320 H 236.024 -0.686851 4.184 0
M  V30 2321 C 234.483 -1.56383 2.98406 0
M  V30 2322 O 235.013 -2.66294 3.00749 0
M  V30 2323 N 233.219 -1.41029 2.54085 0
M  V30 2324 H 232.766 -0.516089 2.52377 0
M  V30 2325 H 232.724 -2.21939 2.22689 0
M  V30 2326 N 236.496 -1.42363 0.676048 0
M  V30 2327 C 237.426 -2.33497 0.0124832 0
M  V30 2328 C 238.407 -1.50748 -0.787981 0
M  V30 2329 O 239.592 -1.79346 -0.744884 0
M  V30 2330 C 236.722 -3.34377 -0.938582 0
M  V30 2331 C 235.676 -4.27289 -0.246622 0
M  V30 2332 C 235.002 -5.18386 -1.31071 0
M  V30 2333 C 236.302 -5.14916 0.875125 0
M  V30 2334 H 237.996 -2.89233 0.773593 0
M  V30 2335 H 235.542 -1.39073 0.37346 0
M  V30 2336 H 237.495 -3.97044 -1.41188 0
M  V30 2337 H 236.219 -2.76947 -1.73113 0
M  V30 2338 H 234.878 -3.66018 0.206456 0
M  V30 2339 H 234.526 -4.57282 -2.09528 0
M  V30 2340 H 234.226 -5.81378 -0.852839 0
M  V30 2341 H 235.75 -5.83929 -1.78492 0
M  V30 2342 H 237.164 -5.71262 0.482983 0
M  V30 2343 H 235.561 -5.86747 1.25887 0
M  V30 2344 H 236.631 -4.53242 1.72335 0
M  V30 2345 N 237.974 -0.419461 -1.51915 0
M  V30 2346 C 239.199 0.154572 -2.06823 0
M  V30 2347 C 239.624 1.3722 -1.28656 0
M  V30 2348 O 238.982 1.78461 -0.319583 0
M  V30 2349 C 239.03 0.473172 -3.57482 0
M  V30 2350 O 238.134 1.56255 -3.81652 0
M  V30 2351 H 237.475 0.0096924 -0.663929 0
M  V30 2352 H 240.005 -0.595642 -1.95738 0
M  V30 2353 H 240.015 0.728825 -4.01438 0
M  V30 2354 H 238.69 -0.416873 -4.13805 0
M  V30 2355 H 237.267 1.29825 -3.49571 0
M  V30 2356 N 239.452 1.56882 -0.150215 0
M  V30 2357 C 240.382 2.19935 0.784284 0
M  V30 2358 C 241.363 1.14854 1.25469 0
M  V30 2359 O 242.548 1.43209 1.31168 0
M  V30 2360 C 239.678 2.82349 2.02229 0
M  V30 2361 C 238.632 3.93285 1.68853 0
M  V30 2362 C 237.958 4.42649 2.99944 0
M  V30 2363 C 239.258 5.13904 0.932714 0
M  V30 2364 H 240.952 2.9828 0.258781 0
M  V30 2365 H 238.498 1.43473 0.123029 0
M  V30 2366 H 240.451 3.25126 2.68088 0
M  V30 2367 H 239.175 2.0134 2.57157 0
M  V30 2368 H 237.834 3.5113 1.05371 0
M  V30 2369 H 237.482 3.58458 3.52869 0
M  V30 2370 H 237.182 5.17476 2.78374 0
M  V30 2371 H 238.706 4.88099 3.66868 0
M  V30 2372 H 240.12 5.53506 1.49345 0
M  V30 2373 H 238.517 5.94515 0.81684 0
M  V30 2374 H 239.587 4.84842 -0.0749568 0
M  V30 2375 N 240.93 -0.123565 1.57115 0
M  V30 2376 C 242.176 -0.833386 1.84885 0
M  V30 2377 C 242.509 -1.79742 0.735292 0
M  V30 2378 O 241.784 -1.92764 -0.25925 0
M  V30 2379 C 242.067 -1.5873 3.23228 0
M  V30 2380 C 241.92 -0.643183 4.45178 0
M  V30 2381 C 243.239 -2.54453 3.59085 0
M  V30 2382 H 240.358 -0.301518 0.6725 0
M  V30 2383 H 243 -0.097778 1.89748 0
M  V30 2384 H 241.15 -2.21438 3.19214 0
M  V30 2385 H 242.822 -0.0253015 4.61293 0
M  V30 2386 H 241.065 0.0456139 4.33776 0
M  V30 2387 H 241.736 -1.20724 5.38637 0
M  V30 2388 H 244.212 -2.01853 3.63861 0
M  V30 2389 H 243.088 -3.04238 4.5687 0
M  V30 2390 H 243.349 -3.36906 2.86264 0
M  V30 2391 N 242.408 -1.52605 -0.393616 0
M  V30 2392 C 243.656 -1.67093 -1.13685 0
M  V30 2393 C 243.977 -0.411011 -1.90619 0
M  V30 2394 O 243.247 0.574491 -1.87287 0
M  V30 2395 H 241.827 -0.615923 -0.422668 0
M  V30 2396 H 244.489 -1.89704 -0.447039 0
M  V30 2397 H 243.585 -2.51922 -1.84232 0
M  V30 2398 N 243.887 0.651787 -1.4349 0
M  V30 2399 C 245.164 1.40909 -1.35661 0
M  V30 2400 C 245.544 2.11099 -0.00511733 0
M  V30 2401 O 244.892 2.04892 1.0115 0
M  V30 2402 C 245.102 2.3926 -2.54078 0
M  V30 2403 C 246.45 3.03217 -2.97228 0
M  V30 2404 O 247.474 2.49588 -2.54135 0
M  V30 2405 O 246.333 4.00455 -3.71885 0
M  V30 2406 H 243.427 0.629625 -0.536191 0
M  V30 2407 H 245.973 0.678575 -1.55542 0
M  V30 2408 H 244.745 1.86352 -3.44076 0
M  V30 2409 H 244.368 3.1976 -2.36303 0
M  V30 2410 N 245.365 1.30045 0.890287 0
M  V30 2411 C 246.295 1.18541 2.01172 0
M  V30 2412 C 247.276 0.0773356 1.69924 0
M  V30 2413 O 248.461 0.25845 1.92473 0
M  V30 2414 C 245.591 0.870941 3.36202 0
M  V30 2415 C 244.545 1.93637 3.81692 0
M  V30 2416 C 243.871 1.475 5.13953 0
M  V30 2417 C 245.171 3.34666 4.00994 0
M  V30 2418 H 246.865 2.12359 2.11054 0
M  V30 2419 H 244.411 1.02238 1.01407 0
M  V30 2420 H 246.364 0.777141 4.14172 0
M  V30 2421 H 245.088 -0.102926 3.26438 0
M  V30 2422 H 243.747 2.01972 3.05946 0
M  V30 2423 H 243.395 0.489551 5.00612 0
M  V30 2424 H 243.095 2.1876 5.4536 0
M  V30 2425 H 244.619 1.39489 5.94454 0
M  V30 2426 H 246.033 3.2912 4.69417 0
M  V30 2427 H 244.43 4.03966 4.43769 0
M  V30 2428 H 245.5 3.76949 3.05021 0
M  V30 2429 N 246.843 -1.10192 1.12674 0
M  V30 2430 C 248.091 -1.81845 0.881861 0
M  V30 2431 C 248.412 -1.85737 -0.593867 0
M  V30 2432 O 247.682 -1.33724 -1.4316 0
M  V30 2433 H 246.262 -0.673432 0.323261 0
M  V30 2434 H 248.924 -1.33316 1.42172 0
M  V30 2435 H 248.02 -2.85288 1.2656 0
M  V30 2436 N 248.321 -0.919034 -1.28029 0
M  V30 2437 C 249.567 -0.555757 -1.95036 0
M  V30 2438 C 249.9 0.899198 -1.72128 0
M  V30 2439 O 249.175 1.64023 -1.04531 0
M  V30 2440 C 249.458 -0.872024 -3.49382 0
M  V30 2441 C 249.311 -2.3801 -3.81669 0
M  V30 2442 C 250.63 -0.37185 -4.38526 0
M  V30 2443 H 247.749 -0.203386 -0.708381 0
M  V30 2444 H 250.391 -1.14924 -1.51303 0
M  V30 2445 H 248.541 -0.366946 -3.86763 0
M  V30 2446 H 250.213 -2.9562 -3.54128 0
M  V30 2447 H 248.456 -2.83289 -3.28526 0
M  V30 2448 H 249.127 -2.55192 -4.8947 0
M  V30 2449 H 251.603 -0.804602 -4.08247 0
M  V30 2450 H 250.479 -0.622173 -5.45362 0
M  V30 2451 H 250.74 0.727934 -4.36066 0
M  V30 2452 N 249.799 1.42003 -0.683588 0
M  V30 2453 C 251.076 1.95112 -0.138075 0
M  V30 2454 C 251.456 1.62359 1.34918 0
M  V30 2455 O 250.804 0.924311 2.08971 0
M  V30 2456 C 251.014 3.46505 -0.416581 0
M  V30 2457 C 252.362 4.23254 -0.337834 0
M  V30 2458 O 253.386 3.54468 -0.35082 0
M  V30 2459 O 252.245 5.45743 -0.287596 0
M  V30 2460 H 249.339 0.826961 -0.00797996 0
M  V30 2461 H 251.885 1.51784 -0.758924 0
M  V30 2462 H 250.657 3.63582 -1.4465 0
M  V30 2463 H 250.28 3.969 0.235839 0
M  V30 2464 N 251.277 0.427512 1.51691 0
M  V30 2465 C 252.507 -0.140986 2.06118 0
M  V30 2466 C 252.915 -1.37854 1.29588 0
M  V30 2467 O 252.258 -1.80411 0.346036 0
M  V30 2468 C 252.32 -0.538276 3.55447 0
M  V30 2469 C 251.984 0.591095 4.53161 0
M  V30 2470 C 252.981 1.46027 4.98971 0
M  V30 2471 C 250.666 0.769028 4.96378 0
M  V30 2472 C 252.66 2.49216 5.8666 0
M  V30 2473 C 250.347 1.80421 5.83859 0
M  V30 2474 C 251.345 2.66417 6.28897 0
M  V30 2475 O 251.033 3.68159 7.14643 0
M  V30 2476 H 250.765 -0.0157455 0.675817 0
M  V30 2477 H 253.319 0.602495 1.96365 0
M  V30 2478 H 251.549 -1.33432 3.6295 0
M  V30 2479 H 253.238 -1.0368 3.92435 0
M  V30 2480 H 254.004 1.33429 4.66285 0
M  V30 2481 H 249.883 0.109273 4.6087 0
M  V30 2482 H 253.427 3.16372 6.21735 0
M  V30 2483 H 249.324 1.93042 6.15959 0
M  V30 2484 H 250.092 3.64622 7.32798 0
M  V30 2485 N 252.755 -1.56801 0.158532 0
M  V30 2486 C 253.985 -2.00568 -0.495583 0
M  V30 2487 C 254.393 -1.03774 -1.58201 0
M  V30 2488 O 253.736 -0.0285797 -1.83678 0
M  V30 2489 C 253.798 -3.40768 -1.14532 0
M  V30 2490 C 253.462 -4.56553 -0.202101 0
M  V30 2491 C 254.459 -5.16714 0.574675 0
M  V30 2492 C 252.144 -5.02197 -0.101648 0
M  V30 2493 C 254.138 -6.20939 1.43924 0
M  V30 2494 C 251.825 -6.06274 0.766508 0
M  V30 2495 C 252.823 -6.65515 1.53555 0
M  V30 2496 O 252.511 -7.67575 2.38922 0
M  V30 2497 H 252.243 -0.662893 -0.13247 0
M  V30 2498 H 254.797 -2.03829 0.253559 0
M  V30 2499 H 253.027 -3.34381 -1.94233 0
M  V30 2500 H 254.716 -3.6857 -1.70033 0
M  V30 2501 H 255.482 -4.82341 0.507167 0
M  V30 2502 H 251.361 -4.55807 -0.689994 0
M  V30 2503 H 254.905 -6.67107 2.03996 0
M  V30 2504 H 250.802 -6.40073 0.835266 0
M  V30 2505 H 251.57 -7.84844 2.32296 0
M  V30 2506 N 254.233 0.115231 -1.57178 0
M  V30 2507 C 255.48 0.822351 -1.8505 0
M  V30 2508 C 255.808 1.79701 -0.744168 0
M  V30 2509 O 255.063 1.93909 0.26414 0
M  V30 2510 C 255.362 1.60324 -3.19423 0
M  V30 2511 C 255.028 0.772536 -4.44233 0
M  V30 2512 C 253.69 0.543468 -4.78121 0
M  V30 2513 C 256.042 0.193746 -5.2084 0
M  V30 2514 C 253.37 -0.274583 -5.86057 0
M  V30 2515 C 255.722 -0.611517 -6.29637 0
M  V30 2516 C 254.386 -0.850867 -6.62055 0
M  V30 2517 H 253.656 0.30092 -0.677147 0
M  V30 2518 H 256.303 0.0845802 -1.91313 0
M  V30 2519 H 254.608 2.41203 -3.08753 0
M  V30 2520 H 256.305 2.1544 -3.38211 0
M  V30 2521 H 252.895 0.96117 -4.17683 0
M  V30 2522 H 257.079 0.357926 -4.95008 0
M  V30 2523 H 252.335 -0.469206 -6.09597 0
M  V30 2524 H 256.509 -1.06697 -6.88178 0
M  V30 2525 H 254.136 -1.48657 -7.45523 0
M  V30 2526 N 255.711 1.52812 0.385517 0
M  V30 2527 C 256.643 1.74096 1.49074 0
M  V30 2528 C 257.656 0.621462 1.50472 0
M  V30 2529 O 258.845 0.897245 1.54311 0
M  V30 2530 C 255.945 1.78774 2.87911 0
M  V30 2531 C 255.118 3.08134 3.10439 0
M  V30 2532 C 254.177 3.04313 4.29278 0
M  V30 2533 O 253.203 3.78168 4.25415 0
M  V30 2534 N 254.405 2.23741 5.35649 0
M  V30 2535 H 257.17 2.69455 1.31202 0
M  V30 2536 H 254.731 1.51343 0.575065 0
M  V30 2537 H 256.723 1.73721 3.65518 0
M  V30 2538 H 255.293 0.907869 2.99126 0
M  V30 2539 H 254.513 3.26649 2.20667 0
M  V30 2540 H 255.801 3.93662 3.22347 0
M  V30 2541 H 255.199 1.63211 5.41645 0
M  V30 2542 H 253.756 2.24524 6.11909 0
M  V30 2543 N 257.189 -0.644168 1.43834 0
M  V30 2544 C 258.152 -1.73857 1.49353 0
M  V30 2545 C 259.152 -1.56315 0.377112 0
M  V30 2546 O 260.342 -1.62048 0.639226 0
M  V30 2547 C 257.474 -3.12819 1.35488 0
M  V30 2548 H 258.667 -1.70342 2.46827 0
M  V30 2549 H 256.22 -0.856652 1.30733 0
M  V30 2550 H 256.955 -3.2194 0.390569 0
M  V30 2551 H 256.74 -3.26958 2.16428 0
M  V30 2552 H 258.23 -3.92606 1.42302 0
M  V30 2553 N 258.668 -1.30515 -0.883378 0
M  V30 2554 C 259.908 -1.20716 -1.64946 0
M  V30 2555 C 260.272 0.234072 -1.90568 0
M  V30 2556 O 261.473 0.455335 -2.64915 0
M  V30 2557 C 259.744 -2.01444 -2.9522 0
M  V30 2558 S 261.303 -2.0836 -3.86175 0
M  V30 2559 H 258.121 -0.430165 -0.566109 0
M  V30 2560 H 260.723 -1.65011 -1.04841 0
M  V30 2561 H 259.427 -3.05268 -2.74298 0
M  V30 2562 H 258.958 -1.57817 -3.60357 0
M  V30 2563 H 260.973 -1.21215 -4.81167 0
M  V30 2564 N 260.146 1.09593 -1.13257 0
M  V30 2565 C 261.393 1.81734 -0.893257 0
M  V30 2566 C 261.721 1.8563 0.580656 0
M  V30 2567 O 260.976 1.31906 1.44566 0
M  V30 2568 C 261.275 3.27802 -1.42411 0
M  V30 2569 C 260.941 3.44041 -2.91456 0
M  V30 2570 C 259.603 3.48181 -3.3215 0
M  V30 2571 C 261.955 3.48719 -3.87356 0
M  V30 2572 C 259.283 3.54575 -4.67433 0
M  V30 2573 C 261.635 3.56648 -5.2248 0
M  V30 2574 C 260.299 3.59055 -5.62704 0
M  V30 2575 H 259.569 0.665011 -0.326866 0
M  V30 2576 H 262.216 1.2912 -1.41422 0
M  V30 2577 H 260.521 3.83042 -0.823795 0
M  V30 2578 H 262.218 3.82149 -1.21503 0
M  V30 2579 H 258.808 3.41502 -2.58987 0
M  V30 2580 H 262.992 3.44763 -3.57004 0
M  V30 2581 H 258.248 3.54725 -4.97976 0
M  V30 2582 H 262.422 3.59212 -5.96607 0
M  V30 2583 H 260.049 3.63763 -6.67518 0
M  V30 2584 N 261.624 0.925811 1.2754 0
M  V30 2585 C 262.852 0.581509 1.9856 0
M  V30 2586 C 263.267 -0.840041 1.69082 0
M  V30 2587 O 262.624 -1.55805 0.950312 0
M  V30 2588 C 262.675 0.795589 3.52637 0
M  V30 2589 O 262.396 2.16121 3.81082 0
M  V30 2590 C 263.897 0.459744 4.4091 0
M  V30 2591 H 261.117 0.220538 0.633722 0
M  V30 2592 H 263.661 1.24232 1.6244 0
M  V30 2593 H 261.816 0.18161 3.86974 0
M  V30 2594 H 262.23 2.2098 4.75676 0
M  V30 2595 H 263.704 0.660244 5.48037 0
M  V30 2596 H 264.181 -0.604625 4.35018 0
M  V30 2597 H 264.787 1.05178 4.12089 0
M  V30 2598 N 263.102 -1.41638 0.69111 0
M  V30 2599 C 264.518 -1.55435 0.362224 0
M  V30 2600 C 264.718 -1.66754 -1.13117 0
M  V30 2601 O 263.774 -1.64348 -1.91692 0
M  V30 2602 C 265.087 -2.79588 1.10684 0
M  V30 2603 C 266.635 -2.9338 1.09075 0
M  V30 2604 C 267.11 -4.20414 1.81703 0
M  V30 2605 N 268.601 -4.27362 1.7865 0
M  V30 2606 C 269.336 -5.24507 2.31689 0
M  V30 2607 N 268.832 -6.27708 2.93179 0
M  V30 2608 N 270.625 -5.16416 2.2197 0
M  V30 2609 H 262.776 -1.32536 1.65976 0
M  V30 2610 H 265.039 -0.639115 0.700168 0
M  V30 2611 H 264.745 -2.77419 2.16175 0
M  V30 2612 H 264.619 -3.70973 0.682545 0
M  V30 2613 H 267.006 -2.95067 0.0441238 0
M  V30 2614 H 267.087 -2.0318 1.55407 0
M  V30 2615 H 266.731 -4.19488 2.86343 0
M  V30 2616 H 266.661 -5.09578 1.32808 0
M  V30 2617 H 269.152 -3.53415 1.33815 0
M  V30 2618 H 269.465 -6.98217 3.31229 0
M  V30 2619 H 267.81 -6.28223 2.97255 0
M  V30 2620 H 271.001 -4.34716 1.73607 0
M  V30 2621 H 271.174 -5.91958 2.63609 0
M  V30 2622 N 264.58 -0.43555 -1.51462 0
M  V30 2623 C 265.826 0.131709 -2.02372 0
M  V30 2624 C 266.159 1.42516 -1.3192 0
M  V30 2625 O 265.434 1.89606 -0.433573 0
M  V30 2626 C 265.717 0.352301 -3.58373 0
M  V30 2627 C 265.57 -0.959676 -4.39443 0
M  V30 2628 C 266.889 1.12286 -4.25535 0
M  V30 2629 H 264.008 0.0463936 -0.735538 0
M  V30 2630 H 266.65 -0.574197 -1.81116 0
M  V30 2631 H 264.8 0.9536 -3.76615 0
M  V30 2632 H 266.472 -1.59482 -4.32855 0
M  V30 2633 H 264.715 -1.56468 -4.04599 0
M  V30 2634 H 265.386 -0.759394 -5.46752 0
M  V30 2635 H 267.862 0.613545 -4.11552 0
M  V30 2636 H 266.738 1.24598 -5.34571 0
M  V30 2637 H 266.999 2.15048 -3.86273 0
M  V30 2638 N 266.058 1.56714 -0.166846 0
M  V30 2639 C 266.968 2.21331 0.777791 0
M  V30 2640 C 267.984 1.20358 1.25658 0
M  V30 2641 O 269.16 1.53005 1.30964 0
M  V30 2642 C 266.225 2.83787 1.99163 0
M  V30 2643 C 265.286 3.99947 1.56016 0
M  V30 2644 C 264.519 4.59415 2.71613 0
M  V30 2645 O 264.742 4.17769 3.88362 0
M  V30 2646 O 263.676 5.49359 2.45945 0
M  V30 2647 H 267.502 3.02605 0.257636 0
M  V30 2648 H 265.087 1.49275 0.0611393 0
M  V30 2649 H 266.969 3.23405 2.70161 0
M  V30 2650 H 265.644 2.05513 2.50092 0
M  V30 2651 H 264.551 3.65007 0.819809 0
M  V30 2652 H 265.884 4.79801 1.09782 0
M  V30 2653 N 267.536 -0.106894 1.57237 0
M  V30 2654 C 268.446 -1.14911 2.0453 0
M  V30 2655 C 269.462 -1.44592 0.96795 0
M  V30 2656 O 270.638 -1.55468 1.2803 0
M  V30 2657 C 267.703 -2.45272 2.45036 0
M  V30 2658 C 266.764 -2.22879 3.66911 0
M  V30 2659 C 265.997 -3.47024 4.05475 0
M  V30 2660 O 266.22 -4.54804 3.44252 0
M  V30 2661 O 265.154 -3.3731 4.98504 0
M  V30 2662 H 268.98 -0.777461 2.9358 0
M  V30 2663 H 266.565 -0.318563 1.45964 0
M  V30 2664 H 268.447 -3.22055 2.71769 0
M  V30 2665 H 267.122 -2.81886 1.59129 0
M  V30 2666 H 266.029 -1.43915 3.45311 0
M  V30 2667 H 267.362 -1.91163 4.53561 0
M  V30 2668 N 269.014 -1.53014 -0.377408 0
M  V30 2669 C 270.291 -1.59215 -1.13622 0
M  V30 2670 C 270.671 -0.392407 -2.07421 0
M  V30 2671 O 270.019 0.618342 -2.19975 0
M  V30 2672 C 270.229 -2.93669 -1.88573 0
M  V30 2673 C 271.577 -3.47822 -2.43526 0
M  V30 2674 O 272.601 -2.9562 -1.98715 0
M  V30 2675 O 271.46 -4.39055 -3.25412 0
M  V30 2676 H 268.554 -0.642625 -0.52054 0
M  V30 2677 H 271.1 -1.65353 -0.381625 0
M  V30 2678 H 269.872 -3.7243 -1.20048 0
M  V30 2679 H 269.495 -2.90968 -2.70968 0
M  V30 2680 N 270.492 0.636531 -1.44174 0
M  V30 2681 C 271.769 1.39463 -1.37148 0
M  V30 2682 C 272.149 2.11082 -0.027507 0
M  V30 2683 O 271.497 2.05954 0.989716 0
M  V30 2684 C 271.707 2.36552 -2.56601 0
M  V30 2685 C 273.055 3.00048 -3.00427 0
M  V30 2686 O 274.079 2.46878 -2.56767 0
M  V30 2687 O 272.938 3.96488 -3.76111 0
M  V30 2688 H 270.032 0.623903 -0.542839 0
M  V30 2689 H 272.578 0.662039 -1.56253 0
M  V30 2690 H 271.35 1.82692 -3.46034 0
M  V30 2691 H 270.973 3.17236 -2.39681 0
M  V30 2692 N 271.97 1.30982 0.876444 0
M  V30 2693 C 273.195 1.23373 1.66715 0
M  V30 2694 C 273.62 -0.19885 1.87046 0
M  V30 2695 O 272.978 -1.1427 1.40756 0
M  V30 2696 C 273.026 1.97644 3.01611 0
M  V30 2697 O 272.13 1.30935 3.91062 0
M  V30 2698 H 271.471 0.426279 0.509099 0
M  V30 2699 H 274.001 1.72944 1.09323 0
M  V30 2700 H 274.011 2.06992 3.51594 0
M  V30 2701 H 272.686 3.01829 2.86133 0
M  V30 2702 H 271.263 1.29996 3.49507 0
M  V30 2703 N 273.449 -1.08991 1.13837 0
M  V30 2704 C 274.697 -1.80899 0.901098 0
M  V30 2705 C 275.018 -1.86356 -0.574134 0
M  V30 2706 O 274.288 -1.35235 -1.41733 0
M  V30 2707 H 272.868 -0.669966 0.330386 0
M  V30 2708 H 275.53 -1.318 1.43578 0
M  V30 2709 H 274.626 -2.83929 1.29578 0
M  V30 2710 N 274.927 -0.932562 -1.27047 0
M  V30 2711 C 275.875 -0.42603 -2.28665 0
M  V30 2712 C 276.869 0.49219 -1.62092 0
M  V30 2713 O 278.075 0.371355 -1.76128 0
M  V30 2714 H 274.45 -0.119213 -0.742491 0
M  V30 2715 H 276.421 -1.29579 -2.68797 0
M  V30 2716 C 275.17 0.301426 -3.46391 0
M  V30 2717 H 274.493 -0.39595 -3.97834 0
M  V30 2718 H 275.933 0.6202 -4.1944 0
M  V30 2719 C 274.392 1.51616 -3.00856 0
M  V30 2720 O 274.922 2.61476 -3.04948 0
M  V30 2721 N 273.128 1.36969 -2.56296 0
M  V30 2722 H 272.675 0.475873 -2.53166 0
M  V30 2723 H 272.633 2.18368 -2.26192 0
M  V30 2724 N 276.405 1.4127 -0.698611 0
M  V30 2725 C 277.352 2.30773 -0.0352094 0
M  V30 2726 C 278.322 1.47273 0.768111 0
M  V30 2727 O 279.507 1.76053 0.735524 0
M  V30 2728 C 276.647 3.33346 0.893 0
M  V30 2729 C 275.76 4.31924 0.0809695 0
M  V30 2730 C 274.895 5.21566 1.0071 0
M  V30 2731 C 273.934 6.11811 0.188155 0
M  V30 2732 N 273.071 6.93926 1.06825 0
M  V30 2733 H 277.911 2.86943 -0.804207 0
M  V30 2734 H 275.448 1.4132 -0.408294 0
M  V30 2735 H 277.406 3.91368 1.44523 0
M  V30 2736 H 276.036 2.78719 1.62836 0
M  V30 2737 H 275.088 3.75825 -0.588224 0
M  V30 2738 H 276.4 4.95716 -0.553801 0
M  V30 2739 H 275.554 5.84437 1.62845 0
M  V30 2740 H 274.293 4.58008 1.67572 0
M  V30 2741 H 273.298 5.47986 -0.446254 0
M  V30 2742 H 274.523 6.77425 -0.476716 0
M  V30 2743 H 272.469 6.32973 1.72283 0
M  V30 2744 H 272.386 7.54416 0.489123 0
M  V30 2745 H 273.654 7.61262 1.67632 0
M  V30 2746 N 277.883 0.443576 1.51229 0
M  V30 2747 C 279.108 -0.121648 2.07043 0
M  V30 2748 C 279.533 -1.35156 1.30823 0
M  V30 2749 O 278.891 -1.7793 0.347934 0
M  V30 2750 C 278.939 -0.41624 3.5819 0
M  V30 2751 O 278.043 -1.50163 3.8409 0
M  V30 2752 H 277.384 0.000871367 0.663999 0
M  V30 2753 H 279.914 0.626706 1.94765 0
M  V30 2754 H 279.924 -0.664867 4.02546 0
M  V30 2755 H 278.599 0.482653 4.1309 0
M  V30 2756 H 277.176 -1.24248 3.51592 0
M  V30 2757 N 279.361 -1.56624 0.175154 0
M  V30 2758 C 280.293 -2.15333 -0.785128 0
M  V30 2759 C 281.306 -1.1099 -1.19101 0
M  V30 2760 O 282.495 -1.38162 -1.13019 0
M  V30 2761 C 279.595 -2.68427 -2.06882 0
M  V30 2762 C 278.768 -3.97466 -1.8259 0
M  V30 2763 C 277.827 -4.35585 -2.95215 0
M  V30 2764 O 276.853 -5.03389 -2.65684 0
M  V30 2765 N 278.055 -3.97457 -4.23094 0
M  V30 2766 H 280.82 -2.98359 -0.283187 0
M  V30 2767 H 278.381 -1.61898 -0.00749817 0
M  V30 2768 H 280.373 -2.90924 -2.81328 0
M  V30 2769 H 278.943 -1.89968 -2.48256 0
M  V30 2770 H 278.163 -3.83307 -0.920287 0
M  V30 2771 H 279.451 -4.81736 -1.63733 0
M  V30 2772 H 278.849 -3.42878 -4.49945 0
M  V30 2773 H 277.406 -4.24947 -4.9423 0
M  V30 2774 N 280.839 0.0985539 -1.57292 0
M  V30 2775 C 282.064 0.820196 -1.90493 0
M  V30 2776 C 282.489 1.71658 -0.769094 0
M  V30 2777 O 281.847 1.79133 0.279495 0
M  V30 2778 C 281.895 1.61242 -3.22542 0
M  V30 2779 O 280.999 2.72108 -3.09888 0
M  V30 2780 H 280.34 0.225547 -0.62452 0
M  V30 2781 H 282.87 0.0748159 -2.04463 0
M  V30 2782 H 282.88 1.99737 -3.55766 0
M  V30 2783 H 281.555 0.954535 -4.04798 0
M  V30 2784 H 280.132 2.36667 -2.88172 0
M  V30 2785 N 282.317 1.53212 0.369288 0
M  V30 2786 C 283.542 1.73423 1.1375 0
M  V30 2787 C 283.967 0.460404 1.82378 0
M  V30 2788 O 283.325 -0.585298 1.71592 0
M  V30 2789 C 283.373 2.89769 2.1463 0
M  V30 2790 O 282.477 2.58119 3.21634 0
M  V30 2791 H 281.818 0.576061 0.330227 0
M  V30 2792 H 284.348 2.00083 0.427547 0
M  V30 2793 H 284.358 3.15829 2.58294 0
M  V30 2794 H 283.033 3.8217 1.64071 0
M  V30 2795 H 281.61 2.42864 2.82969 0
M  V30 2796 N 283.795 -0.628877 1.44509 0
M  V30 2797 C 285.041 -1.39045 1.47629 0
M  V30 2798 C 285.374 -1.93892 0.109343 0
M  V30 2799 O 284.649 -1.7379 -0.87334 0
M  V30 2800 C 284.932 -2.55408 2.53848 0
M  V30 2801 C 284.785 -2.05896 3.99909 0
M  V30 2802 C 286.104 -3.5759 2.56549 0
M  V30 2803 H 283.223 -0.504232 0.537512 0
M  V30 2804 H 285.865 -0.710854 1.76201 0
M  V30 2805 H 284.015 -3.13384 2.29615 0
M  V30 2806 H 285.687 -1.52734 4.35282 0
M  V30 2807 H 283.93 -1.37061 4.11578 0
M  V30 2808 H 284.601 -2.89681 4.69882 0
M  V30 2809 H 287.077 -3.09419 2.78207 0
M  V30 2810 H 285.953 -4.36527 3.32769 0
M  V30 2811 H 286.214 -4.11808 1.60832 0
M  V30 2812 N 285.273 -1.31445 -0.869486 0
M  V30 2813 C 286.513 -1.22458 -1.63656 0
M  V30 2814 C 286.877 0.213846 -1.90805 0
M  V30 2815 O 288.078 0.427212 -2.65383 0
M  V30 2816 C 286.349 -2.04564 -2.93067 0
M  V30 2817 S 287.908 -2.12445 -3.83944 0
M  V30 2818 H 284.726 -0.436145 -0.561514 0
M  V30 2819 H 287.328 -1.66114 -1.03085 0
M  V30 2820 H 286.032 -3.0816 -2.71045 0
M  V30 2821 H 285.563 -1.6163 -3.58663 0
M  V30 2822 H 287.578 -1.26312 -4.79854 0
M  V30 2823 N 286.751 1.08385 -1.14413 0
M  V30 2824 C 288.162 1.62258 -0.923535 0
M  V30 2825 C 288.513 1.88691 0.537595 0
M  V30 2826 O 287.638 1.64454 1.40655 0
M  V30 2827 C 288.233 2.94781 -1.67002 0
M  V30 2828 C 286.792 3.45437 -1.495 0
M  V30 2829 C 285.939 2.19668 -1.69238 0
M  V30 2830 H 288.89 0.916086 -1.2959 0
M  V30 2831 H 288.911 3.63229 -1.13334 0
M  V30 2832 H 288.423 2.7551 -2.73342 0
M  V30 2833 H 286.524 3.6981 -0.455097 0
M  V30 2834 H 286.637 4.22173 -2.2651 0
M  V30 2835 H 285.001 2.28849 -1.11804 0
M  V30 2836 H 285.784 2.02905 -2.7692 0
M  V30 2837 N 288.23 0.939286 1.26551 0
M  V30 2838 C 289.478 0.58469 1.93457 0
M  V30 2839 C 289.799 -0.878774 1.74076 0
M  V30 2840 O 289.069 -1.62421 1.09528 0
M  V30 2841 H 287.649 0.21325 0.715914 0
M  V30 2842 H 290.311 1.1942 1.54029 0
M  V30 2843 H 289.407 0.800849 3.0165 0
M  V30 2844 N 289.708 -1.40897 0.706093 0
M  V30 2845 C 290.985 -1.94868 0.169099 0
M  V30 2846 C 291.365 -1.64485 -1.32318 0
M  V30 2847 O 290.713 -0.95744 -2.07474 0
M  V30 2848 C 290.923 -3.45798 0.471654 0
M  V30 2849 C 292.271 -4.22663 0.405127 0
M  V30 2850 O 293.295 -3.53865 0.407168 0
M  V30 2851 O 292.154 -5.45216 0.374383 0
M  V30 2852 H 289.248 -0.82673 0.0211352 0
M  V30 2853 H 291.794 -1.50558 0.782976 0
M  V30 2854 H 290.566 -3.61235 1.50416 0
M  V30 2855 H 290.189 -3.97225 -0.172666 0
M  V30 2856 N 291.186 -0.45159 -1.50991 0
M  V30 2857 C 292.411 0.110667 -2.07105 0
M  V30 2858 C 292.836 1.3446 -1.31538 0
M  V30 2859 O 292.194 1.77743 -0.357365 0
M  V30 2860 C 292.242 0.397238 -3.58405 0
M  V30 2861 O 291.346 1.48124 -3.84881 0
M  V30 2862 H 290.687 -0.00439271 -0.663985 0
M  V30 2863 H 293.217 -0.637026 -1.9443 0
M  V30 2864 H 293.227 0.64351 -4.02893 0
M  V30 2865 H 291.902 -0.504553 -4.12828 0
M  V30 2866 H 290.479 1.22381 -3.52246 0
M  V30 2867 N 292.664 1.56529 -0.183458 0
M  V30 2868 C 293.912 1.96855 0.457452 0
M  V30 2869 C 294.233 1.07104 1.62953 0
M  V30 2870 O 293.503 0.139887 1.954 0
M  V30 2871 H 292.083 0.72693 0.171992 0
M  V30 2872 H 294.745 1.93056 -0.267476 0
M  V30 2873 H 293.841 3.01423 0.809368 0
M  V30 2874 N 294.142 -0.090211 1.57342 0
M  V30 2875 C 295.372 -0.805055 1.90269 0
M  V30 2876 C 295.78 -1.72561 0.775842 0
M  V30 2877 O 295.123 -1.81839 -0.260843 0
M  V30 2878 C 295.185 -1.66734 3.18497 0
M  V30 2879 C 294.849 -0.918092 4.47683 0
M  V30 2880 C 295.846 -0.245674 5.19319 0
M  V30 2881 C 293.531 -0.890724 4.94339 0
M  V30 2882 C 295.525 0.444088 6.35851 0
M  V30 2883 C 293.212 -0.197179 6.10782 0
M  V30 2884 C 294.21 0.469044 6.81388 0
M  V30 2885 O 293.898 1.15146 7.95611 0
M  V30 2886 H 293.63 -0.235143 0.633785 0
M  V30 2887 H 296.184 -0.0703805 2.05279 0
M  V30 2888 H 294.414 -2.44437 2.99646 0
M  V30 2889 H 296.103 -2.25919 3.37217 0
M  V30 2890 H 296.869 -0.258246 4.84312 0
M  V30 2891 H 292.748 -1.39873 4.39268 0
M  V30 2892 H 296.292 0.964667 6.90898 0
M  V30 2893 H 292.189 -0.18247 6.45242 0
M  V30 2894 H 292.957 1.05885 8.11622 0
M  V30 2895 N 295.62 -1.53406 -0.361157 0
M  V30 2896 C 296.53 -1.83122 -1.4664 0
M  V30 2897 C 297.546 -0.719943 -1.58407 0
M  V30 2898 O 298.722 -1.01046 -1.74218 0
M  V30 2899 C 295.787 -2.01891 -2.81853 0
M  V30 2900 C 294.848 -3.25784 -2.79577 0
M  V30 2901 C 294.081 -3.43648 -4.0834 0
M  V30 2902 O 294.304 -2.65714 -5.0473 0
M  V30 2903 O 293.238 -4.37018 -4.13883 0
M  V30 2904 H 297.064 -2.7703 -1.24451 0
M  V30 2905 H 294.649 -1.38841 -0.551678 0
M  V30 2906 H 296.531 -2.15782 -3.61962 0
M  V30 2907 H 295.206 -1.11173 -3.0401 0
M  V30 2908 H 294.113 -3.17312 -1.98151 0
M  V30 2909 H 295.446 -4.16439 -2.62373 0
M  V30 2910 N 297.098 0.621204 -1.44841 0
M  V30 2911 C 298.375 1.38 -1.38619 0
M  V30 2912 C 298.755 2.11041 -0.0498935 0
M  V30 2913 O 298.103 2.06992 0.967816 0
M  V30 2914 C 298.313 2.33817 -2.59096 0
M  V30 2915 C 299.661 2.96844 -3.03593 0
M  V30 2916 O 300.685 2.44141 -2.59371 0
M  V30 2917 O 299.544 3.92476 -3.80296 0
M  V30 2918 H 296.638 0.61811 -0.549426 0
M  V30 2919 H 299.184 0.645429 -1.56947 0
M  V30 2920 H 297.956 1.79012 -3.47952 0
M  V30 2921 H 297.579 3.14676 -2.43032 0
M  V30 2922 N 298.576 1.31904 0.862503 0
M  V30 2923 C 299.822 1.22197 1.61851 0
M  V30 2924 C 300.155 -0.217641 1.92977 0
M  V30 2925 O 299.43 -1.15264 1.56666 0
M  V30 2926 C 299.713 2.07378 2.94391 0
M  V30 2927 C 299.566 3.59678 2.70096 0
M  V30 2928 C 300.885 1.92891 3.95577 0
M  V30 2929 H 298.004 0.445255 0.587296 0
M  V30 2930 H 300.646 1.6177 0.99651 0
M  V30 2931 H 298.796 1.73758 3.47477 0
M  V30 2932 H 300.468 4.03472 2.23625 0
M  V30 2933 H 298.711 3.82735 2.04197 0
M  V30 2934 H 299.382 4.14595 3.64438 0
M  V30 2935 H 301.858 2.22327 3.51724 0
M  V30 2936 H 300.734 2.54781 4.86187 0
M  V30 2937 H 300.995 0.894315 4.3296 0
M  V30 2938 N 300.054 -1.07777 1.14986 0
M  V30 2939 C 301.002 -2.16964 0.838406 0
M  V30 2940 C 301.996 -1.68372 -0.186386 0
M  V30 2941 O 303.202 -1.79951 -0.0418465 0
M  V30 2942 H 299.577 -0.708006 0.253439 0
M  V30 2943 H 301.548 -2.40454 1.76704 0
M  V30 2944 C 300.297 -3.4604 0.339335 0
M  V30 2945 H 299.62 -3.83813 1.11927 0
M  V30 2946 H 301.06 -4.23698 0.160021 0
M  V30 2947 C 299.519 -3.23569 -0.938325 0
M  V30 2948 O 300.049 -3.47752 -2.01077 0
M  V30 2949 N 298.255 -2.77079 -0.876117 0
M  V30 2950 H 297.802 -2.576 -0.00322037 0
M  V30 2951 H 297.76 -2.62422 -1.73153 0
M  V30 2952 N 301.532 -0.945985 -1.26051 0
M  V30 2953 C 302.479 -0.45809 -2.26208 0
M  V30 2954 C 303.449 0.484816 -1.58867 0
M  V30 2955 O 304.634 0.399969 -1.86561 0
M  V30 2956 C 301.774 0.266131 -3.44072 0
M  V30 2957 C 300.887 -0.713005 -4.26075 0
M  V30 2958 C 300.022 0.0329013 -5.3119 0
M  V30 2959 C 299.061 -0.93774 -6.04874 0
M  V30 2960 N 298.198 -0.223274 -7.01745 0
M  V30 2961 H 303.038 -1.3171 -2.67313 0
M  V30 2962 H 300.575 -0.66069 -1.31428 0
M  V30 2963 H 302.533 0.702514 -4.11243 0
M  V30 2964 H 301.163 1.08925 -3.03867 0
M  V30 2965 H 300.215 -1.26789 -3.58648 0
M  V30 2966 H 301.527 -1.45406 -4.77136 0
M  V30 2967 H 300.681 0.528335 -6.04395 0
M  V30 2968 H 299.42 0.806801 -4.8098 0
M  V30 2969 H 298.425 -1.44425 -5.30492 0
M  V30 2970 H 299.65 -1.71172 -6.57173 0
M  V30 2971 H 297.596 0.532046 -6.53839 0
M  V30 2972 H 297.513 -0.90357 -7.50581 0
M  V30 2973 H 298.781 0.250907 -7.79096 0
M  V30 2974 N 303.011 1.40521 -0.713556 0
M  V30 2975 C 304.258 2.00923 -0.25219 0
M  V30 2976 C 304.586 1.56571 1.15395 0
M  V30 2977 O 303.841 0.775874 1.79663 0
M  V30 2978 C 304.14 3.56317 -0.278 0
M  V30 2979 C 303.806 4.20246 -1.63415 0
M  V30 2980 C 302.468 4.37422 -2.00538 0
M  V30 2981 C 304.82 4.55923 -2.52554 0
M  V30 2982 C 302.148 4.87558 -3.2635 0
M  V30 2983 C 304.5 5.07458 -3.77716 0
M  V30 2984 C 303.164 5.22843 -4.14959 0
M  V30 2985 H 302.434 0.735231 -0.0922829 0
M  V30 2986 H 305.081 1.68161 -0.916188 0
M  V30 2987 H 303.386 3.88976 0.469567 0
M  V30 2988 H 305.083 4.00883 0.0967819 0
M  V30 2989 H 301.673 4.07263 -1.33546 0
M  V30 2990 H 305.857 4.42291 -2.25149 0
M  V30 2991 H 301.113 4.97654 -3.55176 0
M  V30 2992 H 305.287 5.34041 -4.4696 0
M  V30 2993 H 302.914 5.61454 -5.12516 0
M  V30 2994 N 304.489 0.459591 1.5075 0
M  V30 2995 C 305.735 -0.0994966 2.02556 0
M  V30 2996 C 306.068 -1.40399 1.3417 0
M  V30 2997 O 305.343 -1.88892 0.463683 0
M  V30 2998 C 305.626 -0.295242 3.58888 0
M  V30 2999 C 305.479 1.02947 4.37861 0
M  V30 3000 C 306.798 -1.05502 4.27267 0
M  V30 3001 H 303.917 -0.034686 0.736183 0
M  V30 3002 H 306.559 0.602938 1.8018 0
M  V30 3003 H 304.709 -0.893563 3.78084 0
M  V30 3004 H 306.381 1.66348 4.30263 0
M  V30 3005 H 304.624 1.62885 4.02058 0
M  V30 3006 H 305.295 0.846281 5.45474 0
M  V30 3007 H 307.771 -0.547993 4.12476 0
M  V30 3008 H 306.647 -1.16077 5.36486 0
M  V30 3009 H 306.908 -2.08875 3.89645 0
M  V30 3010 N 305.967 -1.56429 0.191757 0
M  V30 3011 C 307.195 -2.01867 -0.453586 0
M  V30 3012 C 307.61 -1.07191 -1.5542 0
M  V30 3013 O 306.967 -0.0762108 -1.82341 0
M  V30 3014 C 307.018 -3.47017 -1.013 0
M  V30 3015 O 306.739 -4.38078 0.0437005 0
M  V30 3016 C 308.24 -4.07956 -1.73456 0
M  V30 3017 H 305.46 -0.661211 -0.114199 0
M  V30 3018 H 308.004 -2.02295 0.299483 0
M  V30 3019 H 306.159 -3.47298 -1.71647 0
M  V30 3020 H 306.573 -5.23178 -0.372212 0
M  V30 3021 H 308.047 -5.1138 -2.07833 0
M  V30 3022 H 308.524 -3.51222 -2.63704 0
M  V30 3023 H 309.13 -4.11437 -1.07702 0
M  V30 3024 N 307.445 0.0818655 -1.57387 0
M  V30 3025 C 308.377 1.12484 -1.997 0
M  V30 3026 C 309.39 1.35564 -0.90146 0
M  V30 3027 O 310.579 1.33982 -1.17945 0
M  V30 3028 C 307.679 2.47778 -2.31213 0
M  V30 3029 C 306.852 2.44793 -3.62485 0
M  V30 3030 C 305.911 3.62117 -3.81782 0
M  V30 3031 O 304.937 3.44005 -4.53486 0
M  V30 3032 N 306.139 4.82094 -3.23367 0
M  V30 3033 H 308.904 0.764585 -2.89783 0
M  V30 3034 H 306.465 0.270664 -1.59621 0
M  V30 3035 H 308.457 3.24891 -2.41304 0
M  V30 3036 H 307.027 2.75843 -1.4707 0
M  V30 3037 H 306.247 1.53134 -3.6324 0
M  V30 3038 H 307.535 2.39889 -4.48699 0
M  V30 3039 H 306.933 4.99713 -2.65148 0
M  V30 3040 H 305.49 5.56753 -3.38923 0
M  V30 3041 N 308.923 1.53595 0.353017 0
M  V30 3042 C 310.334 1.61937 0.929153 0
M  V30 3043 C 310.685 0.494686 1.89861 0
M  V30 3044 O 309.81 -0.377017 2.1309 0
M  V30 3045 C 310.405 2.93526 1.69199 0
M  V30 3046 C 308.964 3.04161 2.21727 0
M  V30 3047 C 308.111 2.57322 1.03348 0
M  V30 3048 H 311.062 1.58155 0.131431 0
M  V30 3049 H 311.083 2.82034 2.55416 0
M  V30 3050 H 310.595 3.75362 0.986144 0
M  V30 3051 H 308.696 2.26938 2.95516 0
M  V30 3052 H 308.809 4.09465 2.48748 0
M  V30 3053 H 307.173 2.12499 1.40414 0
M  V30 3054 H 307.956 3.41588 0.342428 0
M  V30 3055 N 310.401 -0.613514 1.45168 0
M  V30 3056 C 311.311 -1.75296 1.55912 0
M  V30 3057 C 312.327 -1.68244 0.443856 0
M  V30 3058 O 313.503 -1.88706 0.70371 0
M  V30 3059 C 310.568 -3.1174 1.5172 0
M  V30 3060 C 309.629 -3.30291 2.74238 0
M  V30 3061 C 308.862 -4.60226 2.70236 0
M  V30 3062 O 309.085 -5.42168 1.77229 0
M  V30 3063 O 308.019 -4.81361 3.61352 0
M  V30 3064 H 311.845 -1.69183 2.52212 0
M  V30 3065 H 309.43 -0.776886 1.27612 0
M  V30 3066 H 311.312 -3.93044 1.51968 0
M  V30 3067 H 309.987 -3.18357 0.585697 0
M  V30 3068 H 308.894 -2.48598 2.79553 0
M  V30 3069 H 310.227 -3.28547 3.66494 0
M  V30 3070 N 311.879 -1.3236 -0.855495 0
M  V30 3071 C 313.125 -1.24064 -1.61182 0
M  V30 3072 C 313.48 0.195914 -1.914 0
M  V30 3073 O 312.773 1.13345 -1.54478 0
M  V30 3074 C 312.967 -2.03275 -2.93963 0
M  V30 3075 C 312.796 -3.54486 -2.76712 0
M  V30 3076 C 311.566 -4.23824 -2.75139 0
M  V30 3077 C 313.764 -4.49154 -2.50531 0
M  V30 3078 N 311.746 -5.61095 -2.4909 0
M  V30 3079 C 313.117 -5.74195 -2.3388 0
M  V30 3080 C 315.172 -4.3842 -2.35992 0
M  V30 3081 C 313.875 -6.89716 -2.04168 0
M  V30 3082 C 315.901 -5.53739 -2.0767 0
M  V30 3083 C 315.263 -6.77779 -1.9182 0
M  V30 3084 H 311.362 -0.509139 -0.59355 0
M  V30 3085 H 313.946 -1.66715 -1.00569 0
M  V30 3086 H 312.117 -1.6297 -3.52555 0
M  V30 3087 H 313.849 -1.86881 -3.58967 0
M  V30 3088 H 310.604 -3.75934 -2.88047 0
M  V30 3089 H 311.028 -6.33411 -2.38996 0
M  V30 3090 H 315.67 -3.43172 -2.46967 0
M  V30 3091 H 313.388 -7.84977 -1.9193 0
M  V30 3092 H 316.974 -5.4736 -1.97201 0
M  V30 3093 H 315.854 -7.65504 -1.70217 0
M  V30 3094 N 313.357 1.07166 -1.15556 0
M  V30 3095 C 314.603 1.80065 -0.932984 0
M  V30 3096 C 314.936 1.86586 0.53845 0
M  V30 3097 O 314.211 1.35098 1.39924 0
M  V30 3098 C 314.494 3.25022 -1.55025 0
M  V30 3099 C 314.347 3.26634 -3.09242 0
M  V30 3100 C 315.666 4.22341 -1.2376 0
M  V30 3101 H 312.785 0.653697 -0.340366 0
M  V30 3102 H 315.427 1.25389 -1.4275 0
M  V30 3103 H 313.577 3.71712 -1.12972 0
M  V30 3104 H 315.249 2.88173 -3.60214 0
M  V30 3105 H 313.492 2.65539 -3.43033 0
M  V30 3106 H 314.163 4.28854 -3.47546 0
M  V30 3107 H 316.639 3.8405 -1.60139 0
M  V30 3108 H 315.515 5.22053 -1.69564 0
M  V30 3109 H 315.776 4.41828 -0.154938 0
M  V30 3110 N 314.835 0.952656 1.25548 0
M  V30 3111 C 315.765 0.489287 2.28316 0
M  V30 3112 C 316.746 -0.463359 1.63667 0
M  V30 3113 O 317.931 -0.36274 1.90782 0
M  V30 3114 C 315.061 -0.235603 3.465 0
M  V30 3115 C 314.015 0.631593 4.23314 0
M  V30 3116 C 313.341 -0.223923 5.34231 0
M  V30 3117 C 314.641 1.90871 4.86174 0
M  V30 3118 H 316.335 1.34822 2.67326 0
M  V30 3119 H 313.881 0.649728 1.28509 0
M  V30 3120 H 315.834 -0.570882 4.17515 0
M  V30 3121 H 314.558 -1.12877 3.06474 0
M  V30 3122 H 313.217 0.949929 3.54079 0
M  V30 3123 H 312.865 -1.11678 4.90446 0
M  V30 3124 H 312.565 0.35299 5.86539 0
M  V30 3125 H 314.089 -0.554214 6.0808 0
M  V30 3126 H 315.503 1.63997 5.49343 0
M  V30 3127 H 313.9 2.43112 5.4865 0
M  V30 3128 H 314.97 2.61304 4.08471 0
M  V30 3129 N 316.313 -1.40141 0.720998 0
M  V30 3130 C 317.26 -2.30688 0.071919 0
M  V30 3131 C 318.23 -1.48476 -0.744584 0
M  V30 3132 O 319.415 -1.77201 -0.707423 0
M  V30 3133 C 316.555 -3.34724 -0.839855 0
M  V30 3134 C 315.668 -4.31998 -0.0122438 0
M  V30 3135 C 314.803 -5.23102 -0.923995 0
M  V30 3136 C 313.842 -6.12033 -0.0907969 0
M  V30 3137 N 312.979 -6.95537 -0.957718 0
M  V30 3138 H 317.819 -2.85628 0.849755 0
M  V30 3139 H 315.356 -1.40653 0.430726 0
M  V30 3140 H 317.314 -3.93618 -1.38279 0
M  V30 3141 H 315.944 -2.81274 -1.58381 0
M  V30 3142 H 314.996 -3.74841 0.64794 0
M  V30 3143 H 316.308 -4.94772 0.632595 0
M  V30 3144 H 315.462 -5.86953 -1.53527 0
M  V30 3145 H 314.201 -4.60615 -1.60264 0
M  V30 3146 H 313.206 -5.47207 0.533377 0
M  V30 3147 H 314.431 -6.76581 0.584428 0
M  V30 3148 H 312.377 -6.35633 -1.62192 0
M  V30 3149 H 312.294 -7.55099 -0.36904 0
M  V30 3150 H 313.562 -7.63832 -1.555 0
M  V30 3151 N 317.792 -0.46758 -1.50504 0
M  V30 3152 C 318.722 0.318381 -2.31319 0
M  V30 3153 C 319.703 0.993564 -1.38066 0
M  V30 3154 O 320.888 0.991411 -1.66987 0
M  V30 3155 C 318.018 1.40275 -3.17711 0
M  V30 3156 C 316.972 0.849373 -4.19487 0
M  V30 3157 C 316.298 2.03177 -4.94594 0
M  V30 3158 C 317.598 -0.136942 -5.2212 0
M  V30 3159 H 319.292 -0.356106 -2.97275 0
M  V30 3160 H 316.838 -0.172703 -1.42961 0
M  V30 3161 H 318.791 1.96004 -3.73042 0
M  V30 3162 H 317.515 2.10596 -2.49634 0
M  V30 3163 H 316.174 0.314076 -3.65252 0
M  V30 3164 H 315.822 2.72187 -4.22993 0
M  V30 3165 H 315.522 1.66774 -5.63436 0
M  V30 3166 H 317.046 2.59403 -5.52759 0
M  V30 3167 H 318.46 0.331056 -5.72343 0
M  V30 3168 H 316.857 -0.41507 -5.98663 0
M  V30 3169 H 317.927 -1.06398 -4.73083 0
M  V30 3170 N 319.27 1.56325 -0.20005 0
M  V30 3171 C 320.686 1.58839 0.155716 0
M  V30 3172 C 320.886 1.21636 1.60645 0
M  V30 3173 O 319.942 0.941437 2.34293 0
M  V30 3174 C 321.255 3.0032 -0.151124 0
M  V30 3175 C 322.803 3.12866 -0.0916284 0
M  V30 3176 C 323.278 4.56488 -0.371845 0
M  V30 3177 N 324.769 4.62089 -0.320641 0
M  V30 3178 C 325.504 5.71116 -0.511243 0
M  V30 3179 N 325 6.88592 -0.762461 0
M  V30 3180 N 326.793 5.60335 -0.445157 0
M  V30 3181 H 318.944 1.78788 -1.14668 0
M  V30 3182 H 321.207 0.829996 -0.458051 0
M  V30 3183 H 320.913 3.32117 -1.15721 0
M  V30 3184 H 320.787 3.73257 0.543986 0
M  V30 3185 H 323.174 2.80878 0.905065 0
M  V30 3186 H 323.255 2.42304 -0.81989 0
M  V30 3187 H 322.899 4.89189 -1.36588 0
M  V30 3188 H 322.829 5.25246 0.377362 0
M  V30 3189 H 325.32 3.77665 -0.13329 0
M  V30 3190 H 325.633 7.67581 -0.896576 0
M  V30 3191 H 323.978 6.90387 -0.799412 0
M  V30 3192 H 327.169 4.67436 -0.249278 0
M  V30 3193 H 327.342 6.45243 -0.597116 0
M  V30 3194 N 320.748 -0.0735177 1.57428 0
M  V30 3195 C 321.678 -1.0879 2.06608 0
M  V30 3196 C 322.659 -1.40473 0.959237 0
M  V30 3197 O 323.844 -1.5013 1.23185 0
M  V30 3198 C 320.974 -2.40183 2.50857 0
M  V30 3199 C 319.928 -2.22858 3.65402 0
M  V30 3200 C 319.254 -3.59619 3.957 0
M  V30 3201 C 320.554 -1.65123 4.95511 0
M  V30 3202 H 322.248 -0.678673 2.91607 0
M  V30 3203 H 319.794 -0.325013 1.40284 0
M  V30 3204 H 321.747 -3.11437 2.83874 0
M  V30 3205 H 320.471 -2.83083 1.62885 0
M  V30 3206 H 319.13 -1.54045 3.32664 0
M  V30 3207 H 318.778 -4.00086 3.04861 0
M  V30 3208 H 318.478 -3.48866 4.72828 0
M  V30 3209 H 320.002 -4.32306 4.31212 0
M  V30 3210 H 321.416 -2.26241 5.26771 0
M  V30 3211 H 319.813 -1.65071 5.7695 0
M  V30 3212 H 320.883 -0.612559 4.81015 0
M  V30 3213 N 322.226 -1.5378 -0.344866 0
M  V30 3214 C 323.474 -1.70625 -1.08311 0
M  V30 3215 C 323.795 -0.471447 -1.89215 0
M  V30 3216 O 323.065 0.514616 -1.8902 0
M  V30 3217 H 321.645 -0.629058 -0.402859 0
M  V30 3218 H 324.307 -1.9103 -0.386459 0
M  V30 3219 H 323.403 -2.57656 -1.76124 0
M  V30 3220 N 323.704 0.605807 -1.45491 0
M  V30 3221 C 324.667 1.69836 -1.5391 0
M  V30 3222 C 325.667 1.55261 -0.418424 0
M  V30 3223 O 326.857 1.60296 -0.681965 0
M  V30 3224 C 323.989 3.09117 -1.43734 0
M  V30 3225 H 325.182 1.63738 -2.51257 0
M  V30 3226 H 322.735 0.821689 -1.32959 0
M  V30 3227 H 323.47 3.20791 -0.475788 0
M  V30 3228 H 323.255 3.21104 -2.25021 0
M  V30 3229 H 324.745 3.88696 -1.52661 0
M  V30 3230 N 325.182 1.32811 0.848464 0
M  V30 3231 C 326.145 1.22194 1.9391 0
M  V30 3232 C 327.145 0.143404 1.60159 0
M  V30 3233 O 328.335 0.394253 1.6968 0
M  V30 3234 C 325.467 0.88067 3.29328 0
M  V30 3235 H 326.66 2.19127 2.04752 0
M  V30 3236 H 324.213 1.16731 1.0394 0
M  V30 3237 H 324.948 -0.0865776 3.24184 0
M  V30 3238 H 324.733 1.66052 3.55203 0
M  V30 3239 H 326.223 0.830871 4.09251 0
M  V30 3240 N 326.66 -1.06551 1.16123 0
M  V30 3241 C 327.89 -1.8274 0.963838 0
M  V30 3242 C 328.298 -1.82712 -0.491228 0
M  V30 3243 O 327.641 -1.24294 -1.35265 0
M  V30 3244 C 327.703 -3.3065 1.41106 0
M  V30 3245 C 327.367 -3.54384 2.88549 0
M  V30 3246 C 328.364 -3.4765 3.86569 0
M  V30 3247 C 326.049 -3.81789 3.26408 0
M  V30 3248 C 328.043 -3.67982 5.2045 0
M  V30 3249 C 325.73 -4.01772 4.60459 0
M  V30 3250 C 326.728 -3.94866 5.57288 0
M  V30 3251 O 326.416 -4.14306 6.88916 0
M  V30 3252 H 326.148 -0.583136 0.341948 0
M  V30 3253 H 328.702 -1.35351 1.54497 0
M  V30 3254 H 326.932 -3.78887 0.773394 0
M  V30 3255 H 328.621 -3.88324 1.1815 0
M  V30 3256 H 329.387 -3.2647 3.58667 0
M  V30 3257 H 325.266 -3.86276 2.51619 0
M  V30 3258 H 328.81 -3.62507 5.96015 0
M  V30 3259 H 324.707 -4.2244 4.88072 0
M  V30 3260 H 325.475 -4.31609 6.95454 0
M  V30 3261 N 328.138 -0.959301 -1.25041 0
M  V30 3262 C 329.554 -0.664474 -1.4511 0
M  V30 3263 C 329.754 0.776481 -1.85938 0
M  V30 3264 O 328.81 1.55128 -1.99227 0
M  V30 3265 C 330.123 -1.64139 -2.5195 0
M  V30 3266 C 331.671 -1.65309 -2.65786 0
M  V30 3267 C 332.146 -2.61777 -3.75815 0
M  V30 3268 N 333.637 -2.60169 -3.83231 0
M  V30 3269 C 334.372 -3.31489 -4.6787 0
M  V30 3270 N 333.868 -4.12298 -5.56761 0
M  V30 3271 N 335.661 -3.20354 -4.61876 0
M  V30 3272 H 327.812 -1.89043 -0.968332 0
M  V30 3273 H 330.075 -0.813408 -0.4869 0
M  V30 3274 H 329.781 -2.67086 -2.28819 0
M  V30 3275 H 329.655 -1.40756 -3.49954 0
M  V30 3276 H 332.042 -0.630778 -2.8828 0
M  V30 3277 H 332.123 -1.92753 -1.68167 0
M  V30 3278 H 331.767 -3.64137 -3.54071 0
M  V30 3279 H 331.697 -2.31616 -4.72929 0
M  V30 3280 H 334.188 -2.01507 -3.19692 0
M  V30 3281 H 334.501 -4.63625 -6.18281 0
M  V30 3282 H 332.846 -4.16395 -5.56454 0
M  V30 3283 H 336.037 -2.56692 -3.91442 0
M  V30 3284 H 336.21 -3.76201 -5.27614 0
M  V30 3285 N 329.616 1.39756 -0.72842 0
M  V30 3286 C 330.863 2.00645 -0.273487 0
M  V30 3287 C 331.191 1.57786 1.13727 0
M  V30 3288 O 330.446 0.794886 1.7883 0
M  V30 3289 C 330.745 3.56002 -0.315776 0
M  V30 3290 C 330.411 4.18489 -1.67863 0
M  V30 3291 C 329.073 4.3527 -2.05166 0
M  V30 3292 C 331.425 4.53219 -2.57375 0
M  V30 3293 C 328.753 4.84069 -3.31503 0
M  V30 3294 C 331.105 5.03423 -3.83077 0
M  V30 3295 C 329.769 5.18413 -4.20481 0
M  V30 3296 H 329.039 0.734211 -0.100076 0
M  V30 3297 H 331.686 1.6718 -0.933972 0
M  V30 3298 H 329.991 3.89452 0.428285 0
M  V30 3299 H 331.688 4.00963 0.0542575 0
M  V30 3300 H 328.278 4.05824 -1.37858 0
M  V30 3301 H 332.462 4.39878 -2.29827 0
M  V30 3302 H 327.718 4.93859 -3.60435 0
M  V30 3303 H 331.892 5.2927 -4.52599 0
M  V30 3304 H 329.519 5.55987 -5.18443 0
M  V30 3305 O 331.133 0.617387 1.49233 0
M  V30 3306 H 331.824 0.132127 1.93249 0
M  V30 END ATOM
M  V30 BEGIN BOND
M  V30 END BOND
M  V30 END CTAB
M  END
$$$$
