drugbank_target|Q72JJ3 Putative acyl-CoA dehydrogenase (DB03147)
 OpenBabel12092120263D

  0  0  0     0  0            999 V3000
M  V30 BEGIN CTAB
M  V30 COUNTS 5974 6033 0 0 0
M  V30 BEGIN ATOM
M  V30 1 H -0.908 1.98254 -0.117106 0
M  V30 2 N 0 1.576 0 0
M  V30 3 C 0.933 2.03868 1.02534 0
M  V30 4 C 1.911 0.928543 1.3348 0
M  V30 5 O 3.095 1.19667 1.45644 0
M  V30 6 C 0.222 2.43627 2.35294 0
M  V30 7 C -0.732 3.65373 2.2001 0
M  V30 8 S 0.101 5.13292 1.52614 0
M  V30 9 C 1.257 5.56322 2.86805 0
M  V30 10 H 1.49 2.90518 0.631377 0
M  V30 11 H -0.977 1.52953 0.210867 0
M  V30 12 H 0.981 2.67203 3.11629 0
M  V30 13 H -0.358 1.57376 2.7183 0
M  V30 14 H -1.165 3.90944 3.18086 0
M  V30 15 H -1.563 3.418 1.51819 0
M  V30 16 H 0.729 5.58782 3.83104 0
M  V30 17 H 1.672 6.56266 2.65933 0
M  V30 18 H 2.08 4.83886 2.90714 0
M  V30 19 N 1.4781 -0.272755 1.55222 0
M  V30 20 C 2.8891 -0.84378 1.66545 0
M  V30 21 C 3.2401 -1.87035 0.592641 0
M  V30 22 O 2.3651 -2.14761 -0.265818 0
M  V30 23 C 2.9601 -1.53723 3.01918 0
M  V30 24 C 1.5191 -2.05628 3.15268 0
M  V30 25 C 0.6661 -0.898424 2.62343 0
M  V30 26 H 3.6171 -0.0490998 1.58624 0
M  V30 27 H 3.6381 -2.40421 2.94921 0
M  V30 28 H 3.1501 -0.78983 3.79978 0
M  V30 29 H 1.2511 -2.83329 2.41983 0
M  V30 30 H 1.3641 -2.27142 4.21833 0
M  V30 31 H -0.2719 -1.29186 2.19506 0
M  V30 32 H 0.5111 -0.164528 3.42906 0
M  V30 33 N 2.9562 -1.48159 -0.537278 0
M  V30 34 C 4.2052 -1.5506 -1.28993 0
M  V30 35 C 4.5182 -0.226211 -1.94288 0
M  V30 36 O 5.7242 -0.173395 -2.70946 0
M  V30 37 C 4.1802 -2.73429 -2.34018 0
M  V30 38 C 3.7882 -4.1248 -1.74825 0
M  V30 39 C 5.5322 -2.89638 -3.10339 0
M  V30 40 C 3.4392 -5.22121 -2.77747 0
M  V30 41 H 2.3692 -0.577231 -0.485098 0
M  V30 42 H 5.0202 -1.74478 -0.568317 0
M  V30 43 H 3.4022 -2.47431 -3.09182 0
M  V30 44 H 4.5762 -4.48466 -1.05899 0
M  V30 45 H 2.8912 -4.01327 -1.11022 0
M  V30 46 H 5.4882 -3.68718 -3.87235 0
M  V30 47 H 5.8312 -1.9882 -3.65754 0
M  V30 48 H 6.3642 -3.15502 -2.42288 0
M  V30 49 H 3.1032 -6.1488 -2.27161 0
M  V30 50 H 2.6232 -4.90631 -3.45024 0
M  V30 51 H 4.3022 -5.49924 -3.4087 0
M  V30 52 N 4.4343 0.785586 -1.36625 0
M  V30 53 C 5.7113 1.53198 -1.21613 0
M  V30 54 C 6.0913 2.10187 0.196113 0
M  V30 55 O 5.4393 1.94318 1.20219 0
M  V30 56 C 5.6493 2.62388 -2.30116 0
M  V30 57 C 6.9973 3.30167 -2.66974 0
M  V30 58 O 8.0213 2.72674 -2.29188 0
M  V30 59 O 6.8803 4.34077 -3.32023 0
M  V30 60 H 3.9743 0.677865 -0.473738 0
M  V30 61 H 6.5203 0.823739 -1.48367 0
M  V30 62 H 5.2923 2.18299 -3.24748 0
M  V30 63 H 4.9153 3.40827 -2.0475 0
M  V30 64 N 5.9124 1.20967 1.01018 0
M  V30 65 C 7.1594 1.02374 1.74716 0
M  V30 66 C 7.4874 -0.443375 1.89379 0
M  V30 67 O 6.7424 -1.34535 1.42123 0
M  V30 68 C 7.0414 1.65997 3.16512 0
M  V30 69 C 6.7074 3.15831 3.2181 0
M  V30 70 C 5.3694 3.56719 3.22963 0
M  V30 71 C 7.7214 4.11816 3.19464 0
M  V30 72 C 5.0494 4.92107 3.19449 0
M  V30 73 C 7.4014 5.47158 3.17491 0
M  V30 74 C 6.0654 5.87451 3.16951 0
M  V30 75 H 5.3354 0.374614 0.639332 0
M  V30 76 H 7.9824 1.50485 1.18434 0
M  V30 77 H 6.2874 1.10166 3.75993 0
M  V30 78 H 7.9844 1.49119 3.72242 0
M  V30 79 H 4.5744 2.83263 3.21652 0
M  V30 80 H 8.7584 3.81257 3.17737 0
M  V30 81 H 4.0144 5.22579 3.17366 0
M  V30 82 H 8.1884 6.21274 3.14629 0
M  V30 83 H 5.8154 6.92329 3.13983 0
M  V30 84 N 7.3905 -1.2043 1.01659 0
M  V30 85 C 8.6155 -1.94318 0.724942 0
M  V30 86 C 9.0405 -1.74266 -0.708034 0
M  V30 87 O 8.3985 -1.03694 -1.48719 0
M  V30 88 C 8.4465 -3.44486 1.06591 0
M  V30 89 O 7.5505 -4.12017 0.177599 0
M  V30 90 H 6.8915 -0.60708 0.26898 0
M  V30 91 H 9.4215 -1.52861 1.35995 0
M  V30 92 H 9.4315 -3.95106 1.01762 0
M  V30 93 H 8.1065 -3.58404 2.10997 0
M  V30 94 H 6.6835 -3.71821 0.283421 0
M  V30 95 N 8.8686 -0.792821 -1.36206 0
M  V30 96 C 9.7986 -0.207853 -2.32573 0
M  V30 97 C 10.7796 0.659055 -1.56813 0
M  V30 98 O 11.9646 0.592176 -1.84951 0
M  V30 99 C 9.0946 0.655449 -3.41059 0
M  V30 100 C 8.0486 -0.111842 -4.27854 0
M  V30 101 C 7.3746 0.872274 -5.27537 0
M  V30 102 C 8.6746 -1.30299 -5.05786 0
M  V30 103 H 10.3686 -1.01294 -2.81744 0
M  V30 104 H 7.9146 -0.48854 -1.3546 0
M  V30 105 H 9.8676 1.07464 -4.07467 0
M  V30 106 H 8.5916 1.49328 -2.90463 0
M  V30 107 H 7.2506 -0.512053 -3.63006 0
M  V30 108 H 6.8986 1.70523 -4.73214 0
M  V30 109 H 6.5986 0.363291 -5.86476 0
M  V30 110 H 8.1226 1.28996 -5.96818 0
M  V30 111 H 9.5366 -0.959379 -5.65216 0
M  V30 112 H 7.9336 -1.7455 -5.74154 0
M  V30 113 H 9.0036 -2.09663 -4.37229 0
M  V30 114 N 10.3467 1.47872 -0.545128 0
M  V30 115 C 11.5747 2.06889 -0.021084 0
M  V30 116 C 11.9897 1.39955 1.2672 0
M  V30 117 O 11.3467 0.492036 1.75742 0
M  V30 118 C 11.3977 3.60996 0.190817 0
M  V30 119 O 11.1187 4.25419 -1.04644 0
M  V30 120 C 12.6197 4.36849 0.753521 0
M  V30 121 H 9.8397 0.669785 -0.0403635 0
M  V30 122 H 12.3837 1.90049 -0.755095 0
M  V30 123 H 10.5387 3.77391 0.87492 0
M  V30 124 H 10.9527 5.17785 -0.836611 0
M  V30 125 H 12.4267 5.45399 0.851139 0
M  V30 126 H 12.9037 4.02306 1.762 0
M  V30 127 H 13.5097 4.25169 0.105503 0
M  V30 128 N 11.8248 0.280983 1.55075 0
M  V30 129 C 12.7348 -0.61388 2.26426 0
M  V30 130 C 13.7508 -1.16521 1.29224 0
M  V30 131 O 14.9268 -1.19426 1.62171 0
M  V30 132 C 11.9918 -1.7788 2.9759 0
M  V30 133 C 11.0528 -1.26355 4.10284 0
M  V30 134 C 10.2858 -2.37295 4.78045 0
M  V30 135 O 10.5088 -3.56777 4.45047 0
M  V30 136 O 9.4428 -2.05119 5.65871 0
M  V30 137 H 13.2688 -0.0356932 3.03679 0
M  V30 138 H 10.8538 0.0481686 1.49322 0
M  V30 139 H 12.7358 -2.45791 3.42293 0
M  V30 140 H 11.4108 -2.34397 2.23249 0
M  V30 141 H 10.3178 -0.550735 3.70024 0
M  V30 142 H 11.6508 -0.744065 4.86543 0
M  V30 143 N 13.3029 -1.57598 0.00835791 0
M  V30 144 C 14.2129 -2.12385 -0.996487 0
M  V30 145 C 15.2289 -1.07108 -1.37127 0
M  V30 146 O 16.4049 -1.39055 -1.4569 0
M  V30 147 C 13.4699 -2.62314 -2.26699 0
M  V30 148 C 12.5309 -3.82225 -1.95456 0
M  V30 149 C 11.7639 -4.29763 -3.16449 0
M  V30 150 O 11.9869 -3.76584 -4.28416 0
M  V30 151 O 10.9209 -5.21832 -2.99958 0
M  V30 152 H 14.7469 -2.98479 -0.560725 0
M  V30 153 H 12.3319 -1.47903 -0.210987 0
M  V30 154 H 14.2139 -2.94589 -3.01322 0
M  V30 155 H 12.8889 -1.79313 -2.69497 0
M  V30 156 H 11.7959 -3.54909 -1.18282 0
M  V30 157 H 13.1289 -4.66324 -1.57489 0
M  V30 158 N 14.781 0.264519 -1.55364 0
M  V30 159 C 15.713 1.34965 -1.85248 0
M  V30 160 C 16.726 1.45136 -0.737525 0
M  V30 161 O 17.915 1.46801 -1.01547 0
M  V30 162 C 15.015 2.73008 -2.00797 0
M  V30 163 C 14.188 2.85324 -3.31525 0
M  V30 164 C 13.247 4.04097 -3.37034 0
M  V30 165 O 12.273 3.94455 -4.10358 0
M  V30 166 N 13.475 5.16458 -2.65049 0
M  V30 167 H 16.24 1.09672 -2.78913 0
M  V30 168 H 13.801 0.454635 -1.55386 0
M  V30 169 H 15.793 3.50772 -2.01844 0
M  V30 170 H 14.363 2.91087 -1.1396 0
M  V30 171 H 13.583 1.94377 -3.42945 0
M  V30 172 H 14.871 2.9049 -4.17724 0
M  V30 173 H 14.269 5.27181 -2.05175 0
M  V30 174 H 12.826 5.92422 -2.71809 0
M  V30 175 N 16.2591 1.48442 0.529413 0
M  V30 176 C 17.6751 1.34575 0.858004 0
M  V30 177 C 17.8751 0.3572 1.98309 0
M  V30 178 O 16.9311 -0.221379 2.51528 0
M  V30 179 C 18.2441 2.74617 1.22499 0
M  V30 180 C 19.7921 2.83109 1.33484 0
M  V30 181 C 20.2671 4.23854 1.73526 0
M  V30 182 N 21.7581 4.2653 1.80628 0
M  V30 183 C 22.4931 5.32372 2.12997 0
M  V30 184 N 21.9891 6.48491 2.43786 0
M  V30 185 N 23.7821 5.19766 2.14008 0
M  V30 186 H 15.9331 2.1133 -0.212925 0
M  V30 187 H 18.1961 0.947439 -0.0326199 0
M  V30 188 H 17.9021 3.4852 0.471905 0
M  V30 189 H 17.7761 3.08177 2.17501 0
M  V30 190 H 20.1631 2.09462 2.0787 0
M  V30 191 H 20.2441 2.53168 0.366027 0
M  V30 192 H 19.8881 4.98018 0.997013 0
M  V30 193 H 19.8181 4.5124 2.71459 0
M  V30 194 H 22.3091 3.42772 1.59108 0
M  V30 195 H 22.6221 7.24993 2.67592 0
M  V30 196 H 20.9671 6.51765 2.41304 0
M  V30 197 H 24.1581 4.28066 1.89412 0
M  V30 198 H 24.3311 6.02354 2.38902 0
M  V30 199 N 17.7372 -0.778329 1.37039 0
M  V30 200 C 18.6692 -1.90034 1.2814 0
M  V30 201 C 19.6822 -1.61585 0.198558 0
M  V30 202 O 20.8712 -1.72625 0.454175 0
M  V30 203 C 17.9712 -3.25108 0.956968 0
M  V30 204 C 17.1442 -3.81253 2.14394 0
M  V30 205 C 16.2032 -4.94789 1.79082 0
M  V30 206 O 15.2292 -5.10721 2.51301 0
M  V30 207 N 16.4312 -5.75878 0.731043 0
M  V30 208 H 19.1962 -1.98186 2.24816 0
M  V30 209 H 16.7572 -0.957129 1.30578 0
M  V30 210 H 18.7492 -3.9857 0.701701 0
M  V30 211 H 17.3192 -3.125 0.0789812 0
M  V30 212 H 16.5392 -2.99647 2.56135 0
M  V30 213 H 17.8272 -4.15495 2.93668 0
M  V30 214 H 17.2252 -5.65547 0.131618 0
M  V30 215 H 15.7822 -6.49596 0.535622 0
M  V30 216 N 19.2153 -1.21501 -1.00376 0
M  V30 217 C 20.1453 -0.999478 -2.11028 0
M  V30 218 C 21.1263 0.0759671 -1.6993 0
M  V30 219 O 22.3113 -0.0841106 -1.94018 0
M  V30 220 C 19.4413 -0.564709 -3.42678 0
M  V30 221 C 18.3953 -1.58486 -3.97576 0
M  V30 222 C 17.7213 -1.00628 -5.25146 0
M  V30 223 C 19.0213 -2.97204 -4.29496 0
M  V30 224 H 20.7153 -1.92495 -2.29317 0
M  V30 225 H 18.2613 -0.92693 -1.102 0
M  V30 226 H 20.2143 -0.401091 -4.19487 0
M  V30 227 H 18.9383 0.396411 -3.24185 0
M  V30 228 H 17.5973 -1.73606 -3.22888 0
M  V30 229 H 17.2453 -0.0368439 -5.02987 0
M  V30 230 H 16.9453 -1.68771 -5.62841 0
M  V30 231 H 18.4693 -0.854015 -6.04598 0
M  V30 232 H 19.8833 -2.8552 -4.97143 0
M  V30 233 H 18.2803 -3.62372 -4.78338 0
M  V30 234 H 19.3503 -3.47956 -3.3772 0
M  V30 235 N 20.6934 1.19889 -1.02296 0
M  V30 236 C 21.6254 2.22334 -0.556787 0
M  V30 237 C 22.6384 1.58674 0.364199 0
M  V30 238 O 23.8274 1.77768 0.161533 0
M  V30 239 C 20.9274 3.38257 0.208694 0
M  V30 240 C 20.1004 4.31504 -0.71577 0
M  V30 241 C 19.1594 5.262 0.00325597 0
M  V30 242 O 18.1854 5.65798 -0.621357 0
M  V30 243 N 19.3874 5.66303 1.27599 0
M  V30 244 H 22.1524 2.62957 -1.43784 0
M  V30 245 H 19.7134 1.34495 -0.901261 0
M  V30 246 H 21.7054 3.98616 0.699111 0
M  V30 247 H 20.2754 2.96472 0.991102 0
M  V30 248 H 19.4954 3.69016 -1.38638 0
M  V30 249 H 20.7834 4.9072 -1.34428 0
M  V30 250 H 20.1814 5.36155 1.80429 0
M  V30 251 H 18.7384 6.28942 1.71102 0
M  V30 252 N 22.1715 0.800033 1.35784 0
M  V30 253 C 23.1345 0.211565 2.28221 0
M  V30 254 C 24.1345 -0.59728 1.49296 0
M  V30 255 O 25.3245 -0.416721 1.69142 0
M  V30 256 C 22.4565 -0.705846 3.33513 0
M  V30 257 H 23.6495 1.02677 2.81776 0
M  V30 258 H 21.2025 0.570211 1.45528 0
M  V30 259 H 21.9375 -1.54498 2.85133 0
M  V30 260 H 21.7225 -0.127655 3.91892 0
M  V30 261 H 23.2125 -1.11211 4.02519 0
M  V30 262 N 23.6496 -1.47581 0.552962 0
M  V30 263 C 24.5796 -2.32762 -0.185451 0
M  V30 264 C 25.5606 -1.43527 -0.912905 0
M  V30 265 O 26.7456 -1.72388 -0.894201 0
M  V30 266 C 23.8756 -3.25219 -1.21859 0
M  V30 267 C 22.8296 -4.23661 -0.607864 0
M  V30 268 C 22.1556 -5.05413 -1.74533 0
M  V30 269 C 23.4556 -5.20481 0.435582 0
M  V30 270 H 25.1496 -2.94749 0.525684 0
M  V30 271 H 22.6956 -1.41738 0.254251 0
M  V30 272 H 24.6486 -3.8365 -1.7433 0
M  V30 273 H 23.3726 -2.61279 -1.95961 0
M  V30 274 H 22.0316 -3.66451 -0.104489 0
M  V30 275 H 21.6796 -4.3788 -2.47529 0
M  V30 276 H 21.3796 -5.72059 -1.34249 0
M  V30 277 H 22.9036 -5.66701 -2.27338 0
M  V30 278 H 24.3176 -5.733 -0.00290157 0
M  V30 279 H 22.7146 -5.95305 0.757067 0
M  V30 280 H 23.7846 -4.66217 1.33303 0
M  V30 281 N 25.1277 -0.289203 -1.54924 0
M  V30 282 C 26.0907 0.579144 -2.21762 0
M  V30 283 C 27.0907 1.07047 -1.1999 0
M  V30 284 O 28.2807 0.968384 -1.44803 0
M  V30 285 C 25.4127 1.80055 -2.8947 0
M  V30 286 H 26.6057 -0.00464908 -2.999 0
M  V30 287 H 24.1587 -0.0399306 -1.56249 0
M  V30 288 H 24.8937 2.42449 -2.15381 0
M  V30 289 H 24.6787 1.45602 -3.64064 0
M  V30 290 H 26.1687 2.41773 -3.40493 0
M  V30 291 N 26.6058 1.57591 -0.0167156 0
M  V30 292 C 28.0218 1.55946 0.339557 0
M  V30 293 C 28.2218 1.02109 1.73713 0
M  V30 294 O 27.2778 0.662303 2.43659 0
M  V30 295 C 28.5908 3.00037 0.199499 0
M  V30 296 C 30.1388 3.11805 0.273193 0
M  V30 297 C 30.6138 4.57713 0.162068 0
M  V30 298 N 32.1048 4.6268 0.219444 0
M  V30 299 C 32.8398 5.73185 0.157054 0
M  V30 300 N 32.3358 6.92786 0.0442936 0
M  V30 301 N 34.1288 5.61707 0.21014 0
M  V30 302 H 26.2798 1.90921 -0.930758 0
M  V30 303 H 28.5428 0.877674 -0.358319 0
M  V30 304 H 28.2488 3.4333 -0.76273 0
M  V30 305 H 28.1228 3.64387 0.974786 0
M  V30 306 H 30.5098 2.68433 1.22587 0
M  V30 307 H 30.5908 2.50201 -0.532256 0
M  V30 308 H 30.2348 5.01763 -0.78714 0
M  V30 309 H 30.1648 5.17283 0.986222 0
M  V30 310 H 32.6558 3.76649 0.307246 0
M  V30 311 H 32.9688 7.728 0.00304069 0
M  V30 312 H 31.3138 6.94999 0.00968457 0
M  V30 313 H 34.5048 4.6716 0.296546 0
M  V30 314 H 34.6778 6.47807 0.158054 0
M  V30 315 N 28.0839 -0.256276 1.55502 0
M  V30 316 C 29.4999 -0.604325 1.47716 0
M  V30 317 C 29.6999 -1.88763 0.705039 0
M  V30 318 O 28.7559 -2.51445 0.230613 0
M  V30 319 C 30.0689 -0.715756 2.92057 0
M  V30 320 C 31.6169 -0.808706 3.02372 0
M  V30 321 C 32.0919 -0.951777 4.48001 0
M  V30 322 N 33.5829 -1.01688 4.519 0
M  V30 323 C 34.3179 -1.14668 5.61817 0
M  V30 324 N 33.8139 -1.24261 6.81565 0
M  V30 325 N 35.6069 -1.1791 5.49594 0
M  V30 326 H 27.7579 0.586291 2.04148 0
M  V30 327 H 30.0209 0.201015 0.926443 0
M  V30 328 H 29.7269 0.157027 3.51349 0
M  V30 329 H 29.6009 -1.59071 3.42018 0
M  V30 330 H 31.9879 -1.67195 2.43166 0
M  V30 331 H 32.0689 0.0912063 2.55637 0
M  V30 332 H 31.7129 -0.0931291 5.07815 0
M  V30 333 H 31.6429 -1.86659 4.92408 0
M  V30 334 H 34.1339 -0.954468 3.65648 0
M  V30 335 H 34.4469 -1.34046 7.61086 0
M  V30 336 H 32.7919 -1.21236 6.84344 0
M  V30 337 H 35.9829 -1.10057 4.54978 0
M  V30 338 H 36.1559 -1.27681 6.35296 0
M  V30 339 N 29.562 -1.4872 -0.521534 0
M  V30 340 C 30.809 -1.57168 -1.27689 0
M  V30 341 C 31.137 -0.249275 -1.92896 0
M  V30 342 O 30.392 0.761162 -1.80291 0
M  V30 343 C 30.691 -2.66497 -2.38148 0
M  V30 344 C 30.357 -4.08664 -1.90538 0
M  V30 345 C 29.019 -4.47357 -1.77271 0
M  V30 346 C 31.371 -4.97724 -1.54663 0
M  V30 347 C 28.699 -5.72905 -1.26478 0
M  V30 348 C 31.051 -6.2377 -1.05329 0
M  V30 349 C 29.715 -6.61311 -0.906861 0
M  V30 350 H 28.985 -0.575117 -0.467249 0
M  V30 351 H 31.632 -1.82472 -0.581051 0
M  V30 352 H 29.937 -2.35085 -3.13437 0
M  V30 353 H 31.634 -2.70246 -2.96257 0
M  V30 354 H 28.224 -3.78111 -2.01816 0
M  V30 355 H 32.408 -4.68501 -1.63768 0
M  V30 356 H 27.664 -6.00709 -1.13835 0
M  V30 357 H 31.838 -6.9217 -0.76644 0
M  V30 358 H 29.465 -7.5848 -0.511083 0
M  V30 359 N 31.0401 0.771051 -1.3745 0
M  V30 360 C 32.0031 1.86598 -1.33093 0
M  V30 361 C 33.0031 1.59076 -0.234845 0
M  V30 362 O 34.1931 1.67145 -0.490732 0
M  V30 363 C 31.3251 3.23747 -1.06773 0
M  V30 364 H 32.5181 1.91873 -2.30488 0
M  V30 365 H 30.0711 0.970876 -1.2249 0
M  V30 366 H 30.8061 3.24148 -0.099129 0
M  V30 367 H 30.5911 3.45115 -1.86112 0
M  V30 368 H 32.0811 4.03824 -1.06377 0
M  V30 369 N 32.5182 1.22032 0.997298 0
M  V30 370 C 33.4652 0.986467 2.08656 0
M  V30 371 C 34.4352 -0.0902671 1.65855 0
M  V30 372 O 35.6202 0.0584294 1.90711 0
M  V30 373 C 32.7602 0.565569 3.40434 0
M  V30 374 C 31.8732 1.71259 3.96604 0
M  V30 375 C 31.0082 1.24011 5.16522 0
M  V30 376 C 30.0472 2.35896 5.64818 0
M  V30 377 N 29.1842 1.89726 6.7598 0
M  V30 378 H 34.0242 1.91892 2.27994 0
M  V30 379 H 31.5612 0.956199 1.11782 0
M  V30 380 H 33.5192 0.302738 4.161 0
M  V30 381 H 32.1492 -0.329879 3.2111 0
M  V30 382 H 31.2012 2.08986 3.17851 0
M  V30 383 H 32.5132 2.55436 4.28432 0
M  V30 384 H 31.6672 0.934395 5.99461 0
M  V30 385 H 30.4062 0.368487 4.86306 0
M  V30 386 H 29.4112 2.67261 4.8047 0
M  V30 387 H 30.6362 3.23567 5.97061 0
M  V30 388 H 28.5822 1.0492 6.47555 0
M  V30 389 H 28.4992 2.67471 7.07103 0
M  V30 390 H 29.7672 1.62211 7.62435 0
M  V30 391 N 33.9963 -1.19345 1.0293 0
M  V30 392 C 34.9063 -2.26245 0.620515 0
M  V30 393 C 35.9223 -1.70486 -0.347928 0
M  V30 394 O 37.0983 -2.00347 -0.205704 0
M  V30 395 C 34.1633 -3.46693 -0.0218957 0
M  V30 396 C 33.2243 -4.17632 0.994102 0
M  V30 397 C 32.4573 -5.32329 0.382253 0
M  V30 398 O 32.6803 -5.64552 -0.814676 0
M  V30 399 O 31.6143 -5.91664 1.10531 0
M  V30 400 H 35.4403 -2.63453 1.51083 0
M  V30 401 H 33.0253 -1.26207 0.799513 0
M  V30 402 H 34.9073 -4.19683 -0.380072 0
M  V30 403 H 33.5823 -3.11333 -0.886209 0
M  V30 404 H 32.4893 -3.4676 1.40387 0
M  V30 405 H 33.8223 -4.56964 1.8288 0
M  V30 406 N 35.4744 -0.807222 -1.35358 0
M  V30 407 C 36.7204 -0.388463 -1.99045 0
M  V30 408 C 37.0534 1.04184 -1.63888 0
M  V30 409 O 36.3284 1.72292 -0.902535 0
M  V30 410 C 36.6114 -0.572783 -3.55515 0
M  V30 411 C 36.4644 -2.04807 -4.00468 0
M  V30 412 C 37.7834 0.00114064 -4.401 0
M  V30 413 H 34.9024 -0.142619 -0.723069 0
M  V30 414 H 37.5444 -1.01687 -1.60498 0
M  V30 415 H 35.6944 -0.0378425 -3.88482 0
M  V30 416 H 37.3664 -2.64544 -3.77908 0
M  V30 417 H 35.6094 -2.54427 -3.51353 0
M  V30 418 H 36.2804 -2.12792 -5.09337 0
M  V30 419 H 38.7564 -0.455716 -4.13597 0
M  V30 420 H 37.6324 -0.157737 -5.48673 0
M  V30 421 H 37.8934 1.09488 -4.28328 0
M  V30 422 N 36.9525 1.47285 -0.560781 0
M  V30 423 C 38.2015 2.01668 -0.035895 0
M  V30 424 C 38.5145 1.44021 1.32353 0
M  V30 425 O 39.7205 1.90088 1.93853 0
M  V30 426 C 38.1765 3.59897 -0.0136659 0
M  V30 427 C 37.7845 4.26536 -1.37006 0
M  V30 428 C 39.5285 4.22017 0.458425 0
M  V30 429 C 37.4355 5.76782 -1.30675 0
M  V30 430 H 36.3655 0.753938 -0.00964879 0
M  V30 431 H 39.0165 1.69243 -0.709166 0
M  V30 432 H 37.3985 3.89301 0.725325 0
M  V30 433 H 38.5725 4.0877 -2.12705 0
M  V30 434 H 36.8875 3.76419 -1.78038 0
M  V30 435 H 39.4845 5.32124 0.524247 0
M  V30 436 H 39.8275 3.89437 1.4712 0
M  V30 437 H 40.3605 3.97159 -0.225818 0
M  V30 438 H 37.0995 6.13988 -2.29564 0
M  V30 439 H 36.6195 5.96875 -0.591622 0
M  V30 440 H 38.2985 6.39063 -1.01033 0
M  V30 441 N 38.4306 0.297415 1.54768 0
M  V30 442 C 39.3606 -0.573494 2.26348 0
M  V30 443 C 40.3416 -1.14085 1.26169 0
M  V30 444 O 41.5266 -1.17086 1.54934 0
M  V30 445 C 38.6566 -1.74716 3.00153 0
M  V30 446 C 37.6106 -1.31032 4.07449 0
M  V30 447 C 36.9366 -2.56887 4.68949 0
M  V30 448 C 38.2366 -0.444183 5.20408 0
M  V30 449 H 39.9306 0.0235131 2.99391 0
M  V30 450 H 37.4766 0.0127488 1.43994 0
M  V30 451 H 39.4296 -2.3625 3.48947 0
M  V30 452 H 38.1536 -2.37035 2.24682 0
M  V30 453 H 36.8126 -0.718066 3.59499 0
M  V30 454 H 36.4606 -3.17512 3.90122 0
M  V30 455 H 36.1606 -2.2836 5.41411 0
M  V30 456 H 37.6846 -3.19229 5.20505 0
M  V30 457 H 39.0986 -0.9651 5.65118 0
M  V30 458 H 37.4956 -0.252846 5.99567 0
M  V30 459 H 38.5656 0.531609 4.81977 0
M  V30 460 N 39.9087 -1.5758 0.0250728 0
M  V30 461 C 41.3197 -1.79476 -0.514323 0
M  V30 462 C 41.6707 -0.934956 -1.72491 0
M  V30 463 O 40.7957 -0.144245 -2.15919 0
M  V30 464 C 41.3907 -3.25503 -0.939842 0
M  V30 465 C 39.9497 -3.48408 -1.42438 0
M  V30 466 C 39.0967 -2.74583 -0.387201 0
M  V30 467 H 42.0477 -1.567 0.25113 0
M  V30 468 H 42.0687 -3.34992 -1.80445 0
M  V30 469 H 41.5807 -3.88056 -0.0585628 0
M  V30 470 H 39.6817 -2.91103 -2.32572 0
M  V30 471 H 39.7947 -4.57119 -1.43455 0
M  V30 472 H 38.1587 -2.39942 -0.854409 0
M  V30 473 H 38.9417 -3.39849 0.485543 0
M  V30 474 N 41.3868 0.248026 -1.55636 0
M  V30 475 C 42.6328 0.97767 -1.77678 0
M  V30 476 C 42.9658 1.85016 -0.590135 0
M  V30 477 O 42.2408 1.90095 0.411611 0
M  V30 478 C 42.5238 1.83914 -3.09593 0
M  V30 479 C 42.3768 0.99491 -4.38659 0
M  V30 480 C 43.6958 2.82183 -3.37729 0
M  V30 481 H 40.8148 0.354005 -0.646413 0
M  V30 482 H 43.4568 0.248253 -1.88371 0
M  V30 483 H 41.6068 2.46104 -3.00608 0
M  V30 484 H 43.2788 0.391789 -4.59633 0
M  V30 485 H 41.5218 0.299231 -4.32767 0
M  V30 486 H 42.1928 1.63145 -5.2734 0
M  V30 487 H 44.6688 2.30129 -3.4667 0
M  V30 488 H 43.5448 3.39582 -4.31249 0
M  V30 489 H 43.8058 3.58588 -2.58586 0
M  V30 490 N 42.8649 1.48995 0.513639 0
M  V30 491 C 43.8279 1.64229 1.59879 0
M  V30 492 C 44.8279 0.514696 1.5234 0
M  V30 493 O 46.0179 0.78087 1.55718 0
M  V30 494 C 43.1499 1.62783 2.99524 0
M  V30 495 H 44.3429 2.61004 1.47705 0
M  V30 496 H 41.8959 1.37837 0.736936 0
M  V30 497 H 42.6309 0.675461 3.17188 0
M  V30 498 H 42.4159 2.4466 3.06404 0
M  V30 499 H 43.9059 1.76669 3.78388 0
M  V30 500 N 44.343 -0.763751 1.37857 0
M  V30 501 C 45.759 -1.06542 1.18832 0
M  V30 502 C 45.959 -2.01478 0.0299722 0
M  V30 503 O 45.015 -2.4458 -0.627447 0
M  V30 504 C 46.328 -1.65525 2.51042 0
M  V30 505 C 47.876 -1.77745 2.57635 0
M  V30 506 C 48.351 -2.4014 3.89996 0
M  V30 507 N 49.842 -2.47582 3.91481 0
M  V30 508 C 50.577 -2.96732 4.9065 0
M  V30 509 N 50.073 -3.45993 6.00217 0
M  V30 510 N 51.866 -2.95679 4.78048 0
M  V30 511 H 44.017 -0.133556 2.1198 0
M  V30 512 H 46.28 -0.121879 0.940133 0
M  V30 513 H 45.986 -1.03236 3.36207 0
M  V30 514 H 45.86 -2.64719 2.68707 0
M  V30 515 H 48.247 -2.39164 1.72872 0
M  V30 516 H 48.328 -0.772836 2.43846 0
M  V30 517 H 47.972 -1.79358 4.75177 0
M  V30 518 H 47.902 -3.41223 4.01092 0
M  V30 519 H 50.393 -2.1273 3.12337 0
M  V30 520 H 50.706 -3.81922 6.7183 0
M  V30 521 H 49.051 -3.44077 6.03851 0
M  V30 522 H 52.242 -2.56499 3.91568 0
M  V30 523 H 52.415 -3.33672 5.55488 0
M  V30 524 N 45.8211 -1.22559 -0.990812 0
M  V30 525 C 46.7311 -1.01394 -2.11557 0
M  V30 526 C 47.7471 0.0383962 -1.73958 0
M  V30 527 O 48.9231 -0.154787 -2.00804 0
M  V30 528 C 45.9881 -0.596569 -3.41529 0
M  V30 529 C 45.0491 -1.72276 -3.93217 0
M  V30 530 C 44.2821 -1.32521 -5.16985 0
M  V30 531 O 44.5051 -0.204909 -5.70032 0
M  V30 532 O 43.4391 -2.14247 -5.62478 0
M  V30 533 H 47.2651 -1.95633 -2.32296 0
M  V30 534 H 44.8501 -1.01172 -1.0993 0
M  V30 535 H 46.7321 -0.374263 -4.19735 0
M  V30 536 H 45.4071 0.316939 -3.22145 0
M  V30 537 H 44.3141 -1.99961 -3.16174 0
M  V30 538 H 45.6471 -2.61421 -4.17037 0
M  V30 539 N 47.2992 1.18797 -1.03562 0
M  V30 540 C 48.5292 1.92319 -0.754773 0
M  V30 541 C 48.9372 1.7612 0.691248 0
M  V30 542 O 48.2802 1.08491 1.48241 0
M  V30 543 C 48.3422 3.44284 -1.03484 0
M  V30 544 C 48.0062 3.84258 -2.47376 0
M  V30 545 C 49.0032 3.88459 -3.45537 0
M  V30 546 C 46.6882 4.15701 -2.81954 0
M  V30 547 C 48.6822 4.23545 -4.76328 0
M  V30 548 C 46.3692 4.50458 -4.12954 0
M  V30 549 C 47.3672 4.54356 -5.09951 0
M  V30 550 O 47.0552 4.88305 -6.38603 0
M  V30 551 H 46.7872 0.617527 -0.275021 0
M  V30 552 H 49.3412 1.51683 -1.38497 0
M  V30 553 H 47.5712 3.85135 -0.347513 0
M  V30 554 H 49.2602 3.99049 -0.7426 0
M  V30 555 H 50.0262 3.6431 -3.20162 0
M  V30 556 H 45.9052 4.11847 -2.0713 0
M  V30 557 H 49.4492 4.26502 -5.52035 0
M  V30 558 H 45.3462 4.74067 -4.38099 0
M  V30 559 H 46.1142 5.06227 -6.43177 0
M  V30 560 N 48.7773 0.814389 1.34928 0
M  V30 561 C 50.0543 0.321363 1.92942 0
M  V30 562 C 50.4343 -1.19014 1.74353 0
M  V30 563 O 49.7823 -1.99328 1.11716 0
M  V30 564 C 49.9923 0.741323 3.41036 0
M  V30 565 C 51.3403 0.735266 4.18185 0
M  V30 566 O 52.3643 0.68336 3.49584 0
M  V30 567 O 51.2233 0.800703 5.40602 0
M  V30 568 H 48.3173 0.0858893 0.822528 0
M  V30 569 H 50.8633 0.898609 1.43955 0
M  V30 570 H 49.6353 1.78276 3.4833 0
M  V30 571 H 49.2583 0.139307 3.97356 0
M  V30 572 N 50.2554 -1.46986 0.568584 0
M  V30 573 C 51.1654 -2.33942 -0.17555 0
M  V30 574 C 52.1814 -1.48891 -0.90041 0
M  V30 575 O 53.3574 -1.81794 -0.86676 0
M  V30 576 C 50.4224 -3.25811 -1.18524 0
M  V30 577 C 49.4834 -4.26757 -0.466582 0
M  V30 578 C 48.7164 -5.14236 -1.42817 0
M  V30 579 O 48.9394 -5.04379 -2.66379 0
M  V30 580 O 47.8734 -5.94412 -0.946453 0
M  V30 581 H 51.6994 -2.98896 0.538036 0
M  V30 582 H 49.2844 -1.4573 0.329097 0
M  V30 583 H 51.1664 -3.82527 -1.76779 0
M  V30 584 H 49.8414 -2.63471 -1.88055 0
M  V30 585 H 48.7484 -3.73769 0.157451 0
M  V30 586 H 50.0814 -4.91843 0.187485 0
M  V30 587 N 51.7335 -0.305618 -1.54608 0
M  V30 588 C 52.6805 0.568421 -2.23691 0
M  V30 589 C 53.6505 1.12592 -1.22116 0
M  V30 590 O 54.8355 1.16959 -1.50749 0
M  V30 591 C 51.9755 1.7322 -2.98477 0
M  V30 592 C 51.0885 1.20566 -4.14835 0
M  V30 593 C 50.2235 2.33368 -4.77193 0
M  V30 594 C 49.2625 1.7787 -5.85686 0
M  V30 595 N 48.3995 2.84263 -6.4198 0
M  V30 596 H 53.2395 -0.0272867 -2.97988 0
M  V30 597 H 50.7765 -0.0252363 -1.47078 0
M  V30 598 H 52.7345 2.41675 -3.40072 0
M  V30 599 H 51.3645 2.29947 -2.26548 0
M  V30 600 H 50.4165 0.413223 -3.78149 0
M  V30 601 H 51.7285 0.759417 -4.92985 0
M  V30 602 H 50.8825 3.09761 -5.21664 0
M  V30 603 H 49.6215 2.8132 -3.98385 0
M  V30 604 H 48.6265 0.99968 -5.40635 0
M  V30 605 H 49.8515 1.30816 -6.66381 0
M  V30 606 H 47.7975 3.31541 -5.66053 0
M  V30 607 H 47.7145 2.44149 -7.15491 0
M  V30 608 H 48.9825 3.6054 -6.91109 0
M  V30 609 N 53.2116 1.57565 -0.0334293 0
M  V30 610 C 54.1216 2.13943 0.962572 0
M  V30 611 C 55.1376 1.09276 1.35406 0
M  V30 612 O 56.3136 1.41355 1.4346 0
M  V30 613 C 53.3786 2.65887 2.22497 0
M  V30 614 C 52.4396 3.85286 1.8935 0
M  V30 615 C 51.6726 4.34743 3.09571 0
M  V30 616 O 51.8956 3.83352 4.22371 0
M  V30 617 O 50.8296 5.26538 2.91618 0
M  V30 618 H 54.6556 2.99333 0.513169 0
M  V30 619 H 52.2406 1.4822 0.18743 0
M  V30 620 H 54.1226 2.99346 2.96598 0
M  V30 621 H 52.7976 1.83578 2.6661 0
M  V30 622 H 51.7046 3.56746 1.1262 0
M  V30 623 H 53.0376 4.68771 1.5005 0
M  V30 624 N 54.6897 -0.239769 1.55765 0
M  V30 625 C 55.5997 -1.31831 1.94056 0
M  V30 626 C 56.6157 -1.52275 0.841925 0
M  V30 627 O 57.7917 -1.65759 1.14394 0
M  V30 628 C 54.8567 -2.65156 2.23368 0
M  V30 629 C 53.9177 -2.53173 3.46701 0
M  V30 630 C 53.1507 -3.8014 3.74606 0
M  V30 631 O 53.3737 -4.82343 3.04469 0
M  V30 632 O 52.3077 -3.78344 4.68123 0
M  V30 633 H 56.1337 -1.02347 2.85935 0
M  V30 634 H 53.7187 -0.441123 1.42739 0
M  V30 635 H 55.6007 -3.43929 2.43497 0
M  V30 636 H 54.2757 -2.94358 1.34666 0
M  V30 637 H 53.1827 -1.72662 3.31871 0
M  V30 638 H 54.5157 -2.28915 4.35728 0
M  V30 639 N 56.1678 -1.49265 -0.50573 0
M  V30 640 C 57.4138 -1.58748 -1.26202 0
M  V30 641 C 57.7468 -0.271227 -1.92297 0
M  V30 642 O 57.0218 0.724831 -1.80489 0
M  V30 643 C 57.3048 -2.74332 -2.33268 0
M  V30 644 C 57.1578 -4.15737 -1.71705 0
M  V30 645 C 58.4768 -2.85576 -3.34865 0
M  V30 646 H 55.5958 -0.577826 -0.457478 0
M  V30 647 H 58.2378 -1.81532 -0.560897 0
M  V30 648 H 56.3878 -2.55036 -2.93068 0
M  V30 649 H 58.0598 -4.46537 -1.15769 0
M  V30 650 H 56.3028 -4.21605 -1.02135 0
M  V30 651 H 56.9738 -4.92477 -2.49341 0
M  V30 652 H 59.4498 -3.03127 -2.8505 0
M  V30 653 H 58.3258 -3.68135 -4.07146 0
M  V30 654 H 58.5868 -1.94732 -3.96903 0
M  V30 655 N 57.6459 0.756429 -1.3826 0
M  V30 656 C 59.0569 1.33359 -1.30661 0
M  V30 657 C 59.4079 1.96161 0.0388875 0
M  V30 658 O 58.5329 1.94874 0.940918 0
M  V30 659 C 59.1279 2.42477 -2.36622 0
M  V30 660 C 57.6869 2.95922 -2.3261 0
M  V30 661 C 56.8339 1.69275 -2.19639 0
M  V30 662 H 59.7849 0.55552 -1.4866 0
M  V30 663 H 59.8059 3.22345 -2.02174 0
M  V30 664 H 59.3179 1.96739 -3.34538 0
M  V30 665 H 57.4189 3.45996 -1.38267 0
M  V30 666 H 57.5319 3.50494 -3.26636 0
M  V30 667 H 55.8959 1.92793 -1.66442 0
M  V30 668 H 56.6789 1.25619 -3.19491 0
M  V30 669 N 59.124 1.23083 0.984299 0
M  V30 670 C 60.37 1.07221 1.72845 0
M  V30 671 C 60.725 -0.387453 1.88458 0
M  V30 672 O 60.018 -1.28309 1.42293 0
M  V30 673 C 60.212 1.72673 3.1292 0
M  V30 674 C 60.041 3.24853 3.10967 0
M  V30 675 C 58.811 3.93998 3.16376 0
M  V30 676 C 61.009 4.21674 2.94441 0
M  V30 677 N 58.991 5.33192 3.04268 0
M  V30 678 C 60.362 5.47756 2.90453 0
M  V30 679 C 62.417 4.12457 2.78897 0
M  V30 680 C 61.12 6.6568 2.72512 0
M  V30 681 C 63.146 5.3004 2.62319 0
M  V30 682 C 62.508 6.55046 2.59026 0
M  V30 683 H 58.607 0.44685 0.641755 0
M  V30 684 H 61.191 1.55753 1.16829 0
M  V30 685 H 59.362 1.26679 3.67161 0
M  V30 686 H 61.094 1.49824 3.75945 0
M  V30 687 H 57.849 3.45052 3.24401 0
M  V30 688 H 58.273 6.06157 3.015 0
M  V30 689 H 62.915 3.16588 2.80235 0
M  V30 690 H 60.633 7.61689 2.69919 0
M  V30 691 H 64.219 5.24747 2.5126 0
M  V30 692 H 63.099 7.44498 2.46357 0
M  V30 693 N 60.6021 -1.18246 1.0419 0
M  V30 694 C 62.0131 -1.69914 0.773698 0
M  V30 695 C 62.3641 -1.83085 -0.705297 0
M  V30 696 O 61.4891 -1.51123 -1.5489 0
M  V30 697 C 62.0841 -3.08619 1.39784 0
M  V30 698 C 60.6431 -3.57494 1.17792 0
M  V30 699 C 59.7901 -2.34013 1.48773 0
M  V30 700 H 62.7411 -1.02904 1.20816 0
M  V30 701 H 62.7621 -3.71958 0.801714 0
M  V30 702 H 62.2741 -2.99001 2.47426 0
M  V30 703 H 60.3751 -3.72406 0.120295 0
M  V30 704 H 60.4881 -4.40852 1.87581 0
M  V30 705 H 58.8521 -2.37986 0.907463 0
M  V30 706 H 59.6351 -2.27013 2.57527 0
M  V30 707 N 62.0802 -0.821533 -1.34494 0
M  V30 708 C 63.3262 -0.409552 -1.98622 0
M  V30 709 C 63.6592 1.0244 -1.64984 0
M  V30 710 O 62.9342 1.71325 -0.920758 0
M  V30 711 C 63.2172 -0.610458 -3.54888 0
M  V30 712 C 63.0702 -2.09043 -3.98273 0
M  V30 713 C 64.3892 -0.0455379 -4.40076 0
M  V30 714 H 61.5082 -0.15028 -0.721516 0
M  V30 715 H 64.1502 -1.03384 -1.59411 0
M  V30 716 H 62.3002 -0.079044 -3.8842 0
M  V30 717 H 63.9722 -2.68537 -3.75081 0
M  V30 718 H 62.2152 -2.58139 -3.48635 0
M  V30 719 H 62.8862 -2.18182 -5.07051 0
M  V30 720 H 65.3622 -0.499557 -4.1309 0
M  V30 721 H 64.2382 -0.215922 -5.48475 0
M  V30 722 H 64.4992 1.04939 -4.29465 0
M  V30 723 N 63.5583 1.46682 -0.576371 0
M  V30 724 C 64.8073 2.01619 -0.0572825 0
M  V30 725 C 65.1203 1.45417 1.30818 0
M  V30 726 O 66.3263 1.92133 1.91825 0
M  V30 727 C 64.7823 3.59863 -0.0518371 0
M  V30 728 C 64.3903 4.25059 -1.41523 0
M  V30 729 C 66.1343 4.2248 0.413639 0
M  V30 730 C 64.0413 5.75364 -1.36785 0
M  V30 731 H 62.9713 0.753794 -0.0176448 0
M  V30 732 H 65.6223 1.68481 -0.727076 0
M  V30 733 H 64.0043 3.90048 0.683994 0
M  V30 734 H 65.1783 4.06491 -2.17029 0
M  V30 735 H 63.4933 3.7451 -1.8202 0
M  V30 736 H 66.0903 5.3265 0.467779 0
M  V30 737 H 66.4333 3.90976 1.42982 0
M  V30 738 H 66.9663 3.96897 -0.267929 0
M  V30 739 H 63.7053 6.11518 -2.36063 0
M  V30 740 H 63.2253 5.96214 -0.654895 0
M  V30 741 H 64.9043 6.37955 -1.07805 0
M  V30 742 N 65.0364 0.313813 1.54444 0
M  V30 743 C 65.9464 -0.565714 2.27677 0
M  V30 744 C 66.9624 -1.13754 1.31666 0
M  V30 745 O 68.1384 -1.15959 1.64668 0
M  V30 746 C 65.2034 -1.71528 3.01296 0
M  V30 747 C 64.2644 -1.17624 4.12872 0
M  V30 748 C 63.4974 -2.27102 4.8297 0
M  V30 749 O 63.7204 -3.47256 4.52514 0
M  V30 750 O 62.6544 -1.9307 5.70094 0
M  V30 751 H 66.4804 0.0287296 3.03686 0
M  V30 752 H 64.0654 0.0798312 1.49187 0
M  V30 753 H 65.9474 -2.38476 3.4743 0
M  V30 754 H 64.6224 -2.29608 2.2817 0
M  V30 755 H 63.5294 -0.472124 3.71109 0
M  V30 756 H 64.8624 -0.640695 4.88012 0
M  V30 757 N 66.5145 -1.57545 0.0417849 0
M  V30 758 C 67.4615 -2.10977 -0.935805 0
M  V30 759 C 68.4315 -1.01486 -1.31491 0
M  V30 760 O 69.6165 -1.2898 -1.40602 0
M  V30 761 C 66.7565 -2.65169 -2.2086 0
M  V30 762 C 65.8695 -3.88714 -1.88482 0
M  V30 763 C 65.0045 -4.31254 -3.1015 0
M  V30 764 C 64.0435 -5.47524 -2.7365 0
M  V30 765 N 63.1805 -5.85162 -3.87982 0
M  V30 766 H 68.0205 -2.94218 -0.473249 0
M  V30 767 H 65.5575 -1.45415 -0.221981 0
M  V30 768 H 67.5155 -2.94685 -2.95325 0
M  V30 769 H 66.1455 -1.8474 -2.64709 0
M  V30 770 H 65.1975 -3.65849 -1.04205 0
M  V30 771 H 66.5095 -4.73245 -1.57608 0
M  V30 772 H 65.6635 -4.62273 -3.92923 0
M  V30 773 H 64.4025 -3.45516 -3.44195 0
M  V30 774 H 63.4075 -5.16187 -1.89291 0
M  V30 775 H 64.6325 -6.34971 -2.40807 0
M  V30 776 H 62.5785 -5.02377 -4.21846 0
M  V30 777 H 62.4955 -6.64362 -3.60775 0
M  V30 778 H 63.7635 -6.20791 -4.71422 0
M  V30 779 N 67.9926 0.231505 -1.5589 0
M  V30 780 C 68.9226 1.29022 -1.94617 0
M  V30 781 C 69.9036 1.4941 -0.813067 0
M  V30 782 O 71.0886 1.6176 -1.07459 0
M  V30 783 C 68.2186 2.64199 -2.25424 0
M  V30 784 C 67.1726 2.58484 -3.41131 0
M  V30 785 C 66.4986 3.97599 -3.57518 0
M  V30 786 C 67.7986 2.1413 -4.76388 0
M  V30 787 H 69.4926 0.968563 -2.83301 0
M  V30 788 H 67.0386 0.464479 -1.36303 0
M  V30 789 H 68.9916 3.38413 -2.51107 0
M  V30 790 H 67.7156 2.98032 -1.33583 0
M  V30 791 H 66.3746 1.86727 -3.15481 0
M  V30 792 H 66.0226 4.28723 -2.6307 0
M  V30 793 H 65.7226 3.94659 -4.35337 0
M  V30 794 H 67.2466 4.7349 -3.85538 0
M  V30 795 H 68.6606 2.78083 -5.01341 0
M  V30 796 H 67.0576 2.2227 -5.57419 0
M  V30 797 H 68.1276 1.09331 -4.72414 0
M  V30 798 N 69.4707 1.49531 0.497807 0
M  V30 799 C 70.4207 1.62829 1.59596 0
M  V30 800 C 71.4047 0.483824 1.53453 0
M  V30 801 O 72.5967 0.736937 1.60929 0
M  V30 802 C 69.7257 1.7011 2.98191 0
M  V30 803 C 68.8117 2.90144 3.09317 0
M  V30 804 N 69.2027 4.1418 2.90324 0
M  V30 805 C 67.5007 2.88148 3.40422 0
M  V30 806 C 68.2017 4.94886 3.05717 0
M  V30 807 N 67.1777 4.28314 3.34736 0
M  V30 808 H 70.9797 2.56446 1.4357 0
M  V30 809 H 68.4937 1.46347 0.704001 0
M  V30 810 H 70.4907 1.77735 3.77115 0
M  V30 811 H 69.1507 0.776315 3.15283 0
M  V30 812 H 70.1617 4.44109 2.66436 0
M  V30 813 H 66.8387 2.05061 3.63671 0
M  V30 814 H 68.2287 6.03432 2.95499 0
M  V30 815 N 70.9488 -0.749086 1.3866 0
M  V30 816 C 71.8588 -1.89358 1.38494 0
M  V30 817 C 72.8748 -1.71708 0.281476 0
M  V30 818 O 74.0508 -1.94554 0.520643 0
M  V30 819 C 71.1158 -3.24782 1.21316 0
M  V30 820 C 70.1768 -3.54926 2.41508 0
M  V30 821 C 69.4098 -4.83888 2.2514 0
M  V30 822 O 69.6328 -5.56592 1.24746 0
M  V30 823 O 68.5668 -5.13612 3.13826 0
M  V30 824 H 72.3928 -1.92452 2.34938 0
M  V30 825 H 69.9778 -0.894981 1.19626 0
M  V30 826 H 71.8598 -4.05739 1.13814 0
M  V30 827 H 70.5348 -3.2249 0.279592 0
M  V30 828 H 69.4418 -2.74112 2.54585 0
M  V30 829 H 70.7748 -3.61983 3.3351 0
M  V30 830 N 72.4269 -1.23603 -0.977757 0
M  V30 831 C 73.6729 -1.07129 -1.72195 0
M  V30 832 C 74.0059 0.390501 -1.90233 0
M  V30 833 O 73.2809 1.28902 -1.45653 0
M  V30 834 C 73.5639 -1.80031 -3.11867 0
M  V30 835 C 73.4169 -3.33899 -3.01383 0
M  V30 836 C 74.7359 -1.56492 -4.11337 0
M  V30 837 H 71.8549 -0.390571 -0.624999 0
M  V30 838 H 74.4969 -1.52142 -1.13811 0
M  V30 839 H 72.6469 -1.41768 -3.6171 0
M  V30 840 H 74.3189 -3.81699 -2.59043 0
M  V30 841 H 72.5619 -3.62796 -2.37827 0
M  V30 842 H 73.2329 -3.801 -4.00285 0
M  V30 843 H 75.7089 -1.89757 -3.70313 0
M  V30 844 H 74.5849 -2.09973 -5.07151 0
M  V30 845 H 74.8459 -0.500874 -4.39254 0
M  V30 846 N 73.905 1.17692 -1.04816 0
M  V30 847 C 75.153 1.87488 -0.754497 0
M  V30 848 C 75.474 1.81205 0.720407 0
M  V30 849 O 74.744 1.23544 1.52032 0
M  V30 850 H 73.324 0.694101 -0.276102 0
M  V30 851 H 75.986 1.42793 -1.32651 0
M  V30 852 H 75.082 2.93328 -1.06606 0
M  V30 853 N 75.3831 0.828654 1.34056 0
M  V30 854 C 76.3131 0.269443 2.3194 0
M  V30 855 C 77.2941 -0.617247 1.58506 0
M  V30 856 O 78.4791 -0.542931 1.86456 0
M  V30 857 C 75.6091 -0.564793 3.42677 0
M  V30 858 C 74.5631 0.225241 4.27407 0
M  V30 859 C 73.8891 -0.7321 5.29664 0
M  V30 860 C 75.1891 1.43663 5.02154 0
M  V30 861 H 76.8831 1.08728 2.7896 0
M  V30 862 H 74.4291 0.524283 1.34117 0
M  V30 863 H 76.3821 -0.966233 4.10173 0
M  V30 864 H 75.1061 -1.41574 2.9432 0
M  V30 865 H 73.7651 0.608117 3.61521 0
M  V30 866 H 73.4131 -1.57916 4.77568 0
M  V30 867 H 73.1131 -0.20767 5.87233 0
M  V30 868 H 74.6371 -1.13128 6.00029 0
M  V30 869 H 76.0511 1.1089 5.62473 0
M  V30 870 H 74.4481 1.89711 5.69324 0
M  V30 871 H 75.5181 2.21181 4.31517 0
M  V30 872 N 76.8612 -1.46375 0.584142 0
M  V30 873 C 77.7912 -2.33103 -0.136037 0
M  V30 874 C 78.7722 -1.45431 -0.882255 0
M  V30 875 O 79.9572 -1.74246 -0.857434 0
M  V30 876 C 77.0872 -3.27731 -1.14933 0
M  V30 877 C 76.0412 -4.24855 -0.517862 0
M  V30 878 C 75.3672 -5.09001 -1.63773 0
M  V30 879 C 76.6672 -5.19439 0.545886 0
M  V30 880 H 78.3612 -2.93568 0.588086 0
M  V30 881 H 75.9072 -1.41166 0.284259 0
M  V30 882 H 77.8602 -3.87261 -1.66153 0
M  V30 883 H 76.5842 -2.65377 -1.90375 0
M  V30 884 H 75.2432 -3.6659 -0.0267361 0
M  V30 885 H 74.8912 -4.43031 -2.38185 0
M  V30 886 H 74.5912 -5.74777 -1.22085 0
M  V30 887 H 76.1152 -5.71396 -2.15266 0
M  V30 888 H 77.5292 -5.73177 0.118704 0
M  V30 889 H 75.9262 -5.93566 0.88317 0
M  V30 890 H 76.9962 -4.63285 1.43162 0
M  V30 891 N 78.3393 -0.321999 -1.54275 0
M  V30 892 C 79.2873 0.560206 -2.25753 0
M  V30 893 C 80.2813 1.11984 -1.27106 0
M  V30 894 O 81.4873 1.06806 -1.44888 0
M  V30 895 H 77.8623 0.199304 -0.725108 0
M  V30 896 H 79.8333 -0.0649365 -2.98329 0
M  V30 897 C 78.5823 1.71023 -3.02731 0
M  V30 898 H 77.9053 1.28885 -3.78456 0
M  V30 899 H 79.3453 2.30314 -3.55993 0
M  V30 900 C 77.8043 2.62692 -2.10938 0
M  V30 901 O 78.3343 3.64364 -1.6912 0
M  V30 902 N 76.5403 2.30891 -1.76459 0
M  V30 903 H 76.0873 1.48253 -2.10663 0
M  V30 904 H 76.0453 2.92487 -1.1532 0
M  V30 905 N 79.8174 1.5752 -0.0501392 0
M  V30 906 C 80.7804 2.1037 0.909786 0
M  V30 907 C 81.7804 1.02308 1.24056 0
M  V30 908 O 82.9704 1.28385 1.17741 0
M  V30 909 C 80.1024 2.58708 2.21998 0
M  V30 910 H 81.2954 2.96479 0.451665 0
M  V30 911 H 78.8484 1.55038 0.198248 0
M  V30 912 H 79.5834 1.75989 2.72394 0
M  V30 913 H 79.3684 3.37675 1.99295 0
M  V30 914 H 80.8584 2.99747 2.9076 0
M  V30 915 N 81.2955 -0.223234 1.56011 0
M  V30 916 C 82.5445 -0.945912 1.78144 0
M  V30 917 C 82.8575 -1.85567 0.618396 0
M  V30 918 O 84.0635 -2.61688 0.723318 0
M  V30 919 C 82.5195 -1.73216 3.15475 0
M  V30 920 C 82.1275 -0.868619 4.39499 0
M  V30 921 C 83.8715 -2.44615 3.46935 0
M  V30 922 C 81.7785 -1.65212 5.67855 0
M  V30 923 H 80.7085 -0.356929 0.664167 0
M  V30 924 H 83.3595 -0.199845 1.82409 0
M  V30 925 H 81.7415 -2.52107 3.05382 0
M  V30 926 H 82.9155 -0.120366 4.60643 0
M  V30 927 H 81.2305 -0.26683 4.15544 0
M  V30 928 H 83.8275 -3.03732 4.40058 0
M  V30 929 H 84.1705 -3.17417 2.69355 0
M  V30 930 H 84.7035 -1.72715 3.58349 0
M  V30 931 H 81.4425 -0.967407 6.48322 0
M  V30 932 H 80.9625 -2.37503 5.50774 0
M  V30 933 H 82.6415 -2.21322 6.07968 0
M  V30 934 N 82.7736 -1.49793 -0.48987 0
M  V30 935 C 84.0226 -1.59085 -1.23995 0
M  V30 936 C 84.3356 -0.287907 -1.9347 0
M  V30 937 O 85.5416 -0.259506 -2.70257 0
M  V30 938 C 83.9976 -2.80736 -2.252 0
M  V30 939 C 83.6056 -4.17833 -1.61614 0
M  V30 940 C 85.3496 -2.99364 -3.00967 0
M  V30 941 C 83.2566 -5.30693 -2.60996 0
M  V30 942 H 82.1866 -0.592372 -0.466488 0
M  V30 943 H 84.8376 -1.76197 -0.51252 0
M  V30 944 H 83.2196 -2.57142 -3.01154 0
M  V30 945 H 84.3936 -4.51608 -0.915774 0
M  V30 946 H 82.7086 -4.04656 -0.981977 0
M  V30 947 H 85.3056 -3.80851 -3.75308 0
M  V30 948 H 85.6486 -2.10356 -3.59244 0
M  V30 949 H 86.1816 -3.2305 -2.32128 0
M  V30 950 H 82.9206 -6.21796 -2.07485 0
M  V30 951 H 82.4406 -5.01359 -3.2924 0
M  V30 952 H 84.1196 -5.6049 -3.23202 0
M  V30 953 N 84.2517 0.741722 -1.39055 0
M  V30 954 C 85.6627 1.31966 -1.32068 0
M  V30 955 C 86.0137 1.96192 0.0180797 0
M  V30 956 O 85.1387 1.95861 0.920196 0
M  V30 957 C 85.7337 2.39954 -2.39181 0
M  V30 958 C 84.2927 2.93438 -2.35735 0
M  V30 959 C 83.4397 1.66936 -2.21422 0
M  V30 960 H 86.3907 0.539721 -1.4924 0
M  V30 961 H 86.4117 3.20182 -2.05581 0
M  V30 962 H 85.9237 1.9318 -3.36605 0
M  V30 963 H 84.0247 3.4451 -1.41929 0
M  V30 964 H 84.1377 3.4701 -3.30335 0
M  V30 965 H 82.5017 1.91016 -1.68478 0
M  V30 966 H 83.2847 1.22224 -3.20806 0
M  V30 967 N 85.7298 1.2412 0.971189 0
M  V30 968 C 86.6398 1.04747 2.09917 0
M  V30 969 C 87.6558 -0.0107162 1.73997 0
M  V30 970 O 88.8318 0.186714 2.00533 0
M  V30 971 C 85.8968 0.650828 3.40537 0
M  V30 972 C 84.9578 1.7851 3.90426 0
M  V30 973 C 84.1908 1.40729 5.14812 0
M  V30 974 O 84.4138 0.29557 5.69634 0
M  V30 975 O 83.3478 2.23168 5.58999 0
M  V30 976 H 87.1738 1.99304 2.29154 0
M  V30 977 H 84.7588 1.02908 1.08307 0
M  V30 978 H 86.6408 0.440992 4.19086 0
M  V30 979 H 85.3158 -0.265649 3.22608 0
M  V30 980 H 84.2228 2.04966 3.12953 0
M  V30 981 H 85.5558 2.68023 4.12825 0
M  V30 982 N 87.2079 -1.17134 1.05439 0
M  V30 983 C 88.1179 -2.24878 0.668365 0
M  V30 984 C 89.1339 -1.71186 -0.311687 0
M  V30 985 O 90.3099 -2.00738 -0.163161 0
M  V30 986 C 87.3749 -3.46662 0.051648 0
M  V30 987 C 86.4359 -4.15429 1.08246 0
M  V30 988 C 85.6689 -5.31399 0.495082 0
M  V30 989 O 85.8919 -5.66153 -0.694743 0
M  V30 990 O 84.8259 -5.89187 1.23056 0
M  V30 991 H 88.6519 -2.60189 1.56637 0
M  V30 992 H 86.2369 -1.24482 0.826104 0
M  V30 993 H 88.1189 -4.20394 -0.290966 0
M  V30 994 H 86.7939 -3.13142 -0.819971 0
M  V30 995 H 85.7009 -3.43704 1.47711 0
M  V30 996 H 87.0339 -4.52982 1.92532 0
M  V30 997 N 88.686 -0.835752 -1.33615 0
M  V30 998 C 89.916 -0.442701 -2.01801 0
M  V30 999 C 90.324 0.959807 -1.63047 0
M  V30 1000 O 89.667 1.63468 -0.838088 0
M  V30 1001 C 89.729 -0.480125 -3.56279 0
M  V30 1002 C 89.393 -1.8382 -4.18401 0
M  V30 1003 C 90.39 -2.80097 -4.37998 0
M  V30 1004 C 88.075 -2.13019 -4.54894 0
M  V30 1005 C 90.069 -4.03736 -4.9323 0
M  V30 1006 C 87.756 -3.36916 -5.09834 0
M  V30 1007 C 88.754 -4.32091 -5.28948 0
M  V30 1008 O 88.442 -5.53797 -5.82721 0
M  V30 1009 H 88.174 -0.17441 -0.653114 0
M  V30 1010 H 90.728 -1.129 -1.71589 0
M  V30 1011 H 88.958 0.262931 -3.85805 0
M  V30 1012 H 90.647 -0.105335 -4.05763 0
M  V30 1013 H 91.413 -2.58838 -4.10156 0
M  V30 1014 H 87.292 -1.39733 -4.39313 0
M  V30 1015 H 90.836 -4.78034 -5.08064 0
M  V30 1016 H 86.733 -3.58033 -5.37106 0
M  V30 1017 H 87.501 -5.55494 -6.0114 0
M  V30 1018 N 90.1641 1.46063 -0.591896 0
M  V30 1019 C 91.4121 2.01938 -0.0808391 0
M  V30 1020 C 91.7331 1.46475 1.28725 0
M  V30 1021 O 91.0031 0.652944 1.84698 0
M  V30 1022 H 89.5831 0.746516 -0.0268938 0
M  V30 1023 H 92.2451 1.79055 -0.769752 0
M  V30 1024 H 91.3411 3.12094 -0.0187578 0
M  V30 1025 N 91.6422 0.330177 1.54103 0
M  V30 1026 C 92.8902 -0.269871 2.0029 0
M  V30 1027 C 93.2112 -1.52133 1.21986 0
M  V30 1028 O 92.4812 -1.93212 0.323438 0
M  V30 1029 H 91.0612 -0.10271 0.739905 0
M  V30 1030 H 93.7232 0.448249 1.89675 0
M  V30 1031 H 92.8192 -0.52166 3.07709 0
M  V30 1032 N 93.1203 -1.57491 0.0584922 0
M  V30 1033 C 94.0533 -2.07533 -0.948969 0
M  V30 1034 C 95.0313 -0.977444 -1.29942 0
M  V30 1035 O 96.2153 -1.2499 -1.41102 0
M  V30 1036 C 93.3423 -2.52192 -2.2609 0
M  V30 1037 C 92.3883 -3.73287 -2.06298 0
M  V30 1038 S 93.2213 -5.18603 -1.33459 0
M  V30 1039 C 94.3773 -5.66583 -2.65959 0
M  V30 1040 H 94.6103 -2.92662 -0.523118 0
M  V30 1041 H 92.1433 -1.53631 -0.153954 0
M  V30 1042 H 94.1013 -2.78585 -3.01498 0
M  V30 1043 H 92.7623 -1.67356 -2.65802 0
M  V30 1044 H 91.9553 -4.0248 -3.03357 0
M  V30 1045 H 91.5573 -3.47199 -1.39029 0
M  V30 1046 H 93.8493 -5.72616 -3.62101 0
M  V30 1047 H 94.7923 -6.65684 -2.41393 0
M  V30 1048 H 95.2003 -4.94342 -2.72554 0
M  V30 1049 N 94.5984 0.214957 -1.56127 0
M  V30 1050 C 95.8464 0.936518 -1.79091 0
M  V30 1051 C 96.1674 1.84606 -0.628148 0
M  V30 1052 O 95.4374 1.92664 0.35462 0
M  V30 1053 H 94.0174 0.3488 -0.660566 0
M  V30 1054 H 96.6794 0.22523 -1.93594 0
M  V30 1055 H 95.7754 1.53943 -2.71492 0
M  V30 1056 N 96.0765 1.50051 0.48192 0
M  V30 1057 C 97.0065 1.71046 1.58951 0
M  V30 1058 C 97.9875 0.559288 1.60642 0
M  V30 1059 O 99.1725 0.797243 1.77081 0
M  V30 1060 C 96.3025 1.79462 2.97339 0
M  V30 1061 C 95.2565 2.94558 3.10515 0
M  V30 1062 C 94.5825 2.88105 4.50444 0
M  V30 1063 C 95.8825 4.35227 2.88747 0
M  V30 1064 H 97.5765 2.6378 1.41635 0
M  V30 1065 H 95.1225 1.26936 0.679942 0
M  V30 1066 H 97.0755 1.92734 3.74742 0
M  V30 1067 H 95.7995 0.833412 3.15788 0
M  V30 1068 H 94.4585 2.80918 2.35543 0
M  V30 1069 H 94.1065 1.89853 4.65795 0
M  V30 1070 H 93.8065 3.65366 4.60197 0
M  V30 1071 H 95.3305 3.03412 5.29881 0
M  V30 1072 H 96.7445 4.49449 3.55905 0
M  V30 1073 H 95.1415 5.13856 3.09955 0
M  V30 1074 H 96.2115 4.48347 1.84696 0
M  V30 1075 N 97.5546 -0.734337 1.39446 0
M  V30 1076 C 98.5016 -1.84835 1.38219 0
M  V30 1077 C 99.4716 -1.64331 0.24179 0
M  V30 1078 O 100.657 -1.85728 0.437002 0
M  V30 1079 C 97.7966 -3.22355 1.23212 0
M  V30 1080 C 96.9096 -3.5456 2.46801 0
M  V30 1081 C 96.0446 -4.81485 2.24377 0
M  V30 1082 C 95.0836 -5.06536 3.43639 0
M  V30 1083 N 94.2206 -6.24665 3.20528 0
M  V30 1084 H 99.0606 -1.85219 2.33448 0
M  V30 1085 H 96.5976 -0.905039 1.15963 0
M  V30 1086 H 98.5556 -4.0174 1.12522 0
M  V30 1087 H 97.1856 -3.21248 0.316121 0
M  V30 1088 H 96.2376 -2.69872 2.68092 0
M  V30 1089 H 97.5496 -3.6899 3.3563 0
M  V30 1090 H 96.7036 -5.68852 2.10933 0
M  V30 1091 H 95.4426 -4.6923 1.32944 0
M  V30 1092 H 94.4476 -4.17632 3.5758 0
M  V30 1093 H 95.6726 -5.20676 4.35974 0
M  V30 1094 H 93.6186 -6.13696 2.3176 0
M  V30 1095 H 93.5356 -6.39685 4.02913 0
M  V30 1096 H 94.8036 -7.14868 3.10779 0
M  V30 1097 N 99.0327 -1.24633 -0.964593 0
M  V30 1098 C 99.9657 -0.984662 -2.05863 0
M  V30 1099 C 100.944 0.0826554 -1.6239 0
M  V30 1100 O 102.128 -0.0549296 -1.8842 0
M  V30 1101 C 99.2547 -0.486529 -3.35187 0
M  V30 1102 C 98.3007 -1.54286 -3.97615 0
M  V30 1103 S 99.1337 -3.12513 -4.34851 0
M  V30 1104 C 100.29 -2.6441 -5.67308 0
M  V30 1105 H 100.523 -1.91104 -2.27743 0
M  V30 1106 H 98.0557 -1.08052 -1.10291 0
M  V30 1107 H 100.014 -0.205757 -4.09984 0
M  V30 1108 H 98.6747 0.419186 -3.1129 0
M  V30 1109 H 97.8677 -1.14481 -4.90826 0
M  V30 1110 H 97.4697 -1.7738 -3.2926 0
M  V30 1111 H 99.7617 -2.07416 -6.44969 0
M  V30 1112 H 100.705 -3.56222 -6.11973 0
M  V30 1113 H 101.113 -2.04734 -5.26065 0
M  V30 1114 N 100.511 1.16574 -1.06058 0
M  V30 1115 C 101.441 2.23057 -0.690488 0
M  V30 1116 C 102.422 1.67141 0.315901 0
M  V30 1117 O 103.607 1.93253 0.191556 0
M  V30 1118 C 100.737 3.47222 -0.073625 0
M  V30 1119 C 99.6908 4.16016 -1.00573 0
M  V30 1120 C 99.0168 5.34104 -0.252289 0
M  V30 1121 C 100.317 4.67264 -2.33371 0
M  V30 1122 H 102.011 2.54271 -1.58072 0
M  V30 1123 H 99.5568 1.22218 -0.76149 0
M  V30 1124 H 101.51 4.20939 0.19714 0
M  V30 1125 H 100.234 3.15302 0.85161 0
M  V30 1126 H 98.8928 3.44223 -1.2612 0
M  V30 1127 H 98.5408 4.98437 0.675988 0
M  V30 1128 H 98.2408 5.81072 -0.873455 0
M  V30 1129 H 99.7648 6.10599 0.0109857 0
M  V30 1130 H 101.179 5.32573 -2.12223 0
M  V30 1131 H 99.5758 5.24843 -2.90963 0
M  V30 1132 H 100.646 3.83602 -2.96611 0
M  V30 1133 N 101.989 0.842826 1.3317 0
M  V30 1134 C 103.266 0.362216 1.92217 0
M  V30 1135 C 103.646 -1.15289 1.76838 0
M  V30 1136 O 102.994 -1.96914 1.15919 0
M  V30 1137 C 103.204 0.813495 3.39387 0
M  V30 1138 C 104.552 0.823804 4.16532 0
M  V30 1139 O 105.576 0.757358 3.48055 0
M  V30 1140 O 104.435 0.915193 5.38782 0
M  V30 1141 H 101.529 0.103317 0.820521 0
M  V30 1142 H 104.075 0.928942 1.42017 0
M  V30 1143 H 102.847 1.85624 3.4447 0
M  V30 1144 H 102.47 0.223561 3.96971 0
M  V30 1145 N 103.467 -1.45747 0.599634 0
M  V30 1146 C 104.377 -2.34262 -0.125888 0
M  V30 1147 C 105.393 -1.50768 -0.868625 0
M  V30 1148 O 106.569 -1.83592 -0.828003 0
M  V30 1149 C 103.634 -3.28252 -1.11587 0
M  V30 1150 C 102.695 -4.27651 -0.375956 0
M  V30 1151 C 101.928 -5.1715 -1.31877 0
M  V30 1152 O 102.151 -5.09916 -2.55621 0
M  V30 1153 O 101.085 -5.96286 -0.820157 0
M  V30 1154 H 104.911 -2.97688 0.601315 0
M  V30 1155 H 102.496 -1.44999 0.359934 0
M  V30 1156 H 104.378 -3.86191 -1.68626 0
M  V30 1157 H 103.053 -2.67401 -1.82424 0
M  V30 1158 H 101.96 -3.7335 0.236698 0
M  V30 1159 H 103.293 -4.91334 0.29177 0
M  V30 1160 N 104.945 -0.338344 -1.53925 0
M  V30 1161 C 106.191 0.260143 -2.01125 0
M  V30 1162 C 106.524 1.50617 -1.22589 0
M  V30 1163 O 105.799 1.91979 -0.312113 0
M  V30 1164 C 106.082 0.579499 -3.55407 0
M  V30 1165 C 105.935 -0.678264 -4.44657 0
M  V30 1166 C 107.254 1.39122 -4.17532 0
M  V30 1167 H 104.373 0.0930772 -0.731099 0
M  V30 1168 H 107.015 -0.457852 -1.84401 0
M  V30 1169 H 105.165 1.19118 -3.69788 0
M  V30 1170 H 106.837 -1.31631 -4.42121 0
M  V30 1171 H 105.08 -1.3042 -4.13731 0
M  V30 1172 H 105.751 -0.410143 -5.50474 0
M  V30 1173 H 108.227 0.874035 -4.06817 0
M  V30 1174 H 107.103 1.58342 -5.25565 0
M  V30 1175 H 107.364 2.39178 -3.71815 0
M  V30 1176 N 106.423 1.57458 -0.0668435 0
M  V30 1177 C 107.672 1.92477 0.602947 0
M  V30 1178 C 107.985 0.948419 1.71068 0
M  V30 1179 O 109.191 1.19124 2.43971 0
M  V30 1180 C 107.647 3.41903 1.12383 0
M  V30 1181 C 107.255 4.47975 0.04737 0
M  V30 1182 C 108.999 3.85931 1.76797 0
M  V30 1183 C 106.906 5.88529 0.582022 0
M  V30 1184 H 105.836 0.718387 0.22899 0
M  V30 1185 H 108.487 1.82978 -0.138276 0
M  V30 1186 H 106.869 3.46459 1.91787 0
M  V30 1187 H 108.043 4.55029 -0.726978 0
M  V30 1188 H 106.358 4.13384 -0.500243 0
M  V30 1189 H 108.955 4.88322 2.17821 0
M  V30 1190 H 109.298 3.23029 2.62599 0
M  V30 1191 H 109.831 3.83958 1.04024 0
M  V30 1192 H 106.57 6.55065 -0.238721 0
M  V30 1193 H 106.09 5.85004 1.324 0
M  V30 1194 H 107.769 6.38258 1.05999 0
M  V30 1195 N 107.901 -0.206675 1.56239 0
M  V30 1196 C 109.147 -0.930218 1.80208 0
M  V30 1197 C 109.48 -1.83387 0.638981 0
M  V30 1198 O 108.755 -1.91119 -0.361066 0
M  V30 1199 C 109.038 -1.75641 3.1436 0
M  V30 1200 C 108.891 -0.878257 4.41142 0
M  V30 1201 C 110.21 -2.73129 3.45092 0
M  V30 1202 H 107.329 -0.336742 0.655571 0
M  V30 1203 H 109.971 -0.198222 1.88963 0
M  V30 1204 H 108.121 -2.38048 3.07027 0
M  V30 1205 H 109.793 -0.269787 4.6051 0
M  V30 1206 H 108.036 -0.184385 4.33408 0
M  V30 1207 H 108.707 -1.49106 5.3148 0
M  V30 1208 H 111.183 -2.20856 3.52649 0
M  V30 1209 H 110.059 -3.28028 4.40101 0
M  V30 1210 H 110.32 -3.51606 2.68003 0
M  V30 1211 N 109.379 -1.50304 -0.473955 0
M  V30 1212 C 110.627 -1.60832 -1.22382 0
M  V30 1213 C 110.948 -0.30939 -1.9253 0
M  V30 1214 O 110.218 0.67296 -1.83978 0
M  V30 1215 H 108.798 -0.592652 -0.454723 0
M  V30 1216 H 111.46 -1.87068 -0.546968 0
M  V30 1217 H 110.556 -2.41803 -1.97327 0
M  V30 1218 N 110.857 0.726932 -1.39834 0
M  V30 1219 C 111.767 1.87131 -1.41489 0
M  V30 1220 C 112.783 1.71239 -0.308757 0
M  V30 1221 O 113.959 1.93701 -0.551529 0
M  V30 1222 C 111.024 3.22811 -1.26468 0
M  V30 1223 C 110.085 3.51039 -2.47124 0
M  V30 1224 C 109.318 4.80245 -2.3281 0
M  V30 1225 O 109.541 5.54537 -1.33585 0
M  V30 1226 O 108.475 5.08554 -3.21957 0
M  V30 1227 H 112.301 1.8869 -2.3797 0
M  V30 1228 H 109.886 0.875837 -1.21035 0
M  V30 1229 H 111.768 4.03877 -1.20255 0
M  V30 1230 H 110.443 3.22005 -0.330862 0
M  V30 1231 H 109.35 2.70027 -2.58914 0
M  V30 1232 H 110.683 3.56632 -3.39227 0
M  V30 1233 N 112.336 1.25143 0.95797 0
M  V30 1234 C 113.246 1.06968 2.08794 0
M  V30 1235 C 114.262 0.00773911 1.73998 0
M  V30 1236 O 115.438 0.207972 2.00323 0
M  V30 1237 C 112.503 0.68691 3.39827 0
M  V30 1238 C 111.564 1.82641 3.88511 0
M  V30 1239 C 110.797 1.46181 5.1329 0
M  V30 1240 O 111.02 0.355971 5.69288 0
M  V30 1241 O 109.954 2.29085 5.566 0
M  V30 1242 H 113.78 2.01723 2.27027 0
M  V30 1243 H 111.365 1.04051 1.07209 0
M  V30 1244 H 113.247 0.485417 4.18595 0
M  V30 1245 H 111.922 -0.231417 3.22872 0
M  V30 1246 H 110.829 2.08274 3.10762 0
M  V30 1247 H 112.162 2.72386 4.09959 0
M  V30 1248 N 113.814 -1.1601 1.06675 0
M  V30 1249 C 114.744 -2.22688 0.702307 0
M  V30 1250 C 115.725 -1.67306 -0.307032 0
M  V30 1251 O 116.91 -1.93352 -0.181305 0
M  V30 1252 C 114.04 -3.47178 0.092038 0
M  V30 1253 C 112.994 -4.15477 1.02777 0
M  V30 1254 C 112.32 -5.33963 0.28061 0
M  V30 1255 C 113.62 -4.66019 2.35846 0
M  V30 1256 H 115.314 -2.53429 1.59419 0
M  V30 1257 H 112.86 -1.21813 0.767961 0
M  V30 1258 H 114.813 -4.21037 -0.174814 0
M  V30 1259 H 113.537 -3.15749 -0.834877 0
M  V30 1260 H 112.196 -3.43549 1.27944 0
M  V30 1261 H 111.844 -4.98788 -0.649545 0
M  V30 1262 H 111.544 -5.806 0.904258 0
M  V30 1263 H 113.068 -6.10596 0.021396 0
M  V30 1264 H 114.482 -5.3144 2.15045 0
M  V30 1265 H 112.879 -5.23293 2.93743 0
M  V30 1266 H 113.949 -3.82023 2.98641 0
M  V30 1267 N 115.292 -0.849877 -1.32721 0
M  V30 1268 C 116.255 -0.296122 -2.27279 0
M  V30 1269 C 117.255 0.541458 -1.5141 0
M  V30 1270 O 118.445 0.353658 -1.70572 0
M  V30 1271 C 115.577 0.581579 -3.35902 0
M  V30 1272 H 116.77 -1.13064 -2.77771 0
M  V30 1273 H 114.323 -0.62383 -1.43311 0
M  V30 1274 H 115.058 1.43809 -2.9067 0
M  V30 1275 H 114.843 -0.0178814 -3.92096 0
M  V30 1276 H 116.333 0.961951 -4.0637 0
M  V30 1277 N 116.77 1.45427 -0.607355 0
M  V30 1278 C 118 2.06314 -0.108656 0
M  V30 1279 C 118.408 1.45269 1.21217 0
M  V30 1280 O 117.751 0.561115 1.74921 0
M  V30 1281 C 117.813 3.59345 0.105618 0
M  V30 1282 C 117.477 4.42723 -1.13337 0
M  V30 1283 C 118.474 4.77715 -2.05145 0
M  V30 1284 C 116.159 4.83478 -1.36213 0
M  V30 1285 C 118.153 5.52317 -3.18158 0
M  V30 1286 C 115.84 5.57835 -2.49527 0
M  V30 1287 C 116.838 5.92171 -3.40327 0
M  V30 1288 O 116.526 6.65019 -4.51669 0
M  V30 1289 H 116.258 0.672782 -0.0658842 0
M  V30 1290 H 118.812 1.87664 -0.834945 0
M  V30 1291 H 117.042 3.76394 0.886796 0
M  V30 1292 H 118.731 4.02076 0.555886 0
M  V30 1293 H 119.497 4.46787 -1.88697 0
M  V30 1294 H 115.376 4.56188 -0.664362 0
M  V30 1295 H 118.92 5.79036 -3.89054 0
M  V30 1296 H 114.817 5.88177 -2.65928 0
M  V30 1297 H 115.585 6.83469 -4.50348 0
M  V30 1298 N 118.248 0.346503 1.53744 0
M  V30 1299 C 119.211 -0.496439 2.23759 0
M  V30 1300 C 120.211 -1.0252 1.2388 0
M  V30 1301 O 121.401 -0.913974 1.48297 0
M  V30 1302 C 118.533 -1.69187 2.95954 0
M  V30 1303 H 119.726 0.115952 2.99676 0
M  V30 1304 H 117.279 0.0978939 1.55993 0
M  V30 1305 H 118.014 -2.34288 2.24231 0
M  V30 1306 H 117.799 -1.31989 3.69217 0
M  V30 1307 H 119.289 -2.28969 3.49232 0
M  V30 1308 N 119.726 -1.57421 0.075193 0
M  V30 1309 C 120.966 -1.95495 -0.596757 0
M  V30 1310 C 121.33 -0.954886 -1.66571 0
M  V30 1311 O 122.531 -1.22341 -2.39345 0
M  V30 1312 C 120.802 -3.382 -1.15566 0
M  V30 1313 S 122.361 -3.98254 -1.84226 0
M  V30 1314 H 119.179 -0.683649 -0.195307 0
M  V30 1315 H 121.781 -1.94925 0.149859 0
M  V30 1316 H 120.485 -4.08766 -0.36588 0
M  V30 1317 H 120.016 -3.42321 -1.93856 0
M  V30 1318 H 122.031 -3.85435 -3.12497 0
M  V30 1319 N 121.204 0.198386 -1.56346 0
M  V30 1320 C 122.137 1.27381 -1.89339 0
M  V30 1321 C 123.115 1.44106 -0.753134 0
M  V30 1322 O 124.299 1.59549 -1.00381 0
M  V30 1323 C 121.426 2.6409 -2.12071 0
M  V30 1324 C 120.472 2.64253 -3.34772 0
M  V30 1325 S 121.305 2.16013 -4.89999 0
M  V30 1326 C 122.461 3.54553 -5.15794 0
M  V30 1327 H 122.694 0.992058 -2.8026 0
M  V30 1328 H 120.227 0.401726 -1.49082 0
M  V30 1329 H 122.185 3.42786 -2.2585 0
M  V30 1330 H 120.846 2.89478 -1.21906 0
M  V30 1331 H 120.039 3.64768 -3.47794 0
M  V30 1332 H 119.641 1.93637 -3.1997 0
M  V30 1333 H 121.933 4.50396 -5.06112 0
M  V30 1334 H 122.876 3.46428 -6.1757 0
M  V30 1335 H 123.284 3.49313 -4.43442 0
M  V30 1336 N 122.682 1.50554 0.465978 0
M  V30 1337 C 123.93 1.61479 1.21528 0
M  V30 1338 C 124.251 0.319596 1.92363 0
M  V30 1339 O 123.521 -0.663194 1.84333 0
M  V30 1340 H 122.101 0.595055 0.451573 0
M  V30 1341 H 124.763 1.87355 0.53704 0
M  V30 1342 H 123.859 2.42846 1.96042 0
M  V30 1343 N 124.16 -0.719506 1.40217 0
M  V30 1344 C 125.409 -1.47486 1.37589 0
M  V30 1345 C 125.722 -1.9559 -0.0201568 0
M  V30 1346 O 126.928 -2.70973 -0.169049 0
M  V30 1347 C 125.384 -2.66575 2.41796 0
M  V30 1348 C 124.992 -2.25358 3.87192 0
M  V30 1349 C 126.736 -3.4433 2.48269 0
M  V30 1350 C 124.643 -3.41262 4.83005 0
M  V30 1351 H 123.573 -0.553901 0.511576 0
M  V30 1352 H 126.224 -0.783427 1.65936 0
M  V30 1353 H 124.606 -3.3787 2.06543 0
M  V30 1354 H 125.78 -1.61509 4.31569 0
M  V30 1355 H 124.095 -1.60657 3.84159 0
M  V30 1356 H 126.692 -4.30569 3.17041 0
M  V30 1357 H 127.035 -3.87872 1.51198 0
M  V30 1358 H 127.568 -2.80076 2.82493 0
M  V30 1359 H 124.307 -3.02755 5.81394 0
M  V30 1360 H 123.827 -4.0404 4.43297 0
M  V30 1361 H 125.506 -4.07383 5.02641 0
M  V30 1362 N 125.638 -1.25649 -0.95132 0
M  V30 1363 C 126.868 -1.13179 -1.72841 0
M  V30 1364 C 127.276 0.316827 -1.86528 0
M  V30 1365 O 126.619 1.22948 -1.3649 0
M  V30 1366 C 126.681 -1.71644 -3.15878 0
M  V30 1367 C 126.345 -3.20667 -3.25609 0
M  V30 1368 C 127.342 -4.17616 -3.09666 0
M  V30 1369 C 125.027 -3.6094 -3.49324 0
M  V30 1370 C 127.021 -5.52817 -3.17289 0
M  V30 1371 C 124.708 -4.96278 -3.56584 0
M  V30 1372 C 125.706 -5.92025 -3.40581 0
M  V30 1373 O 125.394 -7.24899 -3.47528 0
M  V30 1374 H 125.126 -0.395389 -0.54831 0
M  V30 1375 H 127.68 -1.66566 -1.20187 0
M  V30 1376 H 125.91 -1.12707 -3.69911 0
M  V30 1377 H 127.599 -1.54225 -3.75459 0
M  V30 1378 H 128.365 -3.87842 -2.91211 0
M  V30 1379 H 124.244 -2.86907 -3.6084 0
M  V30 1380 H 127.788 -6.2753 -3.04716 0
M  V30 1381 H 123.685 -5.25716 -3.74556 0
M  V30 1382 H 124.453 -7.33039 -3.64138 0
M  V30 1383 N 127.117 1.15442 -1.07289 0
M  V30 1384 C 128.345 1.90096 -0.81676 0
M  V30 1385 C 128.76 1.7798 0.629966 0
M  V30 1386 O 128.117 1.1313 1.43206 0
M  V30 1387 C 128.168 3.40466 -1.21512 0
M  V30 1388 O 127.889 3.52232 -2.60508 0
M  V30 1389 C 129.39 4.32145 -0.988198 0
M  V30 1390 H 126.61 0.602495 -0.295366 0
M  V30 1391 H 129.154 1.4627 -1.42918 0
M  V30 1392 H 127.309 3.81958 -0.647039 0
M  V30 1393 H 127.723 4.45549 -2.76742 0
M  V30 1394 H 129.197 5.36072 -1.31645 0
M  V30 1395 H 129.674 4.39135 0.0755063 0
M  V30 1396 H 130.28 3.96395 -1.54115 0
M  V30 1397 N 128.595 0.856903 1.32268 0
M  V30 1398 C 129.844 0.457599 1.96441 0
M  V30 1399 C 130.157 -0.992426 1.68553 0
M  V30 1400 O 131.363 -1.49727 2.26482 0
M  V30 1401 C 129.819 0.767358 3.51624 0
M  V30 1402 C 129.427 2.23326 3.88367 0
M  V30 1403 C 131.171 0.435887 4.22256 0
M  V30 1404 C 129.078 2.48613 5.36606 0
M  V30 1405 H 128.008 0.167387 0.735185 0
M  V30 1406 H 130.659 1.048 1.5063 0
M  V30 1407 H 129.041 0.106367 3.95857 0
M  V30 1408 H 130.215 2.93623 3.55137 0
M  V30 1409 H 128.53 2.52948 3.30766 0
M  V30 1410 H 131.127 0.602202 5.31298 0
M  V30 1411 H 131.47 -0.622672 4.11617 0
M  V30 1412 H 132.003 1.05286 3.83614 0
M  V30 1413 H 128.742 3.53101 5.52268 0
M  V30 1414 H 128.262 1.82896 5.71235 0
M  V30 1415 H 129.941 2.32676 6.03714 0
M  V30 1416 N 130.073 -1.45103 0.615059 0
M  V30 1417 C 131.484 -1.85654 0.197383 0
M  V30 1418 C 131.835 -1.51433 -1.24749 0
M  V30 1419 O 130.96 -0.944608 -1.94695 0
M  V30 1420 C 131.555 -3.36972 0.351448 0
M  V30 1421 C 130.114 -3.76398 -0.011593 0
M  V30 1422 C 129.261 -2.69024 0.672394 0
M  V30 1423 H 132.212 -1.35797 0.821263 0
M  V30 1424 H 132.233 -3.78239 -0.414227 0
M  V30 1425 H 131.745 -3.61847 1.40314 0
M  V30 1426 H 129.846 -3.5714 -1.06217 0
M  V30 1427 H 129.959 -4.77532 0.387265 0
M  V30 1428 H 128.323 -2.54465 0.109284 0
M  V30 1429 H 129.106 -2.96735 1.72636 0
M  V30 1430 N 131.551 -0.354651 -1.53558 0
M  V30 1431 C 132.484 0.540273 -2.21712 0
M  V30 1432 C 133.462 1.09161 -1.2051 0
M  V30 1433 O 134.646 1.14979 -1.49372 0
M  V30 1434 C 131.773 1.74435 -2.90328 0
M  V30 1435 C 130.819 1.32146 -4.05512 0
M  V30 1436 S 131.652 0.331924 -5.3447 0
M  V30 1437 C 132.808 1.54258 -6.06593 0
M  V30 1438 H 133.041 -0.0385776 -2.97275 0
M  V30 1439 H 130.574 -0.138736 -1.53775 0
M  V30 1440 H 132.532 2.43507 -3.30476 0
M  V30 1441 H 131.193 2.29444 -2.1451 0
M  V30 1442 H 130.386 2.21952 -4.52497 0
M  V30 1443 H 129.988 0.710091 -3.67197 0
M  V30 1444 H 132.28 2.47534 -6.30661 0
M  V30 1445 H 133.223 1.11431 -6.99277 0
M  V30 1446 H 133.631 1.74367 -5.36895 0
M  V30 1447 N 133.029 1.57378 -0.0835403 0
M  V30 1448 C 133.992 2.12252 0.864959 0
M  V30 1449 C 134.992 1.04916 1.21858 0
M  V30 1450 O 136.182 1.30853 1.14991 0
M  V30 1451 C 133.314 2.63358 2.16461 0
M  V30 1452 H 134.507 2.97371 0.388676 0
M  V30 1453 H 132.06 1.55423 0.165317 0
M  V30 1454 H 132.795 1.81727 2.686 0
M  V30 1455 H 132.58 3.41826 1.92087 0
M  V30 1456 H 134.07 3.05847 2.84337 0
M  V30 1457 N 134.507 -0.190092 1.56449 0
M  V30 1458 C 135.732 -0.929864 1.85387 0
M  V30 1459 C 136.157 -1.7585 0.667704 0
M  V30 1460 O 135.515 -1.77198 -0.383459 0
M  V30 1461 C 135.563 -1.79773 3.12593 0
M  V30 1462 O 134.667 -2.89713 2.93496 0
M  V30 1463 H 134.008 -0.261574 0.610307 0
M  V30 1464 H 136.538 -0.193896 2.03679 0
M  V30 1465 H 136.548 -2.20139 3.43515 0
M  V30 1466 H 135.223 -1.18892 3.98544 0
M  V30 1467 H 133.8 -2.53065 2.73884 0
M  V30 1468 N 135.985 -1.50799 -0.457987 0
M  V30 1469 C 137.262 -1.52968 -1.21902 0
M  V30 1470 C 137.642 -0.281906 -2.09209 0
M  V30 1471 O 136.99 0.734076 -2.16388 0
M  V30 1472 C 137.2 -2.8326 -2.03875 0
M  V30 1473 C 138.548 -3.34425 -2.6162 0
M  V30 1474 O 139.572 -2.8467 -2.14106 0
M  V30 1475 O 138.431 -4.21188 -3.48228 0
M  V30 1476 H 135.525 -0.614129 -0.553873 0
M  V30 1477 H 138.071 -1.63098 -0.468739 0
M  V30 1478 H 136.843 -3.65543 -1.39621 0
M  V30 1479 H 136.466 -2.76195 -2.8601 0
M  V30 1480 N 137.463 0.71206 -1.40597 0
M  V30 1481 C 138.393 1.83889 -1.43899 0
M  V30 1482 C 139.374 1.67442 -0.299504 0
M  V30 1483 O 140.559 1.87421 -0.508624 0
M  V30 1484 C 137.689 3.21877 -1.30431 0
M  V30 1485 C 136.643 3.53002 -2.42019 0
M  V30 1486 C 135.969 4.90172 -2.13626 0
M  V30 1487 C 137.269 3.53643 -3.84362 0
M  V30 1488 H 138.963 1.81383 -2.38203 0
M  V30 1489 H 136.509 0.871237 -1.14654 0
M  V30 1490 H 138.462 4.00404 -1.31357 0
M  V30 1491 H 137.186 3.24968 -0.326049 0
M  V30 1492 H 135.845 2.76818 -2.40349 0
M  V30 1493 H 135.493 4.89869 -1.14182 0
M  V30 1494 H 135.193 5.11962 -2.88389 0
M  V30 1495 H 136.717 5.71028 -2.1624 0
M  V30 1496 H 138.131 4.22203 -3.87837 0
M  V30 1497 H 136.528 3.86961 -4.58673 0
M  V30 1498 H 137.598 2.52954 -4.13693 0
M  V30 1499 N 138.941 1.26152 0.944643 0
M  V30 1500 C 140.189 1.11271 1.6871 0
M  V30 1501 C 140.51 -0.345166 1.91921 0
M  V30 1502 O 139.78 -1.24387 1.51343 0
M  V30 1503 H 138.36 0.408783 0.625224 0
M  V30 1504 H 141.022 1.58427 1.1352 0
M  V30 1505 H 140.118 1.62879 2.66227 0
M  V30 1506 N 140.419 -1.14872 1.07899 0
M  V30 1507 C 141.668 -1.85135 0.800499 0
M  V30 1508 C 141.981 -1.83547 -0.676014 0
M  V30 1509 O 143.187 -2.49548 -1.06948 0
M  V30 1510 C 141.643 -3.3231 1.38197 0
M  V30 1511 C 141.251 -3.42329 2.8899 0
M  V30 1512 C 142.995 -4.0772 1.18174 0
M  V30 1513 C 140.902 -4.83684 3.403 0
M  V30 1514 H 139.832 -0.693563 0.29578 0
M  V30 1515 H 142.483 -1.29532 1.29976 0
M  V30 1516 H 140.865 -3.87618 0.810431 0
M  V30 1517 H 142.039 -2.97097 3.52236 0
M  V30 1518 H 140.354 -2.80369 3.07867 0
M  V30 1519 H 142.951 -5.12049 1.5398 0
M  V30 1520 H 143.294 -4.16124 0.12117 0
M  V30 1521 H 143.827 -3.58696 1.71994 0
M  V30 1522 H 140.566 -4.80465 4.45907 0
M  V30 1523 H 140.086 -5.29474 2.81811 0
M  V30 1524 H 141.765 -5.52558 3.36584 0
M  V30 1525 N 141.898 -0.863906 -1.31812 0
M  V30 1526 C 143.126 -0.486111 -2.01108 0
M  V30 1527 C 143.541 0.919755 -1.64882 0
M  V30 1528 O 142.898 1.60162 -0.874893 0
M  V30 1529 C 142.949 -0.626435 -3.56031 0
M  V30 1530 O 142.67 -1.97693 -3.90959 0
M  V30 1531 C 144.171 -0.248857 -4.42601 0
M  V30 1532 H 141.391 -0.190052 -0.643523 0
M  V30 1533 H 143.935 -1.1634 -1.68182 0
M  V30 1534 H 142.09 0.00322717 -3.874 0
M  V30 1535 H 142.504 -1.98034 -4.85678 0
M  V30 1536 H 143.978 -0.398016 -5.50563 0
M  V30 1537 H 144.455 0.811489 -4.31638 0
M  V30 1538 H 145.061 -0.853971 -4.16638 0
M  V30 1539 N 143.376 1.44774 -0.622745 0
M  V30 1540 C 144.787 1.85546 -0.207226 0
M  V30 1541 C 145.138 1.52093 1.23944 0
M  V30 1542 O 144.263 0.95492 1.94191 0
M  V30 1543 C 144.858 3.36781 -0.369313 0
M  V30 1544 C 143.417 3.76399 -0.00836847 0
M  V30 1545 C 142.564 2.68664 -0.686651 0
M  V30 1546 H 145.515 1.3536 -0.828454 0
M  V30 1547 H 145.536 3.78453 0.394162 0
M  V30 1548 H 145.048 3.61098 -1.42231 0
M  V30 1549 H 143.149 3.57698 1.04322 0
M  V30 1550 H 143.262 4.7732 -0.412584 0
M  V30 1551 H 141.626 2.54404 -0.122777 0
M  V30 1552 H 142.409 2.95815 -1.74208 0
M  V30 1553 N 144.854 0.36279 1.53368 0
M  V30 1554 C 146.1 -0.228113 2.01513 0
M  V30 1555 C 146.433 -1.48648 1.2497 0
M  V30 1556 O 145.708 -1.91459 0.342616 0
M  V30 1557 C 145.991 -0.522884 3.56284 0
M  V30 1558 C 145.844 0.74892 4.43521 0
M  V30 1559 C 147.163 -1.32461 4.19693 0
M  V30 1560 H 144.282 -0.0814343 0.732487 0
M  V30 1561 H 146.924 0.48713 1.83649 0
M  V30 1562 H 145.074 -1.1322 3.71636 0
M  V30 1563 H 146.746 1.38648 4.39971 0
M  V30 1564 H 144.989 1.36986 4.11603 0
M  V30 1565 H 145.66 0.497667 5.49752 0
M  V30 1566 H 148.136 -0.809203 4.08156 0
M  V30 1567 H 147.012 -1.49961 5.28018 0
M  V30 1568 H 147.273 -2.33232 3.75573 0
M  V30 1569 N 146.332 -1.57332 0.0918853 0
M  V30 1570 C 147.262 -2.16872 -0.865371 0
M  V30 1571 C 148.243 -1.10118 -1.29646 0
M  V30 1572 O 149.428 -1.38242 -1.36392 0
M  V30 1573 C 146.558 -2.74649 -2.12569 0
M  V30 1574 C 145.512 -3.86747 -1.83333 0
M  V30 1575 C 144.838 -4.31212 -3.16166 0
M  V30 1576 C 146.138 -5.10089 -1.1228 0
M  V30 1577 H 147.832 -2.97114 -0.369307 0
M  V30 1578 H 145.378 -1.42918 -0.176194 0
M  V30 1579 H 147.331 -3.14952 -2.7997 0
M  V30 1580 H 146.055 -1.91657 -2.64452 0
M  V30 1581 H 144.714 -3.46978 -1.18331 0
M  V30 1582 H 144.362 -3.45115 -3.6593 0
M  V30 1583 H 144.062 -5.06788 -2.97388 0
M  V30 1584 H 145.586 -4.74146 -3.84731 0
M  V30 1585 H 147 -5.47582 -1.69785 0
M  V30 1586 H 145.397 -5.91073 -1.03693 0
M  V30 1587 H 146.467 -4.84786 -0.105041 0
M  V30 1588 N 147.81 0.181792 -1.56548 0
M  V30 1589 C 148.74 1.22765 -1.98623 0
M  V30 1590 C 149.721 1.46747 -0.860189 0
M  V30 1591 O 150.906 1.58259 -1.12551 0
M  V30 1592 C 148.036 2.56894 -2.33715 0
M  V30 1593 C 146.99 2.475 -3.49182 0
M  V30 1594 C 146.316 3.86023 -3.69986 0
M  V30 1595 C 147.616 1.98866 -4.82959 0
M  V30 1596 H 149.31 0.877942 -2.86239 0
M  V30 1597 H 146.856 0.42088 -1.37712 0
M  V30 1598 H 148.809 3.30253 -2.61746 0
M  V30 1599 H 147.533 2.93632 -1.42997 0
M  V30 1600 H 146.192 1.76596 -3.21262 0
M  V30 1601 H 145.84 4.20136 -2.76576 0
M  V30 1602 H 145.54 3.80609 -4.47672 0
M  V30 1603 H 147.064 4.60984 -4.00407 0
M  V30 1604 H 148.478 2.61992 -5.09934 0
M  V30 1605 H 146.875 2.04424 -5.64208 0
M  V30 1606 H 147.945 0.942465 -4.75653 0
M  V30 1607 N 149.288 1.51039 0.449983 0
M  V30 1608 C 150.251 1.70863 1.5277 0
M  V30 1609 C 151.251 0.578846 1.5002 0
M  V30 1610 O 152.441 0.846213 1.52266 0
M  V30 1611 C 149.573 1.75341 2.9235 0
M  V30 1612 H 150.766 2.67034 1.36502 0
M  V30 1613 H 148.319 1.40838 0.677812 0
M  V30 1614 H 149.054 0.809383 3.14037 0
M  V30 1615 H 148.839 2.57436 2.95752 0
M  V30 1616 H 150.329 1.92559 3.70555 0
M  V30 1617 N 150.766 -0.704594 1.40972 0
M  V30 1618 C 152.014 -1.46169 1.39568 0
M  V30 1619 C 152.335 -1.95 0.00253745 0
M  V30 1620 O 151.605 -1.71095 -0.954114 0
M  V30 1621 H 150.185 -0.542326 0.513704 0
M  V30 1622 H 152.847 -0.834553 1.76128 0
M  V30 1623 H 151.943 -2.32922 2.07735 0
M  V30 1624 N 152.244 -1.26651 -0.937939 0
M  V30 1625 C 153.472 -1.15173 -1.7188 0
M  V30 1626 C 153.887 0.292668 -1.86518 0
M  V30 1627 O 153.244 1.20014 -1.37488 0
M  V30 1628 C 153.295 -1.81925 -3.12387 0
M  V30 1629 O 153.016 -3.2072 -2.98446 0
M  V30 1630 C 154.517 -1.76442 -4.06673 0
M  V30 1631 H 151.737 -0.400911 -0.538063 0
M  V30 1632 H 154.281 -1.67332 -1.1756 0
M  V30 1633 H 152.436 -1.33696 -3.63599 0
M  V30 1634 H 152.85 -3.53802 -3.872 0
M  V30 1635 H 154.324 -2.27781 -5.02812 0
M  V30 1636 H 154.801 -0.731608 -4.33064 0
M  V30 1637 H 155.407 -2.24238 -3.61382 0
M  V30 1638 N 153.722 1.14298 -1.08507 0
M  V30 1639 C 154.632 2.23027 -0.727753 0
M  V30 1640 C 155.648 1.71952 0.26619 0
M  V30 1641 O 156.824 2.011 0.109882 0
M  V30 1642 C 153.889 3.46403 -0.143541 0
M  V30 1643 C 152.95 4.12413 -1.19223 0
M  V30 1644 C 152.183 5.29899 -0.635798 0
M  V30 1645 O 152.406 5.67796 0.544393 0
M  V30 1646 O 151.34 5.85717 -1.38634 0
M  V30 1647 H 155.166 2.55945 -1.63481 0
M  V30 1648 H 152.751 1.22248 -0.858817 0
M  V30 1649 H 154.633 4.21018 0.179404 0
M  V30 1650 H 153.308 3.15206 0.736659 0
M  V30 1651 H 152.215 3.39667 -1.56772 0
M  V30 1652 H 153.548 4.47718 -2.04474 0
M  V30 1653 N 155.201 0.870884 1.31352 0
M  V30 1654 C 156.111 0.330783 2.32256 0
M  V30 1655 C 157.127 -0.559767 1.6475 0
M  V30 1656 O 158.303 -0.456263 1.96164 0
M  V30 1657 C 155.368 -0.458137 3.4366 0
M  V30 1658 C 154.429 0.460482 4.26823 0
M  V30 1659 C 153.662 -0.290881 5.32907 0
M  V30 1660 O 153.885 -1.51885 5.49806 0
M  V30 1661 O 152.819 0.351732 6.00871 0
M  V30 1662 H 156.645 1.16718 2.80376 0
M  V30 1663 H 154.23 0.634285 1.35267 0
M  V30 1664 H 156.112 -0.905343 4.1156 0
M  V30 1665 H 154.787 -1.27106 2.97701 0
M  V30 1666 H 153.694 0.956207 3.61673 0
M  V30 1667 H 155.027 1.23903 4.7635 0
M  V30 1668 N 156.679 -1.44442 0.630414 0
M  V30 1669 C 157.611 -2.2892 -0.113347 0
M  V30 1670 C 158.624 -1.41243 -0.80959 0
M  V30 1671 O 159.813 -1.65402 -0.671156 0
M  V30 1672 C 156.913 -3.17594 -1.18266 0
M  V30 1673 C 156.086 -4.33682 -0.569073 0
M  V30 1674 C 155.145 -5.03397 -1.53226 0
M  V30 1675 O 154.171 -5.59438 -1.04967 0
M  V30 1676 N 155.373 -5.04783 -2.86661 0
M  V30 1677 H 158.138 -2.93392 0.611636 0
M  V30 1678 H 155.699 -1.54881 0.471523 0
M  V30 1679 H 157.691 -3.61097 -1.82732 0
M  V30 1680 H 156.261 -2.54876 -1.80988 0
M  V30 1681 H 155.481 -3.9338 0.254187 0
M  V30 1682 H 156.769 -5.08608 -0.139767 0
M  V30 1683 H 156.167 -4.60584 -3.28449 0
M  V30 1684 H 154.724 -5.52077 -3.46489 0
M  V30 1685 N 158.157 -0.370918 -1.53173 0
M  V30 1686 C 159.104 0.473035 -2.259 0
M  V30 1687 C 160.074 1.07311 -1.26781 0
M  V30 1688 O 161.259 1.1046 -1.55574 0
M  V30 1689 C 158.399 1.60405 -3.05556 0
M  V30 1690 C 157.512 1.02863 -4.19575 0
M  V30 1691 C 156.647 2.12918 -4.86661 0
M  V30 1692 C 155.686 1.52869 -5.92704 0
M  V30 1693 N 154.823 2.56779 -6.53459 0
M  V30 1694 H 159.663 -0.153649 -2.97604 0
M  V30 1695 H 157.2 -0.0875946 -1.46839 0
M  V30 1696 H 159.158 2.27034 -3.50016 0
M  V30 1697 H 157.788 2.20131 -2.36097 0
M  V30 1698 H 156.84 0.252465 -3.79561 0
M  V30 1699 H 158.152 0.549642 -4.95762 0
M  V30 1700 H 157.306 2.87356 -5.34333 0
M  V30 1701 H 156.045 2.6417 -4.09958 0
M  V30 1702 H 155.05 0.769479 -5.44389 0
M  V30 1703 H 156.275 1.02435 -6.7133 0
M  V30 1704 H 154.221 3.07235 -5.79606 0
M  V30 1705 H 154.138 2.13583 -7.25202 0
M  V30 1706 H 155.406 3.30903 -7.05779 0
M  V30 1707 N 159.635 1.57281 -0.100228 0
M  V30 1708 C 160.545 2.17833 0.870965 0
M  V30 1709 C 161.561 1.14921 1.30649 0
M  V30 1710 O 162.737 1.47313 1.37335 0
M  V30 1711 C 159.802 2.75085 2.1102 0
M  V30 1712 C 158.863 3.9297 1.72838 0
M  V30 1713 C 158.096 4.47482 2.90854 0
M  V30 1714 O 158.319 4.00922 4.05731 0
M  V30 1715 O 157.253 5.38433 2.69023 0
M  V30 1716 H 161.079 3.0124 0.38575 0
M  V30 1717 H 158.664 1.48881 0.124397 0
M  V30 1718 H 160.546 3.11656 2.83634 0
M  V30 1719 H 159.221 1.94721 2.58584 0
M  V30 1720 H 158.128 3.61201 0.973883 0
M  V30 1721 H 159.461 4.74713 1.30033 0
M  V30 1722 N 161.113 -0.173488 1.56642 0
M  V30 1723 C 162.529 -0.525174 1.50712 0
M  V30 1724 C 162.729 -1.8476 0.804107 0
M  V30 1725 O 161.785 -2.49869 0.363574 0
M  V30 1726 C 163.098 -0.559937 2.95441 0
M  V30 1727 C 164.646 -0.647288 3.06234 0
M  V30 1728 C 165.121 -0.712963 4.52417 0
M  V30 1729 N 166.612 -0.775911 4.56655 0
M  V30 1730 C 167.347 -0.847264 5.67106 0
M  V30 1731 N 166.843 -0.879585 6.87194 0
M  V30 1732 N 168.636 -0.886117 5.55071 0
M  V30 1733 H 160.787 0.693681 2.00753 0
M  V30 1734 H 163.05 0.249841 0.914485 0
M  V30 1735 H 162.756 0.343049 3.50023 0
M  V30 1736 H 162.63 -1.40718 3.49969 0
M  V30 1737 H 165.017 -1.5407 2.51687 0
M  V30 1738 H 165.098 0.226586 2.54794 0
M  V30 1739 H 164.742 0.176183 5.07594 0
M  V30 1740 H 164.672 -1.60295 5.0161 0
M  V30 1741 H 167.163 -0.759304 3.70193 0
M  V30 1742 H 167.476 -0.935144 7.67121 0
M  V30 1743 H 165.821 -0.847898 6.89808 0
M  V30 1744 H 169.012 -0.857853 4.60172 0
M  V30 1745 H 169.185 -0.938263 6.41171 0
M  V30 1746 N 162.591 -1.51276 -0.441967 0
M  V30 1747 C 163.838 -1.63715 -1.19179 0
M  V30 1748 C 164.166 -0.351175 -1.91303 0
M  V30 1749 O 163.421 0.664524 -1.84072 0
M  V30 1750 C 163.72 -2.78746 -2.23686 0
M  V30 1751 C 163.386 -4.18189 -1.68607 0
M  V30 1752 C 162.048 -4.56125 -1.53308 0
M  V30 1753 C 164.4 -5.05222 -1.28062 0
M  V30 1754 C 161.728 -5.78804 -0.959317 0
M  V30 1755 C 164.08 -6.28476 -0.721162 0
M  V30 1756 C 162.744 -6.65188 -0.55504 0
M  V30 1757 H 162.014 -0.599076 -0.436106 0
M  V30 1758 H 164.661 -1.85296 -0.48351 0
M  V30 1759 H 162.966 -2.51369 -3.00535 0
M  V30 1760 H 164.663 -2.8557 -2.81515 0
M  V30 1761 H 161.253 -3.88277 -1.8149 0
M  V30 1762 H 165.437 -4.76524 -1.38704 0
M  V30 1763 H 160.693 -6.05899 -0.81833 0
M  V30 1764 H 164.867 -6.95259 -0.398458 0
M  V30 1765 H 162.494 -7.60123 -0.108311 0
M  V30 1766 N 164.069 0.697108 -1.41344 0
M  V30 1767 C 164.999 1.82353 -1.45841 0
M  V30 1768 C 165.98 1.67115 -0.317247 0
M  V30 1769 O 167.165 1.86871 -0.528474 0
M  V30 1770 C 164.295 3.20476 -1.33838 0
M  V30 1771 C 163.249 3.50415 -2.4575 0
M  V30 1772 C 162.575 4.87878 -2.18813 0
M  V30 1773 C 163.875 3.49546 -3.88091 0
M  V30 1774 H 165.569 1.78846 -2.40113 0
M  V30 1775 H 163.115 0.859028 -1.15571 0
M  V30 1776 H 165.068 3.98988 -1.35596 0
M  V30 1777 H 163.792 3.24604 -0.360498 0
M  V30 1778 H 162.451 2.74253 -2.43271 0
M  V30 1779 H 162.099 4.8863 -1.19371 0
M  V30 1780 H 161.799 5.08875 -2.93803 0
M  V30 1781 H 163.323 5.68702 -2.22284 0
M  V30 1782 H 164.737 4.18066 -3.92293 0
M  V30 1783 H 163.134 3.82075 -4.62751 0
M  V30 1784 H 164.204 2.48552 -4.16353 0
M  V30 1785 N 165.547 1.27147 0.931209 0
M  V30 1786 C 166.963 1.04475 1.20653 0
M  V30 1787 C 167.163 -0.223885 2.00252 0
M  V30 1788 O 166.219 -0.930332 2.34736 0
M  V30 1789 C 167.532 2.28209 1.95809 0
M  V30 1790 C 169.08 2.33211 2.08762 0
M  V30 1791 C 169.555 3.56665 2.87323 0
M  V30 1792 N 171.046 3.57201 2.94892 0
M  V30 1793 C 171.781 4.49395 3.56134 0
M  V30 1794 N 171.277 5.51889 4.18796 0
M  V30 1795 N 173.07 4.37026 3.53504 0
M  V30 1796 H 165.221 2.08612 0.399333 0
M  V30 1797 H 167.484 0.917312 0.239253 0
M  V30 1798 H 167.19 3.20538 1.44736 0
M  V30 1799 H 167.064 2.33247 2.96438 0
M  V30 1800 H 169.451 1.41391 2.59023 0
M  V30 1801 H 169.532 2.32178 1.07364 0
M  V30 1802 H 169.176 4.4882 2.37746 0
M  V30 1803 H 169.106 3.54948 3.88998 0
M  V30 1804 H 171.597 2.83074 2.50354 0
M  V30 1805 H 171.91 6.18409 4.63454 0
M  V30 1806 H 170.255 5.55735 4.17353 0
M  V30 1807 H 173.446 3.56166 3.03749 0
M  V30 1808 H 173.619 5.09067 4.00942 0
M  V30 1809 N 167.025 -1.13721 1.09112 0
M  V30 1810 C 168.436 -1.6648 0.845068 0
M  V30 1811 C 168.787 -1.85911 -0.62701 0
M  V30 1812 O 167.912 -1.57556 -1.48341 0
M  V30 1813 C 168.507 -3.02413 1.52748 0
M  V30 1814 C 167.066 -3.52176 1.32849 0
M  V30 1815 C 166.213 -2.27492 1.58564 0
M  V30 1816 H 169.164 -0.976872 1.25072 0
M  V30 1817 H 169.185 -3.68223 0.958752 0
M  V30 1818 H 168.697 -2.88238 2.59885 0
M  V30 1819 H 166.798 -3.7156 0.278137 0
M  V30 1820 H 166.911 -4.32499 2.0611 0
M  V30 1821 H 165.275 -2.33923 1.00758 0
M  V30 1822 H 166.058 -2.15886 2.66924 0
M  V30 1823 N 168.503 -0.877838 -1.30888 0
M  V30 1824 C 169.433 -0.35534 -2.3078 0
M  V30 1825 C 170.414 0.557994 -1.60687 0
M  V30 1826 O 171.599 0.473355 -1.88343 0
M  V30 1827 C 168.729 0.437221 -3.44537 0
M  V30 1828 C 167.683 -0.383715 -4.26276 0
M  V30 1829 C 167.009 0.535014 -5.32017 0
M  V30 1830 C 168.309 -1.62201 -4.96476 0
M  V30 1831 H 170.003 -1.19007 -2.74732 0
M  V30 1832 H 167.549 -0.573698 -1.32078 0
M  V30 1833 H 169.502 0.813334 -4.13477 0
M  V30 1834 H 168.226 1.30553 -2.99372 0
M  V30 1835 H 166.885 -0.741874 -3.59015 0
M  V30 1836 H 166.533 1.40083 -4.831 0
M  V30 1837 H 166.233 -0.0104211 -5.87599 0
M  V30 1838 H 167.757 0.907799 -6.03814 0
M  V30 1839 H 169.171 -1.31689 -5.5797 0
M  V30 1840 H 167.568 -2.10711 -5.61891 0
M  V30 1841 H 168.638 -2.37044 -4.23011 0
M  V30 1842 N 169.982 1.44106 -0.638065 0
M  V30 1843 C 171.21 2.06336 -0.152615 0
M  V30 1844 C 171.625 1.47731 1.17563 0
M  V30 1845 O 170.982 0.602806 1.72257 0
M  V30 1846 C 171.033 3.61479 -0.0391491 0
M  V30 1847 O 170.754 4.17903 -1.31487 0
M  V30 1848 C 172.255 4.40757 0.474176 0
M  V30 1849 H 169.475 0.665862 -0.0828776 0
M  V30 1850 H 172.019 1.84862 -0.87443 0
M  V30 1851 H 170.174 3.82191 0.633142 0
M  V30 1852 H 170.588 5.11416 -1.16421 0
M  V30 1853 H 172.062 5.49707 0.502562 0
M  V30 1854 H 172.539 4.12697 1.50258 0
M  V30 1855 H 173.145 4.24979 -0.165102 0
M  V30 1856 N 171.46 0.379036 1.52974 0
M  V30 1857 C 172.37 -0.468639 2.29872 0
M  V30 1858 C 173.386 -1.08067 1.36373 0
M  V30 1859 O 174.562 -1.08871 1.69438 0
M  V30 1860 C 171.627 -1.58594 3.083 0
M  V30 1861 C 170.688 -1.00007 4.17489 0
M  V30 1862 C 169.921 -2.06413 4.92168 0
M  V30 1863 O 170.144 -3.27751 4.66835 0
M  V30 1864 O 169.078 -1.68717 5.7777 0
M  V30 1865 H 172.904 0.157508 3.03291 0
M  V30 1866 H 170.489 0.143035 1.48714 0
M  V30 1867 H 172.371 -2.23525 3.57232 0
M  V30 1868 H 171.046 -2.19724 2.37703 0
M  V30 1869 H 169.953 -0.314299 3.72777 0
M  V30 1870 H 171.286 -0.433135 4.90291 0
M  V30 1871 N 172.938 -1.57226 0.108567 0
M  V30 1872 C 173.885 -2.14756 -0.845481 0
M  V30 1873 C 174.855 -1.06971 -1.27068 0
M  V30 1874 O 176.04 -1.34827 -1.35005 0
M  V30 1875 C 173.18 -2.74298 -2.09415 0
M  V30 1876 C 172.293 -3.96358 -1.71826 0
M  V30 1877 C 171.428 -4.44021 -2.9158 0
M  V30 1878 C 170.467 -5.58637 -2.50181 0
M  V30 1879 N 169.604 -6.01091 -3.62814 0
M  V30 1880 H 174.444 -2.95961 -0.348035 0
M  V30 1881 H 171.981 -1.46226 -0.160106 0
M  V30 1882 H 173.939 -3.06945 -2.82561 0
M  V30 1883 H 172.569 -1.95801 -2.56636 0
M  V30 1884 H 171.621 -3.69939 -0.885947 0
M  V30 1885 H 172.933 -4.79504 -1.37394 0
M  V30 1886 H 172.087 -4.78522 -3.72963 0
M  V30 1887 H 170.826 -3.59803 -3.29231 0
M  V30 1888 H 169.831 -5.23751 -1.67228 0
M  V30 1889 H 171.056 -6.44613 -2.13659 0
M  V30 1890 H 169.002 -5.19817 -4.00158 0
M  V30 1891 H 168.919 -6.79066 -3.32273 0
M  V30 1892 H 170.187 -6.40227 -4.44668 0
M  V30 1893 N 174.416 0.165178 -1.56732 0
M  V30 1894 C 175.827 0.727046 -1.71962 0
M  V30 1895 C 176.178 1.82508 -0.720078 0
M  V30 1896 O 175.303 2.16082 0.117242 0
M  V30 1897 C 175.898 1.32559 -3.11791 0
M  V30 1898 C 174.457 1.83422 -3.28684 0
M  V30 1899 C 173.604 0.715567 -2.67908 0
M  V30 1900 H 176.555 -0.0602896 -1.58585 0
M  V30 1901 H 176.576 2.19533 -3.10782 0
M  V30 1902 H 176.088 0.526195 -3.84516 0
M  V30 1903 H 174.189 2.65986 -2.60926 0
M  V30 1904 H 174.302 1.97543 -4.36478 0
M  V30 1905 H 172.666 1.13758 -2.27884 0
M  V30 1906 H 173.449 -0.0720836 -3.43224 0
M  V30 1907 N 175.894 1.51508 0.433938 0
M  V30 1908 C 176.857 1.72473 1.50949 0
M  V30 1909 C 177.857 0.594725 1.49398 0
M  V30 1910 O 179.047 0.862315 1.5136 0
M  V30 1911 C 176.179 1.78431 2.90474 0
M  V30 1912 H 177.372 2.68467 1.33662 0
M  V30 1913 H 174.925 1.41549 0.662836 0
M  V30 1914 H 175.66 0.842645 3.13161 0
M  V30 1915 H 175.445 2.60558 2.93005 0
M  V30 1916 H 176.935 1.96479 3.68491 0
M  V30 1917 N 177.372 -0.689602 1.41712 0
M  V30 1918 C 178.302 -1.81577 1.46806 0
M  V30 1919 C 179.283 -1.66945 0.326105 0
M  V30 1920 O 180.468 -1.86588 0.538377 0
M  V30 1921 C 177.598 -3.19762 1.35535 0
M  V30 1922 C 176.552 -3.49107 2.47605 0
M  V30 1923 C 175.878 -4.86711 2.21397 0
M  V30 1924 C 177.178 -3.47483 3.89939 0
M  V30 1925 H 178.872 -1.7757 2.41058 0
M  V30 1926 H 176.418 -0.852887 1.16025 0
M  V30 1927 H 178.371 -3.98263 1.3771 0
M  V30 1928 H 177.095 -3.24409 0.377708 0
M  V30 1929 H 175.754 -2.72959 2.44722 0
M  V30 1930 H 175.402 -4.8799 1.21961 0
M  V30 1931 H 175.102 -5.0731 2.96497 0
M  V30 1932 H 176.626 -5.67515 2.25297 0
M  V30 1933 H 178.04 -4.1598 3.94505 0
M  V30 1934 H 176.437 -3.79615 4.64771 0
M  V30 1935 H 177.507 -2.46341 4.17665 0
M  V30 1936 N 178.85 -1.27639 -0.924453 0
M  V30 1937 C 179.813 -1.10681 -2.00705 0
M  V30 1938 C 180.813 -0.0497823 -1.60723 0
M  V30 1939 O 182.003 -0.294654 -1.7169 0
M  V30 1940 C 179.135 -0.687164 -3.33902 0
M  V30 1941 H 180.328 -2.06817 -2.17179 0
M  V30 1942 H 177.881 -1.10473 -1.10569 0
M  V30 1943 H 178.616 0.275439 -3.23128 0
M  V30 1944 H 178.401 -1.45061 -3.6428 0
M  V30 1945 H 179.891 -0.590853 -4.13399 0
M  V30 1946 N 180.328 1.1314 -1.09713 0
M  V30 1947 C 181.291 2.16831 -0.742751 0
M  V30 1948 C 182.291 1.59159 0.229129 0
M  V30 1949 O 183.481 1.74199 0.00693237 0
M  V30 1950 C 180.613 3.40756 -0.0989168 0
M  V30 1951 H 181.806 2.49695 -1.66109 0
M  V30 1952 H 179.359 1.2802 -0.896699 0
M  V30 1953 H 180.094 3.13485 0.830514 0
M  V30 1954 H 179.879 3.83888 -0.798265 0
M  V30 1955 H 181.369 4.17386 0.133524 0
M  V30 1956 N 181.806 0.884767 1.30421 0
M  V30 1957 C 183.053 0.503105 1.96151 0
M  V30 1958 C 183.381 -0.947676 1.69851 0
M  V30 1959 O 182.636 -1.68467 0.995861 0
M  V30 1960 C 182.935 0.724318 3.49983 0
M  V30 1961 C 182.601 2.15015 3.96332 0
M  V30 1962 C 181.263 2.54005 4.08699 0
M  V30 1963 C 183.615 3.07936 4.20505 0
M  V30 1964 C 180.943 3.85128 4.42599 0
M  V30 1965 C 183.295 4.3859 4.55874 0
M  V30 1966 C 181.959 4.77474 4.66449 0
M  V30 1967 H 181.229 0.184099 0.717766 0
M  V30 1968 H 183.876 1.12058 1.55291 0
M  V30 1969 H 182.181 0.0238086 3.91793 0
M  V30 1970 H 183.878 0.408617 3.98913 0
M  V30 1971 H 180.468 1.8375 3.87213 0
M  V30 1972 H 184.652 2.79033 4.10431 0
M  V30 1973 H 179.908 4.14996 4.48986 0
M  V30 1974 H 184.082 5.10629 4.7353 0
M  V30 1975 H 181.709 5.79115 4.92473 0
M  V30 1976 N 183.284 -1.43765 0.645699 0
M  V30 1977 C 184.247 -2.29163 -0.0409488 0
M  V30 1978 C 185.247 -1.41813 -0.757996 0
M  V30 1979 O 186.437 -1.63527 -0.600382 0
M  V30 1980 C 183.569 -3.23716 -1.06869 0
M  V30 1981 H 184.762 -2.91366 0.710345 0
M  V30 1982 H 182.315 -1.5092 0.406547 0
M  V30 1983 H 183.05 -2.66393 -1.84947 0
M  V30 1984 H 182.835 -3.88105 -0.558277 0
M  V30 1985 H 184.325 -3.87831 -1.54845 0
M  V30 1986 N 184.763 -0.387143 -1.52771 0
M  V30 1987 C 185.693 0.440551 -2.29306 0
M  V30 1988 C 186.674 1.06535 -1.32606 0
M  V30 1989 O 187.859 1.07853 -1.61497 0
M  V30 1990 C 184.989 1.56919 -3.09829 0
M  V30 1991 C 183.943 1.07054 -4.14395 0
M  V30 1992 C 183.269 2.29109 -4.83129 0
M  V30 1993 C 184.569 0.140015 -5.22112 0
M  V30 1994 H 186.263 -0.198026 -2.98744 0
M  V30 1995 H 183.809 -0.09668 -1.43675 0
M  V30 1996 H 185.762 2.15503 -3.62128 0
M  V30 1997 H 184.486 2.23532 -2.3812 0
M  V30 1998 H 183.145 0.507247 -3.63074 0
M  V30 1999 H 182.793 2.94227 -4.0797 0
M  V30 2000 H 182.493 1.96406 -5.53804 0
M  V30 2001 H 184.017 2.88339 -5.38231 0
M  V30 2002 H 185.431 0.633978 -5.69784 0
M  V30 2003 H 183.828 -0.0971485 -6.00021 0
M  V30 2004 H 184.898 -0.811711 -4.78058 0
M  V30 2005 N 186.241 1.57166 -0.116904 0
M  V30 2006 C 187.466 1.999 0.55271 0
M  V30 2007 C 187.891 0.996039 1.59564 0
M  V30 2008 O 187.249 -0.032556 1.81271 0
M  V30 2009 C 187.297 3.4152 1.15742 0
M  V30 2010 O 186.401 3.44106 2.27299 0
M  V30 2011 H 185.742 0.649447 0.138258 0
M  V30 2012 H 188.272 2.03573 -0.204759 0
M  V30 2013 H 188.282 3.79684 1.49346 0
M  V30 2014 H 186.957 4.14034 0.393493 0
M  V30 2015 H 185.534 3.17759 1.9515 0
M  V30 2016 N 187.719 -0.156864 1.56817 0
M  V30 2017 C 188.629 -1.2136 2.00771 0
M  V30 2018 C 189.645 -1.47598 0.921459 0
M  V30 2019 O 190.821 -1.59462 1.2302 0
M  V30 2020 C 187.886 -2.52943 2.37109 0
M  V30 2021 C 186.947 -2.34439 3.59634 0
M  V30 2022 C 186.18 -3.59748 3.94229 0
M  V30 2023 O 186.403 -4.65526 3.29609 0
M  V30 2024 O 185.337 -3.52998 4.8752 0
M  V30 2025 H 189.163 -0.870468 2.90958 0
M  V30 2026 H 186.748 -0.36484 1.44877 0
M  V30 2027 H 188.63 -3.30538 2.61386 0
M  V30 2028 H 187.305 -2.86806 1.5008 0
M  V30 2029 H 186.212 -1.54828 3.40557 0
M  V30 2030 H 187.545 -2.05496 4.4725 0
M  V30 2031 N 189.197 -1.51736 -0.425897 0
M  V30 2032 C 190.608 -1.5732 -1.00536 0
M  V30 2033 C 190.959 -0.403537 -1.92005 0
M  V30 2034 O 190.084 0.478256 -2.11049 0
M  V30 2035 C 190.679 -2.85119 -1.8301 0
M  V30 2036 C 189.238 -2.93236 -2.35987 0
M  V30 2037 C 188.385 -2.52098 -1.15508 0
M  V30 2038 H 191.336 -1.57348 -0.206739 0
M  V30 2039 H 191.357 -2.69526 -2.68581 0
M  V30 2040 H 190.869 -3.7023 -1.16411 0
M  V30 2041 H 188.97 -2.12581 -3.06007 0
M  V30 2042 H 189.083 -3.9713 -2.68001 0
M  V30 2043 H 187.447 -2.05558 -1.50393 0
M  V30 2044 H 188.23 -3.39565 -0.505014 0
M  V30 2045 N 190.675 0.682077 -1.42076 0
M  V30 2046 C 191.923 1.4393 -1.41876 0
M  V30 2047 C 192.244 1.94971 -0.0335599 0
M  V30 2048 O 191.514 1.72591 0.926773 0
M  V30 2049 H 190.094 0.534085 -0.522267 0
M  V30 2050 H 192.756 0.806427 -1.77434 0
M  V30 2051 H 191.852 2.29588 -2.11414 0
M  V30 2052 N 192.153 1.28127 0.917671 0
M  V30 2053 C 193.101 1.11569 2.04096 0
M  V30 2054 C 194.095 0.0360242 1.69362 0
M  V30 2055 O 195.301 0.194501 1.78946 0
M  V30 2056 H 191.676 0.344097 0.668656 0
M  V30 2057 H 193.647 2.06711 2.15205 0
M  V30 2058 C 192.396 0.790197 3.38602 0
M  V30 2059 H 191.719 1.61293 3.6582 0
M  V30 2060 H 193.159 0.714271 4.1794 0
M  V30 2061 C 191.618 -0.505897 3.3308 0
M  V30 2062 O 192.148 -1.53736 3.71117 0
M  V30 2063 N 190.354 -0.505193 2.86175 0
M  V30 2064 H 189.901 0.334621 2.55417 0
M  V30 2065 H 189.859 -1.37243 2.82863 0
M  V30 2066 N 193.631 -1.12557 1.10312 0
M  V30 2067 C 194.879 -1.83675 0.843091 0
M  V30 2068 C 195.2 -1.84435 -0.633131 0
M  V30 2069 O 194.47 -1.30657 -1.45964 0
M  V30 2070 H 193.05 -0.680138 0.308904 0
M  V30 2071 H 195.712 -1.36301 1.39313 0
M  V30 2072 H 194.808 -2.87908 1.2048 0
M  V30 2073 N 195.109 -0.891671 -1.2995 0
M  V30 2074 C 196.334 -0.527932 -2.00568 0
M  V30 2075 C 196.759 0.877969 -1.66353 0
M  V30 2076 O 196.117 1.58301 -0.883762 0
M  V30 2077 C 196.165 -0.717745 -3.53385 0
M  V30 2078 O 195.269 0.233376 -4.11739 0
M  V30 2079 H 194.61 -0.20722 -0.630837 0
M  V30 2080 H 197.14 -1.20105 -1.65638 0
M  V30 2081 H 197.15 -0.619307 -4.03272 0
M  V30 2082 H 195.825 -1.74276 -3.77625 0
M  V30 2083 H 194.402 0.0880706 -3.72796 0
M  V30 2084 N 196.587 1.43421 -0.653314 0
M  V30 2085 C 197.864 1.95361 -0.0966581 0
M  V30 2086 C 198.244 1.59461 1.38331 0
M  V30 2087 O 197.592 0.879777 2.10884 0
M  V30 2088 C 197.802 3.47311 -0.342988 0
M  V30 2089 C 199.15 4.23875 -0.24798 0
M  V30 2090 O 200.174 3.55133 -0.275553 0
M  V30 2091 O 199.033 5.4623 -0.171771 0
M  V30 2092 H 196.127 0.826945 0.00956291 0
M  V30 2093 H 198.673 1.5336 -0.726558 0
M  V30 2094 H 197.445 3.66569 -1.36906 0
M  V30 2095 H 197.068 3.9631 0.319975 0
M  V30 2096 N 198.065 0.39524 1.52563 0
M  V30 2097 C 199.028 -0.425001 2.25225 0
M  V30 2098 C 200.028 -0.985266 1.27079 0
M  V30 2099 O 201.218 -0.866332 1.5113 0
M  V30 2100 C 198.35 -1.59686 3.01186 0
M  V30 2101 H 199.543 0.211233 2.99155 0
M  V30 2102 H 197.096 0.147472 1.55603 0
M  V30 2103 H 197.831 -2.27035 2.31572 0
M  V30 2104 H 197.616 -1.20176 3.73229 0
M  V30 2105 H 199.106 -2.17743 3.5634 0
M  V30 2106 N 199.544 -1.57102 0.125237 0
M  V30 2107 C 200.507 -2.14471 -0.80838 0
M  V30 2108 C 201.507 -1.0811 -1.19033 0
M  V30 2109 O 202.697 -1.33856 -1.11482 0
M  V30 2110 C 199.829 -2.69005 -2.09402 0
M  V30 2111 H 201.022 -2.98297 -0.309696 0
M  V30 2112 H 198.575 -1.55807 -0.124051 0
M  V30 2113 H 199.31 -1.88785 -2.63687 0
M  V30 2114 H 199.095 -3.46799 -1.82957 0
M  V30 2115 H 200.585 -3.13278 -2.76128 0
M  V30 2116 N 201.022 0.148545 -1.56898 0
M  V30 2117 C 201.985 1.16736 -1.97244 0
M  V30 2118 C 202.985 1.35947 -0.858777 0
M  V30 2119 O 204.175 1.32966 -1.12542 0
M  V30 2120 C 201.307 2.52798 -2.28705 0
M  V30 2121 H 202.5 0.821279 -2.88435 0
M  V30 2122 H 200.053 0.391831 -1.51309 0
M  V30 2123 H 200.788 2.92381 -1.403 0
M  V30 2124 H 200.573 2.40216 -3.09901 0
M  V30 2125 H 202.063 3.26179 -2.60762 0
M  V30 2126 N 202.5 1.5196 0.417844 0
M  V30 2127 C 203.43 1.77634 1.51554 0
M  V30 2128 C 204.411 0.626918 1.58126 0
M  V30 2129 O 205.596 0.871632 1.7354 0
M  V30 2130 C 202.726 1.91911 2.8946 0
M  V30 2131 C 201.68 3.07463 2.97743 0
M  V30 2132 C 201.006 3.06951 4.37819 0
M  V30 2133 C 202.306 4.47082 2.70027 0
M  V30 2134 H 204 2.6955 1.3032 0
M  V30 2135 H 201.546 1.29706 0.625492 0
M  V30 2136 H 203.499 2.08455 3.6623 0
M  V30 2137 H 202.223 0.966598 3.11969 0
M  V30 2138 H 200.882 2.90656 2.23416 0
M  V30 2139 H 200.53 2.09438 4.57323 0
M  V30 2140 H 200.23 3.84556 4.44286 0
M  V30 2141 H 201.754 3.25613 5.16535 0
M  V30 2142 H 203.168 4.6414 3.36522 0
M  V30 2143 H 201.565 5.2654 2.87881 0
M  V30 2144 H 202.635 4.55777 1.65514 0
M  V30 2145 N 203.978 -0.674533 1.42435 0
M  V30 2146 C 204.925 -1.78807 1.45934 0
M  V30 2147 C 205.895 -1.63157 0.311271 0
M  V30 2148 O 207.08 -1.83707 0.515383 0
M  V30 2149 C 204.22 -3.16839 1.36773 0
M  V30 2150 C 203.333 -3.43774 2.61617 0
M  V30 2151 C 202.468 -4.71536 2.44597 0
M  V30 2152 C 201.507 -4.91505 3.64814 0
M  V30 2153 N 200.644 -6.10508 3.46734 0
M  V30 2154 H 205.484 -1.75151 2.41093 0
M  V30 2155 H 203.021 -0.85504 1.19697 0
M  V30 2156 H 204.979 -3.96606 1.29459 0
M  V30 2157 H 203.609 -3.19619 0.452089 0
M  V30 2158 H 202.661 -2.58259 2.79297 0
M  V30 2159 H 203.973 -3.54423 3.50978 0
M  V30 2160 H 203.127 -5.59393 2.3487 0
M  V30 2161 H 201.866 -4.6317 1.52726 0
M  V30 2162 H 200.871 -4.0209 3.74972 0
M  V30 2163 H 202.096 -5.01716 4.57665 0
M  V30 2164 H 200.042 -6.03315 2.5758 0
M  V30 2165 H 199.959 -6.2202 4.29682 0
M  V30 2166 H 201.227 -7.01044 3.40819 0
M  V30 2167 N 205.456 -1.28612 -0.910864 0
M  V30 2168 C 206.684 -1.18792 -1.69399 0
M  V30 2169 C 207.099 0.253039 -1.87097 0
M  V30 2170 O 206.456 1.17071 -1.40003 0
M  V30 2171 C 206.507 -1.88511 -3.08457 0
M  V30 2172 O 206.228 -3.26979 -2.91576 0
M  V30 2173 C 207.729 -1.85029 -4.02839 0
M  V30 2174 H 204.949 -0.412233 -0.529438 0
M  V30 2175 H 207.493 -1.69788 -1.13984 0
M  V30 2176 H 205.648 -1.41379 -3.60681 0
M  V30 2177 H 206.062 -3.61936 -3.79608 0
M  V30 2178 H 207.536 -2.38395 -4.97867 0
M  V30 2179 H 208.013 -0.823303 -4.31414 0
M  V30 2180 H 208.619 -2.31853 -3.56545 0
M  V30 2181 N 206.934 1.1197 -1.10907 0
M  V30 2182 C 208.35 1.35591 -0.841852 0
M  V30 2183 C 208.55 1.94233 0.536246 0
M  V30 2184 O 207.606 2.1717 1.28816 0
M  V30 2185 C 208.919 2.29284 -1.94549 0
M  V30 2186 C 210.467 2.42862 -1.97451 0
M  V30 2187 C 210.942 3.39873 -3.07002 0
M  V30 2188 N 212.433 3.47433 -3.06341 0
M  V30 2189 C 213.168 4.22421 -3.87748 0
M  V30 2190 N 212.664 5.00432 -4.79103 0
M  V30 2191 N 214.457 4.17876 -3.75946 0
M  V30 2192 H 206.608 0.722664 -1.99728 0
M  V30 2193 H 208.871 0.380635 -0.868229 0
M  V30 2194 H 208.577 1.93378 -2.93765 0
M  V30 2195 H 208.451 3.29452 -1.83688 0
M  V30 2196 H 210.838 2.78046 -0.988645 0
M  V30 2197 H 210.919 1.42566 -2.12388 0
M  V30 2198 H 210.563 3.05417 -4.05811 0
M  V30 2199 H 210.493 4.40011 -2.89306 0
M  V30 2200 H 212.984 2.91784 -2.40147 0
M  V30 2201 H 213.297 5.55002 -5.37766 0
M  V30 2202 H 211.642 4.99612 -4.83128 0
M  V30 2203 H 214.833 3.56016 -3.03924 0
M  V30 2204 H 215.006 4.76061 -4.39624 0
M  V30 2205 N 208.412 0.89855 1.29475 0
M  V30 2206 C 209.375 0.380272 2.26023 0
M  V30 2207 C 210.375 -0.484891 1.53315 0
M  V30 2208 O 211.565 -0.290108 1.71767 0
M  V30 2209 C 208.697 -0.45651 3.3783 0
M  V30 2210 H 209.89 1.23295 2.73383 0
M  V30 2211 H 207.443 0.676589 1.40897 0
M  V30 2212 H 208.178 -1.32922 2.95808 0
M  V30 2213 H 207.963 0.163393 3.91759 0
M  V30 2214 H 209.453 -0.810466 4.0966 0
M  V30 2215 N 209.89 -1.43072 0.660911 0
M  V30 2216 C 211.139 -2.00942 0.174735 0
M  V30 2217 C 211.452 -1.52797 -1.22117 0
M  V30 2218 O 212.658 -2.02991 -1.80297 0
M  V30 2219 C 211.114 -3.58948 0.261559 0
M  V30 2220 C 210.722 -4.16085 1.66064 0
M  V30 2221 C 212.466 -4.24173 -0.166617 0
M  V30 2222 C 210.373 -5.6641 1.70098 0
M  V30 2223 H 209.303 -0.751483 0.0615631 0
M  V30 2224 H 211.954 -1.63955 0.824069 0
M  V30 2225 H 210.336 -3.93372 -0.455421 0
M  V30 2226 H 211.51 -3.93147 2.40359 0
M  V30 2227 H 209.825 -3.6326 2.03546 0
M  V30 2228 H 212.422 -5.34471 -0.156433 0
M  V30 2229 H 212.765 -3.98647 -1.19943 0
M  V30 2230 H 213.298 -3.94659 0.498875 0
M  V30 2231 H 210.037 -5.96715 2.71315 0
M  V30 2232 H 209.557 -5.91382 1.00139 0
M  V30 2233 H 211.236 -6.30585 1.44816 0
M  V30 2234 N 211.368 -0.403325 -1.52352 0
M  V30 2235 C 212.784 -0.0539281 -1.59509 0
M  V30 2236 C 212.984 1.43307 -1.41652 0
M  V30 2237 O 212.04 2.19924 -1.24056 0
M  V30 2238 C 213.353 -0.543654 -2.95745 0
M  V30 2239 C 214.901 -0.501125 -3.08962 0
M  V30 2240 C 215.376 -0.967267 -4.47669 0
M  V30 2241 N 216.867 -0.923849 -4.53893 0
M  V30 2242 C 217.602 -1.25578 -5.5948 0
M  V30 2243 N 217.098 -1.65889 -6.72646 0
M  V30 2244 N 218.891 -1.17613 -5.49658 0
M  V30 2245 H 211.042 -1.37123 -1.62206 0
M  V30 2246 H 213.305 -0.56294 -0.76276 0
M  V30 2247 H 213.011 -1.58275 -3.14073 0
M  V30 2248 H 212.885 0.0498042 -3.77167 0
M  V30 2249 H 215.272 0.528909 -2.90321 0
M  V30 2250 H 215.353 -1.13056 -2.2946 0
M  V30 2251 H 214.997 -1.9956 -4.67053 0
M  V30 2252 H 214.927 -0.314698 -5.25659 0
M  V30 2253 H 217.418 -0.627403 -3.72655 0
M  V30 2254 H 217.731 -1.89543 -7.49195 0
M  V30 2255 H 216.076 -1.69787 -6.73942 0
M  V30 2256 H 219.267 -0.860115 -4.6013 0
M  V30 2257 H 219.44 -1.43812 -6.3184 0
M  V30 2258 N 212.846 1.57033 -0.133567 0
M  V30 2259 C 213.778 2.13176 0.841944 0
M  V30 2260 C 214.791 1.07794 1.22001 0
M  V30 2261 O 215.98 1.35117 1.16643 0
M  V30 2262 C 213.08 2.62847 2.13926 0
M  V30 2263 C 212.253 3.92486 1.93064 0
M  V30 2264 C 211.312 4.27605 3.0666 0
M  V30 2265 O 210.338 4.96168 2.78937 0
M  V30 2266 N 211.54 3.861 4.33483 0
M  V30 2267 H 214.305 2.97503 0.362192 0
M  V30 2268 H 211.866 1.61821 0.05042 0
M  V30 2269 H 213.858 2.83363 2.88942 0
M  V30 2270 H 212.428 1.83319 2.53205 0
M  V30 2271 H 211.648 3.80732 1.02159 0
M  V30 2272 H 212.936 4.77225 1.76447 0
M  V30 2273 H 212.334 3.30828 4.58878 0
M  V30 2274 H 210.891 4.11694 5.05323 0
M  V30 2275 N 214.325 -0.140222 1.56975 0
M  V30 2276 C 215.573 -0.850005 1.83356 0
M  V30 2277 C 215.894 -1.81399 0.71551 0
M  V30 2278 O 215.164 -1.94136 -0.262294 0
M  V30 2279 H 213.744 -0.316886 0.676456 0
M  V30 2280 H 216.406 -0.132608 1.94448 0
M  V30 2281 H 215.502 -1.40814 2.78528 0
M  V30 2282 N 215.803 -1.52179 -0.40978 0
M  V30 2283 C 217.08 -1.56769 -1.16974 0
M  V30 2284 C 217.46 -0.348322 -2.08206 0
M  V30 2285 O 216.808 0.664862 -2.18613 0
M  V30 2286 C 217.018 -2.89603 -1.9476 0
M  V30 2287 C 218.366 -3.42579 -2.50849 0
M  V30 2288 O 219.39 -2.91338 -2.04941 0
M  V30 2289 O 218.249 -4.32054 -3.34652 0
M  V30 2290 H 215.343 -0.631439 -0.534054 0
M  V30 2291 H 217.889 -1.64507 -0.416613 0
M  V30 2292 H 216.661 -3.698 -1.27921 0
M  V30 2293 H 216.284 -2.85155 -2.77079 0
M  V30 2294 N 217.281 0.66697 -1.42791 0
M  V30 2295 C 218.231 1.77313 -1.43332 0
M  V30 2296 C 219.215 1.5801 -0.303586 0
M  V30 2297 O 220.407 1.68356 -0.546385 0
M  V30 2298 C 217.536 3.15822 -1.34578 0
M  V30 2299 C 216.622 3.40721 -2.52528 0
M  V30 2300 N 217.013 3.36162 -3.77927 0
M  V30 2301 C 215.311 3.71387 -2.46956 0
M  V30 2302 C 216.012 3.60762 -4.56318 0
M  V30 2303 N 214.988 3.81908 -3.86843 0
M  V30 2304 H 218.79 1.72193 -2.38174 0
M  V30 2305 H 216.304 0.868114 -1.3725 0
M  V30 2306 H 218.301 3.951 -1.33048 0
M  V30 2307 H 216.961 3.22133 -0.407453 0
M  V30 2308 H 217.972 3.15885 -4.10411 0
M  V30 2309 H 214.649 3.84897 -1.61743 0
M  V30 2310 H 216.039 3.63132 -5.65318 0
M  V30 2311 N 218.759 1.29093 0.90403 0
M  V30 2312 C 219.989 1.19516 1.68522 0
M  V30 2313 C 220.397 -0.24738 1.87576 0
M  V30 2314 O 219.74 -1.17798 1.40959 0
M  V30 2315 C 219.802 1.83249 3.0929 0
M  V30 2316 C 219.466 3.32531 3.13484 0
M  V30 2317 C 220.463 4.28821 2.93953 0
M  V30 2318 C 218.148 3.73656 3.35688 0
M  V30 2319 C 220.142 5.64212 2.96553 0
M  V30 2320 C 217.829 5.0917 3.37919 0
M  V30 2321 C 218.827 6.04258 3.18373 0
M  V30 2322 O 218.515 7.37298 3.20385 0
M  V30 2323 H 218.247 0.415467 0.533257 0
M  V30 2324 H 220.801 1.70912 1.13922 0
M  V30 2325 H 219.031 1.26358 3.65473 0
M  V30 2326 H 220.72 1.68054 3.69476 0
M  V30 2327 H 221.486 3.98382 2.76616 0
M  V30 2328 H 217.365 3.00101 3.49943 0
M  V30 2329 H 220.909 6.38407 2.81216 0
M  V30 2330 H 216.806 5.39256 3.54787 0
M  V30 2331 H 217.574 7.46048 3.36681 0
M  V30 2332 N 220.237 -1.11381 1.11499 0
M  V30 2333 C 221.483 -1.83403 0.865512 0
M  V30 2334 C 221.816 -1.84459 -0.607329 0
M  V30 2335 O 221.091 -1.29811 -1.44842 0
M  V30 2336 C 221.374 -3.30552 1.42855 0
M  V30 2337 C 221.227 -3.37886 2.96906 0
M  V30 2338 C 222.546 -4.26643 1.08 0
M  V30 2339 H 219.665 -0.665879 0.31587 0
M  V30 2340 H 222.307 -1.30601 1.37998 0
M  V30 2341 H 220.457 -3.75648 0.990985 0
M  V30 2342 H 222.129 -3.01343 3.49271 0
M  V30 2343 H 220.372 -2.78088 3.32941 0
M  V30 2344 H 221.043 -4.41458 3.31389 0
M  V30 2345 H 223.519 -3.89729 1.45775 0
M  V30 2346 H 222.395 -5.27986 1.50072 0
M  V30 2347 H 222.656 -4.42099 -0.00915037 0
M  V30 2348 N 221.715 -0.905404 -1.28997 0
M  V30 2349 C 222.645 -0.404212 -2.29975 0
M  V30 2350 C 223.626 0.523784 -1.61835 0
M  V30 2351 O 224.811 0.433298 -1.89304 0
M  V30 2352 C 221.941 0.364042 -3.45387 0
M  V30 2353 C 220.895 -0.474048 -4.25367 0
M  V30 2354 C 220.221 0.422045 -5.33032 0
M  V30 2355 C 221.521 -1.72696 -4.92923 0
M  V30 2356 H 223.215 -1.24807 -2.72146 0
M  V30 2357 H 220.761 -0.601585 -1.30832 0
M  V30 2358 H 222.714 0.725447 -4.15109 0
M  V30 2359 H 221.438 1.24174 -3.02074 0
M  V30 2360 H 220.097 -0.81786 -3.57361 0
M  V30 2361 H 219.745 1.29804 -4.85963 0
M  V30 2362 H 219.445 -0.135057 -5.87445 0
M  V30 2363 H 220.969 0.779517 -6.05604 0
M  V30 2364 H 222.383 -1.43495 -5.55051 0
M  V30 2365 H 220.78 -2.22582 -5.57295 0
M  V30 2366 H 221.85 -2.45964 -4.17887 0
M  V30 2367 N 223.193 1.4272 -0.668489 0
M  V30 2368 C 224.141 2.32586 0.0254857 0
M  V30 2369 C 225.135 1.49471 0.797176 0
M  V30 2370 O 226.341 1.65583 0.705853 0
M  V30 2371 H 222.716 0.751514 0.0270339 0
M  V30 2372 H 224.687 2.88823 -0.749936 0
M  V30 2373 C 223.436 3.3397 0.967427 0
M  V30 2374 H 222.759 3.97961 0.383048 0
M  V30 2375 H 224.199 3.9945 1.42181 0
M  V30 2376 C 222.658 2.65744 2.0708 0
M  V30 2377 O 223.188 2.48454 3.15648 0
M  V30 2378 N 221.394 2.2487 1.8407 0
M  V30 2379 H 220.941 2.39132 0.95778 0
M  V30 2380 H 220.899 1.79552 2.58086 0
M  V30 2381 N 224.671 0.411399 1.52136 0
M  V30 2382 C 225.919 -0.163322 2.01439 0
M  V30 2383 C 226.24 -1.45453 1.29879 0
M  V30 2384 O 225.51 -1.91225 0.4254 0
M  V30 2385 H 224.09 -0.0633447 0.744309 0
M  V30 2386 H 226.752 0.548161 1.87033 0
M  V30 2387 H 225.848 -0.357817 3.10042 0
M  V30 2388 N 226.149 -1.5696 0.141893 0
M  V30 2389 C 227.377 -2.00322 -0.517579 0
M  V30 2390 C 227.792 -1.02193 -1.58752 0
M  V30 2391 O 227.149 -0.0181619 -1.82491 0
M  V30 2392 C 227.2 -3.43618 -1.12289 0
M  V30 2393 O 226.921 -4.37995 -0.0956929 0
M  V30 2394 C 228.422 -4.02231 -1.86347 0
M  V30 2395 H 225.642 -0.657243 -0.135177 0
M  V30 2396 H 228.186 -2.03146 0.234973 0
M  V30 2397 H 226.341 -3.41662 -1.82609 0
M  V30 2398 H 226.755 -5.21729 -0.538469 0
M  V30 2399 H 228.229 -5.04509 -2.23997 0
M  V30 2400 H 228.706 -3.42655 -2.74744 0
M  V30 2401 H 229.312 -4.07802 -1.20737 0
M  V30 2402 N 227.627 0.131896 -1.57047 0
M  V30 2403 C 228.574 1.16236 -1.99393 0
M  V30 2404 C 229.544 1.41863 -0.863943 0
M  V30 2405 O 230.729 1.53946 -1.12718 0
M  V30 2406 C 227.869 2.48708 -2.39245 0
M  V30 2407 C 226.982 2.30127 -3.65603 0
M  V30 2408 C 226.117 3.55738 -3.94492 0
M  V30 2409 C 225.156 3.32259 -5.14073 0
M  V30 2410 N 224.293 4.50039 -5.38896 0
M  V30 2411 H 229.133 0.794251 -2.87221 0
M  V30 2412 H 226.67 0.380707 -1.42088 0
M  V30 2413 H 228.628 3.25969 -2.60384 0
M  V30 2414 H 227.258 2.83437 -1.54478 0
M  V30 2415 H 226.31 1.43845 -3.52154 0
M  V30 2416 H 227.622 2.08746 -4.5302 0
M  V30 2417 H 226.776 4.41423 -4.1621 0
M  V30 2418 H 225.515 3.80138 -3.05526 0
M  V30 2419 H 224.52 2.44963 -4.92212 0
M  V30 2420 H 225.745 3.09242 -6.04604 0
M  V30 2421 H 223.691 4.74584 -4.52886 0
M  V30 2422 H 223.608 4.31716 -6.2061 0
M  V30 2423 H 224.876 5.36895 -5.65123 0
M  V30 2424 N 229.106 1.52395 0.401703 0
M  V30 2425 C 230.039 1.70999 1.51111 0
M  V30 2426 C 231.017 0.55765 1.52738 0
M  V30 2427 O 232.201 0.785912 1.71335 0
M  V30 2428 C 229.328 1.75607 2.8962 0
M  V30 2429 C 228.374 2.97227 3.05873 0
M  V30 2430 S 229.207 4.57439 2.78405 0
M  V30 2431 C 230.363 4.64844 4.19131 0
M  V30 2432 H 230.596 2.6483 1.35102 0
M  V30 2433 H 228.129 1.42527 0.593762 0
M  V30 2434 H 230.087 1.78947 3.69443 0
M  V30 2435 H 228.748 0.828914 3.02965 0
M  V30 2436 H 227.941 2.96955 4.07227 0
M  V30 2437 H 227.543 2.91813 2.33925 0
M  V30 2438 H 229.835 4.42677 5.12877 0
M  V30 2439 H 230.778 5.66807 4.24424 0
M  V30 2440 H 231.186 3.93804 4.04448 0
M  V30 2441 N 230.584 -0.659388 1.43143 0
M  V30 2442 C 231.83 -1.41984 1.45644 0
M  V30 2443 C 232.185 -1.92245 0.0771718 0
M  V30 2444 O 231.478 -1.68976 -0.903205 0
M  V30 2445 C 231.672 -2.62206 2.42864 0
M  V30 2446 C 231.501 -2.23711 3.90107 0
M  V30 2447 C 230.271 -2.12332 4.58523 0
M  V30 2448 C 232.469 -1.84384 4.80112 0
M  V30 2449 N 230.451 -1.67102 5.9072 0
M  V30 2450 C 231.822 -1.5019 6.01534 0
M  V30 2451 C 233.877 -1.71512 4.67427 0
M  V30 2452 C 232.58 -1.04414 7.11681 0
M  V30 2453 C 234.606 -1.27142 5.77572 0
M  V30 2454 C 233.968 -0.938808 6.98116 0
M  V30 2455 H 230.067 -0.515448 0.588079 0
M  V30 2456 H 232.651 -0.759409 1.79279 0
M  V30 2457 H 230.822 -3.25917 2.11265 0
M  V30 2458 H 232.554 -3.28877 2.35843 0
M  V30 2459 H 229.309 -2.31893 4.12944 0
M  V30 2460 H 229.733 -1.46866 6.60878 0
M  V30 2461 H 234.375 -1.95868 3.74694 0
M  V30 2462 H 232.093 -0.788061 8.04248 0
M  V30 2463 H 235.679 -1.17681 5.69774 0
M  V30 2464 H 234.559 -0.6007 7.81896 0
M  V30 2465 N 232.062 -1.29571 -0.897171 0
M  V30 2466 C 233.311 -1.1706 -1.64256 0
M  V30 2467 C 233.624 0.276476 -1.93636 0
M  V30 2468 O 234.83 0.52294 -2.66416 0
M  V30 2469 C 233.286 -2.0475 -2.95982 0
M  V30 2470 C 232.894 -3.54295 -2.74187 0
M  V30 2471 C 234.638 -2.0097 -3.73914 0
M  V30 2472 C 232.545 -4.34081 -4.01656 0
M  V30 2473 H 231.475 -0.43452 -0.616205 0
M  V30 2474 H 234.126 -1.54229 -0.994268 0
M  V30 2475 H 232.508 -1.60452 -3.62038 0
M  V30 2476 H 233.682 -4.06662 -2.1671 0
M  V30 2477 H 231.997 -3.59773 -2.09648 0
M  V30 2478 H 234.594 -2.57838 -4.68427 0
M  V30 2479 H 234.937 -0.990273 -4.0435 0
M  V30 2480 H 235.47 -2.43325 -3.14703 0
M  V30 2481 H 232.209 -5.36671 -3.76384 0
M  V30 2482 H 231.729 -3.86483 -4.58684 0
M  V30 2483 H 233.408 -4.44877 -4.69781 0
M  V30 2484 N 233.54 1.10788 -1.12088 0
M  V30 2485 C 234.765 1.87002 -0.896949 0
M  V30 2486 C 235.19 1.79933 0.548261 0
M  V30 2487 O 234.548 1.16662 1.38779 0
M  V30 2488 C 234.596 3.3349 -1.37174 0
M  V30 2489 O 233.7 4.08745 -0.547831 0
M  V30 2490 H 233.041 0.580397 -0.322545 0
M  V30 2491 H 235.571 1.39996 -1.49206 0
M  V30 2492 H 235.581 3.84339 -1.36922 0
M  V30 2493 H 234.256 3.37951 -2.42408 0
M  V30 2494 H 232.833 3.6776 -0.617034 0
M  V30 2495 N 235.018 0.912232 1.28515 0
M  V30 2496 C 235.966 0.389597 2.29314 0
M  V30 2497 C 236.96 -0.517915 1.61289 0
M  V30 2498 O 238.166 -0.399328 1.75515 0
M  V30 2499 H 234.541 0.107386 0.744293 0
M  V30 2500 H 236.512 1.25286 2.70825 0
M  V30 2501 C 235.261 -0.356496 3.45868 0
M  V30 2502 H 234.584 0.332608 3.98414 0
M  V30 2503 H 236.024 -0.686851 4.184 0
M  V30 2504 C 234.483 -1.56383 2.98406 0
M  V30 2505 O 235.013 -2.66294 3.00749 0
M  V30 2506 N 233.219 -1.41029 2.54085 0
M  V30 2507 H 232.766 -0.516089 2.52377 0
M  V30 2508 H 232.724 -2.21939 2.22689 0
M  V30 2509 N 236.496 -1.42363 0.676048 0
M  V30 2510 C 237.744 -2.01123 0.198437 0
M  V30 2511 C 238.065 -1.53731 -1.19966 0
M  V30 2512 O 237.335 -0.759518 -1.80577 0
M  V30 2513 H 235.915 -0.743678 0.0703721 0
M  V30 2514 H 238.577 -1.74263 0.872837 0
M  V30 2515 H 237.673 -3.11454 0.200686 0
M  V30 2516 N 237.974 -0.419461 -1.51915 0
M  V30 2517 C 239.222 0.152637 -2.01523 0
M  V30 2518 C 239.543 1.44762 -1.30649 0
M  V30 2519 O 238.813 1.90997 -0.435535 0
M  V30 2520 H 237.393 0.0593966 -0.744635 0
M  V30 2521 H 240.055 -0.558073 -1.86739 0
M  V30 2522 H 239.151 0.341369 -3.10227 0
M  V30 2523 N 239.452 1.56882 -0.150215 0
M  V30 2524 C 240.362 2.20494 0.801222 0
M  V30 2525 C 241.378 1.19019 1.26927 0
M  V30 2526 O 242.554 1.51607 1.32579 0
M  V30 2527 C 239.619 2.81659 2.02161 0
M  V30 2528 C 238.68 3.9827 1.60249 0
M  V30 2529 C 237.913 4.56508 2.7647 0
M  V30 2530 O 238.136 4.13627 3.92771 0
M  V30 2531 O 237.07 5.46719 2.51757 0
M  V30 2532 H 240.896 3.02315 0.289717 0
M  V30 2533 H 238.481 1.49202 0.0769684 0
M  V30 2534 H 240.363 3.20522 2.73576 0
M  V30 2535 H 239.038 2.02849 2.52258 0
M  V30 2536 H 237.945 3.64117 0.858477 0
M  V30 2537 H 239.278 4.78609 1.14864 0
M  V30 2538 N 240.93 -0.123565 1.57115 0
M  V30 2539 C 241.893 -1.13583 1.99076 0
M  V30 2540 C 242.893 -1.34564 0.880296 0
M  V30 2541 O 244.083 -1.31158 1.14644 0
M  V30 2542 C 241.215 -2.49128 2.32698 0
M  V30 2543 H 242.408 -0.775287 2.89706 0
M  V30 2544 H 239.961 -0.36771 1.51913 0
M  V30 2545 H 240.696 -2.90111 1.44934 0
M  V30 2546 H 240.481 -2.35255 3.13684 0
M  V30 2547 H 241.971 -3.2199 2.65918 0
M  V30 2548 N 242.408 -1.52605 -0.393616 0
M  V30 2549 C 243.318 -1.79971 -1.50492 0
M  V30 2550 C 244.334 -0.686181 -1.59899 0
M  V30 2551 O 245.51 -0.973274 -1.76322 0
M  V30 2552 C 242.575 -1.95867 -2.86072 0
M  V30 2553 C 241.636 -3.19781 -2.86424 0
M  V30 2554 C 240.869 -3.34909 -4.15538 0
M  V30 2555 O 241.092 -2.54948 -5.10253 0
M  V30 2556 O 240.026 -4.28141 -4.23059 0
M  V30 2557 H 243.852 -2.74328 -1.30299 0
M  V30 2558 H 241.437 -1.3764 -0.581005 0
M  V30 2559 H 243.319 -2.08056 -3.66457 0
M  V30 2560 H 241.994 -1.04699 -3.063 0
M  V30 2561 H 240.901 -3.13038 -2.04837 0
M  V30 2562 H 242.234 -4.1078 -2.71147 0
M  V30 2563 N 243.887 0.651787 -1.4349 0
M  V30 2564 C 245.133 1.4121 -1.46395 0
M  V30 2565 C 245.488 1.92202 -0.087366 0
M  V30 2566 O 244.781 1.69452 0.894231 0
M  V30 2567 C 244.975 2.60914 -2.44251 0
M  V30 2568 C 244.804 2.21639 -3.91288 0
M  V30 2569 C 243.574 2.09897 -4.59643 0
M  V30 2570 C 245.772 1.81835 -4.81083 0
M  V30 2571 N 243.754 1.63967 -5.91598 0
M  V30 2572 C 245.125 1.46998 -6.02322 0
M  V30 2573 C 247.18 1.69031 -4.6833 0
M  V30 2574 C 245.883 1.00638 -7.12225 0
M  V30 2575 C 247.909 1.24077 -5.78238 0
M  V30 2576 C 247.271 0.901772 -6.98604 0
M  V30 2577 H 243.37 0.512322 -0.590805 0
M  V30 2578 H 245.954 0.74989 -1.7968 0
M  V30 2579 H 244.125 3.24792 -2.1299 0
M  V30 2580 H 245.857 3.27622 -2.37584 0
M  V30 2581 H 242.612 2.297 -4.14168 0
M  V30 2582 H 243.036 1.43359 -6.61647 0
M  V30 2583 H 247.678 1.93878 -3.75727 0
M  V30 2584 H 245.396 0.745399 -8.04655 0
M  V30 2585 H 248.982 1.14657 -5.7039 0
M  V30 2586 H 247.862 0.559226 -7.82203 0
M  V30 2587 N 245.365 1.30045 0.890287 0
M  V30 2588 C 246.611 1.18737 1.64406 0
M  V30 2589 C 246.944 -0.258525 1.92472 0
M  V30 2590 O 246.219 -1.18562 1.54186 0
M  V30 2591 C 246.502 2.01087 2.98724 0
M  V30 2592 C 246.355 3.53867 2.77665 0
M  V30 2593 C 247.674 1.84457 3.9958 0
M  V30 2594 H 244.793 0.432698 0.596608 0
M  V30 2595 H 247.435 1.5962 1.0306 0
M  V30 2596 H 245.585 1.66349 3.51084 0
M  V30 2597 H 247.257 3.98637 2.32133 0
M  V30 2598 H 245.5 3.78318 2.12269 0
M  V30 2599 H 246.171 4.06772 3.7315 0
M  V30 2600 H 248.647 2.14817 3.56361 0
M  V30 2601 H 247.523 2.44411 4.91482 0
M  V30 2602 H 247.784 0.802276 4.3476 0
M  V30 2603 N 246.843 -1.10192 1.12674 0
M  V30 2604 C 248.089 -1.82475 0.884915 0
M  V30 2605 C 248.422 -1.85093 -0.58773 0
M  V30 2606 O 247.697 -1.3134 -1.43457 0
M  V30 2607 C 247.98 -3.29018 1.46353 0
M  V30 2608 C 247.833 -3.34718 3.00473 0
M  V30 2609 C 249.152 -4.25473 1.12519 0
M  V30 2610 H 246.271 -0.662492 0.322915 0
M  V30 2611 H 248.913 -1.2913 1.39375 0
M  V30 2612 H 247.063 -3.74576 1.03077 0
M  V30 2613 H 248.735 -2.97622 3.52447 0
M  V30 2614 H 246.978 -2.74541 3.35872 0
M  V30 2615 H 247.649 -4.37918 3.36053 0
M  V30 2616 H 250.125 -3.88161 1.499 0
M  V30 2617 H 249.001 -5.26365 1.55663 0
M  V30 2618 H 249.262 -4.42084 0.0377407 0
M  V30 2619 N 248.321 -0.919034 -1.28029 0
M  V30 2620 C 249.567 -0.555757 -1.95036 0
M  V30 2621 C 249.9 0.899198 -1.72128 0
M  V30 2622 O 249.175 1.64023 -1.04531 0
M  V30 2623 C 249.458 -0.872024 -3.49382 0
M  V30 2624 C 249.311 -2.3801 -3.81669 0
M  V30 2625 C 250.63 -0.37185 -4.38526 0
M  V30 2626 H 247.749 -0.203386 -0.708381 0
M  V30 2627 H 250.391 -1.14924 -1.51303 0
M  V30 2628 H 248.541 -0.366946 -3.86763 0
M  V30 2629 H 250.213 -2.9562 -3.54128 0
M  V30 2630 H 248.456 -2.83289 -3.28526 0
M  V30 2631 H 249.127 -2.55192 -4.8947 0
M  V30 2632 H 251.603 -0.804602 -4.08247 0
M  V30 2633 H 250.479 -0.622173 -5.45362 0
M  V30 2634 H 250.74 0.727934 -4.36066 0
M  V30 2635 N 249.799 1.42003 -0.683588 0
M  V30 2636 C 251.046 2.01413 -0.209514 0
M  V30 2637 C 251.374 1.54088 1.1869 0
M  V30 2638 O 250.629 0.737591 1.81268 0
M  V30 2639 C 250.928 3.56827 -0.202357 0
M  V30 2640 C 250.594 4.23617 -1.54464 0
M  V30 2641 C 249.256 4.41577 -1.91215 0
M  V30 2642 C 251.608 4.61178 -2.42826 0
M  V30 2643 C 248.936 4.9437 -3.15935 0
M  V30 2644 C 251.288 5.15355 -3.66867 0
M  V30 2645 C 249.952 5.31528 -4.03776 0
M  V30 2646 H 249.222 0.737023 -0.0766668 0
M  V30 2647 H 251.869 1.70067 -0.880312 0
M  V30 2648 H 250.174 3.87892 0.551969 0
M  V30 2649 H 251.871 4.00588 0.181793 0
M  V30 2650 H 248.461 4.10004 -1.24877 0
M  V30 2651 H 252.645 4.46968 -2.15717 0
M  V30 2652 H 247.901 5.05076 -3.44541 0
M  V30 2653 H 252.075 5.43402 -4.35531 0
M  V30 2654 H 249.702 5.72199 -5.00492 0
M  V30 2655 N 251.277 0.427512 1.51691 0
M  V30 2656 C 252.24 -0.377132 2.26076 0
M  V30 2657 C 253.24 -0.958089 1.29141 0
M  V30 2658 O 254.43 -0.83408 1.52934 0
M  V30 2659 C 251.562 -1.53262 3.04506 0
M  V30 2660 H 252.755 0.27464 2.9864 0
M  V30 2661 H 250.308 0.180445 1.55255 0
M  V30 2662 H 251.043 -2.22072 2.36335 0
M  V30 2663 H 250.828 -1.12232 3.75694 0
M  V30 2664 H 252.318 -2.10135 3.60878 0
M  V30 2665 N 252.755 -1.56801 0.158532 0
M  V30 2666 C 253.983 -2.00859 -0.496303 0
M  V30 2667 C 254.398 -1.03871 -1.57659 0
M  V30 2668 O 253.755 -0.0375165 -1.82461 0
M  V30 2669 C 253.806 -3.4479 -1.08638 0
M  V30 2670 O 253.527 -4.38072 -0.0492322 0
M  V30 2671 C 255.028 -4.04185 -1.8207 0
M  V30 2672 H 252.248 -0.65864 -0.128199 0
M  V30 2673 H 254.792 -2.02885 0.256506 0
M  V30 2674 H 252.947 -3.43579 -1.78975 0
M  V30 2675 H 253.361 -5.2227 -0.483102 0
M  V30 2676 H 254.835 -5.06857 -2.18633 0
M  V30 2677 H 255.312 -3.45549 -2.71095 0
M  V30 2678 H 255.918 -4.0906 -1.16405 0
M  V30 2679 N 254.233 0.115231 -1.57178 0
M  V30 2680 C 255.479 0.82357 -1.85325 0
M  V30 2681 C 255.812 1.79349 -0.744814 0
M  V30 2682 O 255.087 1.92899 0.249024 0
M  V30 2683 C 255.37 1.57014 -3.24066 0
M  V30 2684 C 255.223 0.619565 -4.45513 0
M  V30 2685 C 256.542 2.52545 -3.60429 0
M  V30 2686 H 253.661 0.297948 -0.674089 0
M  V30 2687 H 256.303 0.0877138 -1.89797 0
M  V30 2688 H 254.453 2.19742 -3.20383 0
M  V30 2689 H 256.125 0.000837639 -4.613 0
M  V30 2690 H 254.368 -0.0686174 -4.33746 0
M  V30 2691 H 255.039 1.17866 -5.3927 0
M  V30 2692 H 257.515 1.9992 -3.64926 0
M  V30 2693 H 256.391 3.01811 -4.58477 0
M  V30 2694 H 256.652 3.35383 -2.88047 0
M  V30 2695 N 255.711 1.52812 0.385517 0
M  V30 2696 C 256.659 1.78482 1.49155 0
M  V30 2697 C 257.653 0.652914 1.56312 0
M  V30 2698 O 258.859 0.835464 1.59436 0
M  V30 2699 H 255.234 0.5648 0.496493 0
M  V30 2700 H 257.205 2.71095 1.24699 0
M  V30 2701 C 255.954 1.97378 2.86247 0
M  V30 2702 H 255.277 2.83907 2.81491 0
M  V30 2703 H 256.717 2.19327 3.62866 0
M  V30 2704 C 255.176 0.74728 3.28508 0
M  V30 2705 O 255.706 -0.0736232 4.01633 0
M  V30 2706 N 253.912 0.576396 2.84826 0
M  V30 2707 H 253.459 1.24555 2.25486 0
M  V30 2708 H 253.417 -0.24288 3.1346 0
M  V30 2709 N 257.189 -0.644168 1.43834 0
M  V30 2710 C 258.6 -1.22554 1.40845 0
M  V30 2711 C 258.951 -1.9585 0.117115 0
M  V30 2712 O 258.076 -2.01734 -0.783086 0
M  V30 2713 C 258.671 -2.22907 2.55143 0
M  V30 2714 C 257.23 -2.76501 2.5539 0
M  V30 2715 C 256.377 -1.51287 2.32396 0
M  V30 2716 H 259.328 -0.43563 1.52604 0
M  V30 2717 H 259.349 -3.05259 2.2715 0
M  V30 2718 H 258.861 -1.69533 3.49114 0
M  V30 2719 H 256.962 -3.33914 1.65324 0
M  V30 2720 H 257.075 -3.23429 3.53455 0
M  V30 2721 H 255.439 -1.78957 1.81236 0
M  V30 2722 H 256.222 -0.998336 3.28463 0
M  V30 2723 N 258.668 -1.30515 -0.883378 0
M  V30 2724 C 259.578 -1.18959 -2.02203 0
M  V30 2725 C 260.594 -0.109172 -1.73657 0
M  V30 2726 O 261.77 -0.324413 -1.9877 0
M  V30 2727 C 258.835 -0.883871 -3.35244 0
M  V30 2728 C 257.896 -2.04982 -3.77201 0
M  V30 2729 C 257.129 -1.75859 -5.03894 0
M  V30 2730 O 257.352 -0.687276 -5.66244 0
M  V30 2731 O 256.286 -2.61146 -5.42297 0
M  V30 2732 H 260.112 -2.14616 -2.1488 0
M  V30 2733 H 257.697 -1.10124 -1.0096 0
M  V30 2734 H 259.579 -0.728644 -4.15053 0
M  V30 2735 H 258.254 0.0427798 -3.23672 0
M  V30 2736 H 257.161 -2.26038 -2.9809 0
M  V30 2737 H 258.494 -2.95825 -3.93381 0
M  V30 2738 N 260.146 1.09593 -1.13257 0
M  V30 2739 C 261.076 2.18214 -0.830946 0
M  V30 2740 C 262.057 1.68812 0.208966 0
M  V30 2741 O 263.242 1.9408 0.0682666 0
M  V30 2742 C 260.372 3.46051 -0.294296 0
M  V30 2743 C 259.326 4.08778 -1.26826 0
M  V30 2744 C 258.652 5.31419 -0.591449 0
M  V30 2745 C 259.952 4.51476 -2.62615 0
M  V30 2746 H 261.646 2.43703 -1.73923 0
M  V30 2747 H 259.192 1.17128 -0.837675 0
M  V30 2748 H 261.145 4.2134 -0.0709606 0
M  V30 2749 H 259.869 3.20079 0.649366 0
M  V30 2750 H 258.528 3.35505 -1.47756 0
M  V30 2751 H 258.176 5.01727 0.357633 0
M  V30 2752 H 257.876 5.74341 -1.24123 0
M  V30 2753 H 259.4 6.09433 -0.377355 0
M  V30 2754 H 260.814 5.17999 -2.45663 0
M  V30 2755 H 259.211 5.05277 -3.23752 0
M  V30 2756 H 260.281 3.63962 -3.20406 0
M  V30 2757 N 261.624 0.925811 1.2754 0
M  V30 2758 C 263.04 0.625767 1.46821 0
M  V30 2759 C 263.24 -0.825506 1.83814 0
M  V30 2760 O 262.296 -1.60356 1.95044 0
M  V30 2761 C 263.609 1.57402 2.56213 0
M  V30 2762 C 265.157 1.58204 2.70075 0
M  V30 2763 C 265.632 2.51721 3.82623 0
M  V30 2764 N 267.123 2.49917 3.89994 0
M  V30 2765 C 267.858 3.18968 4.76494 0
M  V30 2766 N 267.354 3.97391 5.67496 0
M  V30 2767 N 269.147 3.07996 4.70208 0
M  V30 2768 H 261.298 1.86409 1.01811 0
M  V30 2769 H 263.561 0.800213 0.508295 0
M  V30 2770 H 263.267 2.60925 2.35819 0
M  V30 2771 H 263.141 1.31428 3.53563 0
M  V30 2772 H 265.528 0.554124 2.89851 0
M  V30 2773 H 265.609 1.88226 1.73218 0
M  V30 2774 H 265.253 3.54622 3.63601 0
M  V30 2775 H 265.183 2.18996 4.78903 0
M  V30 2776 H 267.674 1.9296 3.24923 0
M  V30 2777 H 267.987 4.4707 6.30356 0
M  V30 2778 H 266.332 4.01495 5.67298 0
M  V30 2779 H 269.523 2.46223 3.9811 0
M  V30 2780 H 269.696 3.6208 5.37403 0
M  V30 2781 N 263.102 -1.41638 0.69111 0
M  V30 2782 C 264.052 -2.28 -0.000107832 0
M  V30 2783 C 265.036 -1.41964 -0.757304 0
M  V30 2784 O 266.228 -1.65274 -0.633532 0
M  V30 2785 C 263.357 -3.30209 -0.938983 0
M  V30 2786 C 262.443 -4.23725 -0.17827 0
M  V30 2787 N 262.834 -4.99017 0.825563 0
M  V30 2788 C 261.132 -4.44071 -0.414392 0
M  V30 2789 C 261.833 -5.67431 1.28052 0
M  V30 2790 N 260.809 -5.40197 0.607304 0
M  V30 2791 H 264.611 -2.83644 0.769617 0
M  V30 2792 H 262.125 -1.53797 0.521562 0
M  V30 2793 H 264.122 -3.90898 -1.44929 0
M  V30 2794 H 262.782 -2.76126 -1.70836 0
M  V30 2795 H 263.793 -5.03671 1.20566 0
M  V30 2796 H 260.47 -4.01004 -1.162 0
M  V30 2797 H 261.86 -6.37801 2.11327 0
M  V30 2798 N 264.58 -0.43555 -1.51462 0
M  V30 2799 C 265.527 0.376797 -2.27703 0
M  V30 2800 C 266.497 1.01838 -1.31219 0
M  V30 2801 O 267.682 1.03762 -1.60119 0
M  V30 2802 C 264.822 1.47301 -3.12084 0
M  V30 2803 C 263.935 0.849744 -4.2356 0
M  V30 2804 C 263.07 1.92086 -4.95254 0
M  V30 2805 C 262.109 1.27593 -5.98654 0
M  V30 2806 N 261.246 2.28833 -6.63762 0
M  V30 2807 H 266.086 -0.279734 -2.96684 0
M  V30 2808 H 263.623 -0.149795 -1.46335 0
M  V30 2809 H 265.581 2.11984 -3.59331 0
M  V30 2810 H 264.211 2.0992 -2.45221 0
M  V30 2811 H 263.263 0.0912529 -3.80291 0
M  V30 2812 H 264.575 0.338878 -4.97648 0
M  V30 2813 H 263.729 2.64435 -5.46039 0
M  V30 2814 H 262.468 2.46545 -4.20793 0
M  V30 2815 H 261.473 0.537893 -5.47162 0
M  V30 2816 H 262.698 0.738693 -6.7507 0
M  V30 2817 H 260.644 2.82375 -5.92115 0
M  V30 2818 H 260.561 1.82632 -7.33608 0
M  V30 2819 H 261.829 3.00671 -7.19178 0
M  V30 2820 N 266.058 1.56714 -0.166846 0
M  V30 2821 C 267.306 1.96358 0.478305 0
M  V30 2822 C 267.627 1.0537 1.6408 0
M  V30 2823 O 266.897 0.119154 1.95537 0
M  V30 2824 H 265.477 0.725065 0.179692 0
M  V30 2825 H 268.139 1.93329 -0.246985 0
M  V30 2826 H 267.235 3.00547 0.841292 0
M  V30 2827 N 267.536 -0.106894 1.57237 0
M  V30 2828 C 268.782 -0.81373 1.85759 0
M  V30 2829 C 269.115 -1.78952 0.754315 0
M  V30 2830 O 268.39 -1.93029 -0.23879 0
M  V30 2831 C 268.673 -1.55293 3.24894 0
M  V30 2832 C 268.526 -0.595929 4.45835 0
M  V30 2833 C 269.845 -2.5063 3.61763 0
M  V30 2834 H 266.964 -0.294369 0.67566 0
M  V30 2835 H 269.606 -0.0776472 1.89841 0
M  V30 2836 H 267.756 -2.1804 3.21544 0
M  V30 2837 H 269.428 0.0236262 4.61294 0
M  V30 2838 H 267.671 0.0916191 4.33703 0
M  V30 2839 H 268.342 -1.15004 5.39887 0
M  V30 2840 H 270.818 -1.97982 3.65981 0
M  V30 2841 H 269.694 -2.99376 4.60071 0
M  V30 2842 H 269.955 -3.3385 2.89821 0
M  V30 2843 N 269.014 -1.53014 -0.377408 0
M  V30 2844 C 270.26 -1.68872 -1.12294 0
M  V30 2845 C 270.593 -0.433224 -1.89306 0
M  V30 2846 O 269.868 0.569258 -1.85983 0
M  V30 2847 C 270.151 -2.93115 -2.09179 0
M  V30 2848 C 270.004 -4.28794 -1.35853 0
M  V30 2849 C 271.323 -3.12928 -3.09458 0
M  V30 2850 H 268.442 -0.614518 -0.406862 0
M  V30 2851 H 271.084 -1.85633 -0.40503 0
M  V30 2852 H 269.234 -2.78956 -2.70399 0
M  V30 2853 H 270.906 -4.54742 -0.775082 0
M  V30 2854 H 269.149 -4.28744 -0.660364 0
M  V30 2855 H 269.82 -5.11837 -2.06706 0
M  V30 2856 H 272.296 -3.26194 -2.58334 0
M  V30 2857 H 271.172 -4.01316 -3.74482 0
M  V30 2858 H 271.433 -2.27669 -3.78971 0
M  V30 2859 N 270.492 0.636531 -1.44174 0
M  V30 2860 C 271.455 1.73063 -1.50273 0
M  V30 2861 C 272.455 1.56113 -0.385397 0
M  V30 2862 O 273.645 1.61707 -0.64781 0
M  V30 2863 C 270.777 3.12096 -1.37145 0
M  V30 2864 H 271.97 1.69031 -2.47727 0
M  V30 2865 H 269.523 0.849706 -1.31186 0
M  V30 2866 H 270.258 3.21728 -0.407636 0
M  V30 2867 H 270.043 3.25805 -2.18159 0
M  V30 2868 H 271.533 3.91846 -1.44382 0
M  V30 2869 N 271.97 1.30982 0.876444 0
M  V30 2870 C 272.9 1.20668 1.99903 0
M  V30 2871 C 273.881 0.095354 1.69833 0
M  V30 2872 O 275.066 0.27885 1.92188 0
M  V30 2873 C 272.196 0.90655 3.3526 0
M  V30 2874 C 271.15 1.97675 3.79617 0
M  V30 2875 C 270.476 1.52943 5.1236 0
M  V30 2876 C 271.776 3.389 3.97422 0
M  V30 2877 H 273.47 2.14586 2.0879 0
M  V30 2878 H 271.016 1.03308 1.00317 0
M  V30 2879 H 272.969 0.821025 4.13324 0
M  V30 2880 H 271.693 -0.0682969 3.26529 0
M  V30 2881 H 270.352 2.05205 3.03787 0
M  V30 2882 H 270 0.54262 5.00065 0
M  V30 2883 H 269.7 2.24532 5.43009 0
M  V30 2884 H 271.224 1.45786 5.92941 0
M  V30 2885 H 272.638 3.34081 4.659 0
M  V30 2886 H 271.035 4.0865 4.3946 0
M  V30 2887 H 272.105 3.80163 3.01006 0
M  V30 2888 N 273.449 -1.08991 1.13837 0
M  V30 2889 C 274.695 -1.81526 0.90422 0
M  V30 2890 C 275.028 -1.85706 -0.568066 0
M  V30 2891 O 274.303 -1.32855 -1.42056 0
M  V30 2892 C 274.586 -3.27447 1.49835 0
M  V30 2893 C 274.439 -3.31512 3.04006 0
M  V30 2894 C 275.758 -4.24256 1.17025 0
M  V30 2895 H 272.877 -0.659029 0.329923 0
M  V30 2896 H 275.519 -1.27644 1.40737 0
M  V30 2897 H 273.669 -3.73462 1.07044 0
M  V30 2898 H 275.341 -2.93867 3.55584 0
M  V30 2899 H 273.584 -2.70963 3.38765 0
M  V30 2900 H 274.255 -4.34329 3.40679 0
M  V30 2901 H 276.731 -3.86549 1.54009 0
M  V30 2902 H 275.607 -5.24684 1.61237 0
M  V30 2903 H 275.868 -4.42019 0.0846274 0
M  V30 2904 N 274.927 -0.932562 -1.27047 0
M  V30 2905 C 276.173 -0.576412 -1.94436 0
M  V30 2906 C 276.506 0.880891 -1.73072 0
M  V30 2907 O 275.781 1.62905 -1.06264 0
M  V30 2908 C 276.064 -0.909031 -3.48437 0
M  V30 2909 C 275.917 -2.42044 -3.79123 0
M  V30 2910 C 277.236 -0.418341 -4.38107 0
M  V30 2911 H 274.355 -0.210888 -0.706184 0
M  V30 2912 H 276.997 -1.16522 -1.50075 0
M  V30 2913 H 275.147 -0.407947 -3.86352 0
M  V30 2914 H 276.819 -2.99359 -3.50973 0
M  V30 2915 H 275.062 -2.86758 -3.25503 0
M  V30 2916 H 275.733 -2.6037 -4.86736 0
M  V30 2917 H 278.209 -0.847856 -4.0737 0
M  V30 2918 H 277.085 -0.679981 -5.44672 0
M  V30 2919 H 277.346 0.681642 -4.36814 0
M  V30 2920 N 276.405 1.4127 -0.698611 0
M  V30 2921 C 277.315 2.34573 -0.0357891 0
M  V30 2922 C 278.331 1.56393 0.762701 0
M  V30 2923 O 279.507 1.8886 0.699564 0
M  V30 2924 C 276.572 3.35159 0.887089 0
M  V30 2925 C 275.633 4.29225 0.0804634 0
M  V30 2926 C 274.866 5.25006 0.959387 0
M  V30 2927 O 275.089 5.26314 2.19886 0
M  V30 2928 O 274.023 6.00519 0.407439 0
M  V30 2929 H 277.849 2.92838 -0.804957 0
M  V30 2930 H 275.434 1.42175 -0.458966 0
M  V30 2931 H 277.316 3.9689 1.41621 0
M  V30 2932 H 275.991 2.79333 1.6357 0
M  V30 2933 H 274.898 3.70833 -0.493328 0
M  V30 2934 H 276.231 4.88157 -0.629547 0
M  V30 2935 N 277.883 0.443576 1.51229 0
M  V30 2936 C 279.299 0.0962001 1.5931 0
M  V30 2937 C 279.499 -1.39501 1.45402 0
M  V30 2938 O 278.555 -2.16557 1.29843 0
M  V30 2939 C 279.868 0.621875 2.94199 0
M  V30 2940 C 281.416 0.582865 3.07525 0
M  V30 2941 C 281.891 1.08562 4.44948 0
M  V30 2942 N 283.382 1.04387 4.51284 0
M  V30 2943 C 284.117 1.40368 5.55954 0
M  V30 2944 N 283.613 1.83664 6.68011 0
M  V30 2945 N 285.406 1.32145 5.46346 0
M  V30 2946 H 277.557 1.41376 1.58514 0
M  V30 2947 H 279.82 0.582965 0.747567 0
M  V30 2948 H 279.526 1.66546 3.09767 0
M  V30 2949 H 279.4 0.0502125 3.77167 0
M  V30 2950 H 281.787 -0.451749 2.91622 0
M  V30 2951 H 281.868 1.191 2.26382 0
M  V30 2952 H 281.512 2.11873 4.61598 0
M  V30 2953 H 281.442 0.453956 5.2464 0
M  V30 2954 H 283.933 0.725986 3.70861 0
M  V30 2955 H 284.246 2.0934 7.43906 0
M  V30 2956 H 282.591 1.87596 6.69203 0
M  V30 2957 H 285.782 0.981808 4.57688 0
M  V30 2958 H 285.955 1.60514 6.27805 0
M  V30 2959 N 279.361 -1.56624 0.175154 0
M  V30 2960 C 280.609 -1.96609 -0.467885 0
M  V30 2961 C 280.93 -1.06238 -1.63519 0
M  V30 2962 O 280.2 -0.129523 -1.95471 0
M  V30 2963 H 278.78 -0.726008 -0.175845 0
M  V30 2964 H 281.442 -1.93195 0.257234 0
M  V30 2965 H 280.538 -3.00989 -0.825342 0
M  V30 2966 N 280.839 0.0985539 -1.57292 0
M  V30 2967 C 282.067 0.816318 -1.90115 0
M  V30 2968 C 282.482 1.72451 -0.768509 0
M  V30 2969 O 281.839 1.80643 0.259687 0
M  V30 2970 C 281.89 1.63259 -3.22535 0
M  V30 2971 O 281.611 0.760934 -4.31441 0
M  V30 2972 C 283.112 2.45372 -3.69199 0
M  V30 2973 H 280.332 0.233595 -0.629027 0
M  V30 2974 H 282.876 0.0768229 -2.04356 0
M  V30 2975 H 281.031 2.32463 -3.09903 0
M  V30 2976 H 281.445 1.32595 -5.07463 0
M  V30 2977 H 282.919 2.98144 -4.64558 0
M  V30 2978 H 283.396 3.23677 -2.96867 0
M  V30 2979 H 284.002 1.81373 -3.84687 0
M  V30 2980 N 282.317 1.53212 0.369288 0
M  V30 2981 C 283.728 1.60943 0.946276 0
M  V30 2982 C 284.079 0.47452 1.90375 0
M  V30 2983 O 283.204 -0.399597 2.12679 0
M  V30 2984 C 283.799 2.91715 1.72302 0
M  V30 2985 C 282.358 3.01792 2.24941 0
M  V30 2986 C 281.505 2.56211 1.06072 0
M  V30 2987 H 284.456 1.58007 0.148198 0
M  V30 2988 H 284.477 2.79309 2.58393 0
M  V30 2989 H 283.989 3.74295 1.0259 0
M  V30 2990 H 282.09 2.23791 2.97906 0
M  V30 2991 H 282.203 4.06803 2.53077 0
M  V30 2992 H 280.567 2.10998 1.4266 0
M  V30 2993 H 281.35 3.41206 0.378639 0
M  V30 2994 N 283.795 -0.628877 1.44509 0
M  V30 2995 C 285.043 -1.38565 1.4712 0
M  V30 2996 C 285.364 -1.94712 0.105899 0
M  V30 2997 O 284.634 -1.75912 -0.862079 0
M  V30 2998 H 283.214 -0.514333 0.541729 0
M  V30 2999 H 285.876 -0.740018 1.80305 0
M  V30 3000 H 284.972 -2.21583 2.19789 0
M  V30 3001 N 285.273 -1.31445 -0.869486 0
M  V30 3002 C 286.52 -1.21158 -1.62256 0
M  V30 3003 C 286.848 0.230155 -1.93133 0
M  V30 3004 O 286.103 1.17906 -1.56194 0
M  V30 3005 C 286.402 -2.00145 -2.96102 0
M  V30 3006 C 286.068 -3.4964 -2.84715 0
M  V30 3007 C 284.73 -3.90403 -2.81317 0
M  V30 3008 C 287.082 -4.44769 -2.71716 0
M  V30 3009 C 284.41 -5.24561 -2.62778 0
M  V30 3010 C 286.762 -5.79054 -2.54714 0
M  V30 3011 C 285.426 -6.19037 -2.49699 0
M  V30 3012 H 284.696 -0.443348 -0.593737 0
M  V30 3013 H 287.343 -1.62715 -1.00976 0
M  V30 3014 H 285.648 -1.5127 -3.6142 0
M  V30 3015 H 287.345 -1.89566 -3.53363 0
M  V30 3016 H 283.935 -3.17256 -2.88178 0
M  V30 3017 H 288.119 -4.14208 -2.73397 0
M  V30 3018 H 283.375 -5.54613 -2.57321 0
M  V30 3019 H 287.549 -6.52393 -2.43632 0
M  V30 3020 H 285.176 -7.22935 -2.35093 0
M  V30 3021 N 286.751 1.08385 -1.14413 0
M  V30 3022 C 287.698 2.15311 -0.831265 0
M  V30 3023 C 288.668 1.64751 0.211292 0
M  V30 3024 O 289.853 1.90627 0.0811674 0
M  V30 3025 C 286.993 3.43658 -0.315143 0
M  V30 3026 C 286.106 4.08064 -1.41802 0
M  V30 3027 C 285.241 5.24207 -0.859126 0
M  V30 3028 C 284.28 5.80554 -1.93967 0
M  V30 3029 N 283.417 6.88042 -1.39793 0
M  V30 3030 H 288.257 2.41415 -1.74708 0
M  V30 3031 H 285.794 1.18474 -0.871909 0
M  V30 3032 H 287.752 4.172 0.00230884 0
M  V30 3033 H 286.382 3.17839 0.56378 0
M  V30 3034 H 285.434 3.3228 -1.85187 0
M  V30 3035 H 286.746 4.45962 -2.23427 0
M  V30 3036 H 285.9 6.04689 -0.49359 0
M  V30 3037 H 284.639 4.87699 -0.011932 0
M  V30 3038 H 283.644 4.98725 -2.31415 0
M  V30 3039 H 284.869 6.19121 -2.79046 0
M  V30 3040 H 282.815 6.53493 -0.572919 0
M  V30 3041 H 282.732 7.24767 -2.15054 0
M  V30 3042 H 284 7.72255 -1.0603 0
M  V30 3043 N 288.23 0.939286 1.26551 0
M  V30 3044 C 289.193 0.451987 2.24699 0
M  V30 3045 C 290.193 -0.435869 1.5478 0
M  V30 3046 O 291.383 -0.235314 1.72603 0
M  V30 3047 C 288.515 -0.348801 3.39111 0
M  V30 3048 H 289.708 1.3193 2.69322 0
M  V30 3049 H 287.261 0.721072 1.38673 0
M  V30 3050 H 287.996 -1.23444 2.99887 0
M  V30 3051 H 287.781 0.287945 3.91041 0
M  V30 3052 H 289.271 -0.679726 4.12031 0
M  V30 3053 N 289.708 -1.40897 0.706093 0
M  V30 3054 C 290.957 -2.00284 0.238574 0
M  V30 3055 C 291.27 -1.56604 -1.17194 0
M  V30 3056 O 292.476 -2.08624 -1.73748 0
M  V30 3057 C 290.932 -3.57934 0.375623 0
M  V30 3058 C 290.54 -4.10591 1.79217 0
M  V30 3059 C 292.284 -4.24488 -0.0315857 0
M  V30 3060 C 290.191 -5.60712 1.88032 0
M  V30 3061 H 289.121 -0.749144 0.0854398 0
M  V30 3062 H 291.772 -1.61251 0.875813 0
M  V30 3063 H 290.154 -3.94622 -0.330042 0
M  V30 3064 H 291.328 -3.85301 2.52745 0
M  V30 3065 H 289.643 -3.56601 2.15 0
M  V30 3066 H 292.24 -5.34698 0.0136842 0
M  V30 3067 H 292.583 -4.02261 -1.072 0
M  V30 3068 H 293.116 -3.92873 0.624181 0
M  V30 3069 H 289.855 -5.87781 2.90161 0
M  V30 3070 H 289.375 -5.87896 1.18903 0
M  V30 3071 H 291.054 -6.25658 1.64805 0
M  V30 3072 N 291.186 -0.45159 -1.50991 0
M  V30 3073 C 292.133 0.352625 -2.2809 0
M  V30 3074 C 293.103 1.0044 -1.32291 0
M  V30 3075 O 294.288 1.02058 -1.6121 0
M  V30 3076 C 291.428 1.43983 -3.13629 0
M  V30 3077 C 290.541 0.804772 -4.24438 0
M  V30 3078 C 289.676 1.86822 -4.97263 0
M  V30 3079 C 288.715 1.21236 -5.99973 0
M  V30 3080 N 287.852 2.2178 -6.66152 0
M  V30 3081 H 292.692 -0.311186 -2.96371 0
M  V30 3082 H 290.229 -0.165308 -1.46168 0
M  V30 3083 H 292.187 2.08161 -3.61559 0
M  V30 3084 H 290.817 2.07307 -2.47434 0
M  V30 3085 H 289.869 0.0509129 -3.80366 0
M  V30 3086 H 291.181 0.286076 -4.97979 0
M  V30 3087 H 290.335 2.58628 -5.48813 0
M  V30 3088 H 289.074 2.42068 -4.23385 0
M  V30 3089 H 288.079 0.479828 -5.47702 0
M  V30 3090 H 289.304 0.667051 -6.75816 0
M  V30 3091 H 287.25 2.76079 -5.95077 0
M  V30 3092 H 287.167 1.74841 -7.35504 0
M  V30 3093 H 288.435 2.93026 -7.22327 0
M  V30 3094 N 292.664 1.56529 -0.183458 0
M  V30 3095 C 293.913 1.96419 0.458511 0
M  V30 3096 C 294.226 1.0727 1.63562 0
M  V30 3097 O 295.432 1.36893 2.34462 0
M  V30 3098 C 293.888 3.49298 0.867122 0
M  V30 3099 C 293.496 4.47092 -0.285057 0
M  V30 3100 C 295.24 3.97983 1.47683 0
M  V30 3101 C 293.147 5.91225 0.143862 0
M  V30 3102 H 292.077 0.733394 0.175071 0
M  V30 3103 H 294.728 1.81448 -0.273624 0
M  V30 3104 H 293.11 3.59731 1.65559 0
M  V30 3105 H 294.284 4.48383 -1.0625 0
M  V30 3106 H 292.599 4.08535 -0.805503 0
M  V30 3107 H 295.196 5.03134 1.80999 0
M  V30 3108 H 295.539 3.41618 2.37914 0
M  V30 3109 H 296.072 3.90617 0.752562 0
M  V30 3110 H 292.811 6.5149 -0.723974 0
M  V30 3111 H 292.331 5.93214 0.886413 0
M  V30 3112 H 294.01 6.44362 0.583628 0
M  V30 3113 N 294.142 -0.090211 1.57342 0
M  V30 3114 C 295.092 -1.11557 1.98844 0
M  V30 3115 C 296.076 -1.35503 0.867624 0
M  V30 3116 O 297.268 -1.36113 1.13148 0
M  V30 3117 C 294.397 -2.43446 2.42051 0
M  V30 3118 C 293.483 -2.22853 3.60828 0
M  V30 3119 N 293.874 -1.72141 4.75606 0
M  V30 3120 C 292.172 -2.53401 3.67021 0
M  V30 3121 C 292.873 -1.65932 5.57531 0
M  V30 3122 N 291.849 -2.11323 5.00843 0
M  V30 3123 H 295.651 -0.716499 2.85032 0
M  V30 3124 H 293.165 -0.297567 1.59651 0
M  V30 3125 H 295.162 -3.17644 2.70014 0
M  V30 3126 H 293.822 -2.84087 1.57241 0
M  V30 3127 H 294.833 -1.41268 4.98261 0
M  V30 3128 H 291.51 -2.97532 2.92884 0
M  V30 3129 H 292.9 -1.27733 6.59647 0
M  V30 3130 N 295.62 -1.53406 -0.361157 0
M  V30 3131 C 296.868 -1.69467 -1.10115 0
M  V30 3132 C 297.189 -0.451352 -1.89705 0
M  V30 3133 O 296.459 0.534636 -1.88463 0
M  V30 3134 H 295.039 -0.624749 -0.409508 0
M  V30 3135 H 297.701 -1.90609 -0.406699 0
M  V30 3136 H 296.797 -2.55774 -1.78847 0
M  V30 3137 N 297.098 0.621204 -1.44841 0
M  V30 3138 C 298.045 1.73267 -1.5247 0
M  V30 3139 C 299.015 1.6189 -0.371611 0
M  V30 3140 O 300.2 1.81668 -0.58321 0
M  V30 3141 C 297.34 3.11545 -1.48438 0
M  V30 3142 C 296.453 3.33827 -2.74196 0
M  V30 3143 C 295.588 4.62133 -2.61929 0
M  V30 3144 C 294.627 4.77627 -3.82804 0
M  V30 3145 N 293.764 5.97219 -3.69153 0
M  V30 3146 H 298.604 1.66082 -2.47428 0
M  V30 3147 H 296.141 0.810026 -1.22788 0
M  V30 3148 H 298.099 3.91528 -1.4409 0
M  V30 3149 H 296.729 3.1772 -0.570402 0
M  V30 3150 H 295.781 2.47715 -2.88689 0
M  V30 3151 H 297.093 3.41153 -3.6389 0
M  V30 3152 H 296.247 5.50291 -2.5547 0
M  V30 3153 H 294.986 4.57182 -1.69811 0
M  V30 3154 H 293.991 3.87896 -3.89637 0
M  V30 3155 H 295.216 4.84385 -4.75971 0
M  V30 3156 H 293.162 5.93339 -2.79794 0
M  V30 3157 H 293.079 6.05644 -4.52472 0
M  V30 3158 H 294.347 6.87912 -3.66603 0
M  V30 3159 N 298.576 1.31904 0.862503 0
M  V30 3160 C 299.509 1.14514 1.97388 0
M  V30 3161 C 300.487 0.0466493 1.62533 0
M  V30 3162 O 301.671 0.204484 1.87388 0
M  V30 3163 C 298.798 0.751347 3.30261 0
M  V30 3164 C 297.844 1.85395 3.84098 0
M  V30 3165 S 298.677 3.46081 4.08642 0
M  V30 3166 C 299.833 3.08655 5.44502 0
M  V30 3167 H 300.066 2.08597 2.11836 0
M  V30 3168 H 297.599 1.16475 1.01356 0
M  V30 3169 H 299.557 0.530901 4.07052 0
M  V30 3170 H 298.218 -0.170493 3.13637 0
M  V30 3171 H 297.411 1.53122 4.80177 0
M  V30 3172 H 297.013 2.02984 3.14123 0
M  V30 3173 H 299.305 2.58012 6.26447 0
M  V30 3174 H 300.248 4.03726 5.81731 0
M  V30 3175 H 300.656 2.45891 5.08132 0
M  V30 3176 N 300.054 -1.07777 1.14986 0
M  V30 3177 C 301.302 -1.79934 0.920235 0
M  V30 3178 C 301.623 -1.86955 -0.554336 0
M  V30 3179 O 300.893 -1.36731 -1.40291 0
M  V30 3180 H 299.473 -0.666424 0.337473 0
M  V30 3181 H 302.135 -1.3027 1.44968 0
M  V30 3182 H 301.231 -2.82539 1.32583 0
M  V30 3183 N 301.532 -0.945985 -1.26051 0
M  V30 3184 C 302.464 -0.416662 -2.25381 0
M  V30 3185 C 303.477 0.462712 -1.56086 0
M  V30 3186 O 304.666 0.272383 -1.7641 0
M  V30 3187 C 301.766 0.419812 -3.3629 0
M  V30 3188 C 300.939 -0.444531 -4.35135 0
M  V30 3189 C 299.998 0.332305 -5.2515 0
M  V30 3190 O 299.024 -0.266324 -5.68577 0
M  V30 3191 N 300.226 1.62763 -5.57215 0
M  V30 3192 H 302.991 -1.27059 -2.71433 0
M  V30 3193 H 300.552 -0.815392 -1.39868 0
M  V30 3194 H 302.544 0.947013 -3.93464 0
M  V30 3195 H 301.114 1.17456 -2.89694 0
M  V30 3196 H 300.334 -1.15291 -3.76964 0
M  V30 3197 H 301.622 -1.03478 -4.98166 0
M  V30 3198 H 301.02 2.13603 -5.23823 0
M  V30 3199 H 299.577 2.10097 -6.17011 0
M  V30 3200 N 303.011 1.40521 -0.713556 0
M  V30 3201 C 304.427 1.54839 -0.386907 0
M  V30 3202 C 304.627 1.68532 1.1045 0
M  V30 3203 O 303.683 1.67377 1.89053 0
M  V30 3204 C 304.996 2.77792 -1.15118 0
M  V30 3205 C 306.544 2.91607 -1.13729 0
M  V30 3206 C 307.019 4.1747 -1.88368 0
M  V30 3207 N 308.51 4.24466 -1.85427 0
M  V30 3208 C 309.245 5.20755 -2.40004 0
M  V30 3209 N 308.741 6.22965 -3.03129 0
M  V30 3210 N 310.534 5.1282 -2.30158 0
M  V30 3211 H 302.685 1.29879 -1.68063 0
M  V30 3212 H 304.948 0.627896 -0.710247 0
M  V30 3213 H 304.654 2.73944 -2.20561 0
M  V30 3214 H 304.528 3.6984 -0.741477 0
M  V30 3215 H 306.915 2.94959 -0.0910608 0
M  V30 3216 H 306.996 2.00682 -1.5862 0
M  V30 3217 H 306.64 4.1488 -2.9298 0
M  V30 3218 H 306.57 5.074 -1.40898 0
M  V30 3219 H 309.061 3.51241 -1.3942 0
M  V30 3220 H 309.374 6.92859 -3.42295 0
M  V30 3221 H 307.719 6.23415 -3.07212 0
M  V30 3222 H 310.91 4.31899 -1.80501 0
M  V30 3223 H 311.083 5.87689 -2.72993 0
M  V30 3224 N 304.489 0.459591 1.5075 0
M  V30 3225 C 305.452 -0.329093 2.26825 0
M  V30 3226 C 306.452 -0.930481 1.31144 0
M  V30 3227 O 307.642 -0.801453 1.54669 0
M  V30 3228 C 304.774 -1.46768 3.07688 0
M  V30 3229 H 305.967 0.337924 2.9799 0
M  V30 3230 H 303.52 0.213336 1.54837 0
M  V30 3231 H 304.255 -2.17009 2.40993 0
M  V30 3232 H 304.04 -1.04238 3.77991 0
M  V30 3233 H 305.53 -2.02433 3.65254 0
M  V30 3234 N 305.967 -1.56429 0.191757 0
M  V30 3235 C 307.192 -2.02309 -0.456706 0
M  V30 3236 C 307.617 -1.07103 -1.5463 0
M  V30 3237 O 306.975 -0.0539677 -1.8122 0
M  V30 3238 C 307.023 -3.46654 -0.993159 0
M  V30 3239 O 306.127 -3.54559 -2.10622 0
M  V30 3240 H 305.468 -0.655303 -0.107114 0
M  V30 3241 H 307.998 -2.02364 0.301653 0
M  V30 3242 H 308.008 -3.86377 -1.31061 0
M  V30 3243 H 306.683 -4.1544 -0.195504 0
M  V30 3244 H 305.26 -3.26708 -1.79767 0
M  V30 3245 N 307.445 0.0818655 -1.57387 0
M  V30 3246 C 308.693 0.781368 -1.86384 0
M  V30 3247 C 309.014 1.78618 -0.782342 0
M  V30 3248 O 308.284 1.94976 0.190061 0
M  V30 3249 H 306.864 0.291562 -0.687751 0
M  V30 3250 H 309.526 0.060348 -1.94807 0
M  V30 3251 H 308.622 1.3038 -2.83562 0
M  V30 3252 N 308.923 1.53595 0.353017 0
M  V30 3253 C 310.151 1.74311 1.1146 0
M  V30 3254 C 310.566 0.477854 1.82653 0
M  V30 3255 O 309.923 -0.549977 1.74016 0
M  V30 3256 C 309.974 2.91694 2.13534 0
M  V30 3257 O 309.695 4.13325 1.45238 0
M  V30 3258 C 311.196 3.24384 3.02142 0
M  V30 3259 H 308.416 0.582669 0.332773 0
M  V30 3260 H 310.96 2.00386 0.408107 0
M  V30 3261 H 309.115 2.67977 2.79763 0
M  V30 3262 H 309.529 4.79148 2.13349 0
M  V30 3263 H 311.003 4.09893 3.69718 0
M  V30 3264 H 311.48 2.40282 3.67643 0
M  V30 3265 H 312.086 3.50073 2.41514 0
M  V30 3266 N 310.401 -0.613514 1.45168 0
M  V30 3267 C 311.631 -1.39743 1.52169 0
M  V30 3268 C 312.039 -1.88596 0.151086 0
M  V30 3269 O 311.382 -1.6251 -0.856521 0
M  V30 3270 C 311.444 -2.64035 2.43979 0
M  V30 3271 C 311.108 -2.36861 3.90827 0
M  V30 3272 C 312.105 -1.97591 4.80889 0
M  V30 3273 C 309.79 -2.49956 4.35692 0
M  V30 3274 C 311.784 -1.71768 6.1382 0
M  V30 3275 C 309.471 -2.23747 5.68665 0
M  V30 3276 C 310.469 -1.84714 6.57548 0
M  V30 3277 O 310.157 -1.58809 7.88058 0
M  V30 3278 H 309.889 -0.434382 0.517966 0
M  V30 3279 H 312.443 -0.75587 1.90986 0
M  V30 3280 H 310.673 -3.3089 2.00122 0
M  V30 3281 H 312.362 -3.26069 2.41731 0
M  V30 3282 H 313.128 -1.87015 4.47493 0
M  V30 3283 H 309.007 -2.79305 3.66756 0
M  V30 3284 H 312.551 -1.41227 6.83155 0
M  V30 3285 H 308.448 -2.33938 6.01617 0
M  V30 3286 H 309.216 -1.7291 8.00028 0
M  V30 3287 N 311.879 -1.3236 -0.855495 0
M  V30 3288 C 312.789 -1.23221 -1.99634 0
M  V30 3289 C 313.805 -0.145983 -1.73387 0
M  V30 3290 O 314.981 -0.366502 -1.98037 0
M  V30 3291 C 312.046 -0.954782 -3.33294 0
M  V30 3292 C 311.107 -2.12937 -3.72769 0
M  V30 3293 C 310.34 -1.86508 -5.00051 0
M  V30 3294 O 310.563 -0.807231 -5.64659 0
M  V30 3295 O 309.497 -2.72591 -5.36636 0
M  V30 3296 H 313.323 -2.19126 -2.1028 0
M  V30 3297 H 310.908 -1.12241 -0.986018 0
M  V30 3298 H 312.79 -0.816519 -4.13414 0
M  V30 3299 H 311.465 -0.0258854 -3.2369 0
M  V30 3300 H 310.372 -2.3231 -2.93228 0
M  V30 3301 H 311.705 -3.04102 -3.87018 0
M  V30 3302 N 313.357 1.07166 -1.15556 0
M  V30 3303 C 314.287 2.16403 -0.877046 0
M  V30 3304 C 315.268 1.69217 0.173111 0
M  V30 3305 O 316.453 1.94181 0.027084 0
M  V30 3306 C 313.583 3.45349 -0.367632 0
M  V30 3307 C 312.537 4.05995 -1.35468 0
M  V30 3308 C 311.863 5.30045 -0.704038 0
M  V30 3309 C 313.163 4.45804 -2.72132 0
M  V30 3310 H 314.857 2.39959 -1.79053 0
M  V30 3311 H 312.403 1.15325 -0.862331 0
M  V30 3312 H 314.356 4.21095 -0.160317 0
M  V30 3313 H 313.08 3.21385 0.581326 0
M  V30 3314 H 311.739 3.32296 -1.54839 0
M  V30 3315 H 311.387 5.02373 0.251128 0
M  V30 3316 H 311.087 5.71579 -1.36277 0
M  V30 3317 H 312.611 6.08495 -0.50654 0
M  V30 3318 H 314.025 5.12671 -2.56595 0
M  V30 3319 H 312.422 4.98296 -3.34397 0
M  V30 3320 H 313.492 3.57083 -3.28054 0
M  V30 3321 N 314.835 0.952656 1.25548 0
M  V30 3322 C 316.081 0.607272 1.93494 0
M  V30 3323 C 316.414 -0.853245 1.74452 0
M  V30 3324 O 315.689 -1.61194 1.08843 0
M  V30 3325 C 315.972 0.96435 3.46947 0
M  V30 3326 C 315.825 2.48045 3.75225 0
M  V30 3327 C 317.144 0.487987 4.37386 0
M  V30 3328 H 314.263 0.222096 0.702739 0
M  V30 3329 H 316.905 1.18895 1.48203 0
M  V30 3330 H 315.055 0.469361 3.85654 0
M  V30 3331 H 316.727 3.04905 3.46166 0
M  V30 3332 H 314.97 2.919 3.209 0
M  V30 3333 H 315.641 2.6808 4.82532 0
M  V30 3334 H 318.117 0.912558 4.0597 0
M  V30 3335 H 316.993 0.766547 5.43521 0
M  V30 3336 H 317.254 -0.612063 4.37843 0
M  V30 3337 N 316.313 -1.40141 0.720998 0
M  V30 3338 C 317.56 -2.00787 0.262842 0
M  V30 3339 C 317.888 -1.5718 -1.14563 0
M  V30 3340 O 317.143 -0.785391 -1.79249 0
M  V30 3341 C 317.442 -3.56165 0.296892 0
M  V30 3342 C 317.108 -4.19373 1.65641 0
M  V30 3343 C 315.77 -4.36352 2.02855 0
M  V30 3344 C 318.122 -4.54578 2.54968 0
M  V30 3345 C 315.45 -4.8582 3.28931 0
M  V30 3346 C 317.802 -5.05447 3.80402 0
M  V30 3347 C 316.466 -5.20635 4.17726 0
M  V30 3348 H 315.736 -0.734731 0.0961807 0
M  V30 3349 H 318.383 -1.67673 0.925093 0
M  V30 3350 H 316.688 -3.8922 -0.448932 0
M  V30 3351 H 318.385 -4.00929 -0.0755208 0
M  V30 3352 H 314.975 -4.06549 1.35704 0
M  V30 3353 H 319.159 -4.41091 2.27491 0
M  V30 3354 H 314.415 -4.95764 3.57811 0
M  V30 3355 H 318.589 -5.31663 4.49786 0
M  V30 3356 H 316.216 -5.58728 5.15487 0
M  V30 3357 N 317.792 -0.46758 -1.50504 0
M  V30 3358 C 318.702 0.33382 -2.32213 0
M  V30 3359 C 319.718 0.999323 -1.42441 0
M  V30 3360 O 320.894 0.988068 -1.75497 0
M  V30 3361 C 317.959 1.4035 -3.17022 0
M  V30 3362 C 317.02 0.754961 -4.2261 0
M  V30 3363 C 316.253 1.77367 -5.03365 0
M  V30 3364 O 316.476 2.99976 -4.8515 0
M  V30 3365 O 315.41 1.34744 -5.86624 0
M  V30 3366 H 319.236 -0.334067 -3.01857 0
M  V30 3367 H 316.821 -0.229496 -1.47627 0
M  V30 3368 H 318.703 2.02318 -3.69656 0
M  V30 3369 H 317.378 2.05492 -2.5011 0
M  V30 3370 H 316.285 0.0964244 -3.73976 0
M  V30 3371 H 317.618 0.146545 -4.91982 0
M  V30 3372 N 319.27 1.56325 -0.20005 0
M  V30 3373 C 320.547 1.89484 0.48529 0
M  V30 3374 C 320.927 1.1143 1.79294 0
M  V30 3375 O 320.275 0.216919 2.27468 0
M  V30 3376 C 320.485 3.41923 0.699243 0
M  V30 3377 C 321.833 4.12256 1.01638 0
M  V30 3378 O 322.857 3.47402 0.786792 0
M  V30 3379 O 321.716 5.26887 1.45095 0
M  V30 3380 H 318.81 0.787144 0.253639 0
M  V30 3381 H 321.356 1.67985 -0.240633 0
M  V30 3382 H 320.128 3.90658 -0.224008 0
M  V30 3383 H 319.751 3.69131 1.47744 0
M  V30 3384 N 320.748 -0.0735177 1.57428 0
M  V30 3385 C 321.994 -0.774145 1.87443 0
M  V30 3386 C 322.327 -1.77311 0.792103 0
M  V30 3387 O 321.602 -1.93492 -0.197793 0
M  V30 3388 C 321.885 -1.48367 3.28115 0
M  V30 3389 C 321.738 -0.501227 4.46999 0
M  V30 3390 C 323.057 -2.429 3.66998 0
M  V30 3391 H 320.176 -0.279971 0.681752 0
M  V30 3392 H 322.818 -0.0373616 1.89963 0
M  V30 3393 H 320.968 -2.11171 3.26097 0
M  V30 3394 H 322.64 0.121468 4.6114 0
M  V30 3395 H 320.883 0.183593 4.33411 0
M  V30 3396 H 321.554 -1.03526 5.42205 0
M  V30 3397 H 324.03 -1.90175 3.70098 0
M  V30 3398 H 322.906 -2.89549 4.66318 0
M  V30 3399 H 323.167 -3.27628 2.96837 0
M  V30 3400 N 322.226 -1.5378 -0.344866 0
M  V30 3401 C 323.173 -1.81676 -1.42346 0
M  V30 3402 C 324.143 -0.662376 -1.52321 0
M  V30 3403 O 325.328 -0.906675 -1.67881 0
M  V30 3404 C 322.468 -2.03087 -2.79015 0
M  V30 3405 C 321.581 -3.30799 -2.77842 0
M  V30 3406 C 320.716 -3.42285 -4.0622 0
M  V30 3407 C 319.755 -4.6395 -3.9927 0
M  V30 3408 N 318.892 -4.72477 -5.19336 0
M  V30 3409 H 323.732 -2.73703 -1.17858 0
M  V30 3410 H 321.269 -1.35568 -0.570949 0
M  V30 3411 H 323.227 -2.1349 -3.58438 0
M  V30 3412 H 321.857 -1.14375 -3.01858 0
M  V30 3413 H 320.909 -3.29244 -1.90533 0
M  V30 3414 H 322.221 -4.20314 -2.68584 0
M  V30 3415 H 321.375 -3.52113 -4.94066 0
M  V30 3416 H 320.114 -2.50823 -4.18258 0
M  V30 3417 H 319.119 -4.54201 -3.09809 0
M  V30 3418 H 320.344 -5.56775 -3.88817 0
M  V30 3419 H 318.29 -3.83924 -5.3192 0
M  V30 3420 H 318.207 -5.55927 -5.12329 0
M  V30 3421 H 319.475 -4.86613 -6.08957 0
M  V30 3422 N 323.704 0.605807 -1.45491 0
M  V30 3423 C 324.95 1.36679 -1.49823 0
M  V30 3424 C 325.283 1.93693 -0.140175 0
M  V30 3425 O 324.558 1.75158 0.845581 0
M  V30 3426 C 324.841 2.51337 -2.57879 0
M  V30 3427 C 324.694 1.99508 -4.03134 0
M  V30 3428 C 326.013 3.53463 -2.62205 0
M  V30 3429 H 323.132 0.495617 -0.545466 0
M  V30 3430 H 325.774 0.682732 -1.7731 0
M  V30 3431 H 323.924 3.09691 -2.34571 0
M  V30 3432 H 325.596 1.45789 -4.37656 0
M  V30 3433 H 323.839 1.30496 -4.13707 0
M  V30 3434 H 324.51 2.82169 -4.74431 0
M  V30 3435 H 326.986 3.04953 -2.83095 0
M  V30 3436 H 325.862 4.31178 -3.39672 0
M  V30 3437 H 326.123 4.09197 -1.67363 0
M  V30 3438 N 325.182 1.32811 0.848464 0
M  V30 3439 C 326.593 1.21315 1.41914 0
M  V30 3440 C 326.944 -0.171847 1.95446 0
M  V30 3441 O 326.069 -1.07093 1.88043 0
M  V30 3442 C 326.664 2.19631 2.57968 0
M  V30 3443 C 325.223 2.12003 3.11017 0
M  V30 3444 C 324.37 2.07651 1.83783 0
M  V30 3445 H 327.321 1.44549 0.655071 0
M  V30 3446 H 327.342 1.79845 3.35315 0
M  V30 3447 H 326.854 3.20423 2.18976 0
M  V30 3448 H 324.955 1.14481 3.54577 0
M  V30 3449 H 325.068 3.02111 3.71841 0
M  V30 3450 H 323.432 1.52983 2.03638 0
M  V30 3451 H 324.215 3.10235 1.47 0
M  V30 3452 N 326.66 -1.06551 1.16123 0
M  V30 3453 C 327.906 -1.79567 0.94252 0
M  V30 3454 C 328.239 -1.86869 -0.528547 0
M  V30 3455 O 327.514 -1.35838 -1.39206 0
M  V30 3456 C 327.797 -3.24195 1.56747 0
M  V30 3457 C 327.65 -3.24989 3.10969 0
M  V30 3458 C 328.969 -4.21678 1.25998 0
M  V30 3459 H 326.088 -0.651883 0.343828 0
M  V30 3460 H 328.73 -1.2463 1.43413 0
M  V30 3461 H 326.88 -3.71107 1.14942 0
M  V30 3462 H 328.552 -2.86258 3.61737 0
M  V30 3463 H 326.795 -2.63716 3.44436 0
M  V30 3464 H 327.466 -4.27005 3.49815 0
M  V30 3465 H 329.942 -3.83196 1.62174 0
M  V30 3466 H 328.818 -5.21146 1.7233 0
M  V30 3467 H 329.079 -4.4174 0.178367 0
M  V30 3468 N 328.138 -0.959301 -1.25041 0
M  V30 3469 C 329.048 -0.489994 -2.29426 0
M  V30 3470 C 330.064 0.444944 -1.68215 0
M  V30 3471 O 331.24 0.320046 -1.98841 0
M  V30 3472 C 328.305 0.220309 -3.45999 0
M  V30 3473 C 327.366 -0.753418 -4.22637 0
M  V30 3474 C 326.599 -0.076918 -5.33645 0
M  V30 3475 O 326.822 1.13649 -5.58963 0
M  V30 3476 O 325.756 -0.764824 -5.97021 0
M  V30 3477 H 329.582 -1.35755 -2.71669 0
M  V30 3478 H 327.167 -0.725961 -1.30576 0
M  V30 3479 H 329.049 0.619677 -4.16819 0
M  V30 3480 H 327.724 1.06296 -3.0575 0
M  V30 3481 H 326.631 -1.20308 -3.54227 0
M  V30 3482 H 327.964 -1.56423 -4.66683 0
M  V30 3483 N 329.616 1.39756 -0.72842 0
M  V30 3484 C 330.564 2.32485 -0.0731849 0
M  V30 3485 C 331.558 1.52717 0.733063 0
M  V30 3486 O 332.764 1.68428 0.634988 0
M  V30 3487 H 329.139 0.751984 -0.00486469 0
M  V30 3488 H 331.11 2.85382 -0.871761 0
M  V30 3489 C 329.859 3.37773 0.824908 0
M  V30 3490 H 329.182 3.99227 0.213915 0
M  V30 3491 H 330.622 4.05121 1.25111 0
M  V30 3492 C 329.081 2.74287 1.95622 0
M  V30 3493 O 329.611 2.61618 3.04826 0
M  V30 3494 N 327.817 2.32475 1.74367 0
M  V30 3495 H 327.364 2.4298 0.855494 0
M  V30 3496 H 327.322 1.90337 2.50238 0
M  V30 3497 N 331.094 0.475555 1.50254 0
M  V30 3498 C 332.51 0.12997 1.5907 0
M  V30 3499 C 332.71 -1.36385 1.48328 0
M  V30 3500 O 331.766 -2.13754 1.34407 0
M  V30 3501 C 333.079 0.684139 2.92814 0
M  V30 3502 C 334.627 0.647965 3.0622 0
M  V30 3503 C 335.102 1.17975 4.42545 0
M  V30 3504 N 336.593 1.13936 4.48969 0
M  V30 3505 C 337.328 1.52129 5.52851 0
M  V30 3506 N 336.824 1.97793 6.63965 0
M  V30 3507 N 338.617 1.43704 5.4342 0
M  V30 3508 H 330.768 1.44706 1.55479 0
M  V30 3509 H 333.031 0.598691 0.735033 0
M  V30 3510 H 332.737 1.73079 3.06164 0
M  V30 3511 H 332.611 0.130204 3.76975 0
M  V30 3512 H 334.998 -0.38979 2.92514 0
M  V30 3513 H 335.079 1.23876 2.23805 0
M  V30 3514 H 334.723 2.21616 4.57 0
M  V30 3515 H 334.653 0.565138 5.23559 0
M  V30 3516 H 337.144 0.804488 3.69238 0
M  V30 3517 H 337.457 2.25072 7.39299 0
M  V30 3518 H 335.802 2.01749 6.65073 0
M  V30 3519 H 338.993 1.07867 4.55502 0
M  V30 3520 H 339.166 1.73794 6.24259 0
M  V30 3521 N 332.573 -1.56217 0.208337 0
M  V30 3522 C 333.503 -2.22694 -0.702116 0
M  V30 3523 C 334.484 -1.19432 -1.2112 0
M  V30 3524 O 335.669 -1.47978 -1.25762 0
M  V30 3525 C 332.799 -2.8966 -1.9161 0
M  V30 3526 C 331.753 -3.9928 -1.5414 0
M  V30 3527 C 331.079 -4.53476 -2.83308 0
M  V30 3528 C 332.379 -5.17012 -0.741339 0
M  V30 3529 H 334.073 -2.99034 -0.147898 0
M  V30 3530 H 331.619 -1.43831 -0.0696951 0
M  V30 3531 H 333.572 -3.34852 -2.55836 0
M  V30 3532 H 332.296 -2.10746 -2.49507 0
M  V30 3533 H 330.955 -3.54799 -0.922668 0
M  V30 3534 H 330.603 -3.71308 -3.39322 0
M  V30 3535 H 330.303 -5.27451 -2.58976 0
M  V30 3536 H 331.827 -5.01378 -3.485 0
M  V30 3537 H 333.241 -5.58667 -1.28699 0
M  V30 3538 H 331.638 -5.97137 -0.595627 0
M  V30 3539 H 332.708 -4.8423 0.254851 0
M  V30 3540 N 334.051 0.0651679 -1.57465 0
M  V30 3541 C 335.299 0.761555 -1.87202 0
M  V30 3542 C 335.62 1.77778 -0.801243 0
M  V30 3543 O 334.89 1.95166 0.16937 0
M  V30 3544 H 333.47 0.284251 -0.690804 0
M  V30 3545 H 336.132 0.0396827 -1.9486 0
M  V30 3546 H 335.228 1.27365 -2.84929 0
M  V30 3547 N 335.529 1.53961 0.336706 0
M  V30 3548 C 336.439 1.85432 1.43708 0
M  V30 3549 C 337.455 0.745053 1.57242 0
M  V30 3550 O 338.631 1.03804 1.72588 0
M  V30 3551 C 335.696 2.06349 2.78605 0
M  V30 3552 C 334.757 3.30191 2.74358 0
M  V30 3553 C 333.99 3.50101 4.02822 0
M  V30 3554 O 334.213 2.7371 5.00439 0
M  V30 3555 O 333.147 4.43547 4.06878 0
M  V30 3556 H 336.973 2.78975 1.20028 0
M  V30 3557 H 334.558 1.39701 0.52952 0
M  V30 3558 H 336.44 2.21513 3.58483 0
M  V30 3559 H 335.115 1.15995 3.02203 0
M  V30 3560 H 334.022 3.20425 1.93078 0
M  V30 3561 H 335.355 4.2056 2.55715 0
M  V30 3562 N 337.007 -0.598083 1.45811 0
M  V30 3563 C 337.917 -1.73632 1.57763 0
M  V30 3564 C 338.933 -1.67763 0.461676 0
M  V30 3565 O 340.109 -1.87949 0.723685 0
M  V30 3566 C 337.174 -3.10114 1.55018 0
M  V30 3567 C 336.235 -3.27364 2.77726 0
M  V30 3568 C 335.468 -4.57334 2.75102 0
M  V30 3569 O 335.691 -5.40258 1.8297 0
M  V30 3570 O 334.625 -4.77502 3.66437 0
M  V30 3571 H 338.451 -1.66498 2.53992 0
M  V30 3572 H 336.036 -0.763308 1.28429 0
M  V30 3573 H 337.918 -3.9141 1.56129 0
M  V30 3574 H 336.593 -3.17718 0.619431 0
M  V30 3575 H 335.5 -2.45619 2.82174 0
M  V30 3576 H 336.833 -3.24641 3.69958 0
M  V30 3577 N 338.485 -1.33259 -0.841409 0
M  V30 3578 C 339.733 -1.24326 -1.59334 0
M  V30 3579 C 340.054 0.191564 -1.94057 0
M  V30 3580 O 339.324 1.11967 -1.60749 0
M  V30 3581 H 337.904 -0.457174 -0.590763 0
M  V30 3582 H 340.566 -1.66947 -1.00571 0
M  V30 3583 H 339.662 -1.8352 -2.52442 0
M  V30 3584 N 339.963 1.05934 -1.16686 0
M  V30 3585 C 340.873 2.17014 -0.891183 0
M  V30 3586 C 341.889 1.73453 0.137907 0
M  V30 3587 O 343.065 2.01361 -0.039592 0
M  V30 3588 C 340.13 3.44384 -0.400099 0
M  V30 3589 C 339.191 4.02433 -1.49486 0
M  V30 3590 C 338.424 5.23723 -1.02711 0
M  V30 3591 O 338.647 5.7027 0.121716 0
M  V30 3592 O 337.581 5.7382 -1.81699 0
M  V30 3593 H 341.407 2.43113 -1.82015 0
M  V30 3594 H 338.992 1.15541 -0.947132 0
M  V30 3595 H 340.874 4.21189 -0.133392 0
M  V30 3596 H 339.549 3.19802 0.500817 0
M  V30 3597 H 338.456 3.27102 -1.81535 0
M  V30 3598 H 339.789 4.31317 -2.37121 0
M  V30 3599 N 341.441 0.965919 1.2453 0
M  V30 3600 C 342.689 0.625593 1.92174 0
M  V30 3601 C 343.01 -0.841652 1.75901 0
M  V30 3602 O 342.28 -1.60061 1.12948 0
M  V30 3603 H 340.86 0.228388 0.71123 0
M  V30 3604 H 343.522 1.2266 1.51461 0
M  V30 3605 H 342.618 0.864653 2.99884 0
M  V30 3606 N 342.919 -1.39368 0.735821 0
M  V30 3607 C 344.166 -2.00497 0.284123 0
M  V30 3608 C 344.494 -1.58387 -1.12889 0
M  V30 3609 O 343.749 -0.804359 -1.78406 0
M  V30 3610 C 344.048 -3.5583 0.334651 0
M  V30 3611 C 343.714 -4.17593 1.7008 0
M  V30 3612 C 342.376 -4.34176 2.07472 0
M  V30 3613 C 344.728 -4.51848 2.59775 0
M  V30 3614 C 342.056 -4.82304 3.34065 0
M  V30 3615 C 344.408 -5.01384 3.85741 0
M  V30 3616 C 343.072 -5.16175 4.23225 0
M  V30 3617 H 342.342 -0.73367 0.103968 0
M  V30 3618 H 344.989 -1.66683 0.942825 0
M  V30 3619 H 343.294 -3.89674 -0.407625 0
M  V30 3620 H 344.991 -4.00986 -0.0329927 0
M  V30 3621 H 341.581 -4.05087 1.40008 0
M  V30 3622 H 345.765 -4.38653 2.32157 0
M  V30 3623 H 341.021 -4.91941 3.63049 0
M  V30 3624 H 345.195 -5.26863 4.55399 0
M  V30 3625 H 342.822 -5.5323 5.21384 0
M  V30 3626 N 344.397 -0.483516 -1.5 0
M  V30 3627 C 345.344 0.304164 -2.28787 0
M  V30 3628 C 346.314 0.976114 -1.34392 0
M  V30 3629 O 347.499 0.986156 -1.63339 0
M  V30 3630 C 344.639 1.37298 -3.16612 0
M  V30 3631 C 343.752 0.714561 -4.26049 0
M  V30 3632 C 342.887 1.76232 -5.01114 0
M  V30 3633 C 341.926 1.08483 -6.0241 0
M  V30 3634 N 341.063 2.076 -6.70706 0
M  V30 3635 H 345.903 -0.373981 -2.95644 0
M  V30 3636 H 343.44 -0.196275 -1.45785 0
M  V30 3637 H 345.398 2.00445 -3.65893 0
M  V30 3638 H 344.028 2.02012 -2.51776 0
M  V30 3639 H 343.08 -0.0297798 -3.80388 0
M  V30 3640 H 344.392 0.180383 -4.98474 0
M  V30 3641 H 343.546 2.46929 -5.54176 0
M  V30 3642 H 342.285 2.33033 -4.28424 0
M  V30 3643 H 341.29 0.363545 -5.48597 0
M  V30 3644 H 342.515 0.523551 -6.77079 0
M  V30 3645 H 340.461 2.63394 -6.00799 0
M  V30 3646 H 340.378 1.59201 -7.39047 0
M  V30 3647 H 341.646 2.77639 -7.2838 0
M  V30 3648 N 345.875 1.56104 -0.216619 0
M  V30 3649 C 347.124 1.97348 0.416744 0
M  V30 3650 C 347.437 1.10715 1.6125 0
M  V30 3651 O 348.643 1.41836 2.31506 0
M  V30 3652 C 347.099 3.51059 0.792835 0
M  V30 3653 C 346.707 4.46387 -0.379828 0
M  V30 3654 C 348.451 4.01026 1.39208 0
M  V30 3655 C 346.358 5.91397 0.0184223 0
M  V30 3656 H 345.288 0.736942 0.159475 0
M  V30 3657 H 347.939 1.80827 -0.31205 0
M  V30 3658 H 346.321 3.63162 1.57891 0
M  V30 3659 H 347.495 4.46029 -1.15737 0
M  V30 3660 H 345.81 4.06734 -0.891979 0
M  V30 3661 H 348.407 5.0686 1.70286 0
M  V30 3662 H 348.75 3.46587 2.30614 0
M  V30 3663 H 349.283 3.92125 0.669537 0
M  V30 3664 H 346.022 6.49807 -0.862002 0
M  V30 3665 H 345.542 5.94961 0.760384 0
M  V30 3666 H 347.221 6.45455 0.446818 0
M  V30 3667 N 347.353 -0.0568162 1.57498 0
M  V30 3668 C 348.316 -1.05038 2.03715 0
M  V30 3669 C 349.316 -1.30709 0.936577 0
M  V30 3670 O 350.506 -1.26178 1.20103 0
M  V30 3671 C 347.638 -2.39034 2.43055 0
M  V30 3672 H 348.831 -0.651715 2.92733 0
M  V30 3673 H 346.384 -0.302947 1.53336 0
M  V30 3674 H 347.119 -2.83703 1.57108 0
M  V30 3675 H 346.904 -2.21739 3.2338 0
M  V30 3676 H 348.394 -3.10421 2.79336 0
M  V30 3677 N 348.832 -1.54138 -0.328536 0
M  V30 3678 C 349.765 -1.78014 -1.4278 0
M  V30 3679 C 350.743 -0.629889 -1.49904 0
M  V30 3680 O 351.927 -0.866763 -1.6739 0
M  V30 3681 C 349.054 -1.89225 -2.80912 0
M  V30 3682 C 348.1 -3.11483 -2.91343 0
M  V30 3683 S 348.933 -4.70201 -2.56263 0
M  V30 3684 C 350.089 -4.84312 -3.96476 0
M  V30 3685 H 350.322 -2.70974 -1.22313 0
M  V30 3686 H 347.855 -1.45197 -0.525084 0
M  V30 3687 H 349.813 -1.9637 -3.60485 0
M  V30 3688 H 348.474 -0.972518 -2.98665 0
M  V30 3689 H 347.667 -3.16046 -3.92595 0
M  V30 3690 H 347.269 -3.02642 -2.19736 0
M  V30 3691 H 349.561 -4.66643 -4.91173 0
M  V30 3692 H 350.504 -5.86411 -3.96898 0
M  V30 3693 H 350.912 -4.12652 -3.85199 0
M  V30 3694 N 350.31 0.590341 -1.46126 0
M  V30 3695 C 351.242 1.71427 -1.52136 0
M  V30 3696 C 352.255 1.57542 -0.41042 0
M  V30 3697 O 353.444 1.65106 -0.678389 0
M  V30 3698 C 350.544 3.09605 -1.37834 0
M  V30 3699 C 349.717 3.49566 -2.62912 0
M  V30 3700 C 348.776 4.66773 -2.42918 0
M  V30 3701 O 347.802 4.73019 -3.1661 0
M  V30 3702 N 349.004 5.61161 -1.4859 0
M  V30 3703 H 351.769 1.66728 -2.49042 0
M  V30 3704 H 349.33 0.776113 -1.42085 0
M  V30 3705 H 351.322 3.85796 -1.22243 0
M  V30 3706 H 349.892 3.08714 -0.491393 0
M  V30 3707 H 349.112 2.63158 -2.93499 0
M  V30 3708 H 350.4 3.73028 -3.46017 0
M  V30 3709 H 349.798 5.58844 -0.87808 0
M  V30 3710 H 348.355 6.36814 -1.38965 0
M  V30 3711 N 351.788 1.33704 0.83433 0
M  V30 3712 C 353.016 1.28467 1.62185 0
M  V30 3713 C 353.431 -0.143526 1.88254 0
M  V30 3714 O 352.788 -1.08709 1.4659 0
M  V30 3715 C 352.839 2.06174 2.96942 0
M  V30 3716 O 352.56 3.43422 2.72016 0
M  V30 3717 C 354.061 2.08201 3.91366 0
M  V30 3718 H 351.281 0.4424 0.504503 0
M  V30 3719 H 353.825 1.76145 1.03891 0
M  V30 3720 H 351.98 1.62167 3.51825 0
M  V30 3721 H 352.394 3.83453 3.57861 0
M  V30 3722 H 353.868 2.67017 4.83121 0
M  V30 3723 H 354.345 1.07343 4.2588 0
M  V30 3724 H 354.951 2.52246 3.42421 0
M  V30 3725 N 353.266 -1.05314 1.17247 0
M  V30 3726 C 354.196 -2.1498 0.911362 0
M  V30 3727 C 355.177 -1.69471 -0.146169 0
M  V30 3728 O 356.362 -1.942 0.003812 0
M  V30 3729 C 353.492 -3.4472 0.422528 0
M  V30 3730 C 352.446 -4.03789 1.4191 0
M  V30 3731 C 351.772 -5.28858 0.788274 0
M  V30 3732 C 353.072 -4.41418 2.7919 0
M  V30 3733 H 354.766 -2.3708 1.82848 0
M  V30 3734 H 352.312 -1.13938 0.880569 0
M  V30 3735 H 354.265 -4.20787 0.227289 0
M  V30 3736 H 352.989 -3.22269 -0.530123 0
M  V30 3737 H 351.648 -3.2979 1.60106 0
M  V30 3738 H 351.296 -5.02709 -0.171173 0
M  V30 3739 H 350.996 -5.69338 1.45353 0
M  V30 3740 H 352.52 -6.07612 0.603282 0
M  V30 3741 H 353.934 -5.08524 2.64719 0
M  V30 3742 H 352.331 -4.92913 3.42282 0
M  V30 3743 H 353.401 -3.51819 3.33693 0
M  V30 3744 N 354.744 -0.972509 -1.24016 0
M  V30 3745 C 355.692 -0.498562 -2.27194 0
M  V30 3746 C 356.686 0.440372 -1.63576 0
M  V30 3747 O 357.892 0.315133 -1.7722 0
M  V30 3748 H 354.267 -0.142775 -0.738322 0
M  V30 3749 H 356.238 -1.38065 -2.64539 0
M  V30 3750 C 354.987 0.191072 -3.47175 0
M  V30 3751 H 354.31 -0.522318 -3.96373 0
M  V30 3752 H 355.75 0.486445 -4.212 0
M  V30 3753 C 354.209 1.41967 -3.05527 0
M  V30 3754 O 354.739 2.51642 -3.13112 0
M  V30 3755 N 352.945 1.28746 -2.60524 0
M  V30 3756 H 352.492 0.395089 -2.54552 0
M  V30 3757 H 352.45 2.11061 -2.33025 0
M  V30 3758 N 356.222 1.38976 -0.743202 0
M  V30 3759 C 357.169 2.30544 -0.10861 0
M  V30 3760 C 358.139 1.49642 0.720869 0
M  V30 3761 O 359.324 1.78304 0.679142 0
M  V30 3762 C 356.464 3.36018 0.786496 0
M  V30 3763 C 355.577 4.31963 -0.0564849 0
M  V30 3764 C 354.712 5.24506 0.840657 0
M  V30 3765 C 353.751 6.121 -0.00658363 0
M  V30 3766 N 352.888 6.96973 0.846943 0
M  V30 3767 H 357.728 2.8424 -0.895088 0
M  V30 3768 H 355.265 1.3995 -0.453048 0
M  V30 3769 H 357.223 3.95768 1.31999 0
M  V30 3770 H 355.853 2.83758 1.53887 0
M  V30 3771 H 354.905 3.73763 -0.707492 0
M  V30 3772 H 356.217 4.93703 -0.711229 0
M  V30 3773 H 355.371 5.89322 1.4417 0
M  V30 3774 H 354.11 4.63107 1.52916 0
M  V30 3775 H 353.115 5.46289 -0.620366 0
M  V30 3776 H 354.34 6.75565 -0.691992 0
M  V30 3777 H 352.286 6.38133 1.52059 0
M  V30 3778 H 352.203 7.5559 0.248864 0
M  V30 3779 H 353.471 7.6621 1.43328 0
M  V30 3780 N 357.7 0.491464 1.49741 0
M  V30 3781 C 358.928 -0.0535151 2.06831 0
M  V30 3782 C 359.343 -1.31683 1.35296 0
M  V30 3783 O 358.7 -1.77402 0.42836 0
M  V30 3784 C 358.751 -0.320835 3.60073 0
M  V30 3785 O 358.472 0.892394 4.28915 0
M  V30 3786 C 359.973 -0.910519 4.33848 0
M  V30 3787 H 357.193 0.0161909 0.670805 0
M  V30 3788 H 359.737 0.68609 1.92647 0
M  V30 3789 H 357.892 -1.0104 3.73991 0
M  V30 3790 H 358.306 0.649401 5.20464 0
M  V30 3791 H 359.78 -1.04721 5.41976 0
M  V30 3792 H 360.257 -1.90589 3.95692 0
M  V30 3793 H 360.863 -0.258712 4.24512 0
M  V30 3794 N 359.178 -1.55987 0.224894 0
M  V30 3795 C 360.594 -1.59066 -0.130426 0
M  V30 3796 C 360.794 -1.24176 -1.5869 0
M  V30 3797 O 359.85 -0.978592 -2.32766 0
M  V30 3798 C 361.163 -3.00042 0.198883 0
M  V30 3799 C 362.711 -3.1268 0.141391 0
M  V30 3800 C 363.186 -4.55839 0.444422 0
M  V30 3801 N 364.677 -4.6152 0.394115 0
M  V30 3802 C 365.412 -5.70231 0.602038 0
M  V30 3803 N 364.908 -6.87291 0.871914 0
M  V30 3804 N 366.701 -5.59555 0.534245 0
M  V30 3805 H 358.852 -1.76941 1.17497 0
M  V30 3806 H 361.115 -0.822604 0.471197 0
M  V30 3807 H 360.821 -3.30234 1.2099 0
M  V30 3808 H 360.695 -3.74075 -0.484535 0
M  V30 3809 H 363.082 -2.82283 -0.860265 0
M  V30 3810 H 363.163 -2.40969 0.858335 0
M  V30 3811 H 362.807 -4.86954 1.44353 0
M  V30 3812 H 362.737 -5.2578 -0.293752 0
M  V30 3813 H 365.228 -3.77405 0.193356 0
M  V30 3814 H 365.541 -7.66058 1.01858 0
M  V30 3815 H 363.886 -6.89028 0.909145 0
M  V30 3816 H 367.077 -4.6698 0.323612 0
M  V30 3817 H 367.25 -6.44211 0.699693 0
M  V30 3818 N 360.656 0.0484629 -1.57525 0
M  V30 3819 C 361.905 0.742065 -1.87553 0
M  V30 3820 C 362.218 1.77545 -0.820802 0
M  V30 3821 O 363.424 2.52027 -1.00967 0
M  V30 3822 C 361.88 1.37081 -3.32771 0
M  V30 3823 C 361.488 0.374786 -4.4643 0
M  V30 3824 C 363.232 2.04542 -3.71972 0
M  V30 3825 C 361.139 1.01077 -5.82698 0
M  V30 3826 H 360.069 0.280903 -0.699721 0
M  V30 3827 H 362.72 -0.00411877 -1.835 0
M  V30 3828 H 361.102 2.16605 -3.31509 0
M  V30 3829 H 362.276 -0.392331 -4.59127 0
M  V30 3830 H 360.591 -0.196653 -4.15935 0
M  V30 3831 H 363.188 2.52943 -4.71088 0
M  V30 3832 H 363.531 2.85515 -3.02964 0
M  V30 3833 H 364.064 1.31819 -3.75325 0
M  V30 3834 H 360.803 0.240878 -6.55057 0
M  V30 3835 H 360.323 1.74819 -5.73758 0
M  V30 3836 H 362.002 1.52383 -6.28799 0
M  V30 3837 N 362.134 1.5431 0.320358 0
M  V30 3838 C 363.545 1.63872 0.894594 0
M  V30 3839 C 363.896 0.534847 1.88769 0
M  V30 3840 O 363.021 -0.331732 2.13842 0
M  V30 3841 C 363.616 2.97049 1.62934 0
M  V30 3842 C 362.175 3.08796 2.15226 0
M  V30 3843 C 361.322 2.59456 0.978671 0
M  V30 3844 H 364.273 1.58398 0.0978544 0
M  V30 3845 H 364.294 2.87388 2.49376 0
M  V30 3846 H 363.806 3.7737 0.906302 0
M  V30 3847 H 361.907 2.33156 2.90636 0
M  V30 3848 H 362.02 4.14649 2.40006 0
M  V30 3849 H 360.384 2.1543 1.35875 0
M  V30 3850 H 361.167 3.42237 0.269895 0
M  V30 3851 N 363.613 -0.582584 1.46437 0
M  V30 3852 C 364.859 -1.34278 1.51978 0
M  V30 3853 C 365.192 -1.93446 0.170973 0
M  V30 3854 O 364.467 -1.76481 -0.817608 0
M  V30 3855 C 364.75 -2.47203 2.61845 0
M  V30 3856 C 364.603 -1.93069 4.06257 0
M  V30 3857 C 365.922 -3.49247 2.67795 0
M  V30 3858 H 363.041 -0.486876 0.553282 0
M  V30 3859 H 365.683 -0.654437 1.78374 0
M  V30 3860 H 363.833 -3.0592 2.39469 0
M  V30 3861 H 365.505 -1.38808 4.3992 0
M  V30 3862 H 363.748 -1.23898 4.1573 0
M  V30 3863 H 364.419 -2.74586 4.7886 0
M  V30 3864 H 366.895 -3.00411 2.8791 0
M  V30 3865 H 365.771 -4.25719 3.46489 0
M  V30 3866 H 366.032 -4.06482 1.73852 0
M  V30 3867 N 365.091 -1.34144 -0.827227 0
M  V30 3868 C 366.054 -1.25264 -1.91942 0
M  V30 3869 C 367.054 -0.168866 -1.59911 0
M  V30 3870 O 368.244 -0.421198 -1.69031 0
M  V30 3871 C 365.376 -0.932952 -3.27885 0
M  V30 3872 H 366.569 -2.22357 -2.0124 0
M  V30 3873 H 364.122 -1.1837 -1.0207 0
M  V30 3874 H 364.857 0.0349917 -3.24281 0
M  V30 3875 H 364.642 -1.71682 -3.52516 0
M  V30 3876 H 366.132 -0.895874 -4.07877 0
M  V30 3877 N 366.569 1.04691 -1.17803 0
M  V30 3878 C 367.532 2.10724 -0.901545 0
M  V30 3879 C 368.532 1.6042 0.110437 0
M  V30 3880 O 369.722 1.7377 -0.122303 0
M  V30 3881 C 366.854 3.39084 -0.351409 0
M  V30 3882 H 368.047 2.36686 -1.84174 0
M  V30 3883 H 365.6 1.21015 -0.98919 0
M  V30 3884 H 366.335 3.18782 0.59569 0
M  V30 3885 H 366.12 3.76909 -1.08083 0
M  V30 3886 H 367.61 4.17227 -0.176451 0
M  V30 3887 N 368.047 0.979072 1.23499 0
M  V30 3888 C 369.295 0.645941 1.91499 0
M  V30 3889 C 369.616 -0.822948 1.76784 0
M  V30 3890 O 368.886 -1.58854 1.14639 0
M  V30 3891 H 367.466 0.235919 0.708767 0
M  V30 3892 H 370.128 1.2426 1.50152 0
M  V30 3893 H 369.224 0.896411 2.9895 0
M  V30 3894 N 369.525 -1.3858 0.750561 0
M  V30 3895 C 370.75 -2.04997 0.314812 0
M  V30 3896 C 371.175 -1.56235 -1.04749 0
M  V30 3897 O 370.533 -0.712981 -1.66692 0
M  V30 3898 C 370.581 -3.58961 0.343415 0
M  V30 3899 O 369.685 -4.07025 -0.663628 0
M  V30 3900 H 369.026 -0.649081 0.139962 0
M  V30 3901 H 371.556 -1.77313 1.02084 0
M  V30 3902 H 371.566 -4.07542 0.193233 0
M  V30 3903 H 370.241 -3.93811 1.33738 0
M  V30 3904 H 368.818 -3.6982 -0.478307 0
M  V30 3905 N 371.003 -0.499398 -1.49478 0
M  V30 3906 C 372.249 0.0457576 -2.02748 0
M  V30 3907 C 372.582 1.36793 -1.37846 0
M  V30 3908 O 371.857 1.87596 -0.513601 0
M  V30 3909 C 372.14 0.199986 -3.59544 0
M  V30 3910 C 371.993 -1.1452 -4.34977 0
M  V30 3911 C 373.312 0.94137 -4.29914 0
M  V30 3912 H 370.431 0.0151552 -0.736844 0
M  V30 3913 H 373.073 -0.650498 -1.78518 0
M  V30 3914 H 371.223 0.793007 -3.8032 0
M  V30 3915 H 372.895 -1.77697 -4.25701 0
M  V30 3916 H 371.138 -1.73488 -3.97598 0
M  V30 3917 H 371.809 -0.990607 -5.43039 0
M  V30 3918 H 374.285 0.43844 -4.13784 0
M  V30 3919 H 373.161 1.01812 -5.39375 0
M  V30 3920 H 373.422 1.98471 -3.95046 0
M  V30 3921 N 372.481 1.55866 -0.233164 0
M  V30 3922 C 373.729 1.9821 0.394593 0
M  V30 3923 C 374.05 1.12234 1.59463 0
M  V30 3924 O 373.32 0.201981 1.94856 0
M  V30 3925 H 371.9 0.732034 0.148778 0
M  V30 3926 H 374.562 1.92107 -0.32876 0
M  V30 3927 H 373.658 3.03845 0.713063 0
M  V30 3928 N 373.959 -0.0401083 1.57549 0
M  V30 3929 C 375.205 -0.734211 1.89043 0
M  V30 3930 C 375.538 -1.75591 0.829535 0
M  V30 3931 O 374.813 -1.93868 -0.156706 0
M  V30 3932 C 375.096 -1.41374 3.31188 0
M  V30 3933 C 374.949 -0.406299 4.47961 0
M  V30 3934 C 376.268 -2.35061 3.72068 0
M  V30 3935 H 373.387 -0.265447 0.687537 0
M  V30 3936 H 376.029 0.00294087 1.9 0
M  V30 3937 H 374.179 -2.04206 3.30503 0
M  V30 3938 H 375.851 0.219255 4.60779 0
M  V30 3939 H 374.094 0.275485 4.32924 0
M  V30 3940 H 374.765 -0.920022 5.44279 0
M  V30 3941 H 377.241 -1.82282 3.74049 0
M  V30 3942 H 376.117 -2.79593 4.72355 0
M  V30 3943 H 376.378 -3.21258 3.0372 0
M  V30 3944 N 375.437 -1.54477 -0.31217 0
M  V30 3945 C 376.4 -1.83923 -1.36766 0
M  V30 3946 C 377.4 -0.711563 -1.44199 0
M  V30 3947 O 378.59 -0.979866 -1.44029 0
M  V30 3948 C 375.722 -2.0095 -2.75376 0
M  V30 3949 H 376.915 -2.78239 -1.11906 0
M  V30 3950 H 374.468 -1.46369 -0.548257 0
M  V30 3951 H 375.203 -1.08883 -3.05475 0
M  V30 3952 H 374.988 -2.83018 -2.71373 0
M  V30 3953 H 376.478 -2.2514 -3.51713 0
M  V30 3954 N 376.915 0.57481 -1.46744 0
M  V30 3955 C 378.331 0.898981 -1.31873 0
M  V30 3956 C 378.531 1.99313 -0.29605 0
M  V30 3957 O 377.587 2.50728 0.298621 0
M  V30 3958 C 378.9 1.30886 -2.7072 0
M  V30 3959 C 380.448 1.42127 -2.78871 0
M  V30 3960 C 380.923 1.86478 -4.18318 0
M  V30 3961 N 382.414 1.93658 -4.20774 0
M  V30 3962 C 383.149 2.29267 -5.2557 0
M  V30 3963 N 382.645 2.63612 -6.40688 0
M  V30 3964 N 384.438 2.29889 -5.1294 0
M  V30 3965 H 376.589 -0.147839 -2.11885 0
M  V30 3966 H 378.852 -0.00347013 -0.947994 0
M  V30 3967 H 378.558 0.578853 -3.46904 0
M  V30 3968 H 378.432 2.26874 -3.01343 0
M  V30 3969 H 380.819 2.14213 -2.0297 0
M  V30 3970 H 380.9 0.443705 -2.51922 0
M  V30 3971 H 380.544 1.14968 -4.94717 0
M  V30 3972 H 380.474 2.85207 -4.42679 0
M  V30 3973 H 382.965 1.69574 -3.37718 0
M  V30 3974 H 383.278 2.89759 -7.16421 0
M  V30 3975 H 381.623 2.61232 -6.44036 0
M  V30 3976 H 384.814 2.02485 -4.22039 0
M  V30 3977 H 384.987 2.57312 -5.94722 0
M  V30 3978 N 378.394 1.34581 0.820102 0
M  V30 3979 C 379.81 1.14325 1.11364 0
M  V30 3980 C 380.01 -0.0533648 2.01429 0
M  V30 3981 O 379.066 -0.728044 2.41776 0
M  V30 3982 C 380.379 2.43983 1.75764 0
M  V30 3983 C 381.927 2.50065 1.88246 0
M  V30 3984 C 382.402 3.79732 2.56061 0
M  V30 3985 N 383.893 3.80908 2.63558 0
M  V30 3986 C 384.628 4.77961 3.16766 0
M  V30 3987 N 384.124 5.85397 3.70517 0
M  V30 3988 N 385.917 4.65413 3.15194 0
M  V30 3989 H 378.068 2.11246 0.221096 0
M  V30 3990 H 380.331 0.934289 0.160649 0
M  V30 3991 H 380.037 3.31651 1.1705 0
M  V30 3992 H 379.911 2.57531 2.75604 0
M  V30 3993 H 382.298 1.62834 2.46108 0
M  V30 3994 H 382.379 2.40442 0.873006 0
M  V30 3995 H 382.023 4.67354 1.98853 0
M  V30 3996 H 381.953 3.86639 3.57516 0
M  V30 3997 H 384.444 3.03274 2.25463 0
M  V30 3998 H 384.757 6.55463 4.09376 0
M  V30 3999 H 383.102 5.89107 3.68752 0
M  V30 4000 H 386.293 3.80627 2.72471 0
M  V30 4001 H 386.466 5.41216 3.56356 0
M  V30 4002 N 379.872 -1.04064 1.18357 0
M  V30 4003 C 380.835 -2.10243 0.912707 0
M  V30 4004 C 381.835 -1.60477 -0.101928 0
M  V30 4005 O 383.025 -1.73703 0.131517 0
M  V30 4006 C 380.157 -3.38893 0.369387 0
M  V30 4007 H 381.35 -2.35706 1.85426 0
M  V30 4008 H 378.903 -1.20489 0.995594 0
M  V30 4009 H 379.638 -3.19094 -0.578776 0
M  V30 4010 H 379.423 -3.76331 1.1008 0
M  V30 4011 H 380.913 -4.17128 0.198575 0
M  V30 4012 N 381.35 -0.985608 -1.22978 0
M  V30 4013 C 382.28 -0.549649 -2.26939 0
M  V30 4014 C 383.261 0.419803 -1.64838 0
M  V30 4015 O 384.446 0.31203 -1.91677 0
M  V30 4016 C 381.576 0.143652 -3.47003 0
M  V30 4017 C 380.53 -0.743606 -4.21491 0
M  V30 4018 C 379.856 0.0822027 -5.34637 0
M  V30 4019 C 381.156 -2.03694 -4.80943 0
M  V30 4020 H 382.85 -1.41862 -2.63658 0
M  V30 4021 H 380.396 -0.683571 -1.26741 0
M  V30 4022 H 382.349 0.459985 -4.18882 0
M  V30 4023 H 381.073 1.04711 -3.09359 0
M  V30 4024 H 379.732 -1.04347 -3.51436 0
M  V30 4025 H 379.38 0.986359 -4.93234 0
M  V30 4026 H 379.08 -0.508377 -5.85397 0
M  V30 4027 H 380.604 0.392797 -6.09335 0
M  V30 4028 H 382.018 -1.78504 -5.44802 0
M  V30 4029 H 380.415 -2.57573 -5.42011 0
M  V30 4030 H 381.485 -2.72042 -4.01399 0
M  V30 4031 N 382.828 1.3818 -0.7579 0
M  V30 4032 C 384.105 1.94106 -0.241306 0
M  V30 4033 C 384.485 1.69282 1.26122 0
M  V30 4034 O 383.833 1.03378 2.03777 0
M  V30 4035 C 384.043 3.43809 -0.59967 0
M  V30 4036 C 385.391 4.20868 -0.561717 0
M  V30 4037 O 386.415 3.5211 -0.538222 0
M  V30 4038 O 385.274 5.43451 -0.576478 0
M  V30 4039 H 382.368 0.825376 -0.0518042 0
M  V30 4040 H 384.914 1.47548 -0.838315 0
M  V30 4041 H 383.686 3.55403 -1.6372 0
M  V30 4042 H 383.309 3.97592 0.0251197 0
M  V30 4043 N 384.306 0.507319 1.49211 0
M  V30 4044 C 385.216 -0.272136 2.33016 0
M  V30 4045 C 386.232 -0.961206 1.45041 0
M  V30 4046 O 387.408 -0.941191 1.78055 0
M  V30 4047 C 384.473 -1.31895 3.20631 0
M  V30 4048 C 383.534 -0.642648 4.24463 0
M  V30 4049 C 382.767 -1.63959 5.07891 0
M  V30 4050 O 382.99 -2.87007 4.92933 0
M  V30 4051 O 381.924 -1.19143 5.8999 0
M  V30 4052 H 385.75 0.413982 3.00865 0
M  V30 4053 H 383.335 0.268556 1.46966 0
M  V30 4054 H 385.217 -1.92446 3.7489 0
M  V30 4055 H 383.892 -1.98788 2.5547 0
M  V30 4056 H 382.799 0.00276252 3.741 0
M  V30 4057 H 384.132 -0.0160534 4.92197 0
M  V30 4058 N 385.784 -1.5574 0.241426 0
M  V30 4059 C 386.747 -2.19877 -0.647063 0
M  V30 4060 C 387.747 -1.16642 -1.10686 0
M  V30 4061 O 388.937 -1.41757 -1.01245 0
M  V30 4062 C 386.069 -2.83797 -1.88871 0
M  V30 4063 H 387.262 -2.99772 -0.087574 0
M  V30 4064 H 384.815 -1.56298 -0.00813574 0
M  V30 4065 H 385.55 -2.07824 -2.48957 0
M  V30 4066 H 385.335 -3.59414 -1.56728 0
M  V30 4067 H 386.825 -3.32898 -2.52129 0
M  V30 4068 N 387.262 0.0317525 -1.57568 0
M  V30 4069 C 388.678 0.38735 -1.54828 0
M  V30 4070 C 388.878 1.7677 -0.967187 0
M  V30 4071 O 387.934 2.45581 -0.587063 0
M  V30 4072 C 389.247 0.291667 -2.99282 0
M  V30 4073 C 390.795 0.368946 -3.10818 0
M  V30 4074 C 391.27 0.302741 -4.56998 0
M  V30 4075 N 392.761 0.361617 -4.61786 0
M  V30 4076 C 393.496 0.333238 -5.72431 0
M  V30 4077 N 392.992 0.257308 -6.92322 0
M  V30 4078 N 394.785 0.382769 -5.60795 0
M  V30 4079 H 386.936 -0.871609 -1.93692 0
M  V30 4080 H 389.199 -0.331161 -0.888277 0
M  V30 4081 H 388.905 -0.656794 -3.45513 0
M  V30 4082 H 388.779 1.08638 -3.61217 0
M  V30 4083 H 391.166 1.30784 -2.64536 0
M  V30 4084 H 391.247 -0.455066 -2.5172 0
M  V30 4085 H 390.891 -0.632473 -5.03947 0
M  V30 4086 H 390.821 1.14482 -5.14005 0
M  V30 4087 H 393.312 0.422923 -3.75526 0
M  V30 4088 H 393.625 0.24068 -7.72425 0
M  V30 4089 H 391.97 0.223396 -6.94641 0
M  V30 4090 H 395.161 0.44006 -4.66027 0
M  V30 4091 H 395.334 0.357184 -6.47015 0
M  V30 4092 N 388.74 1.54641 0.303973 0
M  V30 4093 C 389.687 1.85386 1.37479 0
M  V30 4094 C 390.657 0.702528 1.50512 0
M  V30 4095 O 391.842 0.950867 1.65418 0
M  V30 4096 C 388.982 2.10413 2.73533 0
M  V30 4097 C 388.095 3.38049 2.68974 0
M  V30 4098 C 387.23 3.52934 3.97002 0
M  V30 4099 C 386.269 4.74373 3.86829 0
M  V30 4100 N 385.406 4.8608 5.06627 0
M  V30 4101 H 390.246 2.76732 1.1056 0
M  V30 4102 H 387.783 1.37034 0.534805 0
M  V30 4103 H 389.741 2.22919 3.52652 0
M  V30 4104 H 388.371 1.22338 2.98719 0
M  V30 4105 H 387.423 3.3418 1.81736 0
M  V30 4106 H 388.735 4.27288 2.57346 0
M  V30 4107 H 387.889 3.65088 4.84557 0
M  V30 4108 H 386.628 2.61824 4.1146 0
M  V30 4109 H 385.633 4.62255 2.97658 0
M  V30 4110 H 386.858 5.66888 3.73918 0
M  V30 4111 H 384.804 3.97891 5.21554 0
M  V30 4112 H 384.721 5.69315 4.9741 0
M  V30 4113 H 385.989 5.02587 5.95841 0
M  V30 4114 N 390.218 -0.567019 1.47046 0
M  V30 4115 C 391.448 -1.34831 1.56538 0
M  V30 4116 C 391.856 -1.8802 0.21101 0
M  V30 4117 O 391.199 -1.65152 -0.804387 0
M  V30 4118 C 391.261 -2.56139 2.52256 0
M  V30 4119 C 390.925 -2.24307 3.98165 0
M  V30 4120 C 391.922 -1.82192 4.86931 0
M  V30 4121 C 389.607 -2.35968 4.43423 0
M  V30 4122 C 391.601 -1.52153 6.18973 0
M  V30 4123 C 389.288 -2.05542 5.75496 0
M  V30 4124 C 390.286 -1.63701 6.63092 0
M  V30 4125 O 389.974 -1.33657 7.92711 0
M  V30 4126 H 389.706 -0.417683 0.531523 0
M  V30 4127 H 392.26 -0.694726 1.93294 0
M  V30 4128 H 390.49 -3.24356 2.10548 0
M  V30 4129 H 392.179 -3.18214 2.51982 0
M  V30 4130 H 392.945 -1.72684 4.53217 0
M  V30 4131 H 388.824 -2.67495 3.75456 0
M  V30 4132 H 392.368 -1.19421 6.87302 0
M  V30 4133 H 388.265 -2.14679 6.08755 0
M  V30 4134 H 389.033 -1.4737 8.05124 0
M  V30 4135 N 391.696 -1.35014 -0.812953 0
M  V30 4136 C 392.659 -1.27292 -1.90602 0
M  V30 4137 C 393.659 -0.185817 -1.59723 0
M  V30 4138 O 394.849 -0.439102 -1.68575 0
M  V30 4139 C 391.981 -0.967676 -3.26877 0
M  V30 4140 H 393.174 -2.24479 -1.9887 0
M  V30 4141 H 390.727 -1.19446 -1.00808 0
M  V30 4142 H 391.462 0.0005954 -3.243 0
M  V30 4143 H 391.247 -1.75412 -3.50675 0
M  V30 4144 H 392.737 -0.939085 -4.06904 0
M  V30 4145 N 393.175 1.03435 -1.18907 0
M  V30 4146 C 394.122 2.11591 -0.921837 0
M  V30 4147 C 395.092 1.65499 0.141226 0
M  V30 4148 O 396.277 1.908 0.000242829 0
M  V30 4149 C 393.417 3.42012 -0.460616 0
M  V30 4150 C 392.53 4.01682 -1.58982 0
M  V30 4151 C 391.665 5.20091 -1.08069 0
M  V30 4152 C 390.704 5.71805 -2.18416 0
M  V30 4153 N 389.841 6.81494 -1.68849 0
M  V30 4154 H 394.681 2.33787 -1.8479 0
M  V30 4155 H 392.218 1.1467 -0.921373 0
M  V30 4156 H 394.176 4.16834 -0.174642 0
M  V30 4157 H 392.806 3.19944 0.428467 0
M  V30 4158 H 391.858 3.24127 -1.99113 0
M  V30 4159 H 393.17 4.36084 -2.4214 0
M  V30 4160 H 392.324 6.02051 -0.749615 0
M  V30 4161 H 391.063 4.87209 -0.218771 0
M  V30 4162 H 390.068 4.88461 -2.5236 0
M  V30 4163 H 391.293 6.06728 -3.05054 0
M  V30 4164 H 389.239 6.50475 -0.849572 0
M  V30 4165 H 389.156 7.14994 -2.45601 0
M  V30 4166 H 390.424 7.67063 -1.38689 0
M  V30 4167 N 394.653 0.992116 1.22453 0
M  V30 4168 C 395.563 0.55065 2.28046 0
M  V30 4169 C 396.579 -0.400189 1.69335 0
M  V30 4170 O 397.755 -0.267215 1.99619 0
M  V30 4171 C 394.82 -0.128496 3.46462 0
M  V30 4172 C 393.881 0.865208 4.20491 0
M  V30 4173 C 393.114 0.218377 5.33253 0
M  V30 4174 O 393.337 -0.987894 5.6178 0
M  V30 4175 O 392.271 0.922845 5.94783 0
M  V30 4176 H 396.097 1.4291 2.67975 0
M  V30 4177 H 393.682 0.760326 1.28606 0
M  V30 4178 H 395.564 -0.508947 4.18315 0
M  V30 4179 H 394.239 -0.981526 3.0846 0
M  V30 4180 H 393.146 1.29658 3.50913 0
M  V30 4181 H 394.479 1.68741 4.62371 0
M  V30 4182 N 396.131 -1.37776 0.765217 0
M  V30 4183 C 397.547 -1.53297 0.444108 0
M  V30 4184 C 397.747 -1.72515 -1.04119 0
M  V30 4185 O 396.803 -1.74278 -1.82711 0
M  V30 4186 C 398.116 -2.73328 1.25349 0
M  V30 4187 C 399.664 -2.87185 1.24473 0
M  V30 4188 C 400.139 -4.10191 2.03733 0
M  V30 4189 N 401.63 -4.17291 2.01053 0
M  V30 4190 C 402.365 -5.11488 2.59166 0
M  V30 4191 N 401.861 -6.11285 3.26041 0
M  V30 4192 N 403.654 -5.03924 2.49032 0
M  V30 4193 H 395.805 -1.23552 1.72768 0
M  V30 4194 H 398.068 -0.601103 0.733062 0
M  V30 4195 H 397.774 -2.6557 2.30577 0
M  V30 4196 H 397.648 -3.66834 0.87823 0
M  V30 4197 H 400.035 -2.94418 0.20047 0
M  V30 4198 H 400.116 -1.94657 1.65959 0
M  V30 4199 H 399.76 -4.0372 3.08176 0
M  V30 4200 H 399.69 -5.01821 1.59633 0
M  V30 4201 H 402.181 -3.45825 1.5236 0
M  V30 4202 H 402.494 -6.79678 3.67774 0
M  V30 4203 H 400.839 -6.11583 3.30138 0
M  V30 4204 H 404.03 -4.24902 1.96407 0
M  V30 4205 H 404.203 -5.77152 2.94617 0
M  V30 4206 N 397.609 -0.515225 -1.4894 0
M  V30 4207 C 398.541 0.292481 -2.27326 0
M  V30 4208 C 399.554 0.917838 -1.3446 0
M  V30 4209 O 400.743 0.798772 -1.5963 0
M  V30 4210 C 397.843 1.42803 -3.07344 0
M  V30 4211 C 397.016 0.907347 -4.27885 0
M  V30 4212 C 396.075 1.92222 -4.89834 0
M  V30 4213 O 395.101 1.48506 -5.49486 0
M  V30 4214 N 396.303 3.25355 -4.80754 0
M  V30 4215 H 399.068 -0.379721 -2.97285 0
M  V30 4216 H 396.629 -0.348638 -1.58102 0
M  V30 4217 H 398.621 2.10481 -3.45658 0
M  V30 4218 H 397.191 2.00414 -2.39902 0
M  V30 4219 H 396.411 0.0550218 -3.94162 0
M  V30 4220 H 397.699 0.538108 -5.05946 0
M  V30 4221 H 397.097 3.6355 -4.33414 0
M  V30 4222 H 395.654 3.88707 -5.23211 0
M  V30 4223 N 399.087 1.5561 -0.249682 0
M  V30 4224 C 400.05 2.20217 0.635394 0
M  V30 4225 C 401.05 1.17227 1.10066 0
M  V30 4226 O 402.24 1.42292 1.00492 0
M  V30 4227 C 399.372 2.84794 1.87363 0
M  V30 4228 H 400.565 2.99814 0.0716752 0
M  V30 4229 H 398.118 1.563 -0.000153234 0
M  V30 4230 H 398.853 2.09142 2.47851 0
M  V30 4231 H 398.638 3.60241 1.5482 0
M  V30 4232 H 400.128 3.3423 2.5036 0
M  V30 4233 N 400.565 -0.0233959 1.57583 0
M  V30 4234 C 401.812 -0.713063 1.8953 0
M  V30 4235 C 402.14 -1.75056 0.847673 0
M  V30 4236 O 401.395 -1.95119 -0.150636 0
M  V30 4237 C 401.694 -1.41428 3.28227 0
M  V30 4238 C 401.36 -0.512222 4.47981 0
M  V30 4239 C 400.022 -0.263785 4.80476 0
M  V30 4240 C 402.374 0.110248 5.21083 0
M  V30 4241 C 399.702 0.615804 5.83459 0
M  V30 4242 C 402.054 0.977573 6.25001 0
M  V30 4243 C 400.718 1.23542 6.55968 0
M  V30 4244 H 399.988 -0.260928 0.69354 0
M  V30 4245 H 402.635 0.0271047 1.91481 0
M  V30 4246 H 400.94 -2.22791 3.22291 0
M  V30 4247 H 402.637 -1.95355 3.50196 0
M  V30 4248 H 399.227 -0.716013 4.22577 0
M  V30 4249 H 403.411 -0.0687137 4.96252 0
M  V30 4250 H 398.667 0.82382 6.05824 0
M  V30 4251 H 402.841 1.46638 6.80786 0
M  V30 4252 H 400.468 1.91871 7.35588 0
M  V30 4253 N 402.043 -1.548 -0.295768 0
M  V30 4254 C 403.291 -1.73985 -1.02828 0
M  V30 4255 C 403.612 -0.531406 -1.87619 0
M  V30 4256 O 402.882 0.454221 -1.90561 0
M  V30 4257 H 401.462 -0.641556 -0.382642 0
M  V30 4258 H 404.124 -1.92163 -0.325489 0
M  V30 4259 H 403.22 -2.63129 -1.67838 0
M  V30 4260 N 403.521 0.559213 -1.47345 0
M  V30 4261 C 404.453 1.68161 -1.55738 0
M  V30 4262 C 405.466 1.56636 -0.443744 0
M  V30 4263 O 406.655 1.6363 -0.713258 0
M  V30 4264 C 403.755 3.06611 -1.4437 0
M  V30 4265 C 402.928 3.4391 -2.70268 0
M  V30 4266 C 401.987 4.61515 -2.52765 0
M  V30 4267 O 401.013 4.66197 -3.26572 0
M  V30 4268 N 402.215 5.57883 -1.6046 0
M  V30 4269 H 404.98 1.61408 -2.52522 0
M  V30 4270 H 402.541 0.7458 -1.43699 0
M  V30 4271 H 404.533 3.83117 -1.30398 0
M  V30 4272 H 403.103 3.07602 -0.556766 0
M  V30 4273 H 402.323 2.56873 -2.99015 0
M  V30 4274 H 403.611 3.65605 -3.53851 0
M  V30 4275 H 403.009 5.56855 -0.996422 0
M  V30 4276 H 401.566 6.33723 -1.52441 0
M  V30 4277 N 404.999 1.35443 0.805782 0
M  V30 4278 C 406.41 1.25768 1.37983 0
M  V30 4279 C 406.761 -0.10958 1.95894 0
M  V30 4280 O 405.886 -1.01056 1.91355 0
M  V30 4281 C 406.481 2.27727 2.5085 0
M  V30 4282 C 405.04 2.2179 3.04115 0
M  V30 4283 C 404.187 2.13393 1.77084 0
M  V30 4284 H 407.138 1.4656 0.608752 0
M  V30 4285 H 407.159 1.90422 3.29424 0
M  V30 4286 H 406.671 3.27227 2.08671 0
M  V30 4287 H 404.772 1.25703 3.50756 0
M  V30 4288 H 404.885 3.13788 3.62042 0
M  V30 4289 H 403.249 1.59384 1.98668 0
M  V30 4290 H 404.032 3.14755 1.37056 0
M  V30 4291 N 406.477 -1.02803 1.19454 0
M  V30 4292 C 407.726 -1.7562 0.991996 0
M  V30 4293 C 408.039 -1.89672 -0.477901 0
M  V30 4294 O 409.245 -2.59468 -0.799287 0
M  V30 4295 C 407.701 -3.15812 1.72601 0
M  V30 4296 C 407.309 -3.0981 3.23607 0
M  V30 4297 C 409.053 -3.92918 1.60674 0
M  V30 4298 C 406.96 -4.44939 3.89594 0
M  V30 4299 H 405.89 -0.658352 0.367543 0
M  V30 4300 H 408.541 -1.15044 1.42959 0
M  V30 4301 H 406.923 -3.7686 1.21624 0
M  V30 4302 H 408.097 -2.58138 3.81709 0
M  V30 4303 H 406.412 -2.46201 3.35819 0
M  V30 4304 H 409.009 -4.9287 2.07323 0
M  V30 4305 H 409.352 -4.12502 0.561025 0
M  V30 4306 H 409.885 -3.38472 2.09001 0
M  V30 4307 H 406.624 -4.30559 4.94267 0
M  V30 4308 H 406.144 -4.96664 3.36281 0
M  V30 4309 H 407.823 -5.1382 3.93189 0
M  V30 4310 N 407.956 -0.998596 -1.21925 0
M  V30 4311 C 408.919 -0.558679 -2.22287 0
M  V30 4312 C 409.919 0.361525 -1.56683 0
M  V30 4313 O 411.109 0.152695 -1.73529 0
M  V30 4314 C 408.241 0.18661 -3.40389 0
M  V30 4315 H 409.434 -1.4463 -2.62721 0
M  V30 4316 H 406.987 -0.786413 -1.35075 0
M  V30 4317 H 407.722 1.08996 -3.05435 0
M  V30 4318 H 407.507 -0.474188 -3.89222 0
M  V30 4319 H 408.997 0.482367 -4.14805 0
M  V30 4320 N 409.434 1.37368 -0.772513 0
M  V30 4321 C 410.382 2.32134 -0.147111 0
M  V30 4322 C 411.376 1.54972 0.684106 0
M  V30 4323 O 412.582 1.70363 0.581083 0
M  V30 4324 H 408.957 0.751449 -0.028786 0
M  V30 4325 H 410.928 2.82464 -0.962112 0
M  V30 4326 C 409.677 3.40226 0.71703 0
M  V30 4327 H 409 3.99706 0.0867951 0
M  V30 4328 H 410.44 4.08897 1.12159 0
M  V30 4329 C 408.899 2.80372 1.86797 0
M  V30 4330 O 409.429 2.71183 2.96349 0
M  V30 4331 N 407.635 2.37904 1.66883 0
M  V30 4332 H 407.182 2.45578 0.777759 0
M  V30 4333 H 407.14 1.98202 2.44056 0
M  V30 4334 N 410.912 0.523116 1.48665 0
M  V30 4335 C 412.159 -0.0134763 2.02496 0
M  V30 4336 C 412.487 -1.3493 1.40086 0
M  V30 4337 O 411.742 -1.88286 0.533567 0
M  V30 4338 C 412.041 -0.191671 3.56886 0
M  V30 4339 C 411.707 1.06893 4.38046 0
M  V30 4340 C 410.369 1.41443 4.59943 0
M  V30 4341 C 412.721 1.90584 4.85106 0
M  V30 4342 C 410.049 2.59594 5.26144 0
M  V30 4343 C 412.401 3.07907 5.52609 0
M  V30 4344 C 411.065 3.42811 5.72745 0
M  V30 4345 H 410.335 -0.00493133 0.740984 0
M  V30 4346 H 412.982 0.687751 1.78724 0
M  V30 4347 H 411.287 -0.97561 3.79459 0
M  V30 4348 H 412.984 -0.621659 3.96152 0
M  V30 4349 H 409.574 0.789848 4.21259 0
M  V30 4350 H 413.758 1.65203 4.67997 0
M  V30 4351 H 409.014 2.86847 5.39934 0
M  V30 4352 H 413.188 3.73066 5.88043 0
M  V30 4353 H 410.815 4.34462 6.23816 0
M  V30 4354 N 412.39 -1.55475 0.257931 0
M  V30 4355 C 413.322 -2.19192 -0.669881 0
M  V30 4356 C 414.335 -1.17148 -1.1305 0
M  V30 4357 O 415.524 -1.43959 -1.05537 0
M  V30 4358 C 412.624 -2.79016 -1.92363 0
M  V30 4359 C 411.797 -4.06586 -1.61265 0
M  V30 4360 C 410.856 -4.50622 -2.7171 0
M  V30 4361 O 409.882 -5.16765 -2.38627 0
M  V30 4362 N 411.084 -4.19325 -4.01431 0
M  V30 4363 H 413.849 -2.99441 -0.124635 0
M  V30 4364 H 411.41 -1.6171 0.0783311 0
M  V30 4365 H 413.402 -3.05427 -2.65511 0
M  V30 4366 H 411.972 -2.0286 -2.37837 0
M  V30 4367 H 411.192 -3.87646 -0.715811 0
M  V30 4368 H 412.48 -4.89737 -1.37967 0
M  V30 4369 H 411.878 -3.66247 -4.31138 0
M  V30 4370 H 410.435 -4.50547 -4.7101 0
M  V30 4371 N 413.868 0.0150385 -1.57593 0
M  V30 4372 C 414.831 0.995996 -2.06428 0
M  V30 4373 C 415.831 1.2818 -0.970903 0
M  V30 4374 O 417.021 1.22949 -1.23406 0
M  V30 4375 C 414.153 2.32506 -2.49307 0
M  V30 4376 H 415.346 0.573873 -2.94358 0
M  V30 4377 H 412.899 0.262186 -1.54085 0
M  V30 4378 H 413.634 2.79438 -1.64575 0
M  V30 4379 H 413.419 2.13087 -3.29145 0
M  V30 4380 H 414.909 3.02906 -2.87468 0
M  V30 4381 N 415.346 1.54954 0.287554 0
M  V30 4382 C 416.595 1.74081 1.01877 0
M  V30 4383 C 416.908 0.541135 1.87966 0
M  V30 4384 O 418.114 0.614491 2.64455 0
M  V30 4385 C 416.57 3.08042 1.86113 0
M  V30 4386 C 416.178 4.35531 1.04961 0
M  V30 4387 C 417.922 3.36523 2.58752 0
M  V30 4388 C 415.829 5.60538 1.88551 0
M  V30 4389 H 414.759 0.64884 0.384087 0
M  V30 4390 H 417.41 1.81426 0.275101 0
M  V30 4391 H 415.792 2.94696 2.64519 0
M  V30 4392 H 416.966 4.59751 0.31074 0
M  V30 4393 H 415.281 4.14085 0.43843 0
M  V30 4394 H 417.878 4.27122 3.21668 0
M  V30 4395 H 418.221 2.56 3.28283 0
M  V30 4396 H 418.754 3.50901 1.87386 0
M  V30 4397 H 415.493 6.43767 1.23466 0
M  V30 4398 H 415.013 5.40483 2.60074 0
M  V30 4399 H 416.692 5.98297 2.46273 0
M  V30 4400 N 416.824 -0.551391 1.4764 0
M  V30 4401 C 417.756 -1.67333 1.56628 0
M  V30 4402 C 418.769 -1.56398 0.452045 0
M  V30 4403 O 419.958 -1.6325 0.721926 0
M  V30 4404 C 417.058 -3.05841 1.45994 0
M  V30 4405 C 416.231 -3.42472 2.72088 0
M  V30 4406 C 415.29 -4.60168 2.55209 0
M  V30 4407 O 414.316 -4.64458 3.2904 0
M  V30 4408 N 415.518 -5.57024 1.63416 0
M  V30 4409 H 418.283 -1.60066 2.53375 0
M  V30 4410 H 415.844 -0.738169 1.44093 0
M  V30 4411 H 417.836 -3.8242 1.32428 0
M  V30 4412 H 416.406 -3.07302 0.573071 0
M  V30 4413 H 415.626 -2.55284 3.00373 0
M  V30 4414 H 416.914 -3.63723 3.55785 0
M  V30 4415 H 416.312 -5.56319 1.02594 0
M  V30 4416 H 414.869 -6.32906 1.558 0
M  V30 4417 N 418.302 -1.35869 -0.798587 0
M  V30 4418 C 419.549 -1.29588 -1.55606 0
M  V30 4419 C 419.877 0.127456 -1.94082 0
M  V30 4420 O 419.132 1.09461 -1.62225 0
M  V30 4421 C 419.431 -2.1556 -2.85077 0
M  V30 4422 C 419.097 -3.6424 -2.65781 0
M  V30 4423 C 417.759 -4.04766 -2.60227 0
M  V30 4424 C 420.111 -4.58547 -2.47758 0
M  V30 4425 C 417.439 -5.37753 -2.34603 0
M  V30 4426 C 419.791 -5.91742 -2.23662 0
M  V30 4427 C 418.455 -6.31402 -2.16534 0
M  V30 4428 H 417.725 -0.474197 -0.569402 0
M  V30 4429 H 420.372 -1.67839 -0.922086 0
M  V30 4430 H 418.677 -1.70216 -3.52893 0
M  V30 4431 H 420.374 -2.08031 -3.42818 0
M  V30 4432 H 416.964 -3.32086 -2.70956 0
M  V30 4433 H 421.148 -4.28117 -2.51056 0
M  V30 4434 H 416.404 -5.67474 -2.2756 0
M  V30 4435 H 420.578 -6.6439 -2.08708 0
M  V30 4436 H 418.205 -7.34381 -1.96441 0
M  V30 4437 N 419.78 1.02168 -1.19998 0
M  V30 4438 C 420.727 2.10601 -0.944228 0
M  V30 4439 C 421.697 1.65639 0.123664 0
M  V30 4440 O 422.882 1.9079 -0.0199941 0
M  V30 4441 C 420.022 3.41504 -0.496865 0
M  V30 4442 C 419.135 3.99973 -1.63234 0
M  V30 4443 C 418.27 5.18915 -1.13579 0
M  V30 4444 C 417.309 5.69456 -2.24468 0
M  V30 4445 N 416.446 6.79665 -1.76068 0
M  V30 4446 H 421.286 2.31814 -1.8726 0
M  V30 4447 H 418.823 1.13686 -0.933483 0
M  V30 4448 H 420.781 4.16626 -0.218843 0
M  V30 4449 H 419.411 3.2038 0.394508 0
M  V30 4450 H 418.463 3.21997 -2.0254 0
M  V30 4451 H 419.775 4.33492 -2.46752 0
M  V30 4452 H 418.929 6.01222 -0.813429 0
M  V30 4453 H 417.668 4.8695 -0.270434 0
M  V30 4454 H 416.673 4.85757 -2.57526 0
M  V30 4455 H 417.898 6.03459 -3.11472 0
M  V30 4456 H 415.844 6.49538 -0.918516 0
M  V30 4457 H 415.761 7.12349 -2.5317 0
M  V30 4458 H 417.029 7.65549 -1.46817 0
M  V30 4459 N 421.258 1.00505 1.21394 0
M  V30 4460 C 422.188 0.585684 2.26035 0
M  V30 4461 C 423.169 -0.393525 1.65485 0
M  V30 4462 O 424.354 -0.281497 1.92149 0
M  V30 4463 C 421.484 -0.0884283 3.47187 0
M  V30 4464 C 420.438 0.810567 4.20254 0
M  V30 4465 C 419.764 0.00286382 5.347 0
M  V30 4466 C 421.064 2.1132 4.77641 0
M  V30 4467 H 422.758 1.46039 2.61368 0
M  V30 4468 H 420.304 0.703648 1.25638 0
M  V30 4469 H 422.257 -0.393286 4.19561 0
M  V30 4470 H 420.981 -0.997766 3.10986 0
M  V30 4471 H 419.64 1.09925 3.49731 0
M  V30 4472 H 419.288 -0.907765 4.94741 0
M  V30 4473 H 418.988 0.601444 5.84514 0
M  V30 4474 H 420.512 -0.295808 6.09883 0
M  V30 4475 H 421.926 1.87148 5.41893 0
M  V30 4476 H 420.323 2.66164 5.37845 0
M  V30 4477 H 421.393 2.78393 3.9702 0
M  V30 4478 N 422.737 -1.36956 0.779787 0
M  V30 4479 C 423.7 -2.2851 0.177662 0
M  V30 4480 C 424.7 -1.48393 -0.619377 0
M  V30 4481 O 425.89 -1.68505 -0.441785 0
M  V30 4482 C 423.022 -3.32428 -0.755279 0
M  V30 4483 H 424.215 -2.83269 0.984823 0
M  V30 4484 H 421.768 -1.46358 0.548544 0
M  V30 4485 H 422.503 -2.82808 -1.58714 0
M  V30 4486 H 422.288 -3.91659 -0.185817 0
M  V30 4487 H 423.778 -4.00824 -1.17174 0
M  V30 4488 N 424.215 -0.530993 -1.48385 0
M  V30 4489 C 425.492 0.0671788 -1.95485 0
M  V30 4490 C 425.872 1.51191 -1.47324 0
M  V30 4491 O 425.22 2.17507 -0.700202 0
M  V30 4492 C 425.43 -0.0511206 -3.48963 0
M  V30 4493 C 426.778 0.107632 -4.24464 0
M  V30 4494 O 427.802 0.0226248 -3.56193 0
M  V30 4495 O 426.661 0.285972 -5.45751 0
M  V30 4496 H 423.755 0.0787365 -0.823243 0
M  V30 4497 H 426.301 -0.595662 -1.58902 0
M  V30 4498 H 425.073 -1.05747 -3.7674 0
M  V30 4499 H 424.696 0.650525 -3.92242 0
M  V30 4500 N 425.693 1.55336 -0.266172 0
M  V30 4501 C 426.626 2.18256 0.666296 0
M  V30 4502 C 427.604 1.14064 1.1588 0
M  V30 4503 O 428.788 1.42546 1.23341 0
M  V30 4504 C 425.915 2.79867 1.90768 0
M  V30 4505 C 424.961 3.97283 1.55141 0
M  V30 4506 S 425.794 5.31694 0.637313 0
M  V30 4507 C 426.95 5.96769 1.88727 0
M  V30 4508 H 427.183 2.97008 0.131647 0
M  V30 4509 H 424.716 1.54317 -0.0504869 0
M  V30 4510 H 426.674 3.15996 2.62025 0
M  V30 4511 H 425.335 2.01025 2.41346 0
M  V30 4512 H 424.528 4.3905 2.4749 0
M  V30 4513 H 424.13 3.6253 0.919113 0
M  V30 4514 H 426.422 6.15458 2.83227 0
M  V30 4515 H 427.365 6.91752 1.51276 0
M  V30 4516 H 427.773 5.26034 2.04814 0
M  V30 4517 N 427.171 -0.0066808 1.57599 0
M  V30 4518 C 428.101 -0.999296 2.11036 0
M  V30 4519 C 429.082 -1.36278 1.01795 0
M  V30 4520 O 430.267 -1.4477 1.29442 0
M  V30 4521 C 427.397 -2.29328 2.60818 0
M  V30 4522 C 426.351 -2.07159 3.74525 0
M  V30 4523 C 425.677 -3.42512 4.10596 0
M  V30 4524 C 426.977 -1.43959 5.02069 0
M  V30 4525 H 428.671 -0.554382 2.94223 0
M  V30 4526 H 426.217 -0.265221 1.41536 0
M  V30 4527 H 428.17 -2.99117 2.96828 0
M  V30 4528 H 426.894 -2.7592 1.74745 0
M  V30 4529 H 425.553 -1.39797 3.38899 0
M  V30 4530 H 425.201 -3.86795 3.21556 0
M  V30 4531 H 424.901 -3.28498 4.87199 0
M  V30 4532 H 426.425 -4.13628 4.4916 0
M  V30 4533 H 427.839 -2.03696 5.35893 0
M  V30 4534 H 426.236 -1.40452 5.83432 0
M  V30 4535 H 427.306 -0.407992 4.83181 0
M  V30 4536 N 428.649 -1.55105 -0.279332 0
M  V30 4537 C 429.898 -1.74618 -1.00952 0
M  V30 4538 C 430.211 -0.551096 -1.87676 0
M  V30 4539 O 431.417 -0.628507 -2.64125 0
M  V30 4540 C 429.873 -3.09025 -1.84476 0
M  V30 4541 C 429.481 -4.36081 -1.0265 0
M  V30 4542 C 431.225 -3.37891 -2.56963 0
M  V30 4543 C 429.132 -5.6153 -1.85576 0
M  V30 4544 H 428.062 -0.650868 -0.38064 0
M  V30 4545 H 430.713 -1.81569 -0.265475 0
M  V30 4546 H 429.095 -2.96095 -2.62952 0
M  V30 4547 H 430.269 -4.59909 -0.286354 0
M  V30 4548 H 428.584 -4.14312 -0.416464 0
M  V30 4549 H 431.181 -4.28822 -3.19399 0
M  V30 4550 H 431.524 -2.57737 -3.26921 0
M  V30 4551 H 432.057 -3.5189 -1.85522 0
M  V30 4552 H 428.796 -6.44413 -1.2005 0
M  V30 4553 H 428.316 -5.41854 -2.57204 0
M  V30 4554 H 429.995 -5.99594 -2.43096 0
M  V30 4555 N 430.127 0.543554 -1.4793 0
M  V30 4556 C 431.375 1.29752 -1.54948 0
M  V30 4557 C 431.696 1.93764 -0.219242 0
M  V30 4558 O 430.966 1.80639 0.75805 0
M  V30 4559 H 429.546 0.481874 -0.570795 0
M  V30 4560 H 432.208 0.633636 -1.84312 0
M  V30 4561 H 431.304 2.08392 -2.32334 0
M  V30 4562 N 431.605 1.3629 0.791371 0
M  V30 4563 C 432.854 1.29742 1.54434 0
M  V30 4564 C 433.167 -0.121729 1.95221 0
M  V30 4565 O 434.373 -0.309579 2.69729 0
M  V30 4566 C 432.829 2.27623 2.78776 0
M  V30 4567 C 432.437 3.74963 2.45166 0
M  V30 4568 C 434.181 2.30047 3.56761 0
M  V30 4569 C 432.088 4.64626 3.65891 0
M  V30 4570 H 431.018 0.482113 0.579727 0
M  V30 4571 H 433.669 1.61642 0.868565 0
M  V30 4572 H 432.051 1.88714 3.48142 0
M  V30 4573 H 433.225 4.22596 1.83709 0
M  V30 4574 H 431.54 3.75295 1.80396 0
M  V30 4575 H 434.137 2.94247 4.46456 0
M  V30 4576 H 434.48 1.30846 3.95203 0
M  V30 4577 H 435.013 2.67563 2.94372 0
M  V30 4578 H 431.752 5.64883 3.32547 0
M  V30 4579 H 431.272 4.2171 4.26521 0
M  V30 4580 H 432.951 4.80801 4.32943 0
M  V30 4581 N 433.083 -1.0153 1.20538 0
M  V30 4582 C 433.993 -2.13557 0.971113 0
M  V30 4583 C 435.009 -1.73845 -0.0734366 0
M  V30 4584 O 436.185 -2.01075 0.114299 0
M  V30 4585 C 433.25 -3.42661 0.527639 0
M  V30 4586 C 432.311 -3.96608 1.64319 0
M  V30 4587 C 431.544 -5.1955 1.22078 0
M  V30 4588 O 431.767 -5.70329 0.0900198 0
M  V30 4589 O 430.701 -5.66681 2.02871 0
M  V30 4590 H 434.527 -2.3619 1.90913 0
M  V30 4591 H 432.112 -1.11946 0.989362 0
M  V30 4592 H 433.994 -4.20404 0.289621 0
M  V30 4593 H 432.669 -3.21441 -0.381779 0
M  V30 4594 H 431.576 -3.20139 1.93551 0
M  V30 4595 H 432.909 -4.22219 2.52966 0
M  V30 4596 N 434.561 -1.01147 -1.20859 0
M  V30 4597 C 435.789 -0.716911 -1.94082 0
M  V30 4598 C 436.204 0.721568 -1.74467 0
M  V30 4599 O 435.561 1.48889 -1.05539 0
M  V30 4600 C 435.612 -1.03662 -3.46318 0
M  V30 4601 O 435.333 -2.4186 -3.65288 0
M  V30 4602 C 436.834 -0.762386 -4.36695 0
M  V30 4603 H 434.054 -0.26367 -0.617024 0
M  V30 4604 H 436.598 -1.35127 -1.53496 0
M  V30 4605 H 434.753 -0.447757 -3.84804 0
M  V30 4606 H 435.167 -2.53224 -4.59323 0
M  V30 4607 H 436.641 -1.03621 -5.42187 0
M  V30 4608 H 437.118 0.303514 -4.3815 0
M  V30 4609 H 437.724 -1.33316 -4.03865 0
M  V30 4610 N 436.039 1.36541 -0.78704 0
M  V30 4611 C 437.002 2.28413 -0.189778 0
M  V30 4612 C 438.002 1.48719 0.611499 0
M  V30 4613 O 439.192 1.68737 0.432842 0
M  V30 4614 C 436.324 3.32824 0.737638 0
M  V30 4615 H 437.517 2.82743 -0.999831 0
M  V30 4616 H 435.07 1.46065 -0.556298 0
M  V30 4617 H 435.805 2.83646 1.57212 0
M  V30 4618 H 435.59 3.91752 0.165044 0
M  V30 4619 H 437.08 4.0144 1.15047 0
M  V30 4620 N 437.518 0.538854 1.48102 0
M  V30 4621 C 438.934 0.19732 1.58376 0
M  V30 4622 C 439.134 -1.29971 1.5398 0
M  V30 4623 O 438.19 -2.07861 1.43352 0
M  V30 4624 C 439.503 0.807716 2.89649 0
M  V30 4625 C 441.051 0.77726 3.03196 0
M  V30 4626 C 441.526 1.36639 4.37143 0
M  V30 4627 N 443.017 1.32875 4.43732 0
M  V30 4628 C 443.752 1.7544 5.45901 0
M  V30 4629 N 443.248 2.25776 6.54979 0
M  V30 4630 N 445.041 1.66623 5.36836 0
M  V30 4631 H 437.192 1.5117 1.49202 0
M  V30 4632 H 439.455 0.629327 0.708979 0
M  V30 4633 H 439.161 1.85909 2.98548 0
M  V30 4634 H 439.035 0.289975 3.76084 0
M  V30 4635 H 441.422 -0.265374 2.93904 0
M  V30 4636 H 441.503 1.33256 2.18349 0
M  V30 4637 H 441.147 2.408 4.47189 0
M  V30 4638 H 441.077 0.786689 5.20691 0
M  V30 4639 H 443.568 0.96037 3.65493 0
M  V30 4640 H 443.881 2.56226 7.29087 0
M  V30 4641 H 442.226 2.29775 6.55918 0
M  V30 4642 H 445.417 1.27089 4.50517 0
M  V30 4643 H 445.59 2.00115 6.16326 0
M  V30 4644 N 438.996 -1.55193 0.274407 0
M  V30 4645 C 439.929 -2.18606 -0.654712 0
M  V30 4646 C 440.907 -1.14677 -1.15273 0
M  V30 4647 O 442.091 -1.43198 -1.22583 0
M  V30 4648 C 439.218 -2.80875 -1.89281 0
M  V30 4649 C 438.264 -3.981 -1.53032 0
M  V30 4650 S 439.097 -5.32025 -0.609107 0
M  V30 4651 C 440.253 -5.97761 -1.85559 0
M  V30 4652 H 440.486 -2.97074 -0.115894 0
M  V30 4653 H 438.019 -1.54288 0.05867 0
M  V30 4654 H 439.977 -3.17381 -2.60345 0
M  V30 4655 H 438.638 -2.02302 -2.40277 0
M  V30 4656 H 437.831 -4.40356 -2.45158 0
M  V30 4657 H 437.433 -3.63013 -0.899874 0
M  V30 4658 H 439.725 -6.16951 -2.7996 0
M  V30 4659 H 440.668 -6.92545 -1.47605 0
M  V30 4660 H 441.076 -5.27113 -2.02021 0
M  V30 4661 N 440.474 -0.00167713 -1.576 0
M  V30 4662 C 441.704 0.692754 -1.94639 0
M  V30 4663 C 442.112 1.67744 -0.87513 0
M  V30 4664 O 441.455 1.8305 0.154382 0
M  V30 4665 C 441.517 1.47881 -3.27676 0
M  V30 4666 C 441.181 0.655518 -4.52274 0
M  V30 4667 C 442.178 -0.0575214 -5.19868 0
M  V30 4668 C 439.863 0.600994 -4.98692 0
M  V30 4669 C 441.857 -0.814052 -6.3218 0
M  V30 4670 C 439.544 -0.15926 -6.10892 0
M  V30 4671 C 440.542 -0.865515 -6.77494 0
M  V30 4672 O 440.23 -1.61336 -7.87544 0
M  V30 4673 H 439.962 0.197792 -0.646417 0
M  V30 4674 H 442.516 -0.049423 -2.05341 0
M  V30 4675 H 440.746 2.2655 -3.13388 0
M  V30 4676 H 442.435 2.05874 -3.49816 0
M  V30 4677 H 443.201 -0.0245611 -4.84994 0
M  V30 4678 H 439.08 1.14025 -4.46676 0
M  V30 4679 H 442.624 -1.36584 -6.84098 0
M  V30 4680 H 438.521 -0.194035 -6.45208 0
M  V30 4681 H 439.289 -1.53025 -8.04068 0
M  V30 4682 N 441.952 1.55251 0.271103 0
M  V30 4683 C 443.18 1.79974 1.02064 0
M  V30 4684 C 443.595 0.574003 1.79863 0
M  V30 4685 O 442.952 -0.456962 1.76686 0
M  V30 4686 C 443.003 3.02603 1.97772 0
M  V30 4687 O 442.724 4.20443 1.23124 0
M  V30 4688 C 444.225 3.39944 2.84522 0
M  V30 4689 H 441.445 0.599489 0.301419 0
M  V30 4690 H 443.989 2.02268 0.301313 0
M  V30 4691 H 442.144 2.8243 2.65165 0
M  V30 4692 H 442.558 4.89783 1.87651 0
M  V30 4693 H 444.032 4.28915 3.47471 0
M  V30 4694 H 444.509 2.59432 3.54389 0
M  V30 4695 H 445.115 3.62383 2.22618 0
M  V30 4696 N 443.43 -0.535701 1.48216 0
M  V30 4697 C 444.66 -1.3148 1.59363 0
M  V30 4698 C 445.068 -1.8753 0.250844 0
M  V30 4699 O 444.411 -1.66821 -0.769174 0
M  V30 4700 C 444.473 -2.50731 2.57632 0
M  V30 4701 C 444.137 -2.15811 4.02833 0
M  V30 4702 C 445.134 -1.71822 4.90686 0
M  V30 4703 C 442.819 -2.26509 4.48329 0
M  V30 4704 C 444.813 -1.3899 6.22062 0
M  V30 4705 C 442.5 -1.93289 5.79726 0
M  V30 4706 C 443.498 -1.49599 6.66415 0
M  V30 4707 O 443.186 -1.16812 7.95368 0
M  V30 4708 H 442.918 -0.406315 0.540263 0
M  V30 4709 H 445.472 -0.653569 1.94725 0
M  V30 4710 H 443.702 -3.19817 2.1738 0
M  V30 4711 H 445.391 -3.12797 2.58675 0
M  V30 4712 H 446.157 -1.63031 4.56778 0
M  V30 4713 H 442.036 -2.59471 3.81045 0
M  V30 4714 H 445.58 -1.04816 6.89681 0
M  V30 4715 H 441.477 -2.01718 6.13172 0
M  V30 4716 H 442.245 -1.30259 8.08069 0
M  V30 4717 N 444.908 -1.36708 -0.784132 0
M  V30 4718 C 446.138 -1.34203 -1.57077 0
M  V30 4719 C 446.546 0.0774945 -1.89041 0
M  V30 4720 O 445.889 1.04628 -1.50992 0
M  V30 4721 C 445.951 -2.10351 -2.91535 0
M  V30 4722 C 445.615 -3.59405 -2.82272 0
M  V30 4723 C 446.612 -4.53545 -2.54151 0
M  V30 4724 C 444.297 -4.02362 -3.00683 0
M  V30 4725 C 446.291 -5.8862 -2.44551 0
M  V30 4726 C 443.978 -5.37526 -2.90704 0
M  V30 4727 C 444.976 -6.30468 -2.62677 0
M  V30 4728 O 444.664 -7.63149 -2.52702 0
M  V30 4729 H 444.396 -0.461791 -0.493685 0
M  V30 4730 H 446.95 -1.80475 -0.980712 0
M  V30 4731 H 445.18 -1.5875 -3.52612 0
M  V30 4732 H 446.869 -2.00636 -3.52845 0
M  V30 4733 H 447.635 -4.21669 -2.39625 0
M  V30 4734 H 443.514 -3.30389 -3.21503 0
M  V30 4735 H 447.058 -6.61133 -2.22596 0
M  V30 4736 H 442.955 -5.69008 -3.04795 0
M  V30 4737 H 443.723 -7.73331 -2.68144 0
M  V30 4738 N 446.386 1.0089 -1.21074 0
M  V30 4739 C 447.349 2.0775 -0.968129 0
M  V30 4740 C 448.349 1.6069 0.0593445 0
M  V30 4741 O 449.539 1.73293 -0.177525 0
M  V30 4742 C 446.671 3.37794 -0.459108 0
M  V30 4743 H 447.864 2.30707 -1.9161 0
M  V30 4744 H 445.417 1.17807 -1.02719 0
M  V30 4745 H 446.152 3.20516 0.49397 0
M  V30 4746 H 445.937 3.7328 -1.20019 0
M  V30 4747 H 447.427 4.16454 -0.309099 0
M  V30 4748 N 447.864 1.01787 1.20321 0
M  V30 4749 C 448.827 0.593972 2.2137 0
M  V30 4750 C 449.827 -0.336553 1.57239 0
M  V30 4751 O 451.017 -0.125069 1.7375 0
M  V30 4752 C 448.149 -0.132433 3.40643 0
M  V30 4753 H 449.342 1.48791 2.60387 0
M  V30 4754 H 446.895 0.807803 1.33807 0
M  V30 4755 H 447.63 -1.04123 3.0713 0
M  V30 4756 H 447.415 0.53605 3.88418 0
M  V30 4757 H 448.905 -0.416314 4.1552 0
M  V30 4758 N 449.342 -1.36122 0.79427 0
M  V30 4759 C 450.588 -1.99846 0.378542 0
M  V30 4760 C 450.943 -1.61898 -1.03955 0
M  V30 4761 O 450.236 -0.866013 -1.70912 0
M  V30 4762 C 450.43 -3.5409 0.48527 0
M  V30 4763 C 450.259 -4.0702 1.91219 0
M  V30 4764 C 449.029 -4.36944 2.53787 0
M  V30 4765 C 451.227 -4.26435 2.87502 0
M  V30 4766 N 449.209 -4.75727 3.88017 0
M  V30 4767 C 450.58 -4.68077 4.06576 0
M  V30 4768 C 452.635 -4.08616 2.84495 0
M  V30 4769 C 451.338 -4.93765 5.23057 0
M  V30 4770 C 453.364 -4.35453 4.00169 0
M  V30 4771 C 452.726 -4.77355 5.17988 0
M  V30 4772 H 448.825 -0.759549 0.186034 0
M  V30 4773 H 451.409 -1.65043 1.0329 0
M  V30 4774 H 449.58 -3.88151 -0.139023 0
M  V30 4775 H 451.312 -4.04675 0.0453192 0
M  V30 4776 H 448.067 -4.26822 2.05231 0
M  V30 4777 H 448.491 -4.99396 4.57092 0
M  V30 4778 H 453.133 -3.75373 1.94564 0
M  V30 4779 H 450.851 -5.25887 6.1357 0
M  V30 4780 H 454.437 -4.2323 3.99208 0
M  V30 4781 H 453.317 -4.97718 6.06008 0
M  V30 4782 N 450.82 -0.546701 -1.47814 0
M  V30 4783 C 451.75 0.195317 -2.32682 0
M  V30 4784 C 452.731 0.918981 -1.43139 0
M  V30 4785 O 453.916 0.901501 -1.72008 0
M  V30 4786 C 451.046 1.23237 -3.247 0
M  V30 4787 C 450 0.625818 -4.234 0
M  V30 4788 C 449.326 1.76674 -5.04669 0
M  V30 4789 C 450.626 -0.413515 -5.2066 0
M  V30 4790 H 452.32 -0.513184 -2.94969 0
M  V30 4791 H 449.866 -0.248241 -1.41844 0
M  V30 4792 H 451.819 1.75955 -3.82907 0
M  V30 4793 H 450.543 1.97067 -2.60446 0
M  V30 4794 H 449.202 0.120023 -3.66403 0
M  V30 4795 H 448.85 2.49383 -4.36826 0
M  V30 4796 H 448.55 1.36673 -5.71484 0
M  V30 4797 H 450.074 2.29738 -5.65732 0
M  V30 4798 H 451.488 0.0272042 -5.73294 0
M  V30 4799 H 449.885 -0.731825 -5.95621 0
M  V30 4800 H 450.955 -1.31325 -4.66778 0
M  V30 4801 N 452.299 1.55045 -0.282633 0
M  V30 4802 C 453.262 2.21515 0.588539 0
M  V30 4803 C 454.262 1.19535 1.07554 0
M  V30 4804 O 455.452 1.44391 0.974514 0
M  V30 4805 C 452.584 2.88704 1.8128 0
M  V30 4806 H 453.777 2.99899 0.00806397 0
M  V30 4807 H 451.33 1.56265 -0.0333067 0
M  V30 4808 H 452.065 2.14352 2.43359 0
M  V30 4809 H 451.85 3.63443 1.47144 0
M  V30 4810 H 453.34 3.39465 2.43214 0
M  V30 4811 N 453.777 0.010035 1.57597 0
M  V30 4812 C 455.054 -0.710296 1.82248 0
M  V30 4813 C 455.434 -1.91426 0.889911 0
M  V30 4814 O 454.782 -2.28424 -0.0590292 0
M  V30 4815 C 454.992 -1.10655 3.30993 0
M  V30 4816 C 456.34 -1.50621 3.96987 0
M  V30 4817 O 457.364 -1.20007 3.35375 0
M  V30 4818 O 456.223 -2.07587 5.05539 0
M  V30 4819 H 453.317 -0.34673 0.750804 0
M  V30 4820 H 455.863 0.0362578 1.69661 0
M  V30 4821 H 454.635 -0.248826 3.90508 0
M  V30 4822 H 454.258 -1.91189 3.48615 0
M  V30 4823 N 455.255 -1.55392 -0.262866 0
M  V30 4824 C 456.187 -1.85392 -1.34768 0
M  V30 4825 C 457.2 -0.739069 -1.45057 0
M  V30 4826 O 458.389 -1.01703 -1.46693 0
M  V30 4827 C 455.489 -2.01088 -2.72795 0
M  V30 4828 C 454.662 -3.31828 -2.84972 0
M  V30 4829 C 453.721 -3.37464 -4.03738 0
M  V30 4830 O 452.747 -4.10778 -3.94018 0
M  V30 4831 N 453.949 -2.65599 -5.16176 0
M  V30 4832 H 456.714 -2.79029 -1.09375 0
M  V30 4833 H 454.275 -1.55434 -0.452981 0
M  V30 4834 H 456.267 -2.02217 -3.50557 0
M  V30 4835 H 454.837 -1.1427 -2.90966 0
M  V30 4836 H 454.057 -3.43152 -1.94012 0
M  V30 4837 H 455.345 -4.18032 -2.90045 0
M  V30 4838 H 454.743 -2.05736 -5.26962 0
M  V30 4839 H 453.3 -2.72439 -5.92132 0
M  V30 4840 N 456.733 0.527833 -1.48498 0
M  V30 4841 C 457.981 1.28101 -1.56316 0
M  V30 4842 C 458.302 1.9352 -0.239781 0
M  V30 4843 O 457.572 1.81433 0.738849 0
M  V30 4844 H 456.152 0.475793 -0.575873 0
M  V30 4845 H 458.814 0.614052 -1.84974 0
M  V30 4846 H 457.91 2.05916 -2.34532 0
M  V30 4847 N 458.211 1.37122 0.776871 0
M  V30 4848 C 459.141 1.35164 1.90402 0
M  V30 4849 C 460.122 0.221069 1.68657 0
M  V30 4850 O 461.307 0.420642 1.8959 0
M  V30 4851 C 458.437 1.15274 3.27611 0
M  V30 4852 C 457.391 2.25289 3.63908 0
M  V30 4853 C 456.717 1.90527 4.99603 0
M  V30 4854 C 458.017 3.67446 3.71188 0
M  V30 4855 H 459.711 2.29482 1.92297 0
M  V30 4856 H 457.257 1.10465 0.923773 0
M  V30 4857 H 459.21 1.12536 4.06096 0
M  V30 4858 H 457.934 0.174102 3.26136 0
M  V30 4859 H 456.593 2.27174 2.87728 0
M  V30 4860 H 456.241 0.91206 4.94662 0
M  V30 4861 H 455.941 2.64193 5.24858 0
M  V30 4862 H 457.465 1.89367 5.80493 0
M  V30 4863 H 458.879 3.67719 4.39836 0
M  V30 4864 H 457.276 4.40123 4.07936 0
M  V30 4865 H 458.346 4.01443 2.71977 0
M  V30 4866 N 459.689 -1.00246 1.21608 0
M  V30 4867 C 461.1 -1.55511 1.03312 0
M  V30 4868 C 461.451 -1.91946 -0.406332 0
M  V30 4869 O 460.576 -1.73753 -1.28992 0
M  V30 4870 C 461.171 -2.82576 1.86913 0
M  V30 4871 C 459.73 -3.34318 1.72941 0
M  V30 4872 C 458.877 -2.07487 1.83968 0
M  V30 4873 H 461.828 -0.824638 1.35593 0
M  V30 4874 H 461.849 -3.54559 1.38087 0
M  V30 4875 H 461.361 -2.56026 2.91672 0
M  V30 4876 H 459.462 -3.65797 0.70877 0
M  V30 4877 H 459.575 -4.05566 2.55055 0
M  V30 4878 H 457.939 -2.20603 1.27304 0
M  V30 4879 H 458.722 -1.83346 2.9024 0
M  V30 4880 N 461.167 -1.02423 -1.1978 0
M  V30 4881 C 462.117 -0.571689 -2.20716 0
M  V30 4882 C 463.101 0.377077 -1.56419 0
M  V30 4883 O 464.293 0.198801 -1.7588 0
M  V30 4884 C 461.422 0.0808555 -3.43205 0
M  V30 4885 C 460.508 -0.890073 -4.14655 0
M  V30 4886 N 460.899 -2.05065 -4.62366 0
M  V30 4887 C 459.197 -0.71252 -4.40272 0
M  V30 4888 C 459.898 -2.66264 -5.17183 0
M  V30 4889 N 458.874 -1.94264 -5.07703 0
M  V30 4890 H 462.676 -1.45636 -2.55279 0
M  V30 4891 H 460.19 -0.890596 -1.35802 0
M  V30 4892 H 462.187 0.422654 -4.14752 0
M  V30 4893 H 460.847 0.961274 -3.10144 0
M  V30 4894 H 461.858 -2.43026 -4.57339 0
M  V30 4895 H 458.535 0.119199 -4.1733 0
M  V30 4896 H 459.925 -3.64526 -5.64421 0
M  V30 4897 N 462.645 1.35699 -0.801477 0
M  V30 4898 C 463.608 2.28199 -0.213994 0
M  V30 4899 C 464.608 1.49359 0.595691 0
M  V30 4900 O 465.798 1.69186 0.414921 0
M  V30 4901 C 462.93 3.33587 0.702297 0
M  V30 4902 H 464.123 2.81666 -1.02976 0
M  V30 4903 H 461.676 1.45467 -0.571759 0
M  V30 4904 H 462.411 2.85297 1.54195 0
M  V30 4905 H 462.196 3.91906 0.123484 0
M  V30 4906 H 463.686 4.02638 1.10783 0
M  V30 4907 N 464.123 0.554532 1.47522 0
M  V30 4908 C 465.073 -0.215008 2.26984 0
M  V30 4909 C 466.057 -0.88774 1.34194 0
M  V30 4910 O 467.249 -0.786489 1.58567 0
M  V30 4911 C 464.378 -1.24604 3.19889 0
M  V30 4912 C 463.464 -0.576857 4.20159 0
M  V30 4913 N 463.855 0.351541 5.04577 0
M  V30 4914 C 462.153 -0.831104 4.38188 0
M  V30 4915 C 462.854 0.739995 5.76974 0
M  V30 4916 N 461.83 0.0954407 5.43516 0
M  V30 4917 H 465.632 0.498843 2.89636 0
M  V30 4918 H 463.146 0.374279 1.58028 0
M  V30 4919 H 465.143 -1.81128 3.75498 0
M  V30 4920 H 463.803 -1.96101 2.58794 0
M  V30 4921 H 464.814 0.725556 5.12792 0
M  V30 4922 H 461.491 -1.53479 3.88266 0
M  V30 4923 H 462.881 1.50271 6.5488 0
M  V30 4924 N 465.601 -1.54893 0.290851 0
M  V30 4925 C 466.564 -2.21824 -0.576784 0
M  V30 4926 C 467.564 -1.20104 -1.06919 0
M  V30 4927 O 468.754 -1.44906 -0.966843 0
M  V30 4928 C 465.886 -2.89662 -1.79747 0
M  V30 4929 H 467.079 -2.99899 0.00784051 0
M  V30 4930 H 464.632 -1.56245 0.0415934 0
M  V30 4931 H 465.367 -2.15639 -2.42219 0
M  V30 4932 H 465.152 -3.64219 -1.45214 0
M  V30 4933 H 466.642 -3.4075 -2.4141 0
M  V30 4934 N 467.08 -0.0183926 -1.57589 0
M  V30 4935 C 468.305 0.676634 -1.96052 0
M  V30 4936 C 468.73 1.6548 -0.894307 0
M  V30 4937 O 468.088 1.80712 0.145849 0
M  V30 4938 C 468.136 1.36872 -3.33614 0
M  V30 4939 O 467.24 2.48372 -3.29219 0
M  V30 4940 H 466.581 0.1786 -0.63953 0
M  V30 4941 H 469.111 -0.077056 -2.04455 0
M  V30 4942 H 469.121 1.72797 -3.69601 0
M  V30 4943 H 467.796 0.651636 -4.10763 0
M  V30 4944 H 466.373 2.14639 -3.04934 0
M  V30 4945 N 468.558 1.5553 0.254621 0
M  V30 4946 C 469.521 1.88872 1.29846 0
M  V30 4947 C 470.521 0.764591 1.41459 0
M  V30 4948 O 471.711 1.03265 1.40293 0
M  V30 4949 C 468.843 2.11032 2.67728 0
M  V30 4950 H 470.036 2.82201 1.01502 0
M  V30 4951 H 467.589 1.48303 0.493556 0
M  V30 4952 H 468.324 1.20146 3.01223 0
M  V30 4953 H 468.109 2.92895 2.60682 0
M  V30 4954 H 469.599 2.38038 3.43115 0
M  V30 4955 N 470.036 -0.519951 1.48776 0
M  V30 4956 C 471.285 -1.27175 1.56555 0
M  V30 4957 C 471.598 -1.9401 0.248869 0
M  V30 4958 O 472.804 -2.70725 0.205004 0
M  V30 4959 C 471.26 -2.30811 2.76142 0
M  V30 4960 C 470.868 -1.7 4.14493 0
M  V30 4961 C 472.612 -3.06937 2.9324 0
M  V30 4962 C 470.519 -2.71635 5.25327 0
M  V30 4963 H 469.449 -0.478329 0.582853 0
M  V30 4964 H 472.1 -0.547916 1.75129 0
M  V30 4965 H 470.482 -3.06274 2.51023 0
M  V30 4966 H 471.656 -1.00658 4.49672 0
M  V30 4967 H 469.971 -1.06331 4.02595 0
M  V30 4968 H 472.568 -3.82905 3.73213 0
M  V30 4969 H 472.911 -3.63409 2.03075 0
M  V30 4970 H 473.444 -2.38589 3.18308 0
M  V30 4971 H 470.183 -2.1997 6.1749 0
M  V30 4972 H 469.703 -3.39275 4.94624 0
M  V30 4973 H 471.382 -3.34429 5.53865 0
M  V30 4974 N 471.514 -1.37532 -0.769588 0
M  V30 4975 C 472.477 -1.33292 -1.86456 0
M  V30 4976 C 473.477 -0.236537 -1.59051 0
M  V30 4977 O 474.667 -0.492511 -1.67093 0
M  V30 4978 C 471.799 -1.07118 -3.23633 0
M  V30 4979 H 472.992 -2.30692 -1.91628 0
M  V30 4980 H 470.545 -1.22593 -0.969572 0
M  V30 4981 H 471.28 -0.102578 -3.24138 0
M  V30 4982 H 471.065 -1.86479 -3.44917 0
M  V30 4983 H 472.555 -1.06806 -4.03711 0
M  V30 4984 N 472.992 0.995999 -1.22138 0
M  V30 4985 C 473.939 2.08551 -0.988687 0
M  V30 4986 C 474.909 1.65864 0.0885021 0
M  V30 4987 O 476.094 1.90704 -0.0604589 0
M  V30 4988 C 473.234 3.40374 -0.569191 0
M  V30 4989 C 472.347 3.96421 -1.71681 0
M  V30 4990 C 471.482 5.1639 -1.2456 0
M  V30 4991 C 470.521 5.64567 -2.36497 0
M  V30 4992 N 469.658 6.75777 -1.90445 0
M  V30 4993 H 474.498 2.2779 -1.92135 0
M  V30 4994 H 472.035 1.1168 -0.957388 0
M  V30 4995 H 473.993 4.16068 -0.307166 0
M  V30 4996 H 472.623 3.21145 0.326462 0
M  V30 4997 H 471.675 3.17628 -2.09324 0
M  V30 4998 H 472.987 4.2816 -2.55891 0
M  V30 4999 H 472.141 5.99362 -0.940774 0
M  V30 5000 H 470.88 4.86266 -0.373662 0
M  V30 5001 H 469.885 4.80185 -2.67772 0
M  V30 5002 H 471.11 5.96716 -3.24202 0
M  V30 5003 H 469.056 6.47443 -1.05609 0
M  V30 5004 H 468.973 7.06818 -2.68223 0
M  V30 5005 H 470.241 7.62262 -1.63022 0
M  V30 5006 N 474.47 1.03057 1.19235 0
M  V30 5007 C 475.433 0.617418 2.20727 0
M  V30 5008 C 476.433 -0.319856 1.57587 0
M  V30 5009 O 477.623 -0.106633 1.73873 0
M  V30 5010 C 474.755 -0.096296 3.40764 0
M  V30 5011 H 475.948 1.51544 2.58794 0
M  V30 5012 H 473.501 0.821949 1.32942 0
M  V30 5013 H 474.236 -1.00859 3.08217 0
M  V30 5014 H 474.021 0.577217 3.87828 0
M  V30 5015 H 475.511 -0.372219 4.15938 0
M  V30 5016 N 475.948 -1.35272 0.808662 0
M  V30 5017 C 477.178 -2.02652 0.401953 0
M  V30 5018 C 477.586 -1.6108 -0.992462 0
M  V30 5019 O 476.929 -0.804984 -1.65123 0
M  V30 5020 C 476.991 -3.57174 0.408246 0
M  V30 5021 C 476.655 -4.22019 1.75353 0
M  V30 5022 C 477.652 -4.43552 2.71215 0
M  V30 5023 C 475.337 -4.59093 2.03811 0
M  V30 5024 C 477.331 -5.01264 3.93717 0
M  V30 5025 C 475.018 -5.16519 3.26576 0
M  V30 5026 C 476.016 -5.37546 4.21347 0
M  V30 5027 O 475.704 -5.93761 5.41944 0
M  V30 5028 H 475.436 -0.656495 0.161216 0
M  V30 5029 H 477.99 -1.73829 1.0942 0
M  V30 5030 H 476.22 -3.85197 -0.340608 0
M  V30 5031 H 477.909 -4.05893 0.0235623 0
M  V30 5032 H 478.675 -4.15288 2.50522 0
M  V30 5033 H 474.554 -4.42039 1.30854 0
M  V30 5034 H 478.098 -5.17592 4.67701 0
M  V30 5035 H 473.995 -5.4421 3.47139 0
M  V30 5036 H 474.763 -6.1221 5.43269 0
M  V30 5037 N 477.426 -0.562348 -1.47226 0
M  V30 5038 C 478.389 0.172056 -2.28553 0
M  V30 5039 C 479.389 0.837928 -1.37242 0
M  V30 5040 O 480.579 0.693001 -1.59822 0
M  V30 5041 C 477.711 1.25223 -3.17068 0
M  V30 5042 H 478.904 -0.542401 -2.94954 0
M  V30 5043 H 476.457 -0.319493 -1.53 0
M  V30 5044 H 477.192 1.99892 -2.55369 0
M  V30 5045 H 476.977 0.779515 -3.84273 0
M  V30 5046 H 478.467 1.76791 -3.78332 0
M  V30 5047 N 478.904 1.54736 -0.299062 0
M  V30 5048 C 480.129 2.04975 0.316254 0
M  V30 5049 C 480.554 1.17501 1.46885 0
M  V30 5050 O 479.912 0.178678 1.80417 0
M  V30 5051 C 479.96 3.52672 0.751997 0
M  V30 5052 O 479.064 3.68226 1.85697 0
M  V30 5053 H 478.405 0.661126 0.0617175 0
M  V30 5054 H 480.935 1.99805 -0.440341 0
M  V30 5055 H 480.945 3.94488 1.04133 0
M  V30 5056 H 479.62 4.158 -0.0911482 0
M  V30 5057 H 478.197 3.38316 1.56834 0
M  V30 5058 N 480.382 0.0267497 1.57577 0
M  V30 5059 C 481.292 -0.971633 2.13533 0
M  V30 5060 C 482.308 -1.35868 1.08701 0
M  V30 5061 O 483.484 -1.44058 1.40746 0
M  V30 5062 C 480.549 -2.23622 2.64941 0
M  V30 5063 C 479.61 -1.90982 3.8448 0
M  V30 5064 C 478.843 -3.11411 4.33427 0
M  V30 5065 O 479.066 -4.23992 3.81558 0
M  V30 5066 O 478 -2.93848 5.25297 0
M  V30 5067 H 481.826 -0.525853 2.99113 0
M  V30 5068 H 479.411 -0.193712 1.48139 0
M  V30 5069 H 481.293 -2.97864 2.98086 0
M  V30 5070 H 479.968 -2.67386 1.82446 0
M  V30 5071 H 478.875 -1.14132 3.56265 0
M  V30 5072 H 480.208 -1.52036 4.6813 0
M  V30 5073 N 481.861 -1.55662 -0.24637 0
M  V30 5074 C 483.11 -1.7672 -0.972254 0
M  V30 5075 C 483.423 -0.59078 -1.86465 0
M  V30 5076 O 484.629 -0.684391 -2.62732 0
M  V30 5077 C 483.085 -3.12869 -1.7788 0
M  V30 5078 C 482.693 -4.38161 -0.933768 0
M  V30 5079 C 484.437 -3.43265 -2.49738 0
M  V30 5080 C 482.344 -5.6534 -1.73623 0
M  V30 5081 H 481.274 -0.658795 -0.366749 0
M  V30 5082 H 483.925 -1.82092 -0.226902 0
M  V30 5083 H 482.307 -3.01606 -2.56612 0
M  V30 5084 H 483.481 -4.60413 -0.188736 0
M  V30 5085 H 481.796 -4.15102 -0.328488 0
M  V30 5086 H 484.393 -4.35501 -3.10231 0
M  V30 5087 H 484.736 -2.64614 -3.2138 0
M  V30 5088 H 485.269 -3.55746 -1.78016 0
M  V30 5089 H 482.008 -6.46814 -1.06354 0
M  V30 5090 H 481.528 -5.47188 -2.45653 0
M  V30 5091 H 483.207 -6.04616 -2.30323 0
M  V30 5092 N 483.339 0.512053 -1.4905 0
M  V30 5093 C 484.302 1.59704 -1.64399 0
M  V30 5094 C 485.302 1.52285 -0.516317 0
M  V30 5095 O 486.492 1.55635 -0.782527 0
M  V30 5096 C 483.624 2.9935 -1.63102 0
M  V30 5097 H 484.817 1.47428 -2.61161 0
M  V30 5098 H 482.37 0.735469 -1.37915 0
M  V30 5099 H 483.105 3.17116 -0.678836 0
M  V30 5100 H 482.89 3.06144 -2.44986 0
M  V30 5101 H 484.38 3.782 -1.77072 0
M  V30 5102 N 484.817 1.37938 0.762283 0
M  V30 5103 C 486.064 1.33668 1.52115 0
M  V30 5104 C 486.392 -0.0759538 1.94352 0
M  V30 5105 O 485.647 -1.05121 1.6507 0
M  V30 5106 C 485.946 2.23042 2.79261 0
M  V30 5107 C 485.612 3.71159 2.56031 0
M  V30 5108 C 484.274 4.11523 2.49404 0
M  V30 5109 C 486.626 4.64955 2.35513 0
M  V30 5110 C 483.954 5.43784 2.20263 0
M  V30 5111 C 486.306 5.97464 2.07894 0
M  V30 5112 C 484.97 6.36922 1.99718 0
M  V30 5113 H 484.24 0.489127 0.556629 0
M  V30 5114 H 486.887 1.70224 0.877262 0
M  V30 5115 H 485.192 1.79512 3.48256 0
M  V30 5116 H 486.889 2.17047 3.37182 0
M  V30 5117 H 483.479 3.39153 2.62056 0
M  V30 5118 H 487.663 4.34623 2.39617 0
M  V30 5119 H 482.919 5.73307 2.12435 0
M  V30 5120 H 487.093 6.6969 1.91019 0
M  V30 5121 H 484.72 7.39331 1.76902 0
M  V30 5122 N 486.295 -0.989507 1.22664 0
M  V30 5123 C 487.205 -2.11449 1.01619 0
M  V30 5124 C 488.221 -1.73962 -0.036545 0
M  V30 5125 O 489.397 -2.00788 0.156924 0
M  V30 5126 C 486.462 -3.41465 0.600204 0
M  V30 5127 C 485.523 -3.93033 1.72695 0
M  V30 5128 C 484.756 -5.16844 1.33071 0
M  V30 5129 O 484.979 -5.7001 0.210975 0
M  V30 5130 O 483.913 -5.6225 2.14845 0
M  V30 5131 H 487.739 -2.32088 1.9588 0
M  V30 5132 H 485.324 -1.09823 1.01289 0
M  V30 5133 H 487.206 -4.19695 0.37873 0
M  V30 5134 H 485.881 -3.22178 -0.313511 0
M  V30 5135 H 484.788 -3.15961 2.00298 0
M  V30 5136 H 486.121 -4.16758 2.61865 0
M  V30 5137 N 487.773 -1.03688 -1.18687 0
M  V30 5138 C 488.736 -0.629115 -2.20397 0
M  V30 5139 C 489.736 0.311495 -1.57754 0
M  V30 5140 O 490.926 0.0974107 -1.73927 0
M  V30 5141 C 488.058 0.0782231 -3.4081 0
M  V30 5142 H 489.251 -1.52915 -2.57987 0
M  V30 5143 H 486.804 -0.828988 -1.32505 0
M  V30 5144 H 487.539 0.992233 -3.08748 0
M  V30 5145 H 487.324 -0.597776 -3.87517 0
M  V30 5146 H 488.814 0.350156 -4.16129 0
M  V30 5147 N 489.251 1.34841 -0.815825 0
M  V30 5148 C 490.214 2.27959 -0.238185 0
M  V30 5149 C 491.214 1.49983 0.579816 0
M  V30 5150 O 492.404 1.69617 0.396953 0
M  V30 5151 C 489.536 3.34314 0.666876 0
M  V30 5152 H 490.729 2.80558 -1.05958 0
M  V30 5153 H 488.282 1.44852 -0.587156 0
M  V30 5154 H 489.017 2.86916 1.5116 0
M  V30 5155 H 488.802 3.92014 0.0819106 0
M  V30 5156 H 490.292 4.0379 1.06506 0
M  V30 5157 N 490.729 0.570148 1.46925 0
M  V30 5158 C 491.677 -0.183181 2.31878 0
M  V30 5159 C 492.671 -0.896721 1.43719 0
M  V30 5160 O 493.877 -0.816536 1.60414 0
M  V30 5161 H 490.252 -0.077944 0.74795 0
M  V30 5162 H 492.223 0.552312 2.93244 0
M  V30 5163 C 490.972 -1.19172 3.2664 0
M  V30 5164 H 490.295 -0.652088 3.94446 0
M  V30 5165 H 491.735 -1.68946 3.88887 0
M  V30 5166 C 490.194 -2.24627 2.51086 0
M  V30 5167 O 490.724 -3.31773 2.26472 0
M  V30 5168 N 488.93 -1.98898 2.11867 0
M  V30 5169 H 488.477 -1.11777 2.32086 0
M  V30 5170 H 488.435 -2.6967 1.61634 0
M  V30 5171 N 492.207 -1.54576 0.307264 0
M  V30 5172 C 493.139 -2.21212 -0.599807 0
M  V30 5173 C 494.152 -1.20685 -1.09266 0
M  V30 5174 O 495.341 -1.47244 -1.00903 0
M  V30 5175 C 492.441 -2.84994 -1.83389 0
M  V30 5176 C 491.614 -4.11511 -1.48248 0
M  V30 5177 C 490.673 -4.59038 -2.57237 0
M  V30 5178 O 489.699 -5.24095 -2.22065 0
M  V30 5179 N 490.901 -4.31884 -3.87887 0
M  V30 5180 H 493.666 -2.99686 -0.0293075 0
M  V30 5181 H 491.227 -1.61379 0.129738 0
M  V30 5182 H 493.219 -3.1372 -2.5566 0
M  V30 5183 H 491.789 -2.10324 -2.31263 0
M  V30 5184 H 491.009 -3.89728 -0.592122 0
M  V30 5185 H 492.297 -4.93879 -1.22316 0
M  V30 5186 H 491.695 -3.79778 -4.19268 0
M  V30 5187 H 490.252 -4.65304 -4.56438 0
M  V30 5188 N 493.685 -0.035106 -1.57561 0
M  V30 5189 C 494.648 0.929819 -2.09492 0
M  V30 5190 C 495.648 1.25026 -1.01119 0
M  V30 5191 O 496.838 1.18961 -1.27255 0
M  V30 5192 C 493.97 2.24457 -2.56577 0
M  V30 5193 H 495.163 0.479935 -2.96035 0
M  V30 5194 H 492.716 0.213033 -1.54841 0
M  V30 5195 H 493.451 2.74061 -1.73382 0
M  V30 5196 H 493.236 2.02508 -3.35757 0
M  V30 5197 H 494.726 2.93607 -2.96959 0
M  V30 5198 N 495.163 1.55791 0.238111 0
M  V30 5199 C 496.412 1.77234 0.962868 0
M  V30 5200 C 496.725 0.600661 1.86149 0
M  V30 5201 O 497.931 0.698315 2.62366 0
M  V30 5202 C 496.387 3.13808 1.76218 0
M  V30 5203 C 495.995 4.3865 0.910518 0
M  V30 5204 C 497.739 3.44585 2.47914 0
M  V30 5205 C 495.646 5.66252 1.70623 0
M  V30 5206 H 494.576 0.660731 0.36325 0
M  V30 5207 H 497.227 1.8221 0.217242 0
M  V30 5208 H 495.609 3.02963 2.55009 0
M  V30 5209 H 496.783 4.60507 0.164316 0
M  V30 5210 H 495.098 4.15271 0.30647 0
M  V30 5211 H 497.695 4.3714 3.07917 0
M  V30 5212 H 498.038 2.66314 3.19973 0
M  V30 5213 H 498.571 3.56685 1.76127 0
M  V30 5214 H 495.31 6.47369 1.02923 0
M  V30 5215 H 494.83 5.48483 2.42748 0
M  V30 5216 H 496.509 6.05829 2.27114 0
M  V30 5217 N 496.642 -0.504142 1.49319 0
M  V30 5218 C 497.574 -1.62265 1.61872 0
M  V30 5219 C 498.587 -1.54881 0.501573 0
M  V30 5220 O 499.776 -1.6087 0.773497 0
M  V30 5221 C 496.876 -3.01042 1.55651 0
M  V30 5222 C 496.049 -3.33642 2.82845 0
M  V30 5223 C 495.108 -4.51816 2.69719 0
M  V30 5224 O 494.134 -4.53755 3.4365 0
M  V30 5225 N 495.336 -5.51543 1.81055 0
M  V30 5226 H 498.101 -1.51924 2.58339 0
M  V30 5227 H 495.662 -0.691954 1.46368 0
M  V30 5228 H 497.654 -3.78013 1.44528 0
M  V30 5229 H 496.224 -3.05323 0.670546 0
M  V30 5230 H 495.444 -2.45598 3.08343 0
M  V30 5231 H 496.732 -3.5222 3.67177 0
M  V30 5232 H 496.13 -5.52774 1.20241 0
M  V30 5233 H 494.687 -6.27629 1.75856 0
M  V30 5234 N 498.12 -1.38341 -0.754957 0
M  V30 5235 C 499.369 -1.33791 -1.5094 0
M  V30 5236 C 499.682 0.0699267 -1.95475 0
M  V30 5237 O 500.888 0.237956 -2.70455 0
M  V30 5238 C 499.344 -2.34934 -2.72643 0
M  V30 5239 C 498.952 -3.81332 -2.35138 0
M  V30 5240 C 500.696 -2.39425 -3.50536 0
M  V30 5241 C 498.603 -4.74164 -3.53444 0
M  V30 5242 H 497.533 -0.497314 -0.566741 0
M  V30 5243 H 500.184 -1.63888 -0.825403 0
M  V30 5244 H 498.566 -1.97878 -3.43017 0
M  V30 5245 H 499.74 -4.27319 -1.7244 0
M  V30 5246 H 498.055 -3.79946 -1.70382 0
M  V30 5247 H 500.652 -3.0598 -4.38498 0
M  V30 5248 H 500.995 -1.41278 -3.91594 0
M  V30 5249 H 501.528 -2.75274 -2.87174 0
M  V30 5250 H 498.267 -5.73501 -3.17453 0
M  V30 5251 H 497.787 -4.3287 -4.15191 0
M  V30 5252 H 499.466 -4.92111 -4.20043 0
M  V30 5253 N 499.598 0.982988 -1.23187 0
M  V30 5254 C 500.548 2.05962 -0.977942 0
M  V30 5255 C 501.532 1.60725 0.0751148 0
M  V30 5256 O 502.724 1.76471 -0.136683 0
M  V30 5257 C 499.853 3.38564 -0.568276 0
M  V30 5258 C 498.939 3.90407 -1.6566 0
M  V30 5259 N 499.33 4.15359 -2.88635 0
M  V30 5260 C 497.628 4.18915 -1.53058 0
M  V30 5261 C 498.329 4.57642 -3.5908 0
M  V30 5262 N 497.305 4.6192 -2.86584 0
M  V30 5263 H 501.107 2.23208 -1.91195 0
M  V30 5264 H 498.621 1.16555 -1.13087 0
M  V30 5265 H 500.618 4.15276 -0.36764 0
M  V30 5266 H 499.278 3.22712 0.358713 0
M  V30 5267 H 500.289 4.03258 -3.24966 0
M  V30 5268 H 496.966 4.12081 -0.670506 0
M  V30 5269 H 498.356 4.85488 -4.6449 0
M  V30 5270 N 501.076 1.04316 1.18135 0
M  V30 5271 C 502.324 0.746542 1.87806 0
M  V30 5272 C 502.645 -0.728082 1.80898 0
M  V30 5273 O 501.915 -1.52554 1.22899 0
M  V30 5274 H 500.495 0.273157 0.695265 0
M  V30 5275 H 503.157 1.32044 1.43354 0
M  V30 5276 H 502.253 1.05362 2.93778 0
M  V30 5277 N 502.554 -1.34406 0.822964 0
M  V30 5278 C 503.802 -1.97892 0.410245 0
M  V30 5279 C 504.123 -1.65567 -1.03017 0
M  V30 5280 O 503.393 -0.94642 -1.71522 0
M  V30 5281 H 501.973 -0.732049 0.148707 0
M  V30 5282 H 504.635 -1.64043 1.05242 0
M  V30 5283 H 503.731 -3.07579 0.529284 0
M  V30 5284 N 504.032 -0.577932 -1.46621 0
M  V30 5285 C 505.262 -0.0670668 -2.06491 0
M  V30 5286 C 505.67 1.24119 -1.42798 0
M  V30 5287 O 505.013 1.76016 -0.525759 0
M  V30 5288 C 505.075 0.177995 -3.59059 0
M  V30 5289 C 504.739 -1.04394 -4.44917 0
M  V30 5290 C 505.736 -1.95479 -4.81751 0
M  V30 5291 C 503.421 -1.26444 -4.86125 0
M  V30 5292 C 505.415 -3.06965 -5.58615 0
M  V30 5293 C 503.102 -2.38237 -5.62749 0
M  V30 5294 C 504.1 -3.28327 -5.98908 0
M  V30 5295 O 503.788 -4.38179 -6.73984 0
M  V30 5296 H 503.52 -0.0523159 -0.673973 0
M  V30 5297 H 506.074 -0.796966 -1.89308 0
M  V30 5298 H 504.304 0.962451 -3.74531 0
M  V30 5299 H 505.993 0.636782 -4.00874 0
M  V30 5300 H 506.759 -1.79657 -4.50498 0
M  V30 5301 H 502.638 -0.572316 -4.57434 0
M  V30 5302 H 506.182 -3.77309 -5.86757 0
M  V30 5303 H 502.079 -2.54023 -5.93416 0
M  V30 5304 H 502.847 -4.36486 -6.92403 0
M  V30 5305 N 505.51 1.54411 -0.315457 0
M  V30 5306 C 506.758 2.00023 0.288971 0
M  V30 5307 C 507.079 1.20529 1.5329 0
M  V30 5308 O 506.349 0.304986 1.93511 0
M  V30 5309 H 504.929 0.738891 0.109766 0
M  V30 5310 H 507.591 1.90094 -0.430129 0
M  V30 5311 H 506.687 3.07198 0.550999 0
M  V30 5312 N 506.988 0.0434614 1.5754 0
M  V30 5313 C 508.218 -0.640905 1.96408 0
M  V30 5314 C 508.626 -1.65365 0.919297 0
M  V30 5315 O 507.969 -1.83395 -0.105795 0
M  V30 5316 C 508.031 -1.39141 3.31482 0
M  V30 5317 C 507.695 -0.535375 4.53853 0
M  V30 5318 C 508.692 0.195335 5.19533 0
M  V30 5319 C 506.377 -0.468564 5.0011 0
M  V30 5320 C 508.371 0.981377 6.298 0
M  V30 5321 C 506.058 0.321171 6.10255 0
M  V30 5322 C 507.056 1.04484 6.74961 0
M  V30 5323 O 506.744 1.8216 7.8299 0
M  V30 5324 H 506.476 -0.180584 0.651433 0
M  V30 5325 H 509.03 0.103848 2.05137 0
M  V30 5326 H 507.26 -2.18162 3.19284 0
M  V30 5327 H 508.949 -1.96526 3.55151 0
M  V30 5328 H 509.715 0.15314 4.84758 0
M  V30 5329 H 505.594 -1.02142 4.49542 0
M  V30 5330 H 509.138 1.54674 6.80237 0
M  V30 5331 H 505.035 0.365032 6.44467 0
M  V30 5332 H 505.803 1.74289 7.99728 0
M  V30 5333 N 508.466 -1.55915 -0.229846 0
M  V30 5334 C 509.712 -1.78807 -0.956868 0
M  V30 5335 C 510.045 -0.611687 -1.84315 0
M  V30 5336 O 509.32 0.389398 -1.90562 0
M  V30 5337 C 509.603 -3.11718 -1.80288 0
M  V30 5338 C 509.456 -4.3979 -0.943649 0
M  V30 5339 C 510.775 -3.40999 -2.78222 0
M  V30 5340 H 507.894 -0.6505 -0.346437 0
M  V30 5341 H 510.536 -1.88648 -0.226252 0
M  V30 5342 H 508.686 -3.03459 -2.42579 0
M  V30 5343 H 510.358 -4.60059 -0.338121 0
M  V30 5344 H 508.601 -4.33086 -0.248705 0
M  V30 5345 H 509.272 -5.29208 -1.5698 0
M  V30 5346 H 511.748 -3.49332 -2.26067 0
M  V30 5347 H 510.624 -4.35183 -3.34526 0
M  V30 5348 H 510.885 -2.62754 -3.55546 0
M  V30 5349 N 509.944 0.496216 -1.49584 0
M  V30 5350 C 511.36 0.827814 -1.36453 0
M  V30 5351 C 511.56 1.97464 -0.401285 0
M  V30 5352 O 510.616 2.51958 0.165296 0
M  V30 5353 C 511.929 1.16352 -2.77277 0
M  V30 5354 C 513.477 1.27145 -2.86013 0
M  V30 5355 C 513.952 1.64042 -4.27615 0
M  V30 5356 N 515.443 1.71082 -4.30448 0
M  V30 5357 C 516.178 2.01085 -5.36984 0
M  V30 5358 N 515.674 2.2928 -6.5376 0
M  V30 5359 N 517.467 2.02376 -5.24405 0
M  V30 5360 H 509.618 -0.259947 -2.10803 0
M  V30 5361 H 511.881 -0.0537163 -0.946477 0
M  V30 5362 H 511.587 0.394153 -3.49484 0
M  V30 5363 H 511.461 2.10582 -3.12946 0
M  V30 5364 H 513.848 2.03152 -2.1404 0
M  V30 5365 H 513.929 0.309542 -2.5392 0
M  V30 5366 H 513.573 0.88583 -5.00115 0
M  V30 5367 H 513.503 2.6134 -4.57175 0
M  V30 5368 H 515.994 1.51434 -3.46232 0
M  V30 5369 H 516.307 2.51376 -7.30774 0
M  V30 5370 H 514.652 2.26726 -6.56978 0
M  V30 5371 H 517.843 1.79829 -4.32179 0
M  V30 5372 H 518.016 2.25425 -6.07526 0
M  V30 5373 N 511.423 1.38739 0.74761 0
M  V30 5374 C 512.333 1.38696 1.89211 0
M  V30 5375 C 513.349 0.283303 1.71678 0
M  V30 5376 O 514.525 0.522713 1.94498 0
M  V30 5377 C 511.59 1.21662 3.24653 0
M  V30 5378 C 510.651 2.41886 3.54669 0
M  V30 5379 C 509.884 2.25655 4.83648 0
M  V30 5380 O 510.107 1.25339 5.56459 0
M  V30 5381 O 509.041 3.14372 5.13277 0
M  V30 5382 H 512.867 2.35143 1.92202 0
M  V30 5383 H 510.452 1.19721 0.893708 0
M  V30 5384 H 512.334 1.14246 4.05618 0
M  V30 5385 H 511.009 0.283024 3.2246 0
M  V30 5386 H 509.916 2.54877 2.73841 0
M  V30 5387 H 511.249 3.33895 3.61628 0
M  V30 5388 N 512.901 -0.976442 1.23707 0
M  V30 5389 C 514.148 -1.71827 1.07153 0
M  V30 5390 C 514.476 -1.9053 -0.390982 0
M  V30 5391 O 513.731 -1.45779 -1.30564 0
M  V30 5392 C 514.03 -3.11814 1.74662 0
M  V30 5393 C 513.696 -3.12978 3.24585 0
M  V30 5394 C 512.358 -3.13003 3.6549 0
M  V30 5395 C 514.71 -3.07986 4.20469 0
M  V30 5396 C 512.038 -3.05757 5.00729 0
M  V30 5397 C 514.39 -3.02282 5.55705 0
M  V30 5398 C 513.054 -3.00631 5.95968 0
M  V30 5399 H 512.324 -0.628758 0.392102 0
M  V30 5400 H 514.971 -1.14239 1.53693 0
M  V30 5401 H 513.276 -3.72812 1.20492 0
M  V30 5402 H 514.973 -3.67989 1.59328 0
M  V30 5403 H 511.563 -3.13718 2.92026 0
M  V30 5404 H 515.747 -3.07103 3.89874 0
M  V30 5405 H 511.003 -3.02834 5.31132 0
M  V30 5406 H 515.177 -2.97376 6.29714 0
M  V30 5407 H 512.804 -2.94771 7.00724 0
M  V30 5408 N 514.379 -1.04941 -1.1758 0
M  V30 5409 C 515.79 -0.784501 -1.69418 0
M  V30 5410 C 516.141 0.693625 -1.8353 0
M  V30 5411 O 515.266 1.53925 -1.52106 0
M  V30 5412 C 515.861 -1.41746 -3.07723 0
M  V30 5413 C 514.42 -1.20066 -3.56737 0
M  V30 5414 C 513.567 -1.5026 -2.33061 0
M  V30 5415 H 516.518 -1.21469 -1.02133 0
M  V30 5416 H 516.539 -0.825381 -3.7144 0
M  V30 5417 H 516.051 -2.49325 -2.9742 0
M  V30 5418 H 514.152 -0.144006 -3.72322 0
M  V30 5419 H 514.265 -1.90384 -4.39648 0
M  V30 5420 H 512.629 -0.922598 -2.37403 0
M  V30 5421 H 513.412 -2.58967 -2.25368 0
M  V30 5422 N 515.857 1.33968 -0.830081 0
M  V30 5423 C 517.103 1.98357 -0.422191 0
M  V30 5424 C 517.436 1.65633 1.01387 0
M  V30 5425 O 516.711 0.931648 1.70735 0
M  V30 5426 C 516.994 3.54492 -0.633043 0
M  V30 5427 C 516.847 3.96934 -2.11574 0
M  V30 5428 C 518.166 4.40039 -0.0735584 0
M  V30 5429 H 515.285 0.720544 -0.154871 0
M  V30 5430 H 517.927 1.58749 -1.04397 0
M  V30 5431 H 516.077 3.88361 -0.103775 0
M  V30 5432 H 517.749 3.73363 -2.7092 0
M  V30 5433 H 515.992 3.46984 -2.60354 0
M  V30 5434 H 516.663 5.05651 -2.21406 0
M  V30 5435 H 519.139 4.12764 -0.52585 0
M  V30 5436 H 518.015 5.48327 -0.250841 0
M  V30 5437 H 518.276 4.30124 1.02202 0
M  V30 5438 N 517.335 0.585699 1.46312 0
M  V30 5439 C 518.245 -0.148236 2.34131 0
M  V30 5440 C 519.261 -0.882972 1.49932 0
M  V30 5441 O 520.437 -0.845484 1.82794 0
M  V30 5442 C 517.502 -1.14714 3.27172 0
M  V30 5443 C 516.563 -0.416746 4.27272 0
M  V30 5444 C 515.796 -1.36806 5.15868 0
M  V30 5445 O 516.019 -2.60475 5.07454 0
M  V30 5446 O 514.953 -0.877018 5.95476 0
M  V30 5447 H 518.779 0.572882 2.98248 0
M  V30 5448 H 516.364 0.346082 1.45336 0
M  V30 5449 H 518.246 -1.72303 3.84564 0
M  V30 5450 H 516.921 -1.84967 2.65648 0
M  V30 5451 H 515.828 0.201061 3.73559 0
M  V30 5452 H 517.161 0.244872 4.9159 0
M  V30 5453 N 518.813 -1.54241 0.323641 0
M  V30 5454 C 519.76 -2.24339 -0.542277 0
M  V30 5455 C 520.73 -1.23421 -1.11159 0
M  V30 5456 O 521.915 -1.52104 -1.15192 0
M  V30 5457 C 519.055 -3.00479 -1.69725 0
M  V30 5458 C 518.168 -4.16214 -1.15716 0
M  V30 5459 C 517.303 -4.79884 -2.27783 0
M  V30 5460 C 516.342 -5.87722 -1.71023 0
M  V30 5461 N 515.479 -6.45254 -2.76752 0
M  V30 5462 H 520.319 -2.97935 0.0620613 0
M  V30 5463 H 517.856 -1.47039 0.0423993 0
M  V30 5464 H 519.814 -3.42869 -2.3769 0
M  V30 5465 H 518.444 -2.29217 -2.27288 0
M  V30 5466 H 517.496 -3.78605 -0.369063 0
M  V30 5467 H 518.808 -4.93838 -0.701832 0
M  V30 5468 H 517.962 -5.25243 -3.03651 0
M  V30 5469 H 516.701 -4.01641 -2.76652 0
M  V30 5470 H 515.706 -5.41765 -0.936518 0
M  V30 5471 H 516.931 -6.67863 -1.2303 0
M  V30 5472 H 514.877 -5.69884 -3.24912 0
M  V30 5473 H 514.794 -7.18292 -2.35782 0
M  V30 5474 H 516.062 -6.95269 -3.5245 0
M  V30 5475 N 520.291 -0.0518155 -1.57515 0
M  V30 5476 C 521.221 0.920283 -2.146 0
M  V30 5477 C 522.202 1.32406 -1.06783 0
M  V30 5478 O 523.387 1.39866 -1.34726 0
M  V30 5479 C 520.517 2.1949 -2.6915 0
M  V30 5480 C 519.471 1.93116 -3.81956 0
M  V30 5481 C 518.797 3.27037 -4.23026 0
M  V30 5482 C 520.097 1.25225 -5.07066 0
M  V30 5483 H 521.791 0.444801 -2.96077 0
M  V30 5484 H 519.337 0.212508 -1.42423 0
M  V30 5485 H 521.29 2.87894 -3.07725 0
M  V30 5486 H 520.014 2.69244 -1.84865 0
M  V30 5487 H 518.673 1.27123 -3.43854 0
M  V30 5488 H 518.321 3.74595 -3.3569 0
M  V30 5489 H 518.021 3.10189 -4.99056 0
M  V30 5490 H 519.545 3.96673 -4.64202 0
M  V30 5491 H 520.959 1.83666 -5.43083 0
M  V30 5492 H 519.356 1.18702 -5.88243 0
M  V30 5493 H 520.426 0.228382 -4.84362 0
M  V30 5494 N 521.769 1.56035 0.221574 0
M  V30 5495 C 522.699 1.95434 1.2778 0
M  V30 5496 C 523.68 0.822564 1.48889 0
M  V30 5497 O 524.865 1.08486 1.61072 0
M  V30 5498 C 521.995 2.27102 2.62759 0
M  V30 5499 C 520.949 3.4277 2.56306 0
M  V30 5500 C 520.275 3.60043 3.95314 0
M  V30 5501 C 521.575 4.77742 2.11093 0
M  V30 5502 H 523.269 2.83912 0.950504 0
M  V30 5503 H 520.815 1.36596 0.455791 0
M  V30 5504 H 522.768 2.53256 3.36807 0
M  V30 5505 H 521.492 1.35478 2.97176 0
M  V30 5506 H 520.151 3.16664 1.84715 0
M  V30 5507 H 519.799 2.65794 4.27039 0
M  V30 5508 H 519.499 4.37841 3.91879 0
M  V30 5509 H 521.023 3.88545 4.71025 0
M  V30 5510 H 522.437 5.03102 2.74885 0
M  V30 5511 H 520.834 5.58823 2.18716 0
M  V30 5512 H 521.904 4.731 1.06321 0
M  V30 5513 N 523.247 -0.488276 1.49845 0
M  V30 5514 C 524.663 -0.820566 1.3689 0
M  V30 5515 C 524.863 -1.97248 0.411752 0
M  V30 5516 O 523.919 -2.52042 -0.151931 0
M  V30 5517 C 525.232 -1.1488 2.77891 0
M  V30 5518 C 526.78 -1.25626 2.86683 0
M  V30 5519 C 527.255 -1.61772 4.28479 0
M  V30 5520 N 528.746 -1.68797 4.31349 0
M  V30 5521 C 529.481 -1.98235 5.38043 0
M  V30 5522 N 528.977 -2.2581 6.54967 0
M  V30 5523 N 530.77 -1.99593 5.2547 0
M  V30 5524 H 522.921 0.271123 2.10662 0
M  V30 5525 H 525.184 0.058735 0.946179 0
M  V30 5526 H 524.89 -0.375614 3.49688 0
M  V30 5527 H 524.764 -2.08919 3.14058 0
M  V30 5528 H 527.151 -2.02014 2.15114 0
M  V30 5529 H 527.232 -0.296072 2.54081 0
M  V30 5530 H 526.876 -0.859295 5.00578 0
M  V30 5531 H 526.806 -2.58912 4.58554 0
M  V30 5532 H 529.297 -1.49595 3.4703 0
M  V30 5533 H 529.61 -2.47497 7.32096 0
M  V30 5534 H 527.955 -2.23239 6.58171 0
M  V30 5535 H 531.146 -1.77535 4.33127 0
M  V30 5536 H 531.319 -2.222 6.08713 0
M  V30 5537 N 524.725 -1.39134 -0.740242 0
M  V30 5538 C 526.002 -1.26584 -1.49117 0
M  V30 5539 C 526.382 0.126902 -2.10718 0
M  V30 5540 O 525.73 1.13765 -1.98166 0
M  V30 5541 C 525.94 -2.38619 -2.54681 0
M  V30 5542 C 527.288 -2.77685 -3.21211 0
M  V30 5543 O 528.312 -2.38029 -2.64991 0
M  V30 5544 O 527.171 -3.46115 -4.22926 0
M  V30 5545 H 524.265 -0.495769 -0.661923 0
M  V30 5546 H 526.811 -1.50995 -0.774514 0
M  V30 5547 H 525.583 -3.3175 -2.07504 0
M  V30 5548 H 525.206 -2.15845 -3.33911 0
M  V30 5549 N 526.204 0.969867 -1.24223 0
M  V30 5550 C 527.45 1.7151 -1.08223 0
M  V30 5551 C 527.783 1.90478 0.37838 0
M  V30 5552 O 527.058 1.4647 1.27971 0
M  V30 5553 C 527.341 3.10714 -1.82013 0
M  V30 5554 C 527.194 2.9925 -3.35811 0
M  V30 5555 C 528.513 4.10332 -1.59108 0
M  V30 5556 H 525.632 0.622499 -0.394543 0
M  V30 5557 H 528.274 1.1284 -1.52863 0
M  V30 5558 H 526.424 3.608 -1.44068 0
M  V30 5559 H 528.096 2.56608 -3.83341 0
M  V30 5560 H 526.339 2.35512 -3.64303 0
M  V30 5561 H 527.01 3.97857 -3.82641 0
M  V30 5562 H 529.486 3.69097 -1.92111 0
M  V30 5563 H 528.362 5.05804 -2.13198 0
M  V30 5564 H 528.623 4.38926 -0.528832 0
M  V30 5565 N 527.682 1.05563 1.17022 0
M  V30 5566 C 528.629 0.659893 2.21165 0
M  V30 5567 C 529.599 -0.339813 1.62587 0
M  V30 5568 O 530.784 -0.230378 1.89404 0
M  V30 5569 C 527.924 0.0447297 3.45071 0
M  V30 5570 C 527.037 1.09372 4.17926 0
M  V30 5571 C 526.172 0.445481 5.29329 0
M  V30 5572 C 525.211 1.47852 5.93975 0
M  V30 5573 N 524.348 0.854172 6.96885 0
M  V30 5574 H 529.188 1.55243 2.54369 0
M  V30 5575 H 526.725 0.776336 1.24946 0
M  V30 5576 H 528.683 -0.329404 4.15898 0
M  V30 5577 H 527.313 -0.811244 3.1244 0
M  V30 5578 H 526.365 1.58564 3.45777 0
M  V30 5579 H 527.677 1.87773 4.62107 0
M  V30 5580 H 526.831 0.0179688 6.06697 0
M  V30 5581 H 525.57 -0.370481 4.86291 0
M  V30 5582 H 524.575 1.91601 5.15334 0
M  V30 5583 H 525.8 2.29645 6.39093 0
M  V30 5584 H 523.746 0.0587882 6.55974 0
M  V30 5585 H 523.663 1.57567 7.39397 0
M  V30 5586 H 524.931 0.451559 7.78191 0
M  V30 5587 N 529.16 -1.33526 0.837174 0
M  V30 5588 C 530.09 -2.31764 0.284206 0
M  V30 5589 C 531.071 -1.58896 -0.607142 0
M  V30 5590 O 532.256 -1.86798 -0.531047 0
M  V30 5591 C 529.386 -3.43029 -0.542962 0
M  V30 5592 C 528.34 -4.27255 0.252451 0
M  V30 5593 C 527.666 -5.3012 -0.69836 0
M  V30 5594 C 528.966 -5.01229 1.46858 0
M  V30 5595 H 530.66 -2.78262 1.10502 0
M  V30 5596 H 528.206 -1.3378 0.532812 0
M  V30 5597 H 530.159 -4.1078 -0.940096 0
M  V30 5598 H 528.883 -2.95216 -1.39697 0
M  V30 5599 H 527.542 -3.61127 0.631124 0
M  V30 5600 H 527.19 -4.78564 -1.54872 0
M  V30 5601 H 526.89 -5.87353 -0.170274 0
M  V30 5602 H 528.414 -6.00737 -1.09305 0
M  V30 5603 H 529.828 -5.61756 1.14469 0
M  V30 5604 H 528.225 -5.68104 1.93333 0
M  V30 5605 H 529.295 -4.301 2.23924 0
M  V30 5606 N 530.638 -0.59345 -1.46 0
M  V30 5607 C 531.586 0.146268 -2.3214 0
M  V30 5608 C 532.58 0.873743 -1.45128 0
M  V30 5609 O 533.786 0.790912 -1.61693 0
M  V30 5610 H 530.161 0.0660349 -0.749095 0
M  V30 5611 H 532.132 -0.598895 -2.92328 0
M  V30 5612 C 530.881 1.1396 -3.28494 0
M  V30 5613 H 530.204 0.589252 -3.95434 0
M  V30 5614 H 531.644 1.62738 -3.91526 0
M  V30 5615 C 530.103 2.20604 -2.54628 0
M  V30 5616 O 530.633 3.28128 -2.31722 0
M  V30 5617 N 528.839 1.95502 -2.15005 0
M  V30 5618 H 528.386 1.0807 -2.33834 0
M  V30 5619 H 528.344 2.67064 -1.65904 0
M  V30 5620 N 532.116 1.54067 -0.331816 0
M  V30 5621 C 533.048 2.22139 0.564538 0
M  V30 5622 C 534.061 1.22408 1.07332 0
M  V30 5623 O 535.25 1.4883 0.985481 0
M  V30 5624 C 532.35 2.87876 1.78831 0
M  V30 5625 C 531.523 4.13817 1.41682 0
M  V30 5626 C 530.582 4.63072 2.49901 0
M  V30 5627 O 529.608 5.27562 2.13699 0
M  V30 5628 N 530.81 4.38001 3.80967 0
M  V30 5629 H 533.575 2.99694 -0.0183736 0
M  V30 5630 H 531.136 1.61153 -0.155396 0
M  V30 5631 H 533.128 3.17747 2.50637 0
M  V30 5632 H 531.698 2.13977 2.27887 0
M  V30 5633 H 530.918 3.9062 0.530044 0
M  V30 5634 H 532.206 4.95762 1.14443 0
M  V30 5635 H 531.604 3.864 4.13173 0
M  V30 5636 H 530.161 4.72507 4.48977 0
M  V30 5637 N 533.594 0.0601682 1.57485 0
M  V30 5638 C 534.843 -0.611101 1.9222 0
M  V30 5639 C 535.156 -1.71469 0.941159 0
M  V30 5640 O 536.362 -2.44473 1.18089 0
M  V30 5641 C 534.818 -1.13832 3.41424 0
M  V30 5642 C 534.426 -0.0663596 4.47951 0
M  V30 5643 C 536.17 -1.78432 3.85178 0
M  V30 5644 C 534.077 -0.606965 5.88277 0
M  V30 5645 H 533.007 -0.232033 0.71741 0
M  V30 5646 H 535.658 0.130518 1.83035 0
M  V30 5647 H 534.04 -1.93254 3.45643 0
M  V30 5648 H 535.214 0.707682 4.55333 0
M  V30 5649 H 533.529 0.482715 4.13593 0
M  V30 5650 H 536.126 -2.1989 4.87394 0
M  V30 5651 H 536.469 -2.63966 3.21913 0
M  V30 5652 H 537.002 -1.05651 3.83514 0
M  V30 5653 H 533.741 0.21095 6.5516 0
M  V30 5654 H 533.261 -1.34879 5.84438 0
M  V30 5655 H 534.94 -1.08704 6.37803 0
M  V30 5656 N 535.072 -1.5615 -0.213296 0
M  V30 5657 C 536.302 -1.83372 -0.951757 0
M  V30 5658 C 536.71 -0.638158 -1.78113 0
M  V30 5659 O 536.053 0.402609 -1.79234 0
M  V30 5660 C 536.115 -3.04444 -1.91192 0
M  V30 5661 C 535.779 -4.39107 -1.26627 0
M  V30 5662 C 536.776 -5.15794 -0.652087 0
M  V30 5663 C 534.461 -4.85834 -1.27556 0
M  V30 5664 C 536.455 -6.37376 -0.055814 0
M  V30 5665 C 534.142 -6.07356 -0.675451 0
M  V30 5666 C 535.14 -6.82967 -0.0666367 0
M  V30 5667 O 534.828 -8.0219 0.524119 0
M  V30 5668 H 534.56 -0.613398 -0.284111 0
M  V30 5669 H 537.114 -2.04096 -0.231112 0
M  V30 5670 H 535.344 -2.79559 -2.67178 0
M  V30 5671 H 537.033 -3.18466 -2.51662 0
M  V30 5672 H 537.799 -4.80796 -0.637172 0
M  V30 5673 H 533.678 -4.26949 -1.73883 0
M  V30 5674 H 537.222 -6.96334 0.420004 0
M  V30 5675 H 533.119 -6.41825 -0.687806 0
M  V30 5676 H 533.887 -8.17426 0.419243 0
M  V30 5677 N 536.55 0.480323 -1.50102 0
M  V30 5678 C 537.46 1.60547 -1.71061 0
M  V30 5679 C 538.476 1.63564 -0.593529 0
M  V30 5680 O 539.652 1.81604 -0.870751 0
M  V30 5681 C 536.717 2.96814 -1.79171 0
M  V30 5682 C 535.778 3.04259 -3.02861 0
M  V30 5683 C 535.011 4.34027 -3.10574 0
M  V30 5684 O 535.234 5.24009 -2.25323 0
M  V30 5685 O 534.168 4.46873 -4.03223 0
M  V30 5686 H 537.994 1.45788 -2.6642 0
M  V30 5687 H 535.579 0.658838 -1.34088 0
M  V30 5688 H 537.461 3.77765 -1.86738 0
M  V30 5689 H 536.136 3.11791 -0.869947 0
M  V30 5690 H 535.043 2.22419 -3.008 0
M  V30 5691 H 536.376 2.94216 -3.94586 0
M  V30 5692 N 538.028 1.39524 0.732853 0
M  V30 5693 C 539.276 1.36594 1.48951 0
M  V30 5694 C 539.597 -0.0367507 1.94965 0
M  V30 5695 O 538.867 -0.988391 1.69138 0
M  V30 5696 H 537.447 0.502673 0.552566 0
M  V30 5697 H 540.109 1.74411 0.869869 0
M  V30 5698 H 539.205 2.03 2.3706 0
M  V30 5699 N 539.506 -0.963266 1.24736 0
M  V30 5700 C 540.734 -1.74166 1.11686 0
M  V30 5701 C 541.149 -1.8589 -0.330187 0
M  V30 5702 O 540.506 -1.35042 -1.2276 0
M  V30 5703 C 540.557 -3.15989 1.75595 0
M  V30 5704 O 540.278 -3.04847 3.14642 0
M  V30 5705 C 541.779 -4.10145 1.68213 0
M  V30 5706 H 538.999 -0.546031 0.389989 0
M  V30 5707 H 541.543 -1.20907 1.64929 0
M  V30 5708 H 539.698 -3.66219 1.26343 0
M  V30 5709 H 540.112 -3.9425 3.4593 0
M  V30 5710 H 541.586 -5.07299 2.17604 0
M  V30 5711 H 542.063 -4.3445 0.644208 0
M  V30 5712 H 542.669 -3.65827 2.16912 0
M  V30 5713 N 540.985 -1.06182 -1.16461 0
M  V30 5714 C 541.933 -0.665716 -2.2287 0
M  V30 5715 C 542.927 0.317822 -1.66392 0
M  V30 5716 O 544.133 0.182807 -1.79069 0
M  V30 5717 H 540.508 -0.197148 -0.725697 0
M  V30 5718 H 542.479 -1.57307 -2.53569 0
M  V30 5719 C 541.228 -0.0669803 -3.47635 0
M  V30 5720 H 540.551 -0.814899 -3.91407 0
M  V30 5721 H 541.991 0.172669 -4.23648 0
M  V30 5722 C 540.45 1.18913 -3.15216 0
M  V30 5723 O 540.98 2.27723 -3.30916 0
M  V30 5724 N 539.186 1.09066 -2.69357 0
M  V30 5725 H 538.733 0.20518 -2.56782 0
M  V30 5726 H 538.691 1.93195 -2.48039 0
M  V30 5727 N 542.463 1.3308 -0.844243 0
M  V30 5728 C 543.373 2.32876 -0.283922 0
M  V30 5729 C 544.389 1.63589 0.592846 0
M  V30 5730 O 545.565 1.95205 0.495693 0
M  V30 5731 C 542.63 3.42667 0.527283 0
M  V30 5732 C 541.691 4.27664 -0.374394 0
M  V30 5733 C 540.924 5.32212 0.39819 0
M  V30 5734 O 541.147 5.46635 1.62932 0
M  V30 5735 O 540.081 6.01458 -0.2306 0
M  V30 5736 H 543.907 2.82671 -1.11045 0
M  V30 5737 H 541.492 1.36518 -0.606903 0
M  V30 5738 H 543.374 4.09652 0.988078 0
M  V30 5739 H 542.049 2.95079 1.33078 0
M  V30 5740 H 540.956 3.63526 -0.883144 0
M  V30 5741 H 542.289 4.78749 -1.1428 0
M  V30 5742 N 543.941 0.601185 1.45683 0
M  V30 5743 C 545.19 0.0914953 2.01492 0
M  V30 5744 C 545.503 -1.28331 1.47616 0
M  V30 5745 O 546.709 -1.88537 1.95362 0
M  V30 5746 C 545.165 0.11291 3.59723 0
M  V30 5747 C 544.773 1.48717 4.22596 0
M  V30 5748 C 546.517 -0.341871 4.23121 0
M  V30 5749 C 544.424 1.46531 5.7296 0
M  V30 5750 H 543.354 0.0304365 0.753385 0
M  V30 5751 H 546.005 0.755568 1.67223 0
M  V30 5752 H 544.387 -0.617692 3.91153 0
M  V30 5753 H 545.561 2.23897 4.02749 0
M  V30 5754 H 543.876 1.88351 3.71366 0
M  V30 5755 H 546.473 -0.377304 5.33367 0
M  V30 5756 H 546.816 -1.36325 3.93346 0
M  V30 5757 H 547.349 0.335256 3.96385 0
M  V30 5758 H 544.088 2.46408 6.07423 0
M  V30 5759 H 543.608 0.755997 5.95017 0
M  V30 5760 H 545.287 1.18618 6.36034 0
M  V30 5761 N 545.419 -1.53889 0.339982 0
M  V30 5762 C 546.351 -2.22435 -0.55275 0
M  V30 5763 C 547.364 -1.22975 -1.06681 0
M  V30 5764 O 548.553 -1.49351 -0.977575 0
M  V30 5765 C 545.653 -2.8882 -1.77302 0
M  V30 5766 C 544.826 -4.14563 -1.39486 0
M  V30 5767 C 543.885 -4.64391 -2.47442 0
M  V30 5768 O 542.911 -5.28687 -2.10899 0
M  V30 5769 N 544.113 -4.40015 -3.78639 0
M  V30 5770 H 546.878 -2.9968 0.0342669 0
M  V30 5771 H 544.439 -1.61068 0.16394 0
M  V30 5772 H 546.431 -3.19072 -2.48948 0
M  V30 5773 H 545.001 -2.15182 -2.26749 0
M  V30 5774 H 544.221 -3.90896 -0.509321 0
M  V30 5775 H 545.509 -4.96362 -1.11813 0
M  V30 5776 H 544.907 -3.88586 -4.11118 0
M  V30 5777 H 543.464 -4.74881 -4.46465 0
M  V30 5778 N 546.897 -0.0685191 -1.57451 0
M  V30 5779 C 548.313 0.288101 -1.56978 0
M  V30 5780 C 548.513 1.70262 -1.07765 0
M  V30 5781 O 547.569 2.4135 -0.742054 0
M  V30 5782 C 548.882 0.100745 -3.00531 0
M  V30 5783 C 550.43 0.170531 -3.12535 0
M  V30 5784 C 550.905 0.0114944 -4.57999 0
M  V30 5785 N 552.396 0.0672065 -4.63151 0
M  V30 5786 C 553.131 -0.0314813 -5.73391 0
M  V30 5787 N 552.627 -0.183503 -6.92557 0
M  V30 5788 N 554.42 0.0253489 -5.62094 0
M  V30 5789 H 546.571 -0.993026 -1.87757 0
M  V30 5790 H 548.834 -0.386981 -0.865419 0
M  V30 5791 H 548.54 -0.875197 -3.40636 0
M  V30 5792 H 548.414 0.854457 -3.67395 0
M  V30 5793 H 550.801 1.13696 -2.72318 0
M  V30 5794 H 550.882 -0.614229 -2.48316 0
M  V30 5795 H 550.526 -0.951684 -4.98904 0
M  V30 5796 H 550.456 0.815617 -5.20245 0
M  V30 5797 H 552.947 0.183246 -3.77455 0
M  V30 5798 H 553.26 -0.251041 -7.72392 0
M  V30 5799 H 551.605 -0.218822 -6.94655 0
M  V30 5800 H 554.796 0.142794 -4.67882 0
M  V30 5801 H 554.969 -0.0550166 -6.47977 0
M  V30 5802 N 548.375 1.56261 0.205012 0
M  V30 5803 C 549.305 1.96779 1.257 0
M  V30 5804 C 550.286 0.838309 1.48008 0
M  V30 5805 O 551.471 1.10189 1.59913 0
M  V30 5806 C 548.601 2.29876 2.60335 0
M  V30 5807 C 547.555 3.45469 2.52656 0
M  V30 5808 C 546.881 3.64215 3.91473 0
M  V30 5809 C 548.181 4.79954 2.06014 0
M  V30 5810 H 549.875 2.84904 0.920338 0
M  V30 5811 H 547.421 1.37072 0.441277 0
M  V30 5812 H 549.374 2.56814 3.34102 0
M  V30 5813 H 548.098 1.38622 2.95722 0
M  V30 5814 H 546.757 3.18605 1.81345 0
M  V30 5815 H 546.405 2.70309 4.24196 0
M  V30 5816 H 546.105 4.41973 3.87213 0
M  V30 5817 H 547.629 3.93519 4.66878 0
M  V30 5818 H 549.043 5.05989 2.69533 0
M  V30 5819 H 547.44 5.61111 2.12777 0
M  V30 5820 H 548.51 4.74201 1.01297 0
M  V30 5821 N 549.853 -0.472356 1.50355 0
M  V30 5822 C 551.102 -1.2213 1.60522 0
M  V30 5823 C 551.415 -1.9312 0.310466 0
M  V30 5824 O 552.621 -2.69936 0.291029 0
M  V30 5825 C 551.077 -2.21909 2.83345 0
M  V30 5826 C 550.685 -1.56727 4.19691 0
M  V30 5827 C 552.429 -2.97453 3.02856 0
M  V30 5828 C 550.336 -2.54785 5.33703 0
M  V30 5829 H 549.266 -0.459543 0.597776 0
M  V30 5830 H 551.917 -0.491922 1.76783 0
M  V30 5831 H 550.299 -2.98133 2.60639 0
M  V30 5832 H 551.473 -0.863007 4.52646 0
M  V30 5833 H 549.788 -0.934685 4.05774 0
M  V30 5834 H 552.385 -3.70838 3.85205 0
M  V30 5835 H 552.728 -3.56764 2.14534 0
M  V30 5836 H 553.261 -2.28342 3.25737 0
M  V30 5837 H 550 -2.00214 6.24175 0
M  V30 5838 H 549.52 -3.23367 5.05167 0
M  V30 5839 H 551.199 -3.16639 5.64224 0
M  V30 5840 N 551.331 -1.39911 -0.725443 0
M  V30 5841 C 552.58 -1.36963 -1.48068 0
M  V30 5842 C 552.893 0.0284478 -1.95579 0
M  V30 5843 O 554.099 0.180535 -2.70899 0
M  V30 5844 C 552.555 -2.40664 -2.67598 0
M  V30 5845 C 552.163 -3.86234 -2.26997 0
M  V30 5846 C 553.907 -2.46807 -3.45379 0
M  V30 5847 C 551.814 -4.81554 -3.43307 0
M  V30 5848 H 550.744 -0.509223 -0.556065 0
M  V30 5849 H 553.395 -1.65602 -0.790454 0
M  V30 5850 H 551.777 -2.05109 -3.38742 0
M  V30 5851 H 552.951 -4.3088 -1.63337 0
M  V30 5852 H 551.266 -3.83475 -1.62284 0
M  V30 5853 H 553.863 -3.15213 -4.31909 0
M  V30 5854 H 554.206 -1.49552 -3.8851 0
M  V30 5855 H 554.739 -2.81303 -2.81271 0
M  V30 5856 H 551.478 -5.80106 -3.05217 0
M  V30 5857 H 550.998 -4.4158 -4.05915 0
M  V30 5858 H 552.677 -5.0091 -4.0951 0
M  V30 5859 N 552.809 0.956637 -1.25245 0
M  V30 5860 C 553.772 2.03457 -1.05537 0
M  V30 5861 C 554.772 1.60798 -0.00886317 0
M  V30 5862 O 555.962 1.72384 -0.250865 0
M  V30 5863 C 553.094 3.35543 -0.601965 0
M  V30 5864 H 554.287 2.22372 -2.01223 0
M  V30 5865 H 551.84 1.13344 -1.07623 0
M  V30 5866 H 552.575 3.22323 0.357584 0
M  V30 5867 H 552.36 3.67854 -1.35743 0
M  V30 5868 H 553.85 4.14769 -0.485454 0
M  V30 5869 N 554.287 1.06798 1.15896 0
M  V30 5870 C 555.703 0.792423 1.38538 0
M  V30 5871 C 555.903 -0.60592 1.92174 0
M  V30 5872 O 554.959 -1.36561 2.12385 0
M  V30 5873 C 556.272 1.86157 2.36149 0
M  V30 5874 C 557.82 1.88567 2.49823 0
M  V30 5875 C 558.295 2.9455 3.5072 0
M  V30 5876 N 559.786 2.93616 3.58251 0
M  V30 5877 C 560.521 3.72267 4.36125 0
M  V30 5878 N 560.017 4.60751 5.17379 0
M  V30 5879 N 561.81 3.60637 4.31158 0
M  V30 5880 H 553.961 1.96993 0.794198 0
M  V30 5881 H 556.224 0.853942 0.411688 0
M  V30 5882 H 555.93 2.86603 2.03843 0
M  V30 5883 H 555.804 1.71692 3.3586 0
M  V30 5884 H 558.191 0.887765 2.8143 0
M  V30 5885 H 558.272 2.0711 1.5013 0
M  V30 5886 H 557.916 3.94537 3.19849 0
M  V30 5887 H 557.846 2.73255 4.50155 0
M  V30 5888 H 560.337 2.29472 3.00252 0
M  V30 5889 H 560.65 5.17408 5.74028 0
M  V30 5890 H 558.995 4.64803 5.16704 0
M  V30 5891 H 562.186 2.90892 3.66742 0
M  V30 5892 H 562.359 4.22176 4.91601 0
M  V30 5893 N 555.766 -1.3263 0.851289 0
M  V30 5894 C 556.716 -2.26451 0.265302 0
M  V30 5895 C 557.7 -1.49814 -0.586899 0
M  V30 5896 O 558.892 -1.71525 -0.436834 0
M  V30 5897 C 556.021 -3.38895 -0.548212 0
M  V30 5898 C 555.107 -4.2292 0.316189 0
M  V30 5899 N 555.498 -4.86014 1.40084 0
M  V30 5900 C 553.796 -4.45876 0.105356 0
M  V30 5901 C 554.497 -5.48667 1.93235 0
M  V30 5902 N 553.473 -5.29455 1.232 0
M  V30 5903 H 557.275 -2.72757 1.09457 0
M  V30 5904 H 554.789 -1.4668 0.697047 0
M  V30 5905 H 556.786 -4.05111 -0.984402 0
M  V30 5906 H 555.446 -2.94135 -1.37531 0
M  V30 5907 H 556.457 -4.86212 1.78377 0
M  V30 5908 H 553.134 -4.11804 -0.687299 0
M  V30 5909 H 554.524 -6.08865 2.84135 0
M  V30 5910 N 557.244 -0.608902 -1.45362 0
M  V30 5911 C 558.493 -0.10218 -2.01441 0
M  V30 5912 C 558.806 1.27546 -1.48295 0
M  V30 5913 O 560.012 1.87498 -1.96359 0
M  V30 5914 C 558.468 -0.131985 -3.59658 0
M  V30 5915 C 558.076 -1.50956 -4.21801 0
M  V30 5916 C 559.82 0.319427 -4.23296 0
M  V30 5917 C 557.727 -1.49568 -5.72174 0
M  V30 5918 H 556.657 -0.0344314 -0.753213 0
M  V30 5919 H 559.308 -0.764426 -1.6682 0
M  V30 5920 H 557.69 0.596939 -3.91475 0
M  V30 5921 H 558.864 -2.26029 -4.01556 0
M  V30 5922 H 557.179 -1.90318 -3.70362 0
M  V30 5923 H 559.776 0.349013 -5.3356 0
M  V30 5924 H 560.119 1.34237 -3.94064 0
M  V30 5925 H 560.652 -0.356273 -3.96201 0
M  V30 5926 H 557.391 -2.49626 -6.06108 0
M  V30 5927 H 556.911 -0.787542 -5.94607 0
M  V30 5928 H 558.59 -1.21989 -6.35396 0
M  V30 5929 N 558.722 1.53707 -0.348139 0
M  V30 5930 C 559.652 2.28111 0.498766 0
M  V30 5931 C 560.633 1.29851 1.09876 0
M  V30 5932 O 561.818 1.587 1.11928 0
M  V30 5933 C 558.948 3.05735 1.64753 0
M  V30 5934 C 557.902 4.11537 1.17565 0
M  V30 5935 C 557.228 4.77142 2.4133 0
M  V30 5936 C 558.528 5.21587 0.272844 0
M  V30 5937 H 560.222 2.99152 -0.121934 0
M  V30 5938 H 557.768 1.43875 -0.0600842 0
M  V30 5939 H 559.721 3.56526 2.24649 0
M  V30 5940 H 558.445 2.32354 2.2952 0
M  V30 5941 H 557.104 3.61665 0.599483 0
M  V30 5942 H 556.752 4.0035 3.04514 0
M  V30 5943 H 556.452 5.48626 2.10436 0
M  V30 5944 H 557.976 5.30719 3.01943 0
M  V30 5945 H 559.39 5.67986 0.778779 0
M  V30 5946 H 557.787 6.00074 0.0555849 0
M  V30 5947 H 558.857 4.79969 -0.689785 0
M  V30 5948 N 560.2 0.0768682 1.57412 0
M  V30 5949 C 561.163 -0.873949 2.11884 0
M  V30 5950 C 562.163 -1.22301 1.04398 0
M  V30 5951 O 563.353 -1.15545 1.30365 0
M  V30 5952 C 560.485 -2.17575 2.62438 0
M  V30 5953 H 561.678 -0.401278 2.97203 0
M  V30 5954 H 559.231 -0.171904 1.55352 0
M  V30 5955 H 559.966 -2.69368 1.80587 0
M  V30 5956 H 559.751 -1.93534 3.41009 0
M  V30 5957 H 561.241 -2.85631 3.04639 0
M  V30 5958 N 561.678 -1.56367 -0.196722 0
M  V30 5959 C 562.588 -1.97617 -1.2643 0
M  V30 5960 C 563.604 -0.883598 -1.49895 0
M  V30 5961 O 564.78 -1.18921 -1.62541 0
M  V30 5962 C 561.845 -2.30595 -2.58895 0
M  V30 5963 C 560.906 -3.53551 -2.43516 0
M  V30 5964 C 560.139 -3.84946 -3.69665 0
M  V30 5965 O 560.362 -3.17655 -4.73763 0
M  V30 5966 O 559.296 -4.78379 -3.65291 0
M  V30 5967 H 563.122 -2.88648 -0.944233 0
M  V30 5968 H 560.707 -1.43901 -0.401592 0
M  V30 5969 H 562.589 -2.52889 -3.37083 0
M  V30 5970 H 561.264 -1.42732 -2.90533 0
M  V30 5971 H 560.171 -3.36507 -1.63445 0
M  V30 5972 H 561.504 -4.41875 -2.16812 0
M  V30 5973 O 563.195 0.341958 -1.57838 0
M  V30 5974 H 563.886 0.991482 -1.66401 0
M  V30 END ATOM
M  V30 BEGIN BOND
M  V30 END BOND
M  V30 END CTAB
M  END
$$$$
