drugbank_target|Q734I1 Transcriptional regulator, GntR family (DB02078)
 OpenBabel12092120503D

  0  0  0     0  0            999 V3000
M  V30 BEGIN CTAB
M  V30 COUNTS 3965 3998 0 0 0
M  V30 BEGIN ATOM
M  V30 1 H -0.908 1.98254 -0.117106 0
M  V30 2 N 0 1.576 0 0
M  V30 3 C 0.933 2.03868 1.02534 0
M  V30 4 C 1.911 0.928543 1.3348 0
M  V30 5 O 3.095 1.19667 1.45644 0
M  V30 6 C 0.222 2.43627 2.35294 0
M  V30 7 C -0.732 3.65373 2.2001 0
M  V30 8 S 0.101 5.13292 1.52614 0
M  V30 9 C 1.257 5.56322 2.86805 0
M  V30 10 H 1.49 2.90518 0.631377 0
M  V30 11 H -0.977 1.52953 0.210867 0
M  V30 12 H 0.981 2.67203 3.11629 0
M  V30 13 H -0.358 1.57376 2.7183 0
M  V30 14 H -1.165 3.90944 3.18086 0
M  V30 15 H -1.563 3.418 1.51819 0
M  V30 16 H 0.729 5.58782 3.83104 0
M  V30 17 H 1.672 6.56266 2.65933 0
M  V30 18 H 2.08 4.83886 2.90714 0
M  V30 19 N 1.4781 -0.272755 1.55222 0
M  V30 20 C 2.4411 -1.32041 1.87344 0
M  V30 21 C 3.4411 -1.42342 0.74803 0
M  V30 22 O 4.6311 -1.41488 1.0162 0
M  V30 23 C 1.7631 -2.70173 2.07893 0
M  V30 24 H 2.9561 -1.04789 2.80997 0
M  V30 25 H 0.5091 -0.51083 1.47717 0
M  V30 26 H 1.2441 -3.02605 1.16622 0
M  V30 27 H 1.0291 -2.64082 2.89833 0
M  V30 28 H 2.5191 -3.45869 2.34017 0
M  V30 29 N 2.9562 -1.48159 -0.537278 0
M  V30 30 C 4.1812 -1.59707 -1.32319 0
M  V30 31 C 4.6062 -0.254859 -1.86365 0
M  V30 32 O 3.9642 0.772378 -1.64024 0
M  V30 33 C 4.0122 -2.6412 -2.45505 0
M  V30 34 O 3.1162 -2.20774 -3.48328 0
M  V30 35 H 2.4572 -0.535791 -0.392204 0
M  V30 36 H 4.9872 -1.94092 -0.647268 0
M  V30 37 H 4.9972 -2.85166 -2.91795 0
M  V30 38 H 3.6722 -3.61567 -2.05528 0
M  V30 39 H 2.2492 -2.09911 -3.08207 0
M  V30 40 N 4.4343 0.785586 -1.36625 0
M  V30 41 C 5.6823 1.54057 -1.30808 0
M  V30 42 C 6.0033 1.94683 0.111157 0
M  V30 43 O 5.2733 1.65241 1.05224 0
M  V30 44 H 3.8533 0.571354 -0.481211 0
M  V30 45 H 6.5153 0.935821 -1.70963 0
M  V30 46 H 5.6113 2.44637 -1.93801 0
M  V30 47 N 5.9124 1.20967 1.01018 0
M  V30 48 C 7.1374 1.0503 1.78839 0
M  V30 49 C 7.5624 -0.395752 1.8389 0
M  V30 50 O 6.9204 -1.28529 1.27867 0
M  V30 51 C 6.9684 1.64602 3.2084 0
M  V30 52 O 6.0724 0.887988 4.02726 0
M  V30 53 H 5.4134 0.369987 0.551367 0
M  V30 54 H 7.9434 1.60399 1.27018 0
M  V30 55 H 7.9534 1.68607 3.71532 0
M  V30 56 H 6.6284 2.69841 3.16479 0
M  V30 57 H 5.2054 0.922648 3.61305 0
M  V30 58 N 7.3905 -1.2043 1.01659 0
M  V30 59 C 8.6185 -1.93777 0.725132 0
M  V30 60 C 9.0335 -1.74772 -0.714166 0
M  V30 61 O 8.3905 -1.06169 -1.4844 0
M  V30 62 C 8.4415 -3.45876 1.05129 0
M  V30 63 O 8.1625 -3.6426 2.43406 0
M  V30 64 C 9.6635 -4.36368 0.780891 0
M  V30 65 H 6.8835 -0.615901 0.266284 0
M  V30 66 H 9.4275 -1.52922 1.35776 0
M  V30 67 H 7.5825 -3.8461 0.464065 0
M  V30 68 H 7.9965 -4.58246 2.55169 0
M  V30 69 H 9.4705 -5.41743 1.05918 0
M  V30 70 H 9.9475 -4.38275 -0.284937 0
M  V30 71 H 10.5535 -4.03296 1.35027 0
M  V30 72 N 8.8686 -0.792821 -1.36206 0
M  V30 73 C 9.8006 -0.151469 -2.28699 0
M  V30 74 C 10.8136 0.641262 -1.49638 0
M  V30 75 O 12.0026 0.475885 -1.72039 0
M  V30 76 C 9.1026 0.808424 -3.29117 0
M  V30 77 C 8.2756 0.0650202 -4.37352 0
M  V30 78 C 7.3346 0.941358 -5.17711 0
M  V30 79 O 6.3606 0.397352 -5.67811 0
M  V30 80 N 7.5626 2.2652 -5.3448 0
M  V30 81 H 10.3276 -0.945982 -2.84379 0
M  V30 82 H 7.8886 -0.647032 -1.48409 0
M  V30 83 H 9.8806 1.3986 -3.79765 0
M  V30 84 H 8.4506 1.5038 -2.74052 0
M  V30 85 H 7.6706 -0.706255 -3.87822 0
M  V30 86 H 8.9586 -0.447847 -5.06825 0
M  V30 87 H 8.3566 2.73128 -4.95396 0
M  V30 88 H 6.9136 2.80493 -5.88359 0
M  V30 89 N 10.3467 1.47872 -0.545128 0
M  V30 90 C 11.5927 2.02793 -0.0166104 0
M  V30 91 C 11.9257 1.41987 1.32489 0
M  V30 92 O 11.2007 0.571045 1.85928 0
M  V30 93 C 11.4837 3.59989 0.0893294 0
M  V30 94 C 11.3367 4.3125 -1.27841 0
M  V30 95 C 12.6557 4.32606 0.808724 0
M  V30 96 H 9.7747 0.736962 -0.00751035 0
M  V30 97 H 12.4167 1.76433 -0.705085 0
M  V30 98 H 10.5667 3.82579 0.675681 0
M  V30 99 H 12.2387 4.20035 -1.90704 0
M  V30 100 H 10.4817 3.92076 -1.85632 0
M  V30 101 H 11.1527 5.39736 -1.15713 0
M  V30 102 H 13.6287 4.14936 0.310992 0
M  V30 103 H 12.5047 5.42251 0.851782 0
M  V30 104 H 12.7657 4.00963 1.86229 0
M  V30 105 N 11.8248 0.280983 1.55075 0
M  V30 106 C 12.7718 -0.603937 2.22758 0
M  V30 107 C 13.7418 -1.1452 1.20309 0
M  V30 108 O 14.9268 -1.19343 1.48869 0
M  V30 109 C 12.0668 -1.77947 2.95684 0
M  V30 110 C 11.1798 -1.2715 4.12864 0
M  V30 111 C 10.3148 -2.4093 4.7342 0
M  V30 112 C 9.3538 -1.87165 5.82783 0
M  V30 113 N 8.4908 -2.94441 6.37377 0
M  V30 114 H 13.3308 -0.020124 2.97993 0
M  V30 115 H 10.8678 0.00183425 1.471 0
M  V30 116 H 12.8258 -2.47055 3.36184 0
M  V30 117 H 11.4558 -2.33522 2.22861 0
M  V30 118 H 10.5078 -0.473331 3.77444 0
M  V30 119 H 11.8198 -0.837751 4.91715 0
M  V30 120 H 10.9738 -3.18021 5.1667 0
M  V30 121 H 9.7128 -2.87623 3.93859 0
M  V30 122 H 8.7178 -1.08556 5.38976 0
M  V30 123 H 9.9428 -1.41401 6.64216 0
M  V30 124 H 7.8888 -3.40505 5.60707 0
M  V30 125 H 7.8058 -2.55501 7.11516 0
M  V30 126 H 9.0738 -3.71489 6.85285 0
M  V30 127 N 13.3029 -1.57598 0.00835791 0
M  V30 128 C 14.5329 -1.94931 -0.684496 0
M  V30 129 C 14.9409 -0.882233 -1.67372 0
M  V30 130 O 14.2839 0.146621 -1.83114 0
M  V30 131 C 14.3459 -3.283 -1.4649 0
M  V30 132 C 14.0099 -4.52548 -0.63634 0
M  V30 133 C 15.0069 -5.19839 0.0795586 0
M  V30 134 C 12.6919 -4.98942 -0.579849 0
M  V30 135 C 14.6859 -6.3183 0.840843 0
M  V30 136 C 12.3729 -6.10819 0.185155 0
M  V30 137 C 13.3709 -6.77121 0.894227 0
M  V30 138 O 13.0589 -7.86853 1.64673 0
M  V30 139 H 12.7909 -0.647249 -0.19505 0
M  V30 140 H 15.3449 -2.05318 0.0581272 0
M  V30 141 H 13.5749 -3.14345 -2.2522 0
M  V30 142 H 15.2639 -3.50685 -2.04389 0
M  V30 143 H 16.0299 -4.84979 0.0451202 0
M  V30 144 H 11.9089 -4.47155 -1.1213 0
M  V30 145 H 15.4529 -6.83513 1.39483 0
M  V30 146 H 11.3499 -6.4512 0.221384 0
M  V30 147 H 12.1179 -8.03412 1.56432 0
M  V30 148 N 14.781 0.264519 -1.55364 0
M  V30 149 C 15.711 1.33121 -1.91836 0
M  V30 150 C 16.692 1.51101 -0.781192 0
M  V30 151 O 17.877 1.64003 -1.04003 0
M  V30 152 C 15.007 2.68921 -2.19769 0
M  V30 153 C 13.961 2.65661 -3.35571 0
M  V30 154 C 13.287 4.05093 -3.49004 0
M  V30 155 C 14.587 2.24187 -4.71739 0
M  V30 156 H 16.281 1.02844 -2.81182 0
M  V30 157 H 13.827 0.493286 -1.35287 0
M  V30 158 H 15.78 3.43663 -2.43872 0
M  V30 159 H 14.504 3.00799 -1.27231 0
M  V30 160 H 13.163 1.93377 -3.1145 0
M  V30 161 H 12.811 4.34206 -2.53917 0
M  V30 162 H 12.511 4.03804 -4.26868 0
M  V30 163 H 14.035 4.81561 -3.75408 0
M  V30 164 H 15.449 2.88654 -4.9533 0
M  V30 165 H 13.846 2.34044 -5.52579 0
M  V30 166 H 14.916 1.19327 -4.69988 0
M  V30 167 N 16.2591 1.48442 0.529413 0
M  V30 168 C 17.5071 1.56179 1.28267 0
M  V30 169 C 17.8281 0.237721 1.93546 0
M  V30 170 O 17.0981 -0.740779 1.81354 0
M  V30 171 H 15.6781 0.575367 0.476405 0
M  V30 172 H 18.3401 1.84909 0.61602 0
M  V30 173 H 17.4361 2.34312 2.06165 0
M  V30 174 N 17.7372 -0.778329 1.37039 0
M  V30 175 C 18.9862 -1.53189 1.3121 0
M  V30 176 C 19.2992 -1.95328 -0.103095 0
M  V30 177 O 20.5052 -2.70012 -0.283826 0
M  V30 178 C 18.9612 -2.76591 2.30272 0
M  V30 179 C 18.5692 -2.41577 3.77286 0
M  V30 180 C 20.3132 -3.5455 2.33441 0
M  V30 181 C 18.2202 -3.61441 4.68096 0
M  V30 182 H 17.1502 -0.5751 0.487622 0
M  V30 183 H 19.8012 -0.853101 1.62464 0
M  V30 184 H 18.1832 -3.46326 1.92027 0
M  V30 185 H 19.3572 -1.79668 4.2433 0
M  V30 186 H 17.6722 -1.76806 3.76999 0
M  V30 187 H 20.2692 -4.43628 2.98493 0
M  V30 188 H 20.6122 -3.93936 1.34611 0
M  V30 189 H 21.1452 -2.91805 2.7036 0
M  V30 190 H 17.8842 -3.27142 5.6803 0
M  V30 191 H 17.4042 -4.22478 4.25761 0
M  V30 192 H 19.0832 -4.28335 4.8491 0
M  V30 193 N 19.2153 -1.21501 -1.00376 0
M  V30 194 C 20.4453 -1.05746 -1.77486 0
M  V30 195 C 20.8533 0.395655 -1.85017 0
M  V30 196 O 20.1963 1.28626 -1.31152 0
M  V30 197 C 20.2583 -1.58092 -3.22873 0
M  V30 198 C 19.9223 -3.06568 -3.38917 0
M  V30 199 C 20.9193 -4.04106 -3.271 0
M  V30 200 C 18.6043 -3.45799 -3.64319 0
M  V30 201 C 20.5983 -5.38862 -3.40451 0
M  V30 202 C 18.2853 -4.80707 -3.77311 0
M  V30 203 C 19.2833 -5.77047 -3.65384 0
M  V30 204 O 18.9713 -7.09507 -3.77961 0
M  V30 205 H 18.7033 -0.371778 -0.564586 0
M  V30 206 H 21.2573 -1.61319 -1.27143 0
M  V30 207 H 19.4873 -0.969163 -3.74358 0
M  V30 208 H 21.1763 -1.38162 -3.81662 0
M  V30 209 H 21.9423 -3.75141 -3.07399 0
M  V30 210 H 17.8213 -2.71344 -3.72684 0
M  V30 211 H 21.3653 -6.14041 -3.31058 0
M  V30 212 H 17.2623 -5.09357 -3.96517 0
M  V30 213 H 18.0303 -7.16935 -3.94901 0
M  V30 214 N 20.6934 1.19889 -1.02296 0
M  V30 215 C 21.6254 2.22334 -0.556787 0
M  V30 216 C 22.6384 1.58674 0.364199 0
M  V30 217 O 23.8274 1.77768 0.161533 0
M  V30 218 C 20.9274 3.38257 0.208694 0
M  V30 219 C 20.1004 4.31504 -0.71577 0
M  V30 220 C 19.1594 5.262 0.00325597 0
M  V30 221 O 18.1854 5.65798 -0.621357 0
M  V30 222 N 19.3874 5.66303 1.27599 0
M  V30 223 H 22.1524 2.62957 -1.43784 0
M  V30 224 H 19.7134 1.34495 -0.901261 0
M  V30 225 H 21.7054 3.98616 0.699111 0
M  V30 226 H 20.2754 2.96472 0.991102 0
M  V30 227 H 19.4954 3.69016 -1.38638 0
M  V30 228 H 20.7834 4.9072 -1.34428 0
M  V30 229 H 20.1814 5.36155 1.80429 0
M  V30 230 H 18.7384 6.28942 1.71102 0
M  V30 231 N 22.1715 0.800033 1.35784 0
M  V30 232 C 23.1185 0.203848 2.29898 0
M  V30 233 C 24.0885 -0.658375 1.52495 0
M  V30 234 O 25.2735 -0.604832 1.8096 0
M  V30 235 C 22.4135 -0.64688 3.38983 0
M  V30 236 C 21.5265 0.235054 4.3136 0
M  V30 237 C 20.6615 -0.623054 5.27533 0
M  V30 238 C 19.7005 0.259682 6.11549 0
M  V30 239 N 18.8375 -0.558019 6.99879 0
M  V30 240 H 23.6775 1.01186 2.80295 0
M  V30 241 H 21.2145 0.51053 1.37957 0
M  V30 242 H 23.1725 -1.15521 4.00887 0
M  V30 243 H 21.8025 -1.42021 2.89879 0
M  V30 244 H 20.8545 0.861438 3.70518 0
M  V30 245 H 22.1665 0.914768 4.9034 0
M  V30 246 H 21.3205 -1.19678 5.94779 0
M  V30 247 H 20.0595 -1.33636 4.69034 0
M  V30 248 H 19.0645 0.845726 5.43256 0
M  V30 249 H 20.2895 0.970748 6.72126 0
M  V30 250 H 18.2355 -1.25542 6.43875 0
M  V30 251 H 18.1525 0.0637872 7.55973 0
M  V30 252 H 19.4205 -1.11523 7.71481 0
M  V30 253 N 23.6496 -1.47581 0.552962 0
M  V30 254 C 24.5826 -2.26883 -0.244857 0
M  V30 255 C 25.5606 -1.33784 -0.924147 0
M  V30 256 O 26.7446 -1.6316 -0.943981 0
M  V30 257 C 23.8716 -3.10695 -1.34856 0
M  V30 258 C 22.9176 -4.19339 -0.778268 0
M  V30 259 S 23.7506 -5.34207 0.37184 0
M  V30 260 C 24.9066 -6.21584 -0.733779 0
M  V30 261 H 25.1396 -2.94202 0.428087 0
M  V30 262 H 22.6726 -1.50628 0.339197 0
M  V30 263 H 24.6306 -3.59555 -1.98066 0
M  V30 264 H 23.2916 -2.42746 -1.99332 0
M  V30 265 H 22.4846 -4.77695 -1.60696 0
M  V30 266 H 22.0866 -3.73338 -0.222422 0
M  V30 267 H 24.3786 -6.57676 -1.62692 0
M  V30 268 H 25.3216 -7.07851 -0.187668 0
M  V30 269 H 25.7296 -5.55125 -1.02454 0
M  V30 270 N 25.1277 -0.289203 -1.54924 0
M  V30 271 C 26.0747 0.592115 -2.23075 0
M  V30 272 C 27.0447 1.13881 -1.20915 0
M  V30 273 O 28.2297 1.18551 -1.495 0
M  V30 274 C 25.3697 1.76376 -2.96623 0
M  V30 275 C 24.4827 1.24959 -4.13533 0
M  V30 276 C 23.6177 2.38416 -4.74691 0
M  V30 277 C 22.6567 1.84072 -5.83767 0
M  V30 278 N 21.7937 2.91057 -6.38929 0
M  V30 279 H 26.6337 0.00432038 -2.98 0
M  V30 280 H 24.1707 -0.00963529 -1.47097 0
M  V30 281 H 26.1287 2.45268 -3.3749 0
M  V30 282 H 24.7587 2.32337 -2.24097 0
M  V30 283 H 23.8107 0.453307 -3.77689 0
M  V30 284 H 25.1227 0.811662 -4.92152 0
M  V30 285 H 24.2767 3.15276 -5.18349 0
M  V30 286 H 23.0157 2.8553 -3.95378 0
M  V30 287 H 22.0207 1.05697 -5.39545 0
M  V30 288 H 23.2457 1.37877 -6.64956 0
M  V30 289 H 21.1917 3.37526 -5.62505 0
M  V30 290 H 21.1087 2.51724 -7.12861 0
M  V30 291 H 22.3767 3.6785 -6.87246 0
M  V30 292 N 26.6058 1.57591 -0.0167156 0
M  V30 293 C 27.5378 2.06343 0.997753 0
M  V30 294 C 28.5508 0.984469 1.29661 0
M  V30 295 O 29.7398 1.26093 1.26344 0
M  V30 296 C 26.8398 2.46255 2.32834 0
M  V30 297 C 26.0128 3.77083 2.21646 0
M  V30 298 C 25.0718 4.0368 3.37534 0
M  V30 299 O 24.0978 4.7411 3.14973 0
M  V30 300 N 25.2998 3.52881 4.60929 0
M  V30 301 H 28.0648 2.93997 0.581875 0
M  V30 302 H 25.6258 1.61002 0.170316 0
M  V30 303 H 27.6178 2.61149 3.09166 0
M  V30 304 H 26.1878 1.64032 2.66106 0
M  V30 305 H 25.4078 3.72106 1.30119 0
M  V30 306 H 26.6958 4.62822 2.11361 0
M  V30 307 H 26.0938 2.95878 4.82154 0
M  V30 308 H 24.6508 3.73076 5.34469 0
M  V30 309 N 28.0839 -0.256276 1.55502 0
M  V30 310 C 29.0159 -1.33981 1.85962 0
M  V30 311 C 30.0289 -1.44743 0.745212 0
M  V30 312 O 31.2179 -1.4626 1.02324 0
M  V30 313 C 28.3179 -2.7194 2.02242 0
M  V30 314 C 27.4909 -2.83562 3.33033 0
M  V30 315 C 26.5499 -4.02304 3.39172 0
M  V30 316 O 25.5759 -3.92273 4.12444 0
M  V30 317 N 26.7779 -5.15045 2.67784 0
M  V30 318 H 29.5429 -1.08191 2.7949 0
M  V30 319 H 27.1039 -0.446388 1.55624 0
M  V30 320 H 29.0959 -3.49697 2.03701 0
M  V30 321 H 27.6659 -2.90479 1.15502 0
M  V30 322 H 26.8859 -1.92555 3.43971 0
M  V30 323 H 28.1739 -2.88271 4.19258 0
M  V30 324 H 27.5719 -5.26085 2.07968 0
M  V30 325 H 26.1289 -5.90972 2.74947 0
M  V30 326 N 29.562 -1.4872 -0.521534 0
M  V30 327 C 30.811 -1.56419 -1.27341 0
M  V30 328 C 31.124 -0.246805 -1.94037 0
M  V30 329 O 32.33 -0.202122 -2.70747 0
M  V30 330 C 30.786 -2.75896 -2.31105 0
M  V30 331 C 30.394 -4.14311 -1.70441 0
M  V30 332 C 32.138 -2.92913 -3.07249 0
M  V30 333 C 30.045 -5.25038 -2.72194 0
M  V30 334 H 28.975 -0.582344 -0.478949 0
M  V30 335 H 31.626 -1.75071 -0.549779 0
M  V30 336 H 30.008 -2.50697 -3.06541 0
M  V30 337 H 31.182 -4.49564 -1.01136 0
M  V30 338 H 29.497 -4.02482 -1.06759 0
M  V30 339 H 32.094 -3.72805 -3.83302 0
M  V30 340 H 32.437 -2.02689 -3.63625 0
M  V30 341 H 32.97 -3.18054 -2.38928 0
M  V30 342 H 29.709 -6.17255 -2.20627 0
M  V30 343 H 29.229 -4.94263 -3.39801 0
M  V30 344 H 30.908 -5.53508 -3.35019 0
M  V30 345 N 31.0401 0.771051 -1.3745 0
M  V30 346 C 31.9701 1.89827 -1.3597 0
M  V30 347 C 32.9511 1.68562 -0.228216 0
M  V30 348 O 34.1361 1.8941 -0.428675 0
M  V30 349 C 31.2661 3.2712 -1.16662 0
M  V30 350 C 30.2201 3.6295 -2.2683 0
M  V30 351 C 29.5461 4.98791 -1.92644 0
M  V30 352 C 30.8461 3.69627 -3.69017 0
M  V30 353 H 32.5401 1.91323 -2.30295 0
M  V30 354 H 30.0861 0.919082 -1.10855 0
M  V30 355 H 32.0391 4.05615 -1.14256 0
M  V30 356 H 30.7631 3.26059 -0.187926 0
M  V30 357 H 29.4221 2.86763 -2.28392 0
M  V30 358 H 29.0701 4.94271 -0.933021 0
M  V30 359 H 28.7701 5.23733 -2.66416 0
M  V30 360 H 30.2941 5.79685 -1.91826 0
M  V30 361 H 31.7081 4.38273 -3.69581 0
M  V30 362 H 30.1051 4.06067 -4.41848 0
M  V30 363 H 31.1751 2.70273 -4.02592 0
M  V30 364 N 32.5182 1.22032 0.997298 0
M  V30 365 C 33.7952 0.950823 1.70935 0
M  V30 366 C 34.1752 -0.535292 2.042 0
M  V30 367 O 33.5232 -1.50217 1.72183 0
M  V30 368 C 33.7332 1.84386 2.96315 0
M  V30 369 C 35.0812 2.09732 3.69185 0
M  V30 370 O 36.1052 1.81798 3.06314 0
M  V30 371 O 34.9642 2.57018 4.82291 0
M  V30 372 H 32.0582 0.357204 0.745878 0
M  V30 373 H 34.6042 1.32997 1.05404 0
M  V30 374 H 33.3762 2.84928 2.68201 0
M  V30 375 H 32.9992 1.46602 3.69586 0
M  V30 376 N 33.9963 -1.19345 1.0293 0
M  V30 377 C 35.2443 -1.88665 0.724574 0
M  V30 378 C 35.5653 -1.80036 -0.749144 0
M  V30 379 O 34.8353 -1.2111 -1.53978 0
M  V30 380 H 33.4153 -0.698406 0.265025 0
M  V30 381 H 36.0773 -1.44885 1.30362 0
M  V30 382 H 35.1733 -2.94987 1.01926 0
M  V30 383 N 35.4744 -0.807222 -1.35358 0
M  V30 384 C 36.3844 -0.219594 -2.3357 0
M  V30 385 C 37.4004 0.637734 -1.61892 0
M  V30 386 O 38.5764 0.549336 -1.93763 0
M  V30 387 C 35.6414 0.62158 -3.41083 0
M  V30 388 C 34.7024 -0.256315 -4.28534 0
M  V30 389 C 33.9354 0.544807 -5.30912 0
M  V30 390 O 34.1584 1.77944 -5.41934 0
M  V30 391 O 33.0924 -0.0646478 -6.01865 0
M  V30 392 H 36.9184 -1.03208 -2.85625 0
M  V30 393 H 34.5034 -0.569025 -1.38139 0
M  V30 394 H 36.3854 1.10067 -4.06772 0
M  V30 395 H 35.0604 1.41165 -2.91297 0
M  V30 396 H 33.9674 -0.782559 -3.65823 0
M  V30 397 H 35.3004 -1.01034 -4.81719 0
M  V30 398 N 36.9525 1.47285 -0.560781 0
M  V30 399 C 38.1825 2.06555 -0.0429638 0
M  V30 400 C 38.5905 1.41339 1.25777 0
M  V30 401 O 37.9335 0.505182 1.76617 0
M  V30 402 C 37.9955 3.58827 0.219887 0
M  V30 403 C 37.6595 4.46105 -0.991944 0
M  V30 404 C 38.6565 4.84 -1.89843 0
M  V30 405 C 36.3415 4.87567 -1.20762 0
M  V30 406 C 38.3355 5.6216 -3.00425 0
M  V30 407 C 36.0225 5.65491 -2.31653 0
M  V30 408 C 37.0205 6.02699 -3.21315 0
M  V30 409 O 36.7085 6.79052 -4.30283 0
M  V30 410 H 36.4405 0.674537 -0.0444468 0
M  V30 411 H 38.9945 1.90225 -0.774818 0
M  V30 412 H 37.2245 3.73383 1.00609 0
M  V30 413 H 38.9135 4.00103 0.683522 0
M  V30 414 H 39.6795 4.52564 -1.74387 0
M  V30 415 H 35.5585 4.5807 -0.518893 0
M  V30 416 H 39.1025 5.9112 -3.70436 0
M  V30 417 H 34.9995 5.9634 -2.47081 0
M  V30 418 H 35.7675 6.9745 -4.28376 0
M  V30 419 N 38.4306 0.297415 1.54768 0
M  V30 420 C 39.3776 -0.580276 2.23386 0
M  V30 421 C 40.3476 -1.13238 1.21517 0
M  V30 422 O 41.5326 -1.17757 1.50126 0
M  V30 423 C 38.6726 -1.74801 2.97555 0
M  V30 424 C 37.7856 -1.22764 4.1419 0
M  V30 425 C 36.9206 -2.35895 4.75949 0
M  V30 426 C 35.9596 -1.80974 5.84735 0
M  V30 427 N 35.0966 -2.87664 6.40464 0
M  V30 428 H 39.9366 0.0114833 2.97998 0
M  V30 429 H 37.4736 0.0174361 1.4709 0
M  V30 430 H 39.4316 -2.43475 3.38786 0
M  V30 431 H 38.0616 -2.31145 2.25326 0
M  V30 432 H 37.1136 -0.433271 3.77924 0
M  V30 433 H 38.4256 -0.785551 4.92575 0
M  V30 434 H 37.5796 -3.12523 5.20014 0
M  V30 435 H 36.3186 -2.83429 3.96887 0
M  V30 436 H 35.3236 -1.02834 5.40097 0
M  V30 437 H 36.5486 -1.34348 6.65678 0
M  V30 438 H 34.4946 -3.34538 5.64287 0
M  V30 439 H 34.4116 -2.4794 7.14186 0
M  V30 440 H 35.6796 -3.642 6.89187 0
M  V30 441 N 39.9087 -1.5758 0.0250728 0
M  V30 442 C 41.1577 -1.90811 -0.653767 0
M  V30 443 C 41.4707 -0.90273 -1.73523 0
M  V30 444 O 42.6767 -1.12614 -2.47043 0
M  V30 445 C 41.1327 -3.38804 -1.21409 0
M  V30 446 C 40.7407 -4.47692 -0.166126 0
M  V30 447 C 42.4847 -3.81108 -1.86967 0
M  V30 448 C 40.3917 -5.86779 -0.737856 0
M  V30 449 H 39.3217 -0.712063 -0.247956 0
M  V30 450 H 41.9727 -1.83281 0.0897137 0
M  V30 451 H 40.3547 -3.41252 -2.00905 0
M  V30 452 H 41.5287 -4.56797 0.606079 0
M  V30 453 H 39.8437 -4.14565 0.390466 0
M  V30 454 H 42.4407 -4.82375 -2.30692 0
M  V30 455 H 42.7837 -3.15953 -2.71071 0
M  V30 456 H 43.3167 -3.81065 -1.14167 0
M  V30 457 H 40.0557 -6.55468 0.0649577 0
M  V30 458 H 39.5757 -5.81288 -1.47864 0
M  V30 459 H 41.2547 -6.35223 -1.22884 0
M  V30 460 N 41.3868 0.248026 -1.55636 0
M  V30 461 C 42.3348 1.32683 -1.91045 0
M  V30 462 C 43.3288 1.49883 -0.789401 0
M  V30 463 O 44.5348 1.51371 -0.974007 0
M  V30 464 H 40.9098 0.444272 -0.606734 0
M  V30 465 H 42.8808 1.00085 -2.81115 0
M  V30 466 C 41.6298 2.6755 -2.22064 0
M  V30 467 H 40.9528 2.55114 -3.07826 0
M  V30 468 H 42.3928 3.41912 -2.50743 0
M  V30 469 C 40.8518 3.20556 -1.0366 0
M  V30 470 O 41.3818 4.00695 -0.284016 0
M  V30 471 N 39.5878 2.78568 -0.82753 0
M  V30 472 H 39.1348 2.1351 -1.44123 0
M  V30 473 H 39.0928 3.14378 -0.0369803 0
M  V30 474 N 42.8649 1.48995 0.513639 0
M  V30 475 C 43.7749 1.67443 1.64317 0
M  V30 476 C 44.7909 0.556947 1.64846 0
M  V30 477 O 45.9669 0.830082 1.83498 0
M  V30 478 C 43.0319 1.72515 3.00732 0
M  V30 479 C 42.0929 2.96009 3.1093 0
M  V30 480 C 41.3259 3.00829 4.40837 0
M  V30 481 O 41.5489 2.13594 5.28898 0
M  V30 482 O 40.4829 3.93168 4.55744 0
M  V30 483 H 44.3089 2.63106 1.51687 0
M  V30 484 H 41.8939 1.32588 0.688543 0
M  V30 485 H 43.7759 1.78277 3.81831 0
M  V30 486 H 42.4509 0.800278 3.13651 0
M  V30 487 H 41.3579 2.9577 2.29065 0
M  V30 488 H 42.6909 3.87934 3.02933 0
M  V30 489 N 44.343 -0.763751 1.37857 0
M  V30 490 C 45.29 -1.87726 1.34267 0
M  V30 491 C 46.26 -1.64807 0.206879 0
M  V30 492 O 47.445 -1.86613 0.397508 0
M  V30 493 C 44.585 -3.24896 1.16346 0
M  V30 494 C 43.698 -3.59716 2.39225 0
M  V30 495 C 42.833 -4.86137 2.14114 0
M  V30 496 C 41.872 -5.13711 3.32817 0
M  V30 497 N 41.009 -6.31323 3.07206 0
M  V30 498 H 45.849 -1.90129 2.29466 0
M  V30 499 H 43.386 -0.929433 1.14017 0
M  V30 500 H 45.344 -4.04036 1.03975 0
M  V30 501 H 43.974 -3.21847 0.247909 0
M  V30 502 H 43.026 -2.75498 2.62307 0
M  V30 503 H 44.338 -3.76027 3.27728 0
M  V30 504 H 43.492 -5.73198 1.9882 0
M  V30 505 H 42.231 -4.71945 1.22961 0
M  V30 506 H 41.236 -4.25123 3.48641 0
M  V30 507 H 42.461 -5.29807 4.24832 0
M  V30 508 H 40.407 -6.18474 2.1869 0
M  V30 509 H 40.324 -6.48087 3.89254 0
M  V30 510 H 41.592 -7.213 2.95546 0
M  V30 511 N 45.8211 -1.22559 -0.990812 0
M  V30 512 C 47.0701 -1.04553 -1.72486 0
M  V30 513 C 47.3831 0.419349 -1.91052 0
M  V30 514 O 48.5891 0.719121 -2.61803 0
M  V30 515 C 47.0451 -1.82231 -3.10355 0
M  V30 516 C 46.6531 -3.32981 -2.99713 0
M  V30 517 C 48.3971 -1.7268 -3.87791 0
M  V30 518 C 46.3041 -4.03091 -4.32748 0
M  V30 519 H 45.2341 -0.387614 -0.646739 0
M  V30 520 H 47.8851 -1.46429 -1.10593 0
M  V30 521 H 46.2671 -1.33155 -3.72942 0
M  V30 522 H 47.4411 -3.89466 -2.46278 0
M  V30 523 H 45.7561 -3.43231 -2.35758 0
M  V30 524 H 48.3531 -2.22381 -4.86262 0
M  V30 525 H 48.6961 -0.687607 -4.10582 0
M  V30 526 H 49.2291 -2.1931 -3.31885 0
M  V30 527 H 45.9681 -5.07273 -4.15156 0
M  V30 528 H 45.4881 -3.51394 -4.86089 0
M  V30 529 H 47.1671 -4.08804 -5.01486 0
M  V30 530 N 47.2992 1.18797 -1.03562 0
M  V30 531 C 48.7102 1.70322 -0.764676 0
M  V30 532 C 49.0612 1.82708 0.714996 0
M  V30 533 O 48.1862 1.50299 1.55689 0
M  V30 534 C 48.7812 3.09356 -1.38145 0
M  V30 535 C 47.3402 3.58114 -1.15895 0
M  V30 536 C 46.4872 2.34798 -1.4753 0
M  V30 537 H 49.4382 1.03543 -1.20268 0
M  V30 538 H 49.4592 3.72378 -0.781977 0
M  V30 539 H 48.9712 3.00309 -2.45837 0
M  V30 540 H 47.0722 3.72464 -0.100544 0
M  V30 541 H 47.1852 4.4184 -1.8524 0
M  V30 542 H 45.5492 2.38464 -0.894829 0
M  V30 543 H 46.3322 2.28375 -2.56319 0
M  V30 544 N 48.7773 0.814389 1.34928 0
M  V30 545 C 50.0023 0.410097 2.03305 0
M  V30 546 C 50.4273 -0.973464 1.60951 0
M  V30 547 O 49.7853 -1.63185 0.789964 0
M  V30 548 C 49.8333 0.51049 3.56968 0
M  V30 549 O 48.9373 -0.473035 4.09678 0
M  V30 550 H 48.2783 0.170088 0.641846 0
M  V30 551 H 50.8083 1.10244 1.72358 0
M  V30 552 H 50.8183 0.383135 4.06197 0
M  V30 553 H 49.4933 1.51963 3.87144 0
M  V30 554 H 48.0703 -0.305272 3.71648 0
M  V30 555 N 50.2554 -1.46986 0.568584 0
M  V30 556 C 51.4804 -2.07335 0.0520528 0
M  V30 557 C 51.9054 -1.41675 -1.23733 0
M  V30 558 O 51.2634 -0.495623 -1.74394 0
M  V30 559 C 51.3114 -3.60417 -0.11501 0
M  V30 560 O 50.4154 -3.95309 -1.17492 0
M  V30 561 H 49.7564 -0.661597 0.0564385 0
M  V30 562 H 52.2864 -1.88837 0.787507 0
M  V30 563 H 52.2964 -4.06698 -0.325644 0
M  V30 564 H 50.9714 -4.07601 0.826675 0
M  V30 565 H 49.5484 -3.60757 -0.943869 0
M  V30 566 N 51.7335 -0.305618 -1.54608 0
M  V30 567 C 53.1445 0.186098 -1.8577 0
M  V30 568 C 53.4955 1.53058 -1.22751 0
M  V30 569 O 52.6205 2.09888 -0.526893 0
M  V30 570 C 53.2155 0.344449 -3.37044 0
M  V30 571 C 51.7745 0.780384 -3.68221 0
M  V30 572 C 50.9215 -0.108554 -2.77087 0
M  V30 573 H 53.8725 -0.526485 -1.49712 0
M  V30 574 H 53.8935 1.17828 -3.61796 0
M  V30 575 H 53.4055 -0.634235 -3.82883 0
M  V30 576 H 51.5065 1.76945 -3.27904 0
M  V30 577 H 51.6195 0.596572 -4.75371 0
M  V30 578 H 49.9835 0.412931 -2.5133 0
M  V30 579 H 50.7665 -1.08368 -3.25747 0
M  V30 580 N 53.2116 1.57565 -0.0334293 0
M  V30 581 C 54.4606 1.91155 0.643639 0
M  V30 582 C 54.7736 0.91192 1.73042 0
M  V30 583 O 55.9796 1.13923 2.46442 0
M  V30 584 C 54.4356 3.39443 1.1961 0
M  V30 585 C 54.0436 4.47774 0.142381 0
M  V30 586 C 55.7876 3.82094 1.84944 0
M  V30 587 C 53.6946 5.87162 0.706727 0
M  V30 588 H 52.6246 0.713368 0.244176 0
M  V30 589 H 55.2756 1.8323 -0.0994323 0
M  V30 590 H 53.6576 3.42313 1.99092 0
M  V30 591 H 54.8316 4.56469 -0.630296 0
M  V30 592 H 53.1466 4.14352 -0.412446 0
M  V30 593 H 55.7436 4.83591 2.2813 0
M  V30 594 H 56.0866 3.17386 2.69392 0
M  V30 595 H 56.6196 3.81665 1.12145 0
M  V30 596 H 53.3586 6.55424 -0.0997178 0
M  V30 597 H 52.8786 5.82064 1.44779 0
M  V30 598 H 54.5576 6.35866 1.19514 0
M  V30 599 N 54.6897 -0.239769 1.55765 0
M  V30 600 C 55.6197 -1.30052 1.9393 0
M  V30 601 C 56.6007 -1.49839 0.805132 0
M  V30 602 O 57.7857 -1.62328 1.06599 0
M  V30 603 C 54.9157 -2.65391 2.2402 0
M  V30 604 C 53.8697 -2.60289 3.39755 0
M  V30 605 C 53.1957 -3.99489 3.55405 0
M  V30 606 C 54.4957 -2.16654 4.75246 0
M  V30 607 H 56.1897 -0.983573 2.82783 0
M  V30 608 H 53.7357 -0.471701 1.36055 0
M  V30 609 H 55.6887 -3.3974 2.49308 0
M  V30 610 H 54.4127 -2.98736 1.32 0
M  V30 611 H 53.0717 -1.88398 3.14487 0
M  V30 612 H 52.7197 -4.30112 2.60793 0
M  V30 613 H 52.4197 -3.96962 4.33238 0
M  V30 614 H 53.9437 -4.75528 3.83022 0
M  V30 615 H 55.3577 -2.80737 4.99859 0
M  V30 616 H 53.7547 -2.25223 5.56232 0
M  V30 617 H 54.8247 -1.11835 4.71827 0
M  V30 618 N 56.1678 -1.49265 -0.50573 0
M  V30 619 C 57.1308 -1.65075 -1.59006 0
M  V30 620 C 58.1308 -0.522768 -1.52065 0
M  V30 621 O 59.3208 -0.789117 -1.55302 0
M  V30 622 C 56.4528 -1.64369 -2.98656 0
M  V30 623 H 57.6458 -2.61784 -1.46319 0
M  V30 624 H 55.1988 -1.38226 -0.729616 0
M  V30 625 H 55.9338 -0.692272 -3.16825 0
M  V30 626 H 55.7188 -2.46282 -3.05103 0
M  V30 627 H 57.2088 -1.78674 -3.77446 0
M  V30 628 N 57.6459 0.756429 -1.3826 0
M  V30 629 C 58.5559 1.9009 -1.37488 0
M  V30 630 C 59.5719 1.71855 -0.272366 0
M  V30 631 O 60.7479 1.94827 -0.510318 0
M  V30 632 C 57.8129 3.25421 -1.19592 0
M  V30 633 C 56.8739 3.56202 -2.39622 0
M  V30 634 C 56.1069 4.85075 -2.2257 0
M  V30 635 O 56.3299 5.57246 -1.21793 0
M  V30 636 O 55.2639 5.15269 -3.11098 0
M  V30 637 H 59.0899 1.93695 -2.33914 0
M  V30 638 H 56.6749 0.901313 -1.1915 0
M  V30 639 H 58.5569 4.06337 -1.11661 0
M  V30 640 H 57.2319 3.22634 -0.262486 0
M  V30 641 H 56.1389 2.75458 -2.53128 0
M  V30 642 H 57.4719 3.63747 -3.31586 0
M  V30 643 N 59.124 1.23083 0.984299 0
M  V30 644 C 60.034 1.02515 2.11016 0
M  V30 645 C 61.05 -0.0291702 1.73976 0
M  V30 646 O 62.226 0.165434 2.00719 0
M  V30 647 C 59.291 0.614673 3.41208 0
M  V30 648 C 58.352 1.74359 3.92297 0
M  V30 649 C 57.585 1.35261 5.16275 0
M  V30 650 O 57.808 0.235136 5.69915 0
M  V30 651 O 56.742 2.17227 5.61334 0
M  V30 652 H 60.568 1.96862 2.31255 0
M  V30 653 H 58.153 1.01753 1.09392 0
M  V30 654 H 60.035 0.396518 4.1953 0
M  V30 655 H 58.71 -0.299851 3.22308 0
M  V30 656 H 57.617 2.01635 3.1511 0
M  V30 657 H 58.95 2.63629 4.15645 0
M  V30 658 N 60.6021 -1.18246 1.0419 0
M  V30 659 C 61.8491 -1.88257 0.746017 0
M  V30 660 C 62.1771 -1.80429 -0.726331 0
M  V30 661 O 61.4321 -1.2 -1.54591 0
M  V30 662 C 61.7311 -3.38082 1.15911 0
M  V30 663 C 61.3971 -3.66114 2.63195 0
M  V30 664 C 60.0591 -3.73474 3.03432 0
M  V30 665 C 62.4111 -3.78398 3.5842 0
M  V30 666 C 59.7391 -3.90599 4.37778 0
M  V30 667 C 62.0911 -3.97039 4.92487 0
M  V30 668 C 60.7551 -4.02635 5.32392 0
M  V30 669 H 60.0251 -0.688883 0.272987 0
M  V30 670 H 62.6721 -1.3995 1.30715 0
M  V30 671 H 60.9771 -3.88377 0.516806 0
M  V30 672 H 62.6741 -3.90596 0.907516 0
M  V30 673 H 59.2641 -3.61003 2.3103 0
M  V30 674 H 63.4481 -3.72042 3.28479 0
M  V30 675 H 58.7041 -3.93175 4.68213 0
M  V30 676 H 62.8781 -4.05486 5.66175 0
M  V30 677 H 60.5051 -4.15657 6.36501 0
M  V30 678 N 62.0802 -0.821533 -1.34494 0
M  V30 679 C 63.3282 -0.408139 -1.97936 0
M  V30 680 C 63.6492 1.03193 -1.65457 0
M  V30 681 O 62.9192 1.71622 -0.944595 0
M  V30 682 H 61.4992 -0.147928 -0.732206 0
M  V30 683 H 64.1612 -1.05067 -1.64155 0
M  V30 684 H 63.2572 -0.52601 -3.07635 0
M  V30 685 N 63.5583 1.46682 -0.576371 0
M  V30 686 C 64.8043 2.02712 -0.0596221 0
M  V30 687 C 65.1373 1.44765 1.29448 0
M  V30 688 O 64.4123 0.610355 1.84675 0
M  V30 689 C 64.6953 3.60098 0.0129503 0
M  V30 690 C 64.5483 4.28441 -1.3696 0
M  V30 691 C 65.8673 4.34224 0.71678 0
M  V30 692 H 62.9863 0.736637 -0.0231407 0
M  V30 693 H 65.6283 1.74898 -0.742351 0
M  V30 694 H 63.7783 3.83926 0.594378 0
M  V30 695 H 65.4503 4.15896 -1.9957 0
M  V30 696 H 63.6933 3.8805 -1.93907 0
M  V30 697 H 64.3643 5.3716 -1.27135 0
M  V30 698 H 66.8403 4.15503 0.222908 0
M  V30 699 H 65.7163 5.43936 0.73657 0
M  V30 700 H 65.9773 4.04823 1.77682 0
M  V30 701 N 65.0364 0.313813 1.54444 0
M  V30 702 C 66.2614 -0.296681 2.05267 0
M  V30 703 C 66.6864 -1.45757 1.18897 0
M  V30 704 O 66.0444 -1.80239 0.195886 0
M  V30 705 C 66.0924 -0.71831 3.53373 0
M  V30 706 O 65.1964 -1.82175 3.69981 0
M  V30 707 H 64.5374 -0.0554061 0.661684 0
M  V30 708 H 67.0674 0.459387 1.99376 0
M  V30 709 H 67.0774 -1.00364 3.95463 0
M  V30 710 H 65.7524 0.130821 4.15694 0
M  V30 711 H 64.3294 -1.53598 3.39797 0
M  V30 712 N 66.5145 -1.57545 0.0417849 0
M  V30 713 C 67.7605 -1.92601 -0.635021 0
M  V30 714 C 68.0935 -0.919627 -1.71045 0
M  V30 715 O 67.3685 0.0557892 -1.9442 0
M  V30 716 C 67.6515 -3.38085 -1.23979 0
M  V30 717 C 67.5045 -4.49467 -0.173057 0
M  V30 718 C 68.8235 -3.83776 -2.15416 0
M  V30 719 H 65.9425 -0.700397 -0.229374 0
M  V30 720 H 68.5845 -1.89728 0.101633 0
M  V30 721 H 66.7345 -3.40664 -1.86762 0
M  V30 722 H 68.4065 -4.59018 0.458312 0
M  V30 723 H 66.6495 -4.30909 0.499996 0
M  V30 724 H 67.3205 -5.48323 -0.636054 0
M  V30 725 H 69.7965 -3.83013 -1.62605 0
M  V30 726 H 68.6725 -4.8624 -2.54679 0
M  V30 727 H 68.9335 -3.19998 -3.05047 0
M  V30 728 N 67.9926 0.231505 -1.5589 0
M  V30 729 C 68.9226 1.29022 -1.94617 0
M  V30 730 C 69.9036 1.4941 -0.813067 0
M  V30 731 O 71.0886 1.6176 -1.07459 0
M  V30 732 C 68.2186 2.64199 -2.25424 0
M  V30 733 C 67.1726 2.58484 -3.41131 0
M  V30 734 C 66.4986 3.97599 -3.57518 0
M  V30 735 C 67.7986 2.1413 -4.76388 0
M  V30 736 H 69.4926 0.968563 -2.83301 0
M  V30 737 H 67.0386 0.464479 -1.36303 0
M  V30 738 H 68.9916 3.38413 -2.51107 0
M  V30 739 H 67.7156 2.98032 -1.33583 0
M  V30 740 H 66.3746 1.86727 -3.15481 0
M  V30 741 H 66.0226 4.28723 -2.6307 0
M  V30 742 H 65.7226 3.94659 -4.35337 0
M  V30 743 H 67.2466 4.7349 -3.85538 0
M  V30 744 H 68.6606 2.78083 -5.01341 0
M  V30 745 H 67.0576 2.2227 -5.57419 0
M  V30 746 H 68.1276 1.09331 -4.72414 0
M  V30 747 N 69.4707 1.49531 0.497807 0
M  V30 748 C 70.6987 1.62893 1.27567 0
M  V30 749 C 71.1137 0.301585 1.86376 0
M  V30 750 O 70.4707 -0.713335 1.67982 0
M  V30 751 C 70.5217 2.70013 2.40364 0
M  V30 752 O 70.2427 3.976 1.83972 0
M  V30 753 C 71.7437 2.94109 3.31685 0
M  V30 754 H 68.9637 0.548298 0.386794 0
M  V30 755 H 71.5077 1.95584 0.597245 0
M  V30 756 H 69.6627 2.40092 3.04031 0
M  V30 757 H 70.0767 4.56631 2.58047 0
M  V30 758 H 71.5507 3.72788 4.07104 0
M  V30 759 H 72.0277 2.04147 3.88871 0
M  V30 760 H 72.6337 3.2546 2.73781 0
M  V30 761 N 70.9488 -0.749086 1.3866 0
M  V30 762 C 72.1978 -1.50371 1.3443 0
M  V30 763 C 72.5108 -1.95503 -0.0616397 0
M  V30 764 O 73.7168 -2.70554 -0.226489 0
M  V30 765 C 72.1728 -2.71644 2.36088 0
M  V30 766 C 71.7808 -2.3352 3.82325 0
M  V30 767 C 73.5248 -3.49518 2.40909 0
M  V30 768 C 71.4318 -3.51431 4.75658 0
M  V30 769 H 70.3618 -0.564628 0.499712 0
M  V30 770 H 73.0128 -0.818449 1.64237 0
M  V30 771 H 71.3948 -3.42175 1.9933 0
M  V30 772 H 72.5688 -1.70627 4.28046 0
M  V30 773 H 70.8838 -1.6877 3.80665 0
M  V30 774 H 73.4808 -4.37197 3.07836 0
M  V30 775 H 73.8238 -3.90992 1.42937 0
M  V30 776 H 74.3568 -2.86005 2.76489 0
M  V30 777 H 71.0958 -3.15019 5.74842 0
M  V30 778 H 70.6158 -4.13352 4.34627 0
M  V30 779 H 72.2948 -4.17953 4.93887 0
M  V30 780 N 72.4269 -1.23603 -0.977757 0
M  V30 781 C 73.3739 -1.01954 -2.07061 0
M  V30 782 C 74.3439 0.0638697 -1.65977 0
M  V30 783 O 75.5289 -0.0887624 -1.90593 0
M  V30 784 C 72.6689 -0.619658 -3.39491 0
M  V30 785 C 71.7819 -1.77547 -3.93829 0
M  V30 786 C 70.9169 -1.32212 -5.14484 0
M  V30 787 C 69.9559 -2.44852 -5.60994 0
M  V30 788 N 69.0929 -2.00456 -6.72876 0
M  V30 789 H 73.9329 -1.95495 -2.24913 0
M  V30 790 H 71.4699 -0.973861 -1.10247 0
M  V30 791 H 73.4279 -0.368898 -4.15566 0
M  V30 792 H 72.0579 0.278752 -3.21594 0
M  V30 793 H 71.1099 -2.14016 -3.14486 0
M  V30 794 H 72.4219 -2.62219 -4.24314 0
M  V30 795 H 71.5759 -1.02965 -5.97899 0
M  V30 796 H 70.3149 -0.445808 -4.85658 0
M  V30 797 H 69.3199 -2.74871 -4.76157 0
M  V30 798 H 70.5449 -3.33024 -5.91837 0
M  V30 799 H 68.4909 -1.15208 -6.45804 0
M  V30 800 H 68.4079 -2.78687 -7.02759 0
M  V30 801 H 69.6759 -1.7432 -7.59758 0
M  V30 802 N 73.905 1.17692 -1.04816 0
M  V30 803 C 74.852 2.21581 -0.645797 0
M  V30 804 C 75.822 1.62367 0.350159 0
M  V30 805 O 77.007 1.89254 0.242433 0
M  V30 806 C 74.147 3.45092 -0.0227568 0
M  V30 807 C 73.26 4.18613 -1.06709 0
M  V30 808 C 72.395 5.29602 -0.411767 0
M  V30 809 C 71.434 5.94904 -1.44067 0
M  V30 810 N 70.571 6.97414 -0.809781 0
M  V30 811 H 75.411 2.55353 -1.5362 0
M  V30 812 H 72.948 1.25438 -0.768364 0
M  V30 813 H 74.906 4.15679 0.35588 0
M  V30 814 H 73.536 3.11917 0.831122 0
M  V30 815 H 72.588 3.46779 -1.5636 0
M  V30 816 H 73.9 4.63293 -1.84827 0
M  V30 817 H 73.054 6.06696 0.0206623 0
M  V30 818 H 71.793 4.86045 0.401438 0
M  V30 819 H 70.798 5.16544 -1.88316 0
M  V30 820 H 72.023 6.40542 -2.25571 0
M  V30 821 H 69.969 6.55998 -0.0170186 0
M  V30 822 H 69.886 7.40386 -1.52856 0
M  V30 823 H 71.154 7.78463 -0.401999 0
M  V30 824 N 75.3831 0.828654 1.34056 0
M  V30 825 C 76.3461 0.259927 2.27721 0
M  V30 826 C 77.3461 -0.565478 1.50529 0
M  V30 827 O 78.5361 -0.38075 1.69988 0
M  V30 828 C 75.6681 -0.634944 3.34935 0
M  V30 829 H 76.8611 1.0863 2.79534 0
M  V30 830 H 74.4141 0.600951 1.44285 0
M  V30 831 H 75.1491 -1.48416 2.88346 0
M  V30 832 H 74.9341 -0.0444999 3.92075 0
M  V30 833 H 76.4241 -1.02648 4.04788 0
M  V30 834 N 76.8612 -1.46375 0.584142 0
M  V30 835 C 77.7912 -2.33103 -0.136037 0
M  V30 836 C 78.7722 -1.45431 -0.882255 0
M  V30 837 O 79.9572 -1.74246 -0.857434 0
M  V30 838 C 77.0872 -3.27731 -1.14933 0
M  V30 839 C 76.0412 -4.24855 -0.517862 0
M  V30 840 C 75.3672 -5.09001 -1.63773 0
M  V30 841 C 76.6672 -5.19439 0.545886 0
M  V30 842 H 78.3612 -2.93568 0.588086 0
M  V30 843 H 75.9072 -1.41166 0.284259 0
M  V30 844 H 77.8602 -3.87261 -1.66153 0
M  V30 845 H 76.5842 -2.65377 -1.90375 0
M  V30 846 H 75.2432 -3.6659 -0.0267361 0
M  V30 847 H 74.8912 -4.43031 -2.38185 0
M  V30 848 H 74.5912 -5.74777 -1.22085 0
M  V30 849 H 76.1152 -5.71396 -2.15266 0
M  V30 850 H 77.5292 -5.73177 0.118704 0
M  V30 851 H 75.9262 -5.93566 0.88317 0
M  V30 852 H 76.9962 -4.63285 1.43162 0
M  V30 853 N 78.3393 -0.321999 -1.54275 0
M  V30 854 C 79.6163 0.335232 -1.92706 0
M  V30 855 C 79.9963 1.70006 -1.25145 0
M  V30 856 O 79.3443 2.25067 -0.394596 0
M  V30 857 C 79.5543 0.429008 -3.46353 0
M  V30 858 C 80.9023 0.690029 -4.18956 0
M  V30 859 O 81.9263 0.511992 -3.52501 0
M  V30 860 O 80.7853 1.03338 -5.36641 0
M  V30 861 H 77.8793 0.191143 -0.804608 0
M  V30 862 H 80.4253 -0.3716 -1.65581 0
M  V30 863 H 79.1973 -0.529611 -3.87699 0
M  V30 864 H 78.8203 1.18348 -3.79578 0
M  V30 865 N 79.8174 1.5752 -0.0501392 0
M  V30 866 C 80.7474 2.14502 0.922566 0
M  V30 867 C 81.7284 1.06642 1.3252 0
M  V30 868 O 82.9134 1.34577 1.4001 0
M  V30 869 C 80.0434 2.68916 2.19776 0
M  V30 870 C 78.9974 3.8175 1.93523 0
M  V30 871 C 78.3234 4.22677 3.27487 0
M  V30 872 C 79.6234 5.06932 1.25765 0
M  V30 873 H 81.3174 2.9603 0.447952 0
M  V30 874 H 78.8634 1.42401 0.214024 0
M  V30 875 H 80.8164 3.07419 2.88222 0
M  V30 876 H 79.5404 1.84578 2.69441 0
M  V30 877 H 78.1994 3.43718 1.27489 0
M  V30 878 H 77.8474 3.35291 3.74952 0
M  V30 879 H 77.5474 4.98725 3.1072 0
M  V30 880 H 79.0714 4.63779 3.97166 0
M  V30 881 H 80.4854 5.42888 1.84244 0
M  V30 882 H 78.8824 5.88116 1.19328 0
M  V30 883 H 79.9524 4.84337 0.233536 0
M  V30 884 N 81.2955 -0.223234 1.56011 0
M  V30 885 C 82.2255 -1.27988 1.95298 0
M  V30 886 C 83.2065 -1.48976 0.820979 0
M  V30 887 O 84.3915 -1.61188 1.08315 0
M  V30 888 C 81.5215 -2.63 2.26822 0
M  V30 889 C 80.4755 -2.56671 3.42497 0
M  V30 890 C 79.8015 -3.95697 3.59622 0
M  V30 891 C 81.1015 -2.11601 4.77517 0
M  V30 892 H 82.7955 -0.953525 2.8381 0
M  V30 893 H 80.3415 -0.457244 1.36548 0
M  V30 894 H 82.2945 -3.37077 2.52898 0
M  V30 895 H 81.0185 -2.9732 1.35161 0
M  V30 896 H 79.6775 -1.85051 3.16467 0
M  V30 897 H 79.3255 -4.27322 2.6534 0
M  V30 898 H 79.0255 -3.92345 4.37424 0
M  V30 899 H 80.5495 -4.71438 3.88044 0
M  V30 900 H 81.9635 -2.7542 5.02809 0
M  V30 901 H 80.3605 -2.19311 5.5859 0
M  V30 902 H 81.4305 -1.06824 4.72987 0
M  V30 903 N 82.7736 -1.49793 -0.48987 0
M  V30 904 C 84.0196 -1.60078 -1.24511 0
M  V30 905 C 84.3526 -0.291608 -1.91998 0
M  V30 906 O 83.6276 0.705647 -1.81248 0
M  V30 907 C 83.9106 -2.76791 -2.30345 0
M  V30 908 C 83.7636 -4.17535 -1.67286 0
M  V30 909 C 85.0826 -2.89111 -3.31817 0
M  V30 910 H 82.2016 -0.582645 -0.451324 0
M  V30 911 H 84.8436 -1.82117 -0.541612 0
M  V30 912 H 82.9936 -2.5813 -2.90346 0
M  V30 913 H 84.6656 -4.4774 -1.11026 0
M  V30 914 H 82.9086 -4.22665 -0.976577 0
M  V30 915 H 83.5796 -4.95094 -2.44103 0
M  V30 916 H 86.0556 -3.06133 -2.81819 0
M  V30 917 H 84.9316 -3.72433 -4.03219 0
M  V30 918 H 85.1926 -1.9893 -3.94815 0
M  V30 919 N 84.2517 0.741722 -1.39055 0
M  V30 920 C 85.6677 1.04638 -1.20512 0
M  V30 921 C 85.8677 2.01405 -0.0620218 0
M  V30 922 O 84.9237 2.45547 0.588457 0
M  V30 923 C 86.2367 1.6151 -2.53643 0
M  V30 924 C 87.7847 1.73623 -2.6043 0
M  V30 925 C 88.2597 2.33906 -3.93767 0
M  V30 926 N 89.7507 2.41323 -3.9537 0
M  V30 927 C 90.4857 2.88888 -4.95309 0
M  V30 928 N 89.9817 3.36401 -6.05645 0
M  V30 929 N 91.7747 2.88037 -4.82692 0
M  V30 930 H 83.9257 0.0998155 -2.12165 0
M  V30 931 H 86.1887 0.106907 -0.941953 0
M  V30 932 H 85.8947 0.978739 -3.37807 0
M  V30 933 H 85.7687 2.60411 -2.72885 0
M  V30 934 H 88.1557 2.36384 -1.76655 0
M  V30 935 H 88.2367 0.733945 -2.45045 0
M  V30 936 H 87.8807 1.71776 -4.7797 0
M  V30 937 H 87.8107 3.34799 -4.06469 0
M  V30 938 H 90.3017 2.07734 -3.15682 0
M  V30 939 H 90.6147 3.71186 -6.77821 0
M  V30 940 H 88.9597 3.34427 -6.09248 0
M  V30 941 H 92.1507 2.50237 -3.95599 0
M  V30 942 H 92.3237 3.24792 -5.60726 0
M  V30 943 N 85.7298 1.2412 0.971189 0
M  V30 944 C 87.0068 0.986867 1.6888 0
M  V30 945 C 87.3868 -0.491857 2.0529 0
M  V30 946 O 86.7348 -1.46531 1.75331 0
M  V30 947 C 86.9448 1.9063 2.92338 0
M  V30 948 C 88.2928 2.17515 3.64654 0
M  V30 949 O 89.3168 1.88254 3.02388 0
M  V30 950 O 88.1758 2.6719 4.7673 0
M  V30 951 H 85.2698 0.372944 0.738134 0
M  V30 952 H 87.8158 1.35203 1.02559 0
M  V30 953 H 86.5878 2.90552 2.62097 0
M  V30 954 H 86.2108 1.54408 3.66393 0
M  V30 955 N 87.2079 -1.17134 1.05439 0
M  V30 956 C 88.4559 -1.87085 0.764429 0
M  V30 957 C 88.7769 -1.81584 -0.710787 0
M  V30 958 O 88.0469 -1.24349 -1.51374 0
M  V30 959 H 86.6269 -0.692627 0.279779 0
M  V30 960 H 89.2889 -1.42087 1.33406 0
M  V30 961 H 88.3849 -2.92759 1.0816 0
M  V30 962 N 88.686 -0.835752 -1.33615 0
M  V30 963 C 89.916 -0.442701 -2.01801 0
M  V30 964 C 90.324 0.959807 -1.63047 0
M  V30 965 O 89.667 1.63468 -0.838088 0
M  V30 966 C 89.729 -0.480125 -3.56279 0
M  V30 967 C 89.393 -1.8382 -4.18401 0
M  V30 968 C 90.39 -2.80097 -4.37998 0
M  V30 969 C 88.075 -2.13019 -4.54894 0
M  V30 970 C 90.069 -4.03736 -4.9323 0
M  V30 971 C 87.756 -3.36916 -5.09834 0
M  V30 972 C 88.754 -4.32091 -5.28948 0
M  V30 973 O 88.442 -5.53797 -5.82721 0
M  V30 974 H 88.174 -0.17441 -0.653114 0
M  V30 975 H 90.728 -1.129 -1.71589 0
M  V30 976 H 88.958 0.262931 -3.85805 0
M  V30 977 H 90.647 -0.105335 -4.05763 0
M  V30 978 H 91.413 -2.58838 -4.10156 0
M  V30 979 H 87.292 -1.39733 -4.39313 0
M  V30 980 H 90.836 -4.78034 -5.08064 0
M  V30 981 H 86.733 -3.58033 -5.37106 0
M  V30 982 H 87.501 -5.55494 -6.0114 0
M  V30 983 N 90.1641 1.46063 -0.591896 0
M  V30 984 C 91.4131 2.01547 -0.0786637 0
M  V30 985 C 91.7261 1.46796 1.29268 0
M  V30 986 O 92.9321 1.94157 1.89777 0
M  V30 987 C 91.3881 3.59787 -0.0900024 0
M  V30 988 C 90.9961 4.23534 -1.46023 0
M  V30 989 C 92.7401 4.22895 0.368806 0
M  V30 990 C 90.6471 5.73881 -1.4288 0
M  V30 991 H 89.5771 0.753564 -0.0256388 0
M  V30 992 H 92.2281 1.677 -0.744905 0
M  V30 993 H 90.6101 3.90752 0.642586 0
M  V30 994 H 91.7841 4.04167 -2.21328 0
M  V30 995 H 90.0991 3.72558 -1.85982 0
M  V30 996 H 92.6961 5.33116 0.411258 0
M  V30 997 H 93.0391 3.9247 1.38827 0
M  V30 998 H 93.5721 3.9659 -0.31001 0
M  V30 999 H 90.3111 6.0898 -2.42536 0
M  V30 1000 H 89.8311 5.95486 -0.718095 0
M  V30 1001 H 91.5101 6.36776 -1.14565 0
M  V30 1002 N 91.6422 0.330177 1.54103 0
M  V30 1003 C 92.8912 -0.271336 1.99867 0
M  V30 1004 C 93.2042 -1.52723 1.22209 0
M  V30 1005 O 94.4102 -2.20515 1.58383 0
M  V30 1006 C 92.8662 -0.534032 3.55916 0
M  V30 1007 C 92.4742 0.705193 4.42415 0
M  V30 1008 C 94.2182 -1.09514 4.1013 0
M  V30 1009 C 92.1252 0.414035 5.89949 0
M  V30 1010 H 91.0552 -0.105166 0.74663 0
M  V30 1011 H 93.7062 0.443429 1.78062 0
M  V30 1012 H 92.0882 -1.30915 3.73734 0
M  V30 1013 H 93.2622 1.4804 4.36372 0
M  V30 1014 H 91.5772 1.18698 3.99124 0
M  V30 1015 H 94.1742 -1.3277 5.17954 0
M  V30 1016 H 94.5172 -2.04656 3.62521 0
M  V30 1017 H 95.0502 -0.381038 3.95971 0
M  V30 1018 H 91.7892 1.33481 6.41766 0
M  V30 1019 H 91.3092 -0.323336 5.98928 0
M  V30 1020 H 92.9882 0.0263105 6.46995 0
M  V30 1021 N 93.1203 -1.57491 0.0584922 0
M  V30 1022 C 94.5363 -1.56792 -0.298091 0
M  V30 1023 C 94.7363 -1.06679 -1.70944 0
M  V30 1024 O 93.7923 -0.726672 -2.41818 0
M  V30 1025 C 95.1053 -3.00461 -0.119879 0
M  V30 1026 C 96.6533 -3.1242 -0.190428 0
M  V30 1027 C 97.1283 -4.57982 -0.0406567 0
M  V30 1028 N 98.6193 -4.63099 -0.0966958 0
M  V30 1029 C 99.3543 -5.734 -0.00502943 0
M  V30 1030 N 98.8503 -6.9266 0.139402 0
M  V30 1031 N 100.643 -5.62067 -0.0611391 0
M  V30 1032 H 92.7943 -1.88386 0.98105 0
M  V30 1033 H 95.0573 -0.867865 0.381463 0
M  V30 1034 H 94.7633 -3.41187 0.85349 0
M  V30 1035 H 94.6373 -3.66843 -0.877833 0
M  V30 1036 H 97.0243 -2.71589 -1.15427 0
M  V30 1037 H 97.1053 -2.48702 0.598405 0
M  V30 1038 H 96.7493 -4.995 0.919897 0
M  V30 1039 H 96.6793 -5.19715 -0.848727 0
M  V30 1040 H 99.1703 -3.77331 -0.207277 0
M  V30 1041 H 99.4833 -7.72536 0.201855 0
M  V30 1042 H 97.8283 -6.94781 0.174586 0
M  V30 1043 H 101.019 -4.67782 -0.172583 0
M  V30 1044 H 101.192 -6.47999 0.0137562 0
M  V30 1045 N 94.5984 0.214957 -1.56127 0
M  V30 1046 C 96.0144 0.564948 -1.49267 0
M  V30 1047 C 96.2144 1.86827 -0.754838 0
M  V30 1048 O 95.2704 2.50745 -0.297198 0
M  V30 1049 C 96.5834 0.638071 -2.93852 0
M  V30 1050 C 98.1314 0.728253 -3.0441 0
M  V30 1051 C 98.6064 0.832663 -4.50367 0
M  V30 1052 N 100.097 0.896712 -4.54437 0
M  V30 1053 C 100.832 0.997324 -5.6466 0
M  V30 1054 N 100.328 1.06147 -6.8462 0
M  V30 1055 N 102.121 1.03297 -5.52527 0
M  V30 1056 H 94.2724 -0.640211 -2.02522 0
M  V30 1057 H 96.5354 -0.225507 -0.920788 0
M  V30 1058 H 96.2414 -0.250126 -3.50809 0
M  V30 1059 H 96.1154 1.49947 -3.46115 0
M  V30 1060 H 98.5024 1.60689 -2.47514 0
M  V30 1061 H 98.5834 -0.158952 -2.55306 0
M  V30 1062 H 98.2274 -0.0415417 -5.07883 0
M  V30 1063 H 98.1574 1.73538 -4.97184 0
M  V30 1064 H 100.648 0.857188 -3.6805 0
M  V30 1065 H 100.961 1.1382 -7.64372 0
M  V30 1066 H 99.3064 1.03049 -6.87318 0
M  V30 1067 H 102.497 0.979558 -4.57736 0
M  V30 1068 H 102.67 1.10793 -6.38458 0
M  V30 1069 N 96.0765 1.50051 0.48192 0
M  V30 1070 C 97.4925 1.37237 0.814756 0
M  V30 1071 C 97.6925 0.420109 1.97072 0
M  V30 1072 O 96.7485 -0.141246 2.52105 0
M  V30 1073 C 98.0615 2.78375 1.13701 0
M  V30 1074 C 99.6095 2.87213 1.2441 0
M  V30 1075 C 100.084 4.29161 1.59954 0
M  V30 1076 N 101.575 4.32061 1.66967 0
M  V30 1077 C 102.31 5.38879 1.95952 0
M  V30 1078 N 101.806 6.55918 2.23031 0
M  V30 1079 N 103.599 5.26312 1.97363 0
M  V30 1080 H 95.7505 2.10546 -0.28005 0
M  V30 1081 H 98.0135 0.945921 -0.0627454 0
M  V30 1082 H 97.7195 3.49845 0.360787 0
M  V30 1083 H 97.5935 3.14941 2.07586 0
M  V30 1084 H 99.9805 2.15969 2.01101 0
M  V30 1085 H 100.061 2.54204 0.285299 0
M  V30 1086 H 99.7055 5.00938 0.838067 0
M  V30 1087 H 99.6355 4.59648 2.56966 0
M  V30 1088 H 102.126 3.47661 1.48123 0
M  V30 1089 H 102.439 7.33139 2.44391 0
M  V30 1090 H 100.784 6.59112 2.20447 0
M  V30 1091 H 103.975 4.33876 1.75697 0
M  V30 1092 H 104.148 6.09649 2.19618 0
M  V30 1093 N 97.5546 -0.734337 1.39446 0
M  V30 1094 C 98.8026 -1.49096 1.36436 0
M  V30 1095 C 99.1236 -1.94961 -0.0388255 0
M  V30 1096 O 98.3936 -1.69033 -0.990191 0
M  V30 1097 H 96.9736 -0.5531 0.502085 0
M  V30 1098 H 99.6356 -0.871725 1.74319 0
M  V30 1099 H 98.7316 -2.37276 2.02747 0
M  V30 1100 N 99.0327 -1.24633 -0.964593 0
M  V30 1101 C 100.258 -1.11596 -1.74818 0
M  V30 1102 C 100.683 0.32723 -1.85232 0
M  V30 1103 O 100.041 1.23695 -1.32549 0
M  V30 1104 C 100.089 -1.76397 -3.1451 0
M  V30 1105 O 99.1927 -1.03685 -3.99153 0
M  V30 1106 H 98.5337 -0.390196 -0.537255 0
M  V30 1107 H 101.064 -1.65002 -1.20977 0
M  V30 1108 H 101.074 -1.8228 -3.65018 0
M  V30 1109 H 99.7487 -2.81401 -3.06246 0
M  V30 1110 H 98.3257 -1.05611 -3.57632 0
M  V30 1111 N 100.511 1.16574 -1.06058 0
M  V30 1112 C 101.759 1.86677 -0.77434 0
M  V30 1113 C 102.08 1.81959 0.701147 0
M  V30 1114 O 101.35 1.2515 1.50713 0
M  V30 1115 H 99.9298 0.691134 -0.283449 0
M  V30 1116 H 102.592 1.41378 -1.34158 0
M  V30 1117 H 101.688 2.92181 -1.09711 0
M  V30 1118 N 101.989 0.842826 1.3317 0
M  V30 1119 C 103.217 0.454055 2.01856 0
M  V30 1120 C 103.632 -0.94587 1.63397 0
M  V30 1121 O 102.989 -1.61534 0.849302 0
M  V30 1122 C 103.04 0.569715 3.56982 0
M  V30 1123 O 102.761 1.91448 3.94055 0
M  V30 1124 C 104.262 0.178412 4.42941 0
M  V30 1125 H 101.482 0.17979 0.646465 0
M  V30 1126 H 104.026 1.1365 1.70012 0
M  V30 1127 H 102.181 -0.0648587 3.87346 0
M  V30 1128 H 102.595 1.90282 4.88767 0
M  V30 1129 H 104.069 0.310376 5.51127 0
M  V30 1130 H 104.546 -0.880056 4.30293 0
M  V30 1131 H 105.152 0.787579 4.17944 0
M  V30 1132 N 103.467 -1.45747 0.599634 0
M  V30 1133 C 104.713 -2.02592 0.0918643 0
M  V30 1134 C 105.046 -1.46806 -1.27128 0
M  V30 1135 O 104.321 -0.639658 -1.83681 0
M  V30 1136 C 104.604 -3.60073 0.0443398 0
M  V30 1137 C 104.457 -4.26208 1.43759 0
M  V30 1138 C 105.776 -4.35309 -0.647608 0
M  V30 1139 H 102.895 -0.736175 0.034857 0
M  V30 1140 H 105.537 -1.73694 0.770081 0
M  V30 1141 H 103.687 -3.84823 -0.533224 0
M  V30 1142 H 105.359 -4.12668 2.06162 0
M  V30 1143 H 103.602 -3.84916 2.00056 0
M  V30 1144 H 104.273 -5.35069 1.35665 0
M  V30 1145 H 106.749 -4.15805 -0.156776 0
M  V30 1146 H 105.625 -5.45038 -0.649942 0
M  V30 1147 H 105.886 -4.07598 -1.71219 0
M  V30 1148 N 104.945 -0.338344 -1.53925 0
M  V30 1149 C 106.191 0.260143 -2.01125 0
M  V30 1150 C 106.524 1.50617 -1.22589 0
M  V30 1151 O 105.799 1.91979 -0.312113 0
M  V30 1152 C 106.082 0.579499 -3.55407 0
M  V30 1153 C 105.935 -0.678264 -4.44657 0
M  V30 1154 C 107.254 1.39122 -4.17532 0
M  V30 1155 H 104.373 0.0930772 -0.731099 0
M  V30 1156 H 107.015 -0.457852 -1.84401 0
M  V30 1157 H 105.165 1.19118 -3.69788 0
M  V30 1158 H 106.837 -1.31631 -4.42121 0
M  V30 1159 H 105.08 -1.3042 -4.13731 0
M  V30 1160 H 105.751 -0.410143 -5.50474 0
M  V30 1161 H 108.227 0.874035 -4.06817 0
M  V30 1162 H 107.103 1.58342 -5.25565 0
M  V30 1163 H 107.364 2.39178 -3.71815 0
M  V30 1164 N 106.423 1.57458 -0.0668435 0
M  V30 1165 C 107.355 2.09413 0.931601 0
M  V30 1166 C 108.368 1.02522 1.26464 0
M  V30 1167 O 109.557 1.30049 1.22269 0
M  V30 1168 C 106.657 2.53537 2.24882 0
M  V30 1169 C 105.83 3.83944 2.09537 0
M  V30 1170 C 104.889 4.14214 3.2452 0
M  V30 1171 O 103.915 4.83891 2.9973 0
M  V30 1172 N 105.117 3.67367 4.49469 0
M  V30 1173 H 107.882 2.95699 0.488048 0
M  V30 1174 H 105.443 1.61462 0.119009 0
M  V30 1175 H 107.435 2.70853 3.00701 0
M  V30 1176 H 106.005 1.72415 2.60753 0
M  V30 1177 H 105.225 3.76057 1.18215 0
M  V30 1178 H 106.513 4.69312 1.96529 0
M  V30 1179 H 105.911 3.11068 4.72497 0
M  V30 1180 H 104.468 3.89891 5.2233 0
M  V30 1181 N 107.901 -0.206675 1.56239 0
M  V30 1182 C 109.178 -0.954051 1.70755 0
M  V30 1183 C 109.558 -2.01841 0.618353 0
M  V30 1184 O 108.906 -2.25444 -0.372434 0
M  V30 1185 C 109.116 -1.551 3.12642 0
M  V30 1186 C 110.464 -2.03757 3.72516 0
M  V30 1187 O 111.488 -1.64965 3.15698 0
M  V30 1188 O 110.347 -2.75103 4.72208 0
M  V30 1189 H 107.441 -0.446636 0.696021 0
M  V30 1190 H 109.987 -0.197283 1.68549 0
M  V30 1191 H 108.759 -0.783212 3.83382 0
M  V30 1192 H 108.382 -2.37291 3.19028 0
M  V30 1193 N 109.379 -1.50304 -0.473955 0
M  V30 1194 C 110.625 -1.62358 -1.22521 0
M  V30 1195 C 110.98 -0.318555 -1.89745 0
M  V30 1196 O 110.273 0.683315 -1.79001 0
M  V30 1197 C 110.467 -2.73938 -2.29549 0
M  V30 1198 C 110.296 -4.15165 -1.72825 0
M  V30 1199 C 109.066 -4.81604 -1.52924 0
M  V30 1200 C 111.264 -4.99503 -1.22481 0
M  V30 1201 N 109.246 -6.07056 -0.91413 0
M  V30 1202 C 110.617 -6.15655 -0.732743 0
M  V30 1203 C 112.672 -4.85299 -1.11308 0
M  V30 1204 C 111.375 -7.19164 -0.139976 0
M  V30 1205 C 113.401 -5.88982 -0.534258 0
M  V30 1206 C 112.763 -7.0438 -0.0525562 0
M  V30 1207 H 108.862 -0.648286 -0.437321 0
M  V30 1208 H 111.446 -1.87413 -0.527692 0
M  V30 1209 H 109.617 -2.50611 -2.9673 0
M  V30 1210 H 111.349 -2.75366 -2.96573 0
M  V30 1211 H 108.104 -4.3885 -1.78067 0
M  V30 1212 H 108.528 -6.74108 -0.625071 0
M  V30 1213 H 113.17 -3.96369 -1.47144 0
M  V30 1214 H 110.888 -8.07771 0.230591 0
M  V30 1215 H 114.474 -5.80055 -0.450219 0
M  V30 1216 H 113.354 -7.83238 0.388324 0
M  V30 1217 N 110.857 0.726932 -1.39834 0
M  V30 1218 C 112.273 1.03354 -1.21615 0
M  V30 1219 C 112.473 2.01327 -0.08338 0
M  V30 1220 O 111.529 2.46158 0.56238 0
M  V30 1221 C 112.842 1.58811 -2.55342 0
M  V30 1222 C 114.39 1.70851 -2.62257 0
M  V30 1223 C 114.865 2.29716 -3.96225 0
M  V30 1224 N 116.356 2.37116 -3.97907 0
M  V30 1225 C 117.091 2.83619 -4.98345 0
M  V30 1226 N 116.587 3.29958 -6.09179 0
M  V30 1227 N 118.38 2.82901 -4.8572 0
M  V30 1228 H 110.531 0.0773069 -2.12259 0
M  V30 1229 H 112.794 0.0969102 -0.943034 0
M  V30 1230 H 112.5 0.942855 -3.38826 0
M  V30 1231 H 112.374 2.57502 -2.75632 0
M  V30 1232 H 114.761 2.34497 -1.79152 0
M  V30 1233 H 114.842 0.707913 -2.45809 0
M  V30 1234 H 114.486 1.66696 -4.79765 0
M  V30 1235 H 114.416 3.30469 -4.09997 0
M  V30 1236 H 116.907 2.04374 -3.17868 0
M  V30 1237 H 117.22 3.63976 -6.8172 0
M  V30 1238 H 115.565 3.27946 -6.12761 0
M  V30 1239 H 118.756 2.46027 -3.98231 0
M  V30 1240 H 118.929 3.18827 -5.6414 0
M  V30 1241 N 112.336 1.25143 0.95797 0
M  V30 1242 C 113.268 1.01023 2.05735 0
M  V30 1243 C 114.281 -0.0236902 1.62783 0
M  V30 1244 O 115.47 0.21448 1.77207 0
M  V30 1245 C 112.57 0.504595 3.35122 0
M  V30 1246 C 111.743 1.6039 4.06932 0
M  V30 1247 C 110.802 1.09922 5.14591 0
M  V30 1248 O 109.828 1.79293 5.40225 0
M  V30 1249 N 111.03 -0.0612545 5.80468 0
M  V30 1250 H 113.795 1.95683 2.26998 0
M  V30 1251 H 111.356 1.16303 1.12629 0
M  V30 1252 H 113.348 0.151516 4.04416 0
M  V30 1253 H 111.918 -0.347989 3.10657 0
M  V30 1254 H 111.138 2.12872 3.31782 0
M  V30 1255 H 112.426 2.34252 4.51667 0
M  V30 1256 H 111.824 -0.640985 5.62057 0
M  V30 1257 H 110.381 -0.355395 6.5083 0
M  V30 1258 N 113.814 -1.1601 1.06675 0
M  V30 1259 C 114.746 -2.20115 0.638921 0
M  V30 1260 C 115.759 -1.59916 -0.305057 0
M  V30 1261 O 116.948 -1.78245 -0.0954446 0
M  V30 1262 C 114.048 -3.38798 -0.0830083 0
M  V30 1263 C 113.221 -4.2855 0.875426 0
M  V30 1264 C 112.28 -5.25849 0.192042 0
M  V30 1265 O 111.306 -5.63102 0.830921 0
M  V30 1266 N 112.508 -5.70648 -1.06493 0
M  V30 1267 H 115.273 -2.57439 1.53444 0
M  V30 1268 H 112.834 -1.31057 0.950557 0
M  V30 1269 H 114.826 -4.00936 -0.550685 0
M  V30 1270 H 113.396 -2.99947 -0.880386 0
M  V30 1271 H 112.616 -3.63617 1.52238 0
M  V30 1272 H 113.904 -4.85393 1.52548 0
M  V30 1273 H 113.302 -5.42482 -1.60405 0
M  V30 1274 H 111.859 -6.34859 -1.47641 0
M  V30 1275 N 115.292 -0.849877 -1.32721 0
M  V30 1276 C 116.202 -0.293791 -2.32753 0
M  V30 1277 C 117.218 0.585906 -1.63839 0
M  V30 1278 O 118.394 0.487413 -1.95413 0
M  V30 1279 C 115.459 0.512752 -3.42887 0
M  V30 1280 C 114.52 -0.39252 -4.27502 0
M  V30 1281 C 113.753 0.375625 -5.32377 0
M  V30 1282 O 113.976 1.60613 -5.4732 0
M  V30 1283 O 112.91 -0.256094 -6.01355 0
M  V30 1284 H 116.736 -1.12242 -2.82197 0
M  V30 1285 H 114.321 -0.612685 -1.36259 0
M  V30 1286 H 116.203 0.970704 -4.10067 0
M  V30 1287 H 114.878 1.31826 -2.95641 0
M  V30 1288 H 113.785 -0.898547 -3.63149 0
M  V30 1289 H 115.118 -1.16309 -4.7826 0
M  V30 1290 N 116.77 1.45427 -0.607355 0
M  V30 1291 C 117.717 2.3053 0.111625 0
M  V30 1292 C 118.687 1.4209 0.860216 0
M  V30 1293 O 119.872 1.71019 0.845998 0
M  V30 1294 C 117.012 3.26992 1.10319 0
M  V30 1295 C 116.125 4.30535 0.355493 0
M  V30 1296 C 115.26 5.14105 1.33676 0
M  V30 1297 C 114.299 6.09376 0.576862 0
M  V30 1298 N 113.436 6.85727 1.5074 0
M  V30 1299 H 118.276 2.91477 -0.620093 0
M  V30 1300 H 115.813 1.43631 -0.317594 0
M  V30 1301 H 117.771 3.81385 1.6912 0
M  V30 1302 H 116.401 2.67799 1.80232 0
M  V30 1303 H 115.453 3.78805 -0.348023 0
M  V30 1304 H 116.765 4.98235 -0.237423 0
M  V30 1305 H 115.919 5.72897 1.99684 0
M  V30 1306 H 114.658 4.46423 1.9636 0
M  V30 1307 H 113.663 5.49715 -0.0968519 0
M  V30 1308 H 114.888 6.79085 -0.0449341 0
M  V30 1309 H 112.834 6.20735 2.12189 0
M  V30 1310 H 112.751 7.49778 0.967913 0
M  V30 1311 H 114.019 7.4906 2.15706 0
M  V30 1312 N 118.248 0.346503 1.53744 0
M  V30 1313 C 119.211 -0.496439 2.23759 0
M  V30 1314 C 120.211 -1.0252 1.2388 0
M  V30 1315 O 121.401 -0.913974 1.48297 0
M  V30 1316 C 118.533 -1.69187 2.95954 0
M  V30 1317 H 119.726 0.115952 2.99676 0
M  V30 1318 H 117.279 0.0978939 1.55993 0
M  V30 1319 H 118.014 -2.34288 2.24231 0
M  V30 1320 H 117.799 -1.31989 3.69217 0
M  V30 1321 H 119.289 -2.28969 3.49232 0
M  V30 1322 N 119.726 -1.57421 0.075193 0
M  V30 1323 C 121.142 -1.57099 -0.281444 0
M  V30 1324 C 121.342 -1.08486 -1.69803 0
M  V30 1325 O 120.398 -0.752279 -2.41033 0
M  V30 1326 C 121.711 -3.00571 -0.0880041 0
M  V30 1327 C 123.259 -3.12605 -0.157281 0
M  V30 1328 C 123.734 -4.57999 0.0079207 0
M  V30 1329 N 125.225 -4.63176 -0.0475725 0
M  V30 1330 C 125.96 -5.73373 0.0557876 0
M  V30 1331 N 125.456 -6.92473 0.21286 0
M  V30 1332 N 127.249 -5.621 -0.00152098 0
M  V30 1333 H 119.4 -1.87335 1.00098 0
M  V30 1334 H 121.663 -0.86377 0.390646 0
M  V30 1335 H 121.369 -3.40262 0.889629 0
M  V30 1336 H 121.243 -3.67754 -0.838875 0
M  V30 1337 H 123.63 -2.72798 -1.1254 0
M  V30 1338 H 123.711 -2.48053 0.62475 0
M  V30 1339 H 123.355 -4.98496 0.972824 0
M  V30 1340 H 123.285 -5.20586 -0.793556 0
M  V30 1341 H 125.776 -3.7753 -0.167244 0
M  V30 1342 H 126.089 -7.72279 0.283781 0
M  V30 1343 H 124.434 -6.94556 0.248267 0
M  V30 1344 H 127.625 -4.67938 -0.122958 0
M  V30 1345 H 127.798 -6.47948 0.0824844 0
M  V30 1346 N 121.204 0.198386 -1.56346 0
M  V30 1347 C 122.137 1.27381 -1.89339 0
M  V30 1348 C 123.115 1.44106 -0.753134 0
M  V30 1349 O 124.299 1.59549 -1.00381 0
M  V30 1350 C 121.426 2.6409 -2.12071 0
M  V30 1351 C 120.472 2.64253 -3.34772 0
M  V30 1352 S 121.305 2.16013 -4.89999 0
M  V30 1353 C 122.461 3.54553 -5.15794 0
M  V30 1354 H 122.694 0.992058 -2.8026 0
M  V30 1355 H 120.227 0.401726 -1.49082 0
M  V30 1356 H 122.185 3.42786 -2.2585 0
M  V30 1357 H 120.846 2.89478 -1.21906 0
M  V30 1358 H 120.039 3.64768 -3.47794 0
M  V30 1359 H 119.641 1.93637 -3.1997 0
M  V30 1360 H 121.933 4.50396 -5.06112 0
M  V30 1361 H 122.876 3.46428 -6.1757 0
M  V30 1362 H 123.284 3.49313 -4.43442 0
M  V30 1363 N 122.682 1.50554 0.465978 0
M  V30 1364 C 123.931 1.61038 1.21448 0
M  V30 1365 C 124.244 0.31865 1.92987 0
M  V30 1366 O 125.45 0.302469 2.6981 0
M  V30 1367 C 123.906 2.84283 2.20706 0
M  V30 1368 C 123.514 4.20352 1.54946 0
M  V30 1369 C 125.258 3.04115 2.96166 0
M  V30 1370 C 123.165 5.34778 2.5252 0
M  V30 1371 H 122.095 0.599718 0.457005 0
M  V30 1372 H 124.746 1.7699 0.484424 0
M  V30 1373 H 123.128 2.61901 2.97025 0
M  V30 1374 H 124.302 4.53008 0.843811 0
M  V30 1375 H 122.617 4.06167 0.917475 0
M  V30 1376 H 125.214 3.86774 3.69202 0
M  V30 1377 H 125.557 2.16045 3.55852 0
M  V30 1378 H 126.09 3.26702 2.26959 0
M  V30 1379 H 122.829 6.25018 1.97566 0
M  V30 1380 H 122.349 5.06534 3.21222 0
M  V30 1381 H 124.028 5.65561 3.14245 0
M  V30 1382 N 124.16 -0.719506 1.40217 0
M  V30 1383 C 125.092 -1.84428 1.36084 0
M  V30 1384 C 126.105 -1.60597 0.266913 0
M  V30 1385 O 127.294 -1.70544 0.526983 0
M  V30 1386 C 124.394 -3.20757 1.094 0
M  V30 1387 C 123.567 -3.71817 2.30372 0
M  V30 1388 C 122.626 -4.86748 1.99907 0
M  V30 1389 O 121.652 -4.99603 2.72737 0
M  V30 1390 N 122.854 -5.7226 0.974635 0
M  V30 1391 H 125.619 -1.88473 2.33019 0
M  V30 1392 H 123.18 -0.900885 1.3452 0
M  V30 1393 H 125.172 -3.95235 0.870116 0
M  V30 1394 H 123.742 -3.11884 0.211452 0
M  V30 1395 H 122.962 -2.88514 2.68614 0
M  V30 1396 H 124.25 -4.02666 3.11026 0
M  V30 1397 H 123.648 -5.6448 0.371368 0
M  V30 1398 H 122.205 -6.46739 0.810656 0
M  V30 1399 N 125.638 -1.25649 -0.95132 0
M  V30 1400 C 126.866 -1.13343 -1.73092 0
M  V30 1401 C 127.281 0.312434 -1.86197 0
M  V30 1402 O 126.638 1.21465 -1.36207 0
M  V30 1403 C 126.689 -1.78602 -3.14299 0
M  V30 1404 O 126.41 -3.17537 -3.01831 0
M  V30 1405 C 127.911 -1.72119 -4.08522 0
M  V30 1406 H 125.131 -0.395181 -0.542285 0
M  V30 1407 H 127.675 -1.66076 -1.19328 0
M  V30 1408 H 125.83 -1.29832 -3.64996 0
M  V30 1409 H 126.244 -3.49676 -3.90931 0
M  V30 1410 H 127.718 -2.22435 -5.052 0
M  V30 1411 H 128.195 -0.685635 -4.33815 0
M  V30 1412 H 128.801 -2.20393 -3.63741 0
M  V30 1413 N 127.117 1.15442 -1.07289 0
M  V30 1414 C 128.047 2.22312 -0.714107 0
M  V30 1415 C 129.028 1.67467 0.298155 0
M  V30 1416 O 130.213 1.93445 0.171048 0
M  V30 1417 C 127.343 3.47124 -0.110448 0
M  V30 1418 C 126.297 4.14926 -1.04979 0
M  V30 1419 C 125.623 5.33807 -0.308924 0
M  V30 1420 C 126.923 4.64762 -2.38314 0
M  V30 1421 H 128.617 2.5258 -1.6076 0
M  V30 1422 H 126.163 1.21404 -0.77441 0
M  V30 1423 H 128.116 4.21124 0.152482 0
M  V30 1424 H 126.84 3.16187 0.81812 0
M  V30 1425 H 125.499 3.42866 -1.29764 0
M  V30 1426 H 125.147 4.99126 0.623084 0
M  V30 1427 H 124.847 5.80113 -0.935036 0
M  V30 1428 H 126.371 6.10576 -0.0537771 0
M  V30 1429 H 127.785 5.30292 -2.1786 0
M  V30 1430 H 126.182 5.21728 -2.96514 0
M  V30 1431 H 127.252 3.80434 -3.00663 0
M  V30 1432 N 128.595 0.856903 1.32268 0
M  V30 1433 C 129.823 0.475439 2.01363 0
M  V30 1434 C 130.238 -0.928486 1.64392 0
M  V30 1435 O 129.595 -1.60624 0.866387 0
M  V30 1436 C 129.646 0.607545 3.56358 0
M  V30 1437 O 129.367 1.95617 3.92002 0
M  V30 1438 C 130.868 0.225382 4.42727 0
M  V30 1439 H 128.088 0.186636 0.644521 0
M  V30 1440 H 130.632 1.15446 1.68797 0
M  V30 1441 H 128.787 -0.0237719 3.87393 0
M  V30 1442 H 129.201 1.95455 4.86721 0
M  V30 1443 H 130.675 0.368813 5.50767 0
M  V30 1444 H 131.152 -0.834369 4.31202 0
M  V30 1445 H 131.758 0.831864 4.17085 0
M  V30 1446 N 130.073 -1.45103 0.615059 0
M  V30 1447 C 131.321 -2.01784 0.112955 0
M  V30 1448 C 131.642 -1.48504 -1.26378 0
M  V30 1449 O 130.912 -0.682245 -1.83636 0
M  V30 1450 H 129.492 -0.745993 0.0387668 0
M  V30 1451 H 132.154 -1.77808 0.798141 0
M  V30 1452 H 131.25 -3.12025 0.0684069 0
M  V30 1453 N 131.551 -0.354651 -1.53558 0
M  V30 1454 C 132.779 0.239515 -2.05509 0
M  V30 1455 C 133.194 1.4333 -1.2289 0
M  V30 1456 O 132.551 1.80538 -0.266899 0
M  V30 1457 C 132.602 0.643719 -3.55723 0
M  V30 1458 O 132.323 -0.502602 -4.35207 0
M  V30 1459 C 133.824 1.29743 -4.23889 0
M  V30 1460 H 131.044 0.0442697 -0.669538 0
M  V30 1461 H 133.588 -0.509856 -1.98042 0
M  V30 1462 H 131.743 1.34302 -3.63376 0
M  V30 1463 H 132.157 -0.178172 -5.24197 0
M  V30 1464 H 133.631 1.53091 -5.30346 0
M  V30 1465 H 134.108 2.25441 -3.76926 0
M  V30 1466 H 134.714 0.639865 -4.20459 0
M  V30 1467 N 133.029 1.57378 -0.0835403 0
M  V30 1468 C 133.976 2.13384 0.879539 0
M  V30 1469 C 134.946 1.04936 1.28754 0
M  V30 1470 O 136.131 1.32662 1.37133 0
M  V30 1471 C 133.271 2.70932 2.13752 0
M  V30 1472 C 132.384 3.93575 1.7811 0
M  V30 1473 C 131.519 4.39326 2.98607 0
M  V30 1474 C 130.558 5.54587 2.59037 0
M  V30 1475 N 129.695 5.95243 3.72331 0
M  V30 1476 H 134.535 2.9537 0.395076 0
M  V30 1477 H 132.072 1.45953 0.183349 0
M  V30 1478 H 134.03 3.02411 2.87408 0
M  V30 1479 H 132.66 1.91693 2.59718 0
M  V30 1480 H 131.712 3.68483 0.94469 0
M  V30 1481 H 133.024 4.77258 1.45005 0
M  V30 1482 H 132.178 4.72528 3.80529 0
M  V30 1483 H 130.917 3.5452 3.34913 0
M  V30 1484 H 129.922 5.21024 1.75539 0
M  V30 1485 H 131.147 6.41133 2.23887 0
M  V30 1486 H 129.093 5.13385 4.08378 0
M  V30 1487 H 129.01 6.73694 3.43034 0
M  V30 1488 H 130.278 6.33072 4.54797 0
M  V30 1489 N 134.507 -0.190092 1.56449 0
M  V30 1490 C 135.47 -1.21925 1.9408 0
M  V30 1491 C 136.47 -1.38176 0.822431 0
M  V30 1492 O 137.66 -1.35903 1.08977 0
M  V30 1493 C 134.792 -2.58773 2.21922 0
M  V30 1494 H 135.985 -0.897464 2.86157 0
M  V30 1495 H 133.538 -0.43181 1.50217 0
M  V30 1496 H 134.273 -2.95998 1.32499 0
M  V30 1497 H 134.058 -2.48348 3.03424 0
M  V30 1498 H 135.548 -3.32978 2.52022 0
M  V30 1499 N 135.985 -1.50799 -0.457987 0
M  V30 1500 C 137.231 -1.62683 -1.21088 0
M  V30 1501 C 137.564 -0.332268 -1.91336 0
M  V30 1502 O 136.839 0.667043 -1.82704 0
M  V30 1503 C 137.122 -2.81615 -2.24422 0
M  V30 1504 C 136.975 -4.20989 -1.58392 0
M  V30 1505 C 138.294 -2.96085 -3.2561 0
M  V30 1506 H 135.413 -0.592087 -0.438864 0
M  V30 1507 H 138.055 -1.83225 -0.50286 0
M  V30 1508 H 136.205 -2.64231 -2.84806 0
M  V30 1509 H 137.877 -4.49994 -1.01504 0
M  V30 1510 H 136.12 -4.24641 -0.886704 0
M  V30 1511 H 136.791 -5.0016 -2.33547 0
M  V30 1512 H 139.267 -3.12042 -2.75262 0
M  V30 1513 H 138.143 -3.80902 -3.95228 0
M  V30 1514 H 138.404 -2.0726 -3.90507 0
M  V30 1515 N 137.463 0.71206 -1.40597 0
M  V30 1516 C 138.693 1.49894 -1.42181 0
M  V30 1517 C 139.101 1.89189 -0.0208078 0
M  V30 1518 O 138.444 1.56223 0.966436 0
M  V30 1519 C 138.506 2.80215 -2.25211 0
M  V30 1520 C 138.17 2.63221 -3.73582 0
M  V30 1521 C 139.167 2.30249 -4.66135 0
M  V30 1522 C 136.852 2.79376 -4.17438 0
M  V30 1523 C 138.846 2.13645 -6.00529 0
M  V30 1524 C 136.533 2.6239 -5.51901 0
M  V30 1525 C 137.531 2.29573 -6.43262 0
M  V30 1526 O 137.219 2.12719 -7.75246 0
M  V30 1527 H 136.951 0.469031 -0.486812 0
M  V30 1528 H 139.505 0.88564 -1.85326 0
M  V30 1529 H 137.735 3.4389 -1.76852 0
M  V30 1530 H 139.424 3.41947 -2.18694 0
M  V30 1531 H 140.19 2.17398 -4.33547 0
M  V30 1532 H 136.069 3.03906 -3.46644 0
M  V30 1533 H 139.613 1.87953 -6.71803 0
M  V30 1534 H 135.51 2.74826 -5.84073 0
M  V30 1535 H 136.278 2.27611 -7.86216 0
M  V30 1536 N 138.941 1.26152 0.944643 0
M  V30 1537 C 140.189 1.11271 1.6871 0
M  V30 1538 C 140.51 -0.345166 1.91921 0
M  V30 1539 O 139.78 -1.24387 1.51343 0
M  V30 1540 H 138.36 0.408783 0.625224 0
M  V30 1541 H 141.022 1.58427 1.1352 0
M  V30 1542 H 140.118 1.62879 2.66227 0
M  V30 1543 N 140.419 -1.14872 1.07899 0
M  V30 1544 C 141.644 -1.90202 0.826926 0
M  V30 1545 C 142.069 -1.77774 -0.614664 0
M  V30 1546 O 141.427 -1.11431 -1.43013 0
M  V30 1547 C 141.475 -3.38352 1.24702 0
M  V30 1548 O 140.579 -4.10497 0.39575 0
M  V30 1549 H 139.92 -0.591968 0.300782 0
M  V30 1550 H 142.45 -1.45437 1.43907 0
M  V30 1551 H 142.46 -3.89156 1.22563 0
M  V30 1552 H 141.135 -3.46715 2.29698 0
M  V30 1553 H 139.712 -3.69796 0.480117 0
M  V30 1554 N 141.898 -0.863906 -1.31812 0
M  V30 1555 C 142.808 -0.318461 -2.32428 0
M  V30 1556 C 143.824 0.568496 -1.64451 0
M  V30 1557 O 145 0.46666 -1.95919 0
M  V30 1558 C 142.065 0.476355 -3.43412 0
M  V30 1559 C 141.126 -0.43784 -4.27061 0
M  V30 1560 C 140.359 0.319138 -5.32745 0
M  V30 1561 O 140.582 1.54799 -5.48993 0
M  V30 1562 O 139.516 -0.319861 -6.01049 0
M  V30 1563 H 143.342 -1.15229 -2.80991 0
M  V30 1564 H 140.927 -0.627103 -1.35602 0
M  V30 1565 H 142.809 0.927156 -4.11074 0
M  V30 1566 H 141.484 1.28683 -2.97022 0
M  V30 1567 H 140.391 -0.937013 -3.62175 0
M  V30 1568 H 141.724 -1.21375 -4.77 0
M  V30 1569 N 143.376 1.44774 -0.622745 0
M  V30 1570 C 144.622 2.0242 -0.124083 0
M  V30 1571 C 144.955 1.4881 1.24777 0
M  V30 1572 O 144.23 0.668799 1.8264 0
M  V30 1573 C 144.513 3.59957 -0.101619 0
M  V30 1574 C 144.366 4.23867 -1.50521 0
M  V30 1575 C 145.685 4.36284 0.578272 0
M  V30 1576 H 142.804 0.735528 -0.0465645 0
M  V30 1577 H 145.446 1.72447 -0.797617 0
M  V30 1578 H 143.596 3.85623 0.471934 0
M  V30 1579 H 145.268 4.09336 -2.12701 0
M  V30 1580 H 143.511 3.81684 -2.06154 0
M  V30 1581 H 144.182 5.32843 -1.4416 0
M  V30 1582 H 146.658 4.16001 0.0906057 0
M  V30 1583 H 145.534 5.46004 0.563149 0
M  V30 1584 H 145.795 4.10271 1.64713 0
M  V30 1585 N 144.854 0.36279 1.53368 0
M  V30 1586 C 145.764 -0.492994 2.29362 0
M  V30 1587 C 146.78 -1.09507 1.35219 0
M  V30 1588 O 147.956 -1.10662 1.68273 0
M  V30 1589 C 145.021 -1.61855 3.066 0
M  V30 1590 C 144.082 -1.04429 4.16405 0
M  V30 1591 C 143.315 -2.11621 4.89951 0
M  V30 1592 O 143.538 -3.32684 4.63333 0
M  V30 1593 O 142.472 -1.74835 5.75948 0
M  V30 1594 H 146.298 0.125331 3.03441 0
M  V30 1595 H 143.883 0.127253 1.48857 0
M  V30 1596 H 145.765 -2.27302 3.54841 0
M  V30 1597 H 144.44 -2.22233 2.3536 0
M  V30 1598 H 143.347 -0.353819 3.72423 0
M  V30 1599 H 144.68 -0.485113 4.89804 0
M  V30 1600 N 146.332 -1.57332 0.0918853 0
M  V30 1601 C 147.557 -1.98995 -0.584442 0
M  V30 1602 C 147.982 -0.970528 -1.61128 0
M  V30 1603 O 147.34 0.0613904 -1.81196 0
M  V30 1604 C 147.388 -3.39636 -1.21161 0
M  V30 1605 O 146.492 -3.40447 -2.32744 0
M  V30 1606 H 145.833 -0.647165 -0.148572 0
M  V30 1607 H 148.363 -2.03873 0.172347 0
M  V30 1608 H 148.373 -3.7726 -1.55367 0
M  V30 1609 H 147.048 -4.13356 -0.459313 0
M  V30 1610 H 145.625 -3.14614 -2.0018 0
M  V30 1611 N 147.81 0.181792 -1.56548 0
M  V30 1612 C 148.757 1.22521 -1.95595 0
M  V30 1613 C 149.727 1.4454 -0.818373 0
M  V30 1614 O 150.912 1.57454 -1.07763 0
M  V30 1615 C 148.052 2.56193 -2.31212 0
M  V30 1616 C 147.165 2.41641 -3.58097 0
M  V30 1617 C 146.3 3.68108 -3.82975 0
M  V30 1618 C 145.339 3.48445 -5.03242 0
M  V30 1619 N 144.476 4.66956 -5.24306 0
M  V30 1620 H 149.316 0.885226 -2.84548 0
M  V30 1621 H 146.853 0.425718 -1.40805 0
M  V30 1622 H 148.811 3.34088 -2.49882 0
M  V30 1623 H 147.441 2.88208 -1.45382 0
M  V30 1624 H 146.493 1.54976 -3.474 0
M  V30 1625 H 147.805 2.23052 -4.46149 0
M  V30 1626 H 146.959 4.54441 -4.01956 0
M  V30 1627 H 145.698 3.89666 -2.93278 0
M  V30 1628 H 144.703 2.60499 -4.8417 0
M  V30 1629 H 145.928 3.2832 -5.9446 0
M  V30 1630 H 143.874 4.88752 -4.37559 0
M  V30 1631 H 143.791 4.51242 -6.06561 0
M  V30 1632 H 145.059 5.54602 -5.47756 0
M  V30 1633 N 149.288 1.51039 0.449983 0
M  V30 1634 C 150.537 1.62317 1.19733 0
M  V30 1635 C 150.85 0.339101 1.92638 0
M  V30 1636 O 152.056 0.331069 2.69474 0
M  V30 1637 C 150.512 2.86608 2.17678 0
M  V30 1638 C 150.12 4.21972 1.50479 0
M  V30 1639 C 151.864 3.07239 2.92924 0
M  V30 1640 C 149.771 5.37426 2.46834 0
M  V30 1641 H 148.701 0.604532 0.450619 0
M  V30 1642 H 151.352 1.77494 0.465625 0
M  V30 1643 H 149.734 2.65037 2.94231 0
M  V30 1644 H 150.908 4.53878 0.795716 0
M  V30 1645 H 149.223 4.07117 0.874344 0
M  V30 1646 H 151.82 3.90668 3.65079 0
M  V30 1647 H 152.163 2.19807 3.5354 0
M  V30 1648 H 152.696 3.29091 2.23481 0
M  V30 1649 H 149.435 6.27079 1.90926 0
M  V30 1650 H 148.955 5.09912 3.15832 0
M  V30 1651 H 150.634 5.68862 3.08228 0
M  V30 1652 N 150.766 -0.704594 1.40972 0
M  V30 1653 C 152.015 -1.46018 1.39146 0
M  V30 1654 C 152.328 -1.956 0.000589254 0
M  V30 1655 O 153.534 -2.71137 -0.1403 0
M  V30 1656 C 151.99 -2.63996 2.4461 0
M  V30 1657 C 151.598 -2.21238 3.89561 0
M  V30 1658 C 153.342 -3.41677 2.51907 0
M  V30 1659 C 151.249 -3.3612 4.86598 0
M  V30 1660 H 150.179 -0.548444 0.517422 0
M  V30 1661 H 152.83 -0.765784 1.66757 0
M  V30 1662 H 151.212 -3.3566 2.10115 0
M  V30 1663 H 152.386 -1.56923 4.33257 0
M  V30 1664 H 150.701 -1.56574 3.85841 0
M  V30 1665 H 153.298 -4.27182 3.2159 0
M  V30 1666 H 153.641 -3.86247 1.55303 0
M  V30 1667 H 154.174 -2.77064 2.85448 0
M  V30 1668 H 150.913 -2.96572 5.84573 0
M  V30 1669 H 150.433 -3.99315 4.47557 0
M  V30 1670 H 152.112 -4.02029 5.06934 0
M  V30 1671 N 152.244 -1.26651 -0.937939 0
M  V30 1672 C 153.154 -1.10276 -2.07066 0
M  V30 1673 C 154.17 -0.0354197 -1.73964 0
M  V30 1674 O 155.346 -0.239816 -1.99967 0
M  V30 1675 C 152.411 -0.740887 -3.38691 0
M  V30 1676 C 151.472 -1.88799 -3.85556 0
M  V30 1677 C 150.705 -1.54329 -5.10899 0
M  V30 1678 O 150.928 -0.446494 -5.6865 0
M  V30 1679 O 149.862 -2.37911 -5.52885 0
M  V30 1680 H 153.688 -2.05309 -2.23789 0
M  V30 1681 H 151.273 -1.05743 -1.0554 0
M  V30 1682 H 153.155 -0.55195 -4.1777 0
M  V30 1683 H 151.83 0.180022 -3.23199 0
M  V30 1684 H 150.737 -2.13191 -3.07409 0
M  V30 1685 H 152.07 -2.78874 -4.05574 0
M  V30 1686 N 153.722 1.14298 -1.08507 0
M  V30 1687 C 154.969 1.85359 -0.815373 0
M  V30 1688 C 155.297 1.83001 0.658865 0
M  V30 1689 O 154.552 1.25655 1.50031 0
M  V30 1690 C 154.851 3.33547 -1.28379 0
M  V30 1691 C 154.517 3.56093 -2.76602 0
M  V30 1692 C 153.179 3.61955 -3.17084 0
M  V30 1693 C 155.531 3.64834 -3.72217 0
M  V30 1694 C 152.859 3.74082 -4.51973 0
M  V30 1695 C 155.211 3.78487 -5.06883 0
M  V30 1696 C 153.875 3.82598 -5.46969 0
M  V30 1697 H 153.145 0.678276 -0.298366 0
M  V30 1698 H 155.792 1.35002 -1.35819 0
M  V30 1699 H 154.097 3.86191 -0.660593 0
M  V30 1700 H 155.794 3.86959 -1.05186 0
M  V30 1701 H 152.384 3.52179 -2.4427 0
M  V30 1702 H 156.568 3.59595 -3.42061 0
M  V30 1703 H 151.824 3.75527 -4.82483 0
M  V30 1704 H 155.998 3.84193 -5.80834 0
M  V30 1705 H 153.625 3.91747 -6.51489 0
M  V30 1706 N 155.201 0.870884 1.31352 0
M  V30 1707 C 156.429 0.49677 2.00848 0
M  V30 1708 C 156.844 -0.910998 1.65367 0
M  V30 1709 O 156.201 -1.59696 0.883374 0
M  V30 1710 C 156.252 0.645308 3.55694 0
M  V30 1711 O 155.973 1.99764 3.89905 0
M  V30 1712 C 157.474 0.272326 4.42463 0
M  V30 1713 H 154.694 0.193462 0.642506 0
M  V30 1714 H 157.238 1.1723 1.67563 0
M  V30 1715 H 155.393 0.0173176 3.87396 0
M  V30 1716 H 155.807 2.00607 4.84621 0
M  V30 1717 H 157.281 0.427208 5.50344 0
M  V30 1718 H 157.758 -0.788587 4.32062 0
M  V30 1719 H 158.364 0.876054 4.1618 0
M  V30 1720 N 156.679 -1.44442 0.630414 0
M  V30 1721 C 157.928 -2.01267 0.132073 0
M  V30 1722 C 158.241 -1.50172 -1.25331 0
M  V30 1723 O 159.447 -1.9912 -1.84562 0
M  V30 1724 C 157.903 -3.59422 0.185362 0
M  V30 1725 C 157.511 -4.19514 1.57201 0
M  V30 1726 C 159.255 -4.23724 -0.256553 0
M  V30 1727 C 157.162 -5.69891 1.58045 0
M  V30 1728 H 156.092 -0.752619 0.0456092 0
M  V30 1729 H 158.743 -1.65666 0.789106 0
M  V30 1730 H 157.125 -3.92318 -0.538759 0
M  V30 1731 H 158.299 -3.98156 2.31966 0
M  V30 1732 H 156.614 -3.67496 1.95795 0
M  V30 1733 H 159.211 -5.34019 -0.269767 0
M  V30 1734 H 159.554 -3.96013 -1.28372 0
M  V30 1735 H 160.087 -3.95629 0.41505 0
M  V30 1736 H 156.826 -6.02336 2.58597 0
M  V30 1737 H 156.346 -5.93373 0.875725 0
M  V30 1738 H 158.025 -6.33515 1.31408 0
M  V30 1739 N 158.157 -0.370918 -1.53173 0
M  V30 1740 C 159.403 0.217423 -2.01631 0
M  V30 1741 C 159.736 1.47983 -1.25756 0
M  V30 1742 O 159.011 1.91274 -0.352764 0
M  V30 1743 C 159.294 0.503982 -3.56556 0
M  V30 1744 C 159.147 -0.77243 -4.43118 0
M  V30 1745 C 160.466 1.30234 -4.20389 0
M  V30 1746 H 157.585 0.0775486 -0.732909 0
M  V30 1747 H 160.227 -0.496863 -1.83388 0
M  V30 1748 H 158.377 1.11248 -3.72231 0
M  V30 1749 H 160.049 -1.4098 -4.39229 0
M  V30 1750 H 158.292 -1.39167 -4.10871 0
M  V30 1751 H 158.963 -0.526815 -5.4948 0
M  V30 1752 H 161.439 0.787546 -4.08579 0
M  V30 1753 H 160.315 1.47158 -5.28806 0
M  V30 1754 H 160.576 2.31237 -3.76805 0
M  V30 1755 N 159.635 1.57281 -0.100228 0
M  V30 1756 C 160.883 1.94153 0.561157 0
M  V30 1757 C 161.204 0.983157 1.68401 0
M  V30 1758 O 160.474 0.0361132 1.95867 0
M  V30 1759 H 159.054 0.716791 0.210283 0
M  V30 1760 H 161.716 1.94202 -0.164765 0
M  V30 1761 H 160.812 2.96709 0.968008 0
M  V30 1762 N 161.113 -0.173488 1.56642 0
M  V30 1763 C 162.076 -1.19859 1.95362 0
M  V30 1764 C 163.076 -1.37296 0.83704 0
M  V30 1765 O 164.266 -1.34739 1.10413 0
M  V30 1766 C 161.398 -2.56405 2.24654 0
M  V30 1767 H 162.591 -0.867062 2.87092 0
M  V30 1768 H 160.144 -0.415853 1.50666 0
M  V30 1769 H 160.879 -2.94576 1.35631 0
M  V30 1770 H 160.664 -2.45115 3.06041 0
M  V30 1771 H 162.154 -3.30287 2.5554 0
M  V30 1772 N 162.591 -1.51276 -0.441967 0
M  V30 1773 C 163.868 -1.54252 -1.20273 0
M  V30 1774 C 164.248 -0.30408 -2.08898 0
M  V30 1775 O 163.596 0.711084 -2.17154 0
M  V30 1776 C 163.806 -2.85406 -2.00859 0
M  V30 1777 C 165.154 -3.37181 -2.58059 0
M  V30 1778 O 166.178 -2.86925 -2.11074 0
M  V30 1779 O 165.037 -4.24858 -3.43741 0
M  V30 1780 H 162.131 -0.619969 -0.547328 0
M  V30 1781 H 164.677 -1.63586 -0.451413 0
M  V30 1782 H 163.449 -3.67003 -1.35736 0
M  V30 1783 H 163.072 -2.79213 -2.83065 0
M  V30 1784 N 164.069 0.697108 -1.41344 0
M  V30 1785 C 164.979 1.84088 -1.45427 0
M  V30 1786 C 165.995 1.70545 -0.34501 0
M  V30 1787 O 167.171 1.92488 -0.592492 0
M  V30 1788 C 164.236 3.20056 -1.33286 0
M  V30 1789 C 163.297 3.45718 -2.54514 0
M  V30 1790 C 162.53 4.75199 -2.42944 0
M  V30 1791 O 162.753 5.51579 -1.45318 0
M  V30 1792 O 161.687 5.0161 -3.32672 0
M  V30 1793 H 165.513 1.836 -2.41919 0
M  V30 1794 H 163.098 0.849966 -1.22866 0
M  V30 1795 H 164.98 4.01236 -1.28794 0
M  V30 1796 H 163.655 3.2123 -0.39909 0
M  V30 1797 H 162.562 2.64474 -2.64583 0
M  V30 1798 H 163.895 3.49356 -3.46715 0
M  V30 1799 N 165.547 1.27147 0.931209 0
M  V30 1800 C 166.796 1.12664 1.67302 0
M  V30 1801 C 167.109 -0.327718 1.92835 0
M  V30 1802 O 168.315 -0.593392 2.64936 0
M  V30 1803 C 166.771 1.9683 3.01307 0
M  V30 1804 C 166.379 3.46901 2.83485 0
M  V30 1805 C 168.123 1.90985 3.79111 0
M  V30 1806 C 166.03 4.23279 4.13024 0
M  V30 1807 H 164.96 0.41803 0.627509 0
M  V30 1808 H 167.611 1.51539 1.03481 0
M  V30 1809 H 165.993 1.50797 3.66164 0
M  V30 1810 H 167.167 4.00773 2.27415 0
M  V30 1811 H 165.482 3.54088 2.19113 0
M  V30 1812 H 168.079 2.45328 4.75098 0
M  V30 1813 H 168.422 0.882718 4.06834 0
M  V30 1814 H 168.955 2.34895 3.21044 0
M  V30 1815 H 165.694 5.26503 3.90481 0
M  V30 1816 H 165.214 3.74186 4.6877 0
M  V30 1817 H 166.893 4.32265 4.81411 0
M  V30 1818 N 167.025 -1.13721 1.09112 0
M  V30 1819 C 168.274 -1.84275 0.82009 0
M  V30 1820 C 168.587 -1.84253 -0.656509 0
M  V30 1821 O 169.793 -2.50668 -1.04296 0
M  V30 1822 C 168.249 -3.30825 1.41714 0
M  V30 1823 C 167.857 -3.39244 2.92605 0
M  V30 1824 C 169.601 -4.06443 1.22492 0
M  V30 1825 C 167.508 -4.80047 3.45411 0
M  V30 1826 H 166.438 -0.690387 0.30312 0
M  V30 1827 H 169.089 -1.28146 1.31343 0
M  V30 1828 H 167.471 -3.86737 0.851498 0
M  V30 1829 H 168.645 -2.93344 3.55367 0
M  V30 1830 H 166.96 -2.77088 3.10823 0
M  V30 1831 H 169.557 -5.10387 1.59402 0
M  V30 1832 H 169.9 -4.15972 0.165299 0
M  V30 1833 H 170.433 -3.56852 1.75788 0
M  V30 1834 H 167.172 -4.75709 4.50978 0
M  V30 1835 H 166.692 -5.26455 2.87411 0
M  V30 1836 H 168.371 -5.48957 3.42425 0
M  V30 1837 N 168.503 -0.877838 -1.30888 0
M  V30 1838 C 169.466 -0.344265 -2.266 0
M  V30 1839 C 170.466 0.50922 -1.52524 0
M  V30 1840 O 171.656 0.317398 -1.71284 0
M  V30 1841 C 168.788 0.510198 -3.37061 0
M  V30 1842 H 169.981 -1.1893 -2.7531 0
M  V30 1843 H 167.534 -0.654088 -1.41956 0
M  V30 1844 H 168.269 1.37612 -2.93655 0
M  V30 1845 H 168.054 -0.101047 -3.9197 0
M  V30 1846 H 169.544 0.875537 -4.08319 0
M  V30 1847 N 169.982 1.44106 -0.638065 0
M  V30 1848 C 170.892 2.34513 0.0637334 0
M  V30 1849 C 171.908 1.53018 0.828346 0
M  V30 1850 O 173.084 1.85723 0.779036 0
M  V30 1851 C 170.149 3.31095 1.02844 0
M  V30 1852 C 169.21 4.28497 0.26244 0
M  V30 1853 C 168.443 5.20465 1.1812 0
M  V30 1854 O 168.666 5.16514 2.42011 0
M  V30 1855 O 167.6 5.98251 0.661774 0
M  V30 1856 H 171.426 2.95989 -0.68003 0
M  V30 1857 H 169.011 1.43994 -0.398252 0
M  V30 1858 H 170.893 3.90526 1.58327 0
M  V30 1859 H 169.568 2.72144 1.7527 0
M  V30 1860 H 168.475 3.72592 -0.335602 0
M  V30 1861 H 169.808 4.90388 -0.421936 0
M  V30 1862 N 171.46 0.379036 1.52974 0
M  V30 1863 C 172.407 -0.461048 2.26148 0
M  V30 1864 C 173.377 -1.06637 1.27349 0
M  V30 1865 O 174.562 -1.09633 1.56157 0
M  V30 1866 C 171.702 -1.58782 3.06402 0
M  V30 1867 C 170.815 -1.00636 4.20115 0
M  V30 1868 C 169.95 -2.10334 4.87784 0
M  V30 1869 C 168.989 -1.49724 5.93506 0
M  V30 1870 N 168.126 -2.5331 6.54812 0
M  V30 1871 H 172.966 0.169429 2.97518 0
M  V30 1872 H 170.503 0.0953806 1.4679 0
M  V30 1873 H 172.461 -2.25174 3.51215 0
M  V30 1874 H 171.091 -2.18876 2.37261 0
M  V30 1875 H 170.143 -0.232332 3.7969 0
M  V30 1876 H 171.455 -0.523343 4.96047 0
M  V30 1877 H 170.609 -2.84519 5.35849 0
M  V30 1878 H 169.348 -2.61992 4.11353 0
M  V30 1879 H 168.353 -0.740598 5.44789 0
M  V30 1880 H 169.578 -0.988732 6.71864 0
M  V30 1881 H 167.524 -3.04156 5.81227 0
M  V30 1882 H 167.441 -2.09734 7.26325 0
M  V30 1883 H 168.709 -3.27155 7.07524 0
M  V30 1884 N 172.938 -1.57226 0.108567 0
M  V30 1885 C 173.868 -2.17778 -0.84232 0
M  V30 1886 C 174.849 -1.11487 -1.2847 0
M  V30 1887 O 176.034 -1.39681 -1.34918 0
M  V30 1888 C 173.164 -2.76888 -2.09644 0
M  V30 1889 C 172.118 -3.88669 -1.79221 0
M  V30 1890 C 171.444 -4.34541 -3.11574 0
M  V30 1891 C 172.744 -5.11251 -1.06864 0
M  V30 1892 H 174.438 -2.97489 -0.337774 0
M  V30 1893 H 171.984 -1.43097 -0.161025 0
M  V30 1894 H 173.937 -3.17904 -2.76614 0
M  V30 1895 H 172.661 -1.94451 -2.62405 0
M  V30 1896 H 171.32 -3.48213 -1.14644 0
M  V30 1897 H 170.968 -3.48977 -3.62249 0
M  V30 1898 H 170.668 -5.09914 -2.91996 0
M  V30 1899 H 172.192 -4.782 -3.7968 0
M  V30 1900 H 173.606 -5.49352 -1.63968 0
M  V30 1901 H 172.003 -5.9214 -0.974178 0
M  V30 1902 H 173.073 -4.8487 -0.0536168 0
M  V30 1903 N 174.416 0.165178 -1.56732 0
M  V30 1904 C 175.664 0.879068 -1.8198 0
M  V30 1905 C 175.985 1.82514 -0.686561 0
M  V30 1906 O 175.255 1.93694 0.293146 0
M  V30 1907 H 173.835 0.327608 -0.671329 0
M  V30 1908 H 176.497 0.163526 -1.94213 0
M  V30 1909 H 175.593 1.45228 -2.76252 0
M  V30 1910 N 175.894 1.51508 0.433938 0
M  V30 1911 C 177.143 1.63578 1.18005 0
M  V30 1912 C 177.456 0.359514 1.92268 0
M  V30 1913 O 178.662 0.359632 2.69108 0
M  V30 1914 C 177.118 2.88901 2.14626 0
M  V30 1915 C 176.726 4.23544 1.45995 0
M  V30 1916 C 178.47 3.10328 2.89649 0
M  V30 1917 C 176.377 5.40014 2.4112 0
M  V30 1918 H 175.307 0.609277 0.444182 0
M  V30 1919 H 177.958 1.77978 0.446773 0
M  V30 1920 H 176.34 2.68142 2.91403 0
M  V30 1921 H 177.514 4.54696 0.747532 0
M  V30 1922 H 175.829 4.08021 0.831115 0
M  V30 1923 H 178.426 3.94518 3.60915 0
M  V30 1924 H 178.769 2.23544 3.51189 0
M  V30 1925 H 179.302 3.31443 2.19978 0
M  V30 1926 H 176.041 6.29068 1.84264 0
M  V30 1927 H 175.561 5.13233 3.10406 0
M  V30 1928 H 177.24 5.72099 3.02177 0
M  V30 1929 N 177.372 -0.689602 1.41712 0
M  V30 1930 C 178.597 -1.48329 1.44959 0
M  V30 1931 C 179.022 -1.8801 0.0581283 0
M  V30 1932 O 178.38 -1.55026 -0.940035 0
M  V30 1933 C 178.428 -2.71835 2.36935 0
M  V30 1934 O 177.532 -3.69549 1.8305 0
M  V30 1935 H 176.873 -0.446199 0.491734 0
M  V30 1936 H 179.403 -0.847127 1.86239 0
M  V30 1937 H 179.413 -3.20076 2.53013 0
M  V30 1938 H 178.088 -2.42291 3.38035 0
M  V30 1939 H 176.665 -3.2851 1.76452 0
M  V30 1940 N 178.85 -1.27639 -0.924453 0
M  V30 1941 C 180.096 -1.14336 -1.67497 0
M  V30 1942 C 180.429 0.309465 -1.91718 0
M  V30 1943 O 179.704 1.22608 -1.50989 0
M  V30 1944 C 179.987 -1.93096 -3.0395 0
M  V30 1945 C 179.84 -3.46381 -2.8695 0
M  V30 1946 C 181.159 -1.73798 -4.0433 0
M  V30 1947 H 178.278 -0.416728 -0.607871 0
M  V30 1948 H 180.92 -1.56832 -1.07256 0
M  V30 1949 H 179.07 -1.56982 -3.55372 0
M  V30 1950 H 180.742 -3.92343 -2.42621 0
M  V30 1951 H 178.985 -3.72557 -2.22225 0
M  V30 1952 H 179.656 -3.96735 -3.83804 0
M  V30 1953 H 182.132 -2.05293 -3.61931 0
M  V30 1954 H 181.008 -2.31294 -4.97789 0
M  V30 1955 H 181.269 -0.686725 -4.36734 0
M  V30 1956 N 180.328 1.1314 -1.09713 0
M  V30 1957 C 181.576 1.84119 -0.833338 0
M  V30 1958 C 181.897 1.84097 0.642904 0
M  V30 1959 O 181.167 1.29881 1.46655 0
M  V30 1960 H 179.747 0.681766 -0.305293 0
M  V30 1961 H 182.409 1.37038 -1.38588 0
M  V30 1962 H 181.505 2.88543 -1.18951 0
M  V30 1963 N 181.806 0.884767 1.30421 0
M  V30 1964 C 183.083 0.423185 1.90967 0
M  V30 1965 C 183.463 -1.09605 1.80416 0
M  V30 1966 O 182.811 -1.93126 1.22125 0
M  V30 1967 C 183.021 0.921056 3.36627 0
M  V30 1968 C 184.369 0.955903 4.137 0
M  V30 1969 O 185.393 0.867706 3.4547 0
M  V30 1970 O 184.252 1.08614 5.35598 0
M  V30 1971 H 181.346 0.129369 0.816819 0
M  V30 1972 H 183.892 0.973653 1.3899 0
M  V30 1973 H 182.664 1.96489 3.3839 0
M  V30 1974 H 182.287 0.349741 3.96059 0
M  V30 1975 N 183.284 -1.43765 0.645699 0
M  V30 1976 C 184.531 -2.01898 0.15604 0
M  V30 1977 C 184.859 -1.50887 -1.22733 0
M  V30 1978 O 184.114 -0.689271 -1.8316 0
M  V30 1979 C 184.413 -3.57238 0.107679 0
M  V30 1980 C 184.079 -4.27564 1.43178 0
M  V30 1981 C 182.741 -4.46492 1.7944 0
M  V30 1982 C 185.093 -4.67454 2.30513 0
M  V30 1983 C 182.421 -5.02573 3.02716 0
M  V30 1984 C 184.773 -5.24901 3.53074 0
M  V30 1985 C 183.437 -5.42046 3.89541 0
M  V30 1986 H 182.707 -0.738797 0.057099 0
M  V30 1987 H 185.354 -1.72341 0.834912 0
M  V30 1988 H 183.659 -3.86293 -0.654618 0
M  V30 1989 H 185.356 -3.99965 -0.287938 0
M  V30 1990 H 181.946 -4.13171 1.13963 0
M  V30 1991 H 186.13 -4.5253 2.0379 0
M  V30 1992 H 181.386 -5.14033 3.31028 0
M  V30 1993 H 185.56 -5.54758 4.20971 0
M  V30 1994 H 183.187 -5.85268 4.85145 0
M  V30 1995 N 184.763 -0.387143 -1.52771 0
M  V30 1996 C 186.009 0.196025 -2.0185 0
M  V30 1997 C 186.342 1.46641 -1.27319 0
M  V30 1998 O 185.617 1.90889 -0.373032 0
M  V30 1999 C 185.9 0.466136 -3.5707 0
M  V30 2000 C 185.753 -0.819385 -4.42274 0
M  V30 2001 C 187.072 1.25768 -4.21747 0
M  V30 2002 H 184.191 0.0697708 -0.73369 0
M  V30 2003 H 186.833 -0.516286 -1.82851 0
M  V30 2004 H 184.983 1.07293 -3.7339 0
M  V30 2005 H 186.655 -1.4563 -4.37709 0
M  V30 2006 H 184.898 -1.43517 -4.09372 0
M  V30 2007 H 185.569 -0.585065 -5.48891 0
M  V30 2008 H 188.045 0.744167 -4.09391 0
M  V30 2009 H 186.921 1.41541 -5.30337 0
M  V30 2010 H 187.182 2.27228 -3.79236 0
M  V30 2011 N 186.241 1.57166 -0.116904 0
M  V30 2012 C 187.471 1.99184 0.548586 0
M  V30 2013 C 187.879 0.995436 1.60897 0
M  V30 2014 O 187.222 -0.0201293 1.83689 0
M  V30 2015 C 187.284 3.37611 1.23526 0
M  V30 2016 C 186.948 4.55857 0.323077 0
M  V30 2017 C 187.945 5.18056 -0.437476 0
M  V30 2018 C 185.63 5.01751 0.234761 0
M  V30 2019 C 187.624 6.24536 -1.2741 0
M  V30 2020 C 185.311 6.08093 -0.605496 0
M  V30 2021 C 186.309 6.69352 -1.35856 0
M  V30 2022 O 185.997 7.7364 -2.18487 0
M  V30 2023 H 185.729 0.659148 0.149999 0
M  V30 2024 H 188.283 2.0443 -0.199428 0
M  V30 2025 H 186.513 3.29113 2.0303 0
M  V30 2026 H 188.202 3.63932 1.79745 0
M  V30 2027 H 188.968 4.83516 -0.379105 0
M  V30 2028 H 184.847 4.53817 0.810601 0
M  V30 2029 H 188.391 6.72281 -1.86237 0
M  V30 2030 H 184.288 6.42063 -0.665268 0
M  V30 2031 H 185.056 7.90727 -2.11406 0
M  V30 2032 N 187.719 -0.156864 1.56817 0
M  V30 2033 C 188.666 -1.19394 1.97519 0
M  V30 2034 C 189.636 -1.4322 0.841265 0
M  V30 2035 O 190.821 -1.55719 1.10255 0
M  V30 2036 C 187.961 -2.52483 2.35258 0
M  V30 2037 C 187.074 -2.35914 3.61896 0
M  V30 2038 C 186.209 -3.61969 3.88782 0
M  V30 2039 C 185.248 -3.40395 5.08722 0
M  V30 2040 N 184.385 -4.58556 5.31668 0
M  V30 2041 H 189.225 -0.839845 2.85921 0
M  V30 2042 H 186.762 -0.403264 1.41464 0
M  V30 2043 H 188.72 -3.30071 2.55165 0
M  V30 2044 H 187.35 -2.85859 1.49949 0
M  V30 2045 H 186.402 -1.49429 3.49821 0
M  V30 2046 H 187.714 -2.15926 4.49641 0
M  V30 2047 H 186.868 -4.47989 4.09135 0
M  V30 2048 H 185.607 -3.84951 2.9944 0
M  V30 2049 H 184.612 -2.52763 4.88253 0
M  V30 2050 H 185.837 -3.18822 5.99608 0
M  V30 2051 H 183.783 -4.81729 4.45279 0
M  V30 2052 H 183.7 -4.41535 6.13664 0
M  V30 2053 H 184.968 -5.45817 5.5651 0
M  V30 2054 N 189.197 -1.51736 -0.425897 0
M  V30 2055 C 190.446 -1.64201 -1.17136 0
M  V30 2056 C 190.759 -0.369705 -1.92074 0
M  V30 2057 O 191.965 -0.373898 -2.68913 0
M  V30 2058 C 190.421 -2.90035 -2.13091 0
M  V30 2059 C 190.029 -4.24312 -1.43747 0
M  V30 2060 C 191.773 -3.1186 -2.87999 0
M  V30 2061 C 189.68 -5.41285 -2.38253 0
M  V30 2062 H 188.61 -0.611624 -0.440944 0
M  V30 2063 H 191.261 -1.78212 -0.437328 0
M  V30 2064 H 189.643 -2.69684 -2.89977 0
M  V30 2065 H 190.817 -4.55086 -0.723408 0
M  V30 2066 H 189.132 -4.08456 -0.809465 0
M  V30 2067 H 191.729 -3.96427 -3.58817 0
M  V30 2068 H 192.072 -2.25403 -3.49999 0
M  V30 2069 H 192.605 -3.32605 -2.18217 0
M  V30 2070 H 189.344 -6.30037 -1.80925 0
M  V30 2071 H 188.864 -5.14872 -3.0768 0
M  V30 2072 H 190.543 -5.73694 -2.99139 0
M  V30 2073 N 190.675 0.682077 -1.42076 0
M  V30 2074 C 191.924 1.43786 -1.41451 0
M  V30 2075 C 192.237 1.95574 -0.0317074 0
M  V30 2076 O 193.443 2.71326 0.0971462 0
M  V30 2077 C 191.899 2.60071 -2.48779 0
M  V30 2078 C 191.507 2.15013 -3.93031 0
M  V30 2079 C 193.251 3.37626 -2.57311 0
M  V30 2080 C 191.158 3.28336 -4.91883 0
M  V30 2081 H 190.088 0.540143 -0.526082 0
M  V30 2082 H 192.739 0.739157 -1.67955 0
M  V30 2083 H 191.121 3.32275 -2.15429 0
M  V30 2084 H 192.295 1.5001 -4.35699 0
M  V30 2085 H 190.61 1.50416 -3.88284 0
M  V30 2086 H 193.207 4.22012 -3.28345 0
M  V30 2087 H 193.55 3.83727 -1.61429 0
M  V30 2088 H 194.083 2.72488 -2.89819 0
M  V30 2089 H 190.822 2.87234 -5.89217 0
M  V30 2090 H 190.342 3.92145 -4.53853 0
M  V30 2091 H 192.021 3.93913 -5.13265 0
M  V30 2092 N 192.153 1.28127 0.917671 0
M  V30 2093 C 193.569 1.05749 1.19538 0
M  V30 2094 C 193.769 -0.202633 2.00479 0
M  V30 2095 O 192.825 -0.905382 2.3571 0
M  V30 2096 C 194.138 2.30273 1.93378 0
M  V30 2097 C 195.686 2.35412 2.06277 0
M  V30 2098 C 196.161 3.59692 2.83524 0
M  V30 2099 N 197.652 3.60309 2.91087 0
M  V30 2100 C 198.387 4.53147 3.51348 0
M  V30 2101 N 197.883 5.563 4.12919 0
M  V30 2102 N 199.676 4.40751 3.48849 0
M  V30 2103 H 191.827 2.09024 0.377184 0
M  V30 2104 H 194.09 0.919798 0.22951 0
M  V30 2105 H 193.796 3.22055 1.41328 0
M  V30 2106 H 193.67 2.36378 2.93947 0
M  V30 2107 H 196.057 1.4413 2.57508 0
M  V30 2108 H 196.138 2.33304 1.04895 0
M  V30 2109 H 195.782 4.51316 2.32973 0
M  V30 2110 H 195.712 3.59054 3.85211 0
M  V30 2111 H 198.203 2.85714 2.47338 0
M  V30 2112 H 198.516 6.2329 4.56869 0
M  V30 2113 H 196.861 5.60131 4.11435 0
M  V30 2114 H 200.052 3.59367 2.99955 0
M  V30 2115 H 200.225 5.13291 3.9552 0
M  V30 2116 N 193.631 -1.12557 1.10312 0
M  V30 2117 C 194.561 -2.20341 0.772798 0
M  V30 2118 C 195.542 -1.68198 -0.25365 0
M  V30 2119 O 196.727 -1.93831 -0.119699 0
M  V30 2120 C 193.857 -3.46709 0.202443 0
M  V30 2121 C 192.811 -4.11996 1.15943 0
M  V30 2122 C 192.137 -5.328 0.450345 0
M  V30 2123 C 193.437 -4.5828 2.50552 0
M  V30 2124 H 195.131 -2.48229 1.674 0
M  V30 2125 H 192.677 -1.19308 0.806326 0
M  V30 2126 H 194.63 -4.2138 -0.0407752 0
M  V30 2127 H 193.354 -3.18245 -0.734001 0
M  V30 2128 H 192.013 -3.39305 1.38808 0
M  V30 2129 H 191.661 -5.00602 -0.490531 0
M  V30 2130 H 191.361 -5.7743 1.08851 0
M  V30 2131 H 192.885 -6.10219 0.215642 0
M  V30 2132 H 194.299 -5.2433 2.31843 0
M  V30 2133 H 192.696 -5.13683 3.10242 0
M  V30 2134 H 193.766 -3.72329 3.10643 0
M  V30 2135 N 195.109 -0.891671 -1.2995 0
M  V30 2136 C 196.525 -0.58662 -1.48428 0
M  V30 2137 C 196.725 0.873951 -1.81561 0
M  V30 2138 O 195.781 1.65471 -1.90724 0
M  V30 2139 C 197.094 -1.50553 -2.60296 0
M  V30 2140 C 198.642 -1.50988 -2.74175 0
M  V30 2141 C 199.117 -2.41488 -3.89163 0
M  V30 2142 N 200.608 -2.39489 -3.96483 0
M  V30 2143 C 201.343 -3.06223 -4.84784 0
M  V30 2144 N 200.839 -3.82206 -5.77833 0
M  V30 2145 N 202.632 -2.95421 -4.78208 0
M  V30 2146 H 194.783 -1.83644 -1.06718 0
M  V30 2147 H 197.046 -0.786455 -0.529332 0
M  V30 2148 H 196.752 -2.54581 -2.42654 0
M  V30 2149 H 196.626 -1.22008 -3.56923 0
M  V30 2150 H 199.013 -0.47708 -2.91218 0
M  V30 2151 H 199.094 -1.83567 -1.78148 0
M  V30 2152 H 198.738 -3.44857 -3.72876 0
M  V30 2153 H 198.668 -2.06222 -4.84541 0
M  V30 2154 H 201.159 -1.84278 -3.29924 0
M  V30 2155 H 201.472 -4.302 -6.41988 0
M  V30 2156 H 199.817 -3.86313 -5.77743 0
M  V30 2157 H 203.008 -2.35581 -4.04499 0
M  V30 2158 H 203.181 -3.47704 -5.46814 0
M  V30 2159 N 196.587 1.43421 -0.653314 0
M  V30 2160 C 197.836 2.01032 -0.164076 0
M  V30 2161 C 198.149 1.52147 1.22926 0
M  V30 2162 O 199.355 2.02031 1.81371 0
M  V30 2163 C 197.811 3.59082 -0.24252 0
M  V30 2164 C 197.419 4.1696 -1.63855 0
M  V30 2165 C 199.163 4.24079 0.18911 0
M  V30 2166 C 197.07 5.67304 -1.67092 0
M  V30 2167 H 196 0.751798 -0.0575769 0
M  V30 2168 H 198.651 1.6439 -0.815362 0
M  V30 2169 H 197.033 3.93125 0.476276 0
M  V30 2170 H 198.207 3.94416 -2.38271 0
M  V30 2171 H 196.522 3.64335 -2.01616 0
M  V30 2172 H 199.119 5.34381 0.184775 0
M  V30 2173 H 199.462 3.98005 1.22056 0
M  V30 2174 H 199.995 3.94918 -0.477938 0
M  V30 2175 H 196.734 5.98145 -2.68146 0
M  V30 2176 H 196.254 5.91904 -0.970014 0
M  V30 2177 H 197.933 6.31344 -1.4147 0
M  V30 2178 N 198.065 0.39524 1.52563 0
M  V30 2179 C 199.314 -0.186321 2.00838 0
M  V30 2180 C 199.627 -1.47402 1.28577 0
M  V30 2181 O 200.833 -2.13599 1.67593 0
M  V30 2182 C 199.289 -0.382595 3.57861 0
M  V30 2183 C 198.897 0.892202 4.39026 0
M  V30 2184 C 200.641 -0.9202 4.14406 0
M  V30 2185 C 198.548 0.66388 5.87662 0
M  V30 2186 H 197.478 -0.0734041 0.750418 0
M  V30 2187 H 200.129 0.518552 1.76021 0
M  V30 2188 H 198.511 -1.14946 3.7895 0
M  V30 2189 H 199.685 1.66414 4.29701 0
M  V30 2190 H 198 1.35519 3.9373 0
M  V30 2191 H 200.597 -1.10683 5.23119 0
M  V30 2192 H 200.94 -1.89096 3.70875 0
M  V30 2193 H 201.473 -0.212751 3.97231 0
M  V30 2194 H 198.212 1.6058 6.35527 0
M  V30 2195 H 197.732 -0.0690193 5.9976 0
M  V30 2196 H 199.411 0.300699 6.46301 0
M  V30 2197 N 199.544 -1.57102 0.125237 0
M  V30 2198 C 200.494 -2.12202 -0.833936 0
M  V30 2199 C 201.478 -1.04433 -1.22403 0
M  V30 2200 O 202.67 -1.30655 -1.19408 0
M  V30 2201 C 199.799 -2.72994 -2.08157 0
M  V30 2202 C 198.885 -3.87852 -1.71556 0
M  V30 2203 N 199.276 -4.9464 -1.05662 0
M  V30 2204 C 197.574 -3.98153 -2.00973 0
M  V30 2205 C 198.275 -5.74953 -0.883376 0
M  V30 2206 N 197.251 -5.24985 -1.41036 0
M  V30 2207 H 201.053 -2.92141 -0.321035 0
M  V30 2208 H 198.567 -1.62217 -0.0770315 0
M  V30 2209 H 200.564 -3.10816 -2.77847 0
M  V30 2210 H 199.224 -1.9452 -2.59985 0
M  V30 2211 H 200.235 -5.12872 -0.719878 0
M  V30 2212 H 196.912 -3.30728 -2.54804 0
M  V30 2213 H 198.302 -6.70904 -0.365675 0
M  V30 2214 N 201.022 0.148545 -1.56898 0
M  V30 2215 C 202.247 0.880385 -1.87787 0
M  V30 2216 C 202.672 1.74018 -0.714093 0
M  V30 2217 O 202.03 1.78153 0.336343 0
M  V30 2218 C 202.078 1.71422 -3.17249 0
M  V30 2219 O 201.182 2.8183 -3.01074 0
M  V30 2220 H 200.523 0.245301 -0.617028 0
M  V30 2221 H 203.053 0.139826 -2.04122 0
M  V30 2222 H 203.063 2.10954 -3.49231 0
M  V30 2223 H 201.738 1.08284 -4.01556 0
M  V30 2224 H 200.315 2.45715 -2.80497 0
M  V30 2225 N 202.5 1.5196 0.417844 0
M  V30 2226 C 203.749 1.6482 1.16264 0
M  V30 2227 C 204.062 0.379886 1.91876 0
M  V30 2228 O 205.268 0.388154 2.68711 0
M  V30 2229 C 203.724 2.91161 2.1155 0
M  V30 2230 C 203.332 4.25068 1.41495 0
M  V30 2231 C 205.076 3.13383 2.86341 0
M  V30 2232 C 202.983 5.42541 2.35379 0
M  V30 2233 H 201.913 0.613954 0.437694 0
M  V30 2234 H 204.564 1.78442 0.427871 0
M  V30 2235 H 202.946 2.71218 2.88543 0
M  V30 2236 H 204.12 4.55463 0.699263 0
M  V30 2237 H 202.435 4.0888 0.787792 0
M  V30 2238 H 205.032 3.98324 3.5671 0
M  V30 2239 H 205.375 2.27256 3.48798 0
M  V30 2240 H 205.908 3.33757 2.1645 0
M  V30 2241 H 202.647 6.30987 1.77582 0
M  V30 2242 H 202.167 5.16497 3.04945 0
M  V30 2243 H 203.846 5.75272 2.96093 0
M  V30 2244 N 203.978 -0.674533 1.42435 0
M  V30 2245 C 205.389 -1.25514 1.38214 0
M  V30 2246 C 205.74 -1.96055 0.0755464 0
M  V30 2247 O 204.865 -2.00028 -0.8257 0
M  V30 2248 C 205.46 -2.28269 2.50357 0
M  V30 2249 C 204.019 -2.81856 2.49467 0
M  V30 2250 C 203.166 -1.56182 2.29134 0
M  V30 2251 H 206.117 -0.467902 1.51646 0
M  V30 2252 H 206.138 -3.10009 2.20624 0
M  V30 2253 H 205.65 -1.769 3.45439 0
M  V30 2254 H 203.751 -3.37346 1.58204 0
M  V30 2255 H 203.864 -3.30854 3.46515 0
M  V30 2256 H 202.228 -1.82761 1.774 0
M  V30 2257 H 203.011 -1.06778 3.26272 0
M  V30 2258 N 205.456 -1.28612 -0.910864 0
M  V30 2259 C 206.684 -1.18792 -1.69399 0
M  V30 2260 C 207.099 0.253039 -1.87097 0
M  V30 2261 O 206.456 1.17071 -1.40003 0
M  V30 2262 C 206.507 -1.88511 -3.08457 0
M  V30 2263 O 206.228 -3.26979 -2.91576 0
M  V30 2264 C 207.729 -1.85029 -4.02839 0
M  V30 2265 H 204.949 -0.412233 -0.529438 0
M  V30 2266 H 207.493 -1.69788 -1.13984 0
M  V30 2267 H 205.648 -1.41379 -3.60681 0
M  V30 2268 H 206.062 -3.61936 -3.79608 0
M  V30 2269 H 207.536 -2.38395 -4.97867 0
M  V30 2270 H 208.013 -0.823303 -4.31414 0
M  V30 2271 H 208.619 -2.31853 -3.56545 0
M  V30 2272 N 206.934 1.1197 -1.10907 0
M  V30 2273 C 208.183 1.82947 -0.849302 0
M  V30 2274 C 208.496 1.85275 0.627112 0
M  V30 2275 O 209.702 2.52296 1.00295 0
M  V30 2276 C 208.158 3.28529 -1.46959 0
M  V30 2277 C 207.766 3.34546 -2.97965 0
M  V30 2278 C 209.51 4.04443 -1.28942 0
M  V30 2279 C 207.417 4.74491 -3.53004 0
M  V30 2280 H 206.347 0.685477 -0.314065 0
M  V30 2281 H 208.998 1.2604 -1.33365 0
M  V30 2282 H 207.38 3.85333 -0.912917 0
M  V30 2283 H 208.554 2.87654 -3.59989 0
M  V30 2284 H 206.869 2.72108 -3.15192 0
M  V30 2285 H 209.466 5.07787 -1.67502 0
M  V30 2286 H 209.809 4.15656 -0.231456 0
M  V30 2287 H 210.342 3.5401 -1.81443 0
M  V30 2288 H 207.081 4.68474 -4.58489 0
M  V30 2289 H 206.601 5.21816 -2.9575 0
M  V30 2290 H 208.28 5.4344 -3.51115 0
M  V30 2291 N 208.412 0.89855 1.29475 0
M  V30 2292 C 209.345 0.319981 2.25945 0
M  V30 2293 C 210.323 -0.567189 1.52387 0
M  V30 2294 O 211.507 -0.514254 1.8135 0
M  V30 2295 C 208.634 -0.544013 3.34303 0
M  V30 2296 C 207.68 0.275682 4.25608 0
M  V30 2297 S 208.513 1.67272 5.08704 0
M  V30 2298 C 209.669 0.815621 6.20563 0
M  V30 2299 H 209.902 1.13767 2.74671 0
M  V30 2300 H 207.435 0.69882 1.3768 0
M  V30 2301 H 209.393 -1.03673 3.97193 0
M  V30 2302 H 208.054 -1.33593 2.84274 0
M  V30 2303 H 207.247 -0.384263 5.02533 0
M  V30 2304 H 206.849 0.701496 3.67362 0
M  V30 2305 H 209.141 0.0385042 6.77489 0
M  V30 2306 H 210.084 1.55691 6.90772 0
M  V30 2307 H 210.492 0.370516 5.63283 0
M  V30 2308 N 209.89 -1.43072 0.660911 0
M  V30 2309 C 210.8 -2.34585 -0.0264163 0
M  V30 2310 C 211.816 -1.54316 -0.803898 0
M  V30 2311 O 212.992 -1.86939 -0.749391 0
M  V30 2312 C 210.057 -3.32689 -0.975639 0
M  V30 2313 C 209.118 -4.2886 -0.194236 0
M  V30 2314 C 208.351 -5.22278 -1.09825 0
M  V30 2315 O 208.574 -5.20299 -2.33763 0
M  V30 2316 O 207.508 -5.99228 -0.566513 0
M  V30 2317 H 211.334 -2.94869 0.727034 0
M  V30 2318 H 208.919 -1.43342 0.42111 0
M  V30 2319 H 210.801 -3.92995 -1.52094 0
M  V30 2320 H 209.476 -2.74898 -1.70918 0
M  V30 2321 H 208.383 -3.72011 0.394835 0
M  V30 2322 H 209.716 -4.89655 0.499899 0
M  V30 2323 N 211.368 -0.403325 -1.52352 0
M  V30 2324 C 212.318 0.442244 -2.2367 0
M  V30 2325 C 213.302 1.01823 -1.24583 0
M  V30 2326 O 214.494 0.942005 -1.49851 0
M  V30 2327 C 211.623 1.5615 -3.05732 0
M  V30 2328 C 210.709 0.996575 -4.12225 0
M  V30 2329 N 211.1 0.157804 -5.05554 0
M  V30 2330 C 209.398 1.26767 -4.27605 0
M  V30 2331 C 210.099 -0.155853 -5.81491 0
M  V30 2332 N 209.075 0.451775 -5.41719 0
M  V30 2333 H 212.877 -0.204964 -2.93184 0
M  V30 2334 H 210.391 -0.213418 -1.60992 0
M  V30 2335 H 212.388 2.17981 -3.55373 0
M  V30 2336 H 211.048 2.21139 -2.37755 0
M  V30 2337 H 212.059 -0.206049 -5.1749 0
M  V30 2338 H 208.736 1.91757 -3.70858 0
M  V30 2339 H 210.126 -0.836329 -6.66675 0
M  V30 2340 N 212.846 1.57033 -0.133567 0
M  V30 2341 C 214.074 2.00044 0.528195 0
M  V30 2342 C 214.489 1.01349 1.59291 0
M  V30 2343 O 213.846 0.00848369 1.82498 0
M  V30 2344 C 213.897 3.43018 1.1411 0
M  V30 2345 O 213.618 4.37939 0.11892 0
M  V30 2346 C 215.119 4.01237 1.88477 0
M  V30 2347 H 212.339 0.656517 0.138661 0
M  V30 2348 H 214.883 2.03267 -0.224196 0
M  V30 2349 H 213.038 3.40688 1.84418 0
M  V30 2350 H 213.452 5.21436 0.56613 0
M  V30 2351 H 214.926 5.03314 2.26669 0
M  V30 2352 H 215.403 3.41193 2.76558 0
M  V30 2353 H 216.009 4.07156 1.22898 0
M  V30 2354 N 214.325 -0.140222 1.56975 0
M  V30 2355 C 215.571 -0.848084 1.84876 0
M  V30 2356 C 215.926 -1.78481 0.718481 0
M  V30 2357 O 215.219 -1.89497 -0.283093 0
M  V30 2358 C 215.413 -1.65386 3.16832 0
M  V30 2359 C 215.242 -0.79665 4.42587 0
M  V30 2360 C 214.012 -0.459648 5.03205 0
M  V30 2361 C 216.21 -0.12389 5.14151 0
M  V30 2362 N 214.192 0.410446 6.12526 0
M  V30 2363 C 215.563 0.606064 6.17031 0
M  V30 2364 C 217.618 -0.0452654 4.97879 0
M  V30 2365 C 216.321 1.40723 7.054 0
M  V30 2366 C 218.347 0.742658 5.86718 0
M  V30 2367 C 217.709 1.46087 6.89085 0
M  V30 2368 H 213.808 -0.287946 0.727056 0
M  V30 2369 H 216.392 -0.11304 1.94372 0
M  V30 2370 H 214.563 -2.36009 3.08471 0
M  V30 2371 H 216.295 -2.30541 3.32615 0
M  V30 2372 H 213.05 -0.797006 4.66846 0
M  V30 2373 H 213.474 0.836716 6.7181 0
M  V30 2374 H 218.116 -0.586184 4.18717 0
M  V30 2375 H 215.834 1.95938 7.83986 0
M  V30 2376 H 219.42 0.805574 5.76196 0
M  V30 2377 H 218.3 2.06077 7.56639 0
M  V30 2378 N 215.803 -1.52179 -0.40978 0
M  V30 2379 C 216.736 -1.70196 -1.52015 0
M  V30 2380 C 217.714 -0.549542 -1.53032 0
M  V30 2381 O 218.898 -0.776815 -1.71749 0
M  V30 2382 C 216.025 -1.74069 -2.90547 0
M  V30 2383 C 215.071 -2.95601 -3.07445 0
M  V30 2384 S 215.904 -4.55956 -2.80827 0
M  V30 2385 C 217.06 -4.62614 -4.21591 0
M  V30 2386 H 217.293 -2.64109 -1.36504 0
M  V30 2387 H 214.826 -1.4221 -0.601312 0
M  V30 2388 H 216.784 -1.76985 -3.70387 0
M  V30 2389 H 215.445 -0.812835 -3.034 0
M  V30 2390 H 214.638 -2.94791 -4.08796 0
M  V30 2391 H 214.24 -2.90569 -2.35469 0
M  V30 2392 H 216.532 -4.39951 -5.15218 0
M  V30 2393 H 217.475 -5.64548 -4.27424 0
M  V30 2394 H 217.883 -3.91654 -4.06531 0
M  V30 2395 N 217.281 0.66697 -1.42791 0
M  V30 2396 C 218.692 1.2478 -1.38877 0
M  V30 2397 C 219.043 1.96012 -0.0859426 0
M  V30 2398 O 218.168 2.00463 0.815081 0
M  V30 2399 C 218.763 2.26938 -2.51564 0
M  V30 2400 C 217.322 2.80529 -2.50959 0
M  V30 2401 C 216.469 1.54965 -2.29959 0
M  V30 2402 H 219.42 0.459853 -1.51892 0
M  V30 2403 H 219.441 3.08834 -2.22265 0
M  V30 2404 H 218.953 1.75065 -3.46372 0
M  V30 2405 H 217.054 3.36502 -1.59991 0
M  V30 2406 H 217.167 3.29012 -3.48265 0
M  V30 2407 H 215.531 1.81817 -1.78366 0
M  V30 2408 H 216.314 1.05047 -3.26833 0
M  V30 2409 N 218.759 1.29093 0.90403 0
M  V30 2410 C 220.008 1.16187 1.64874 0
M  V30 2411 C 220.321 -0.286742 1.93487 0
M  V30 2412 O 221.527 -0.537062 2.66135 0
M  V30 2413 C 219.983 2.03177 2.97064 0
M  V30 2414 C 219.591 3.52836 2.76062 0
M  V30 2415 C 221.335 1.98984 3.74974 0
M  V30 2416 C 219.242 4.31945 4.03952 0
M  V30 2417 H 218.172 0.431246 0.618501 0
M  V30 2418 H 220.823 1.53699 1.00243 0
M  V30 2419 H 219.205 1.5853 3.62883 0
M  V30 2420 H 220.379 4.05507 2.18863 0
M  V30 2421 H 218.694 3.58656 2.11553 0
M  V30 2422 H 221.291 2.55351 4.69787 0
M  V30 2423 H 221.634 0.968815 4.0487 0
M  V30 2424 H 222.167 2.41652 3.15989 0
M  V30 2425 H 218.906 5.34667 3.79225 0
M  V30 2426 H 218.426 3.84045 4.60727 0
M  V30 2427 H 220.105 4.42379 4.72133 0
M  V30 2428 N 220.237 -1.11381 1.11499 0
M  V30 2429 C 221.2 -2.15622 0.777153 0
M  V30 2430 C 222.2 -1.59504 -0.203779 0
M  V30 2431 O 223.39 -1.74188 0.020782 0
M  V30 2432 C 220.522 -3.40556 0.153116 0
M  V30 2433 H 221.715 -2.47021 1.70061 0
M  V30 2434 H 219.268 -1.26577 0.916952 0
M  V30 2435 H 220.003 -3.14767 -0.780536 0
M  V30 2436 H 219.788 -3.8257 0.859238 0
M  V30 2437 H 221.278 -4.17546 -0.0671044 0
M  V30 2438 N 221.715 -0.905404 -1.28997 0
M  V30 2439 C 222.961 -0.535039 -1.95615 0
M  V30 2440 C 223.294 0.917404 -1.71165 0
M  V30 2441 O 222.569 1.65123 -1.02785 0
M  V30 2442 C 222.852 -0.834918 -3.50287 0
M  V30 2443 C 222.705 -2.33948 -3.84172 0
M  V30 2444 C 224.024 -0.325318 -4.38896 0
M  V30 2445 H 221.143 -0.195861 -0.710498 0
M  V30 2446 H 223.785 -1.13313 -1.52513 0
M  V30 2447 H 221.935 -0.325904 -3.87131 0
M  V30 2448 H 223.607 -2.91847 -3.57243 0
M  V30 2449 H 221.85 -2.79789 -3.31513 0
M  V30 2450 H 222.521 -2.49987 -4.92149 0
M  V30 2451 H 224.997 -0.761256 -4.09077 0
M  V30 2452 H 223.873 -0.564295 -5.45992 0
M  V30 2453 H 224.134 0.774144 -4.35269 0
M  V30 2454 N 223.193 1.4272 -0.668489 0
M  V30 2455 C 224.442 2.00846 -0.185389 0
M  V30 2456 C 224.755 1.53442 1.21305 0
M  V30 2457 O 225.961 2.03944 1.79218 0
M  V30 2458 C 224.417 3.58805 -0.280591 0
M  V30 2459 C 224.025 4.15198 -1.68268 0
M  V30 2460 C 225.769 4.24255 0.14412 0
M  V30 2461 C 223.676 5.655 -1.73099 0
M  V30 2462 H 222.606 0.751145 -0.0655475 0
M  V30 2463 H 225.257 1.63516 -0.832752 0
M  V30 2464 H 223.639 3.93608 0.434553 0
M  V30 2465 H 224.813 3.91866 -2.42441 0
M  V30 2466 H 223.128 3.62176 -2.05469 0
M  V30 2467 H 225.725 5.34547 0.128086 0
M  V30 2468 H 226.068 3.99277 1.17827 0
M  V30 2469 H 226.601 3.94389 -0.519798 0
M  V30 2470 H 223.34 5.95268 -2.74475 0
M  V30 2471 H 222.86 5.90842 -1.03274 0
M  V30 2472 H 224.539 6.29808 -1.48158 0
M  V30 2473 N 224.671 0.411399 1.52136 0
M  V30 2474 C 226.082 -0.0576826 1.86611 0
M  V30 2475 C 226.433 -1.44238 1.33003 0
M  V30 2476 O 225.558 -2.05759 0.670228 0
M  V30 2477 C 226.153 -0.111448 3.38617 0
M  V30 2478 C 224.712 -0.52487 3.72723 0
M  V30 2479 C 223.859 0.299176 2.75681 0
M  V30 2480 H 226.81 0.628368 1.4573 0
M  V30 2481 H 226.831 -0.926252 3.69054 0
M  V30 2482 H 226.343 0.896488 3.77604 0
M  V30 2483 H 224.444 -1.53936 3.39315 0
M  V30 2484 H 224.557 -0.267681 4.78352 0
M  V30 2485 H 222.921 -0.238814 2.53578 0
M  V30 2486 H 223.704 1.3055 3.17508 0
M  V30 2487 N 226.149 -1.5696 0.141893 0
M  V30 2488 C 227.397 -1.95573 -0.509484 0
M  V30 2489 C 227.718 -1.02746 -1.65736 0
M  V30 2490 O 226.988 -0.0880311 -1.95702 0
M  V30 2491 H 225.568 -0.722115 -0.191205 0
M  V30 2492 H 228.23 -1.93697 0.216196 0
M  V30 2493 H 227.326 -2.99171 -0.889 0
M  V30 2494 N 227.627 0.131896 -1.57047 0
M  V30 2495 C 228.873 0.843179 -1.84441 0
M  V30 2496 C 229.206 1.80129 -0.725749 0
M  V30 2497 O 228.481 1.92624 0.269469 0
M  V30 2498 C 228.764 1.60442 -3.22382 0
M  V30 2499 C 228.617 0.666782 -4.4483 0
M  V30 2500 C 229.936 2.56354 -3.5773 0
M  V30 2501 H 227.055 0.305081 -0.670891 0
M  V30 2502 H 229.697 0.107839 -1.89694 0
M  V30 2503 H 227.847 2.23128 -3.18035 0
M  V30 2504 H 229.519 0.0497646 -4.61273 0
M  V30 2505 H 227.762 -0.022609 -4.33794 0
M  V30 2506 H 228.433 1.23579 -5.37989 0
M  V30 2507 H 230.909 2.0378 -3.62785 0
M  V30 2508 H 229.785 3.06657 -4.5525 0
M  V30 2509 H 230.046 3.38419 -2.84473 0
M  V30 2510 N 229.106 1.52395 0.401703 0
M  V30 2511 C 230.016 1.7917 1.51444 0
M  V30 2512 C 231.032 0.677691 1.6026 0
M  V30 2513 O 232.208 0.963909 1.76835 0
M  V30 2514 C 229.273 1.94347 2.87107 0
M  V30 2515 C 228.334 3.18257 2.88116 0
M  V30 2516 C 227.567 3.32701 4.17308 0
M  V30 2517 O 227.79 2.52238 5.11598 0
M  V30 2518 O 226.724 4.25891 4.25324 0
M  V30 2519 H 230.55 2.73633 1.31752 0
M  V30 2520 H 228.135 1.3733 0.588296 0
M  V30 2521 H 230.017 2.06109 3.67555 0
M  V30 2522 H 228.692 1.03073 3.06851 0
M  V30 2523 H 227.599 3.11947 2.06494 0
M  V30 2524 H 228.932 4.09336 2.73322 0
M  V30 2525 N 230.584 -0.659388 1.43143 0
M  V30 2526 C 231.547 -1.75432 1.47501 0
M  V30 2527 C 232.547 -1.56707 0.360512 0
M  V30 2528 O 233.737 -1.62717 0.622002 0
M  V30 2529 C 230.869 -3.14239 1.32162 0
M  V30 2530 H 232.062 -1.7295 2.45006 0
M  V30 2531 H 229.615 -0.870469 1.29817 0
M  V30 2532 H 230.35 -3.22336 0.356401 0
M  V30 2533 H 230.135 -3.29235 2.12948 0
M  V30 2534 H 231.625 -3.94094 1.3813 0
M  V30 2535 N 232.062 -1.29571 -0.897171 0
M  V30 2536 C 233.287 -1.20705 -1.68656 0
M  V30 2537 C 233.712 0.228582 -1.86706 0
M  V30 2538 O 233.07 1.16494 -1.3892 0
M  V30 2539 C 233.118 -1.9282 -3.04717 0
M  V30 2540 O 232.222 -1.24697 -3.93096 0
M  V30 2541 H 231.563 -0.418126 -0.515816 0
M  V30 2542 H 234.093 -1.71183 -1.12061 0
M  V30 2543 H 234.103 -2.01372 -3.54843 0
M  V30 2544 H 232.778 -2.97239 -2.90899 0
M  V30 2545 H 231.355 -1.2442 -3.51531 0
M  V30 2546 N 233.54 1.10788 -1.12088 0
M  V30 2547 C 234.786 1.82942 -0.875226 0
M  V30 2548 C 235.119 1.84779 0.597538 0
M  V30 2549 O 234.394 1.30578 1.44152 0
M  V30 2550 C 234.677 3.29789 -1.44606 0
M  V30 2551 C 234.53 3.36307 -2.98693 0
M  V30 2552 C 235.849 4.26064 -1.10261 0
M  V30 2553 H 232.968 0.664195 -0.319397 0
M  V30 2554 H 235.61 1.29867 -1.38689 0
M  V30 2555 H 233.76 3.75118 -1.01089 0
M  V30 2556 H 235.432 2.99487 -3.50864 0
M  V30 2557 H 233.675 2.76318 -3.34411 0
M  V30 2558 H 234.346 4.39694 -3.33726 0
M  V30 2559 H 236.822 3.88951 -1.4784 0
M  V30 2560 H 235.698 5.27183 -1.52869 0
M  V30 2561 H 235.959 4.42098 -0.0142953 0
M  V30 2562 N 235.018 0.912232 1.28515 0
M  V30 2563 C 235.948 0.416403 2.29757 0
M  V30 2564 C 236.929 -0.515194 1.6211 0
M  V30 2565 O 238.114 -0.423253 1.89532 0
M  V30 2566 C 235.244 -0.34572 3.45575 0
M  V30 2567 C 234.198 0.496599 4.25109 0
M  V30 2568 C 233.524 -0.393771 5.33248 0
M  V30 2569 C 234.824 1.75307 4.92001 0
M  V30 2570 H 236.518 1.26249 2.7148 0
M  V30 2571 H 234.064 0.608515 1.30511 0
M  V30 2572 H 236.017 -0.703422 4.15488 0
M  V30 2573 H 234.741 -1.2257 3.02728 0
M  V30 2574 H 233.4 0.8368 3.56922 0
M  V30 2575 H 233.048 -1.27225 4.86644 0
M  V30 2576 H 232.748 0.166209 5.87365 0
M  V30 2577 H 234.272 -0.747389 6.06009 0
M  V30 2578 H 235.686 1.46437 5.54283 0
M  V30 2579 H 234.083 2.25534 5.56106 0
M  V30 2580 H 235.153 2.48176 4.16577 0
M  V30 2581 N 236.496 -1.42363 0.676048 0
M  V30 2582 C 237.406 -2.346 -0.00153389 0
M  V30 2583 C 238.422 -1.5516 -0.787485 0
M  V30 2584 O 239.598 -1.87723 -0.729521 0
M  V30 2585 C 236.663 -3.33705 -0.940298 0
M  V30 2586 C 235.724 -4.29042 -0.148739 0
M  V30 2587 C 234.957 -5.23413 -1.04279 0
M  V30 2588 O 235.18 -5.22749 -2.28232 0
M  V30 2589 O 234.114 -5.99795 -0.502925 0
M  V30 2590 H 237.94 -2.94082 0.758268 0
M  V30 2591 H 235.525 -1.42888 0.436289 0
M  V30 2592 H 237.407 -3.94586 -1.47917 0
M  V30 2593 H 236.082 -2.76695 -1.67993 0
M  V30 2594 H 234.989 -3.71571 0.43427 0
M  V30 2595 H 236.322 -4.89097 0.551805 0
M  V30 2596 N 237.974 -0.419461 -1.51915 0
M  V30 2597 C 238.884 0.407528 -2.31033 0
M  V30 2598 C 239.9 1.04413 -1.3919 0
M  V30 2599 O 241.076 1.0434 -1.72265 0
M  V30 2600 C 238.141 1.50365 -3.12396 0
M  V30 2601 C 237.202 0.889029 -4.19994 0
M  V30 2602 C 236.435 1.93291 -4.97468 0
M  V30 2603 O 236.658 3.15259 -4.75361 0
M  V30 2604 O 235.592 1.53339 -5.8204 0
M  V30 2605 H 239.418 -0.237865 -3.02767 0
M  V30 2606 H 237.003 -0.182413 -1.48282 0
M  V30 2607 H 238.885 2.13975 -3.63032 0
M  V30 2608 H 237.56 2.13345 -2.43445 0
M  V30 2609 H 236.467 0.215353 -3.7348 0
M  V30 2610 H 237.8 0.302991 -4.91267 0
M  V30 2611 N 239.452 1.56882 -0.150215 0
M  V30 2612 C 240.677 2.01027 0.510184 0
M  V30 2613 C 241.102 1.02966 1.57415 0
M  V30 2614 O 240.46 0.00590158 1.81299 0
M  V30 2615 C 240.508 3.43899 1.08472 0
M  V30 2616 O 239.612 3.4885 2.19948 0
M  V30 2617 H 238.953 0.652233 0.124451 0
M  V30 2618 H 241.483 2.03093 -0.247894 0
M  V30 2619 H 241.493 3.82766 1.41259 0
M  V30 2620 H 240.168 4.14776 0.305582 0
M  V30 2621 H 238.745 3.21827 1.88366 0
M  V30 2622 N 240.93 -0.123565 1.57115 0
M  V30 2623 C 242.179 -0.830704 1.83799 0
M  V30 2624 C 242.492 -1.81259 0.735158 0
M  V30 2625 O 243.698 -2.56558 0.888278 0
M  V30 2626 C 242.154 -1.52802 3.25852 0
M  V30 2627 C 241.762 -0.587356 4.44133 0
M  V30 2628 C 243.506 -2.22056 3.61789 0
M  V30 2629 C 241.413 -1.28764 5.77212 0
M  V30 2630 H 240.343 -0.313967 0.685522 0
M  V30 2631 H 242.994 -0.0834359 1.8331 0
M  V30 2632 H 241.376 -2.32175 3.20797 0
M  V30 2633 H 242.55 0.172829 4.60476 0
M  V30 2634 H 240.865 -0.00201892 4.164 0
M  V30 2635 H 243.462 -2.75131 4.58483 0
M  V30 2636 H 243.805 -2.99644 2.88997 0
M  V30 2637 H 244.338 -1.49576 3.68608 0
M  V30 2638 H 241.077 -0.55314 6.53162 0
M  V30 2639 H 240.597 -2.01995 5.64764 0
M  V30 2640 H 242.276 -1.8221 6.20813 0
M  V30 2641 N 242.408 -1.52605 -0.393616 0
M  V30 2642 C 243.638 -1.71046 -1.15874 0
M  V30 2643 C 244.046 -0.426483 -1.84331 0
M  V30 2644 O 243.389 0.608513 -1.73329 0
M  V30 2645 C 243.451 -2.80118 -2.25332 0
M  V30 2646 C 243.115 -4.21381 -1.76881 0
M  V30 2647 C 244.112 -5.04697 -1.24808 0
M  V30 2648 C 241.797 -4.67683 -1.83244 0
M  V30 2649 C 243.791 -6.32393 -0.797387 0
M  V30 2650 C 241.478 -5.95364 -1.37787 0
M  V30 2651 C 242.476 -6.77549 -0.861208 0
M  V30 2652 O 242.164 -8.02837 -0.413252 0
M  V30 2653 H 241.896 -0.576155 -0.353583 0
M  V30 2654 H 244.45 -2.00018 -0.467123 0
M  V30 2655 H 242.68 -2.46557 -2.97904 0
M  V30 2656 H 244.369 -2.87006 -2.87023 0
M  V30 2657 H 245.135 -4.70111 -1.19252 0
M  V30 2658 H 241.014 -4.03805 -2.22401 0
M  V30 2659 H 244.558 -6.9649 -0.393437 0
M  V30 2660 H 240.455 -6.29455 -1.43026 0
M  V30 2661 H 241.223 -8.16749 -0.53515 0
M  V30 2662 N 243.887 0.651787 -1.4349 0
M  V30 2663 C 245.112 1.44434 -1.48841 0
M  V30 2664 C 245.537 1.8779 -0.107955 0
M  V30 2665 O 244.895 1.57464 0.898602 0
M  V30 2666 C 244.943 2.65458 -2.44059 0
M  V30 2667 O 244.047 3.64566 -1.92784 0
M  V30 2668 H 243.388 0.433005 -0.503391 0
M  V30 2669 H 245.918 0.797451 -1.88419 0
M  V30 2670 H 245.928 3.13255 -2.6141 0
M  V30 2671 H 244.603 2.33244 -3.4434 0
M  V30 2672 H 243.18 3.23716 -1.851 0
M  V30 2673 N 245.365 1.30045 0.890287 0
M  V30 2674 C 246.595 1.21296 1.67245 0
M  V30 2675 C 247.003 -0.227471 1.87828 0
M  V30 2676 O 246.346 -1.16296 1.422 0
M  V30 2677 C 246.408 1.86519 3.07329 0
M  V30 2678 C 246.072 3.35837 3.09939 0
M  V30 2679 C 247.069 4.31915 2.89389 0
M  V30 2680 C 244.754 3.77196 3.31706 0
M  V30 2681 C 246.748 5.67325 2.90552 0
M  V30 2682 C 244.435 5.12725 3.32499 0
M  V30 2683 C 245.433 6.076 3.11947 0
M  V30 2684 O 245.121 7.40655 3.12547 0
M  V30 2685 H 244.853 0.4211 0.528821 0
M  V30 2686 H 247.407 1.72111 1.12103 0
M  V30 2687 H 245.637 1.30228 3.64112 0
M  V30 2688 H 247.326 1.71963 3.67673 0
M  V30 2689 H 248.092 4.01294 2.72375 0
M  V30 2690 H 243.971 3.03796 3.4674 0
M  V30 2691 H 247.515 6.41354 2.74429 0
M  V30 2692 H 243.412 5.42988 3.49047 0
M  V30 2693 H 244.18 7.49577 3.28749 0
M  V30 2694 N 246.843 -1.10192 1.12674 0
M  V30 2695 C 248.092 -1.81573 0.8783 0
M  V30 2696 C 248.405 -1.86249 -0.597557 0
M  V30 2697 O 249.611 -2.5386 -0.962681 0
M  V30 2698 C 248.067 -3.26149 1.52167 0
M  V30 2699 C 247.675 -3.29763 3.03249 0
M  V30 2700 C 249.419 -4.0234 1.3536 0
M  V30 2701 C 247.326 -4.68815 3.60508 0
M  V30 2702 H 246.256 -0.680394 0.324931 0
M  V30 2703 H 248.907 -1.23902 1.35353 0
M  V30 2704 H 247.289 -3.83832 0.974104 0
M  V30 2705 H 248.463 -2.8189 3.6452 0
M  V30 2706 H 246.778 -2.67059 3.19481 0
M  V30 2707 H 249.375 -5.05058 1.75559 0
M  V30 2708 H 249.718 -4.15235 0.297554 0
M  V30 2709 H 250.251 -3.51079 1.87052 0
M  V30 2710 H 246.99 -4.61121 4.65884 0
M  V30 2711 H 246.51 -5.17045 3.04014 0
M  V30 2712 H 248.189 -5.37785 3.59717 0
M  V30 2713 N 248.321 -0.919034 -1.28029 0
M  V30 2714 C 249.253 -0.368762 -2.26214 0
M  V30 2715 C 250.266 0.495716 -1.55069 0
M  V30 2716 O 251.455 0.30974 -1.75792 0
M  V30 2717 C 248.555 0.491049 -3.35324 0
M  V30 2718 C 247.728 -0.352133 -4.3598 0
M  V30 2719 C 246.787 0.443622 -5.24327 0
M  V30 2720 O 245.813 -0.14566 -5.69014 0
M  V30 2721 N 247.015 1.74545 -5.53637 0
M  V30 2722 H 249.78 -1.21273 -2.74068 0
M  V30 2723 H 247.341 -0.785541 -1.41566 0
M  V30 2724 H 249.333 1.03026 -3.91366 0
M  V30 2725 H 247.903 1.23574 -2.87138 0
M  V30 2726 H 247.123 -1.07269 -3.79324 0
M  V30 2727 H 248.411 -0.928883 -5.00249 0
M  V30 2728 H 247.809 2.24666 -5.19174 0
M  V30 2729 H 246.366 2.23138 -6.12416 0
M  V30 2730 N 249.799 1.42003 -0.683588 0
M  V30 2731 C 250.747 2.326 0.000815408 0
M  V30 2732 C 251.741 1.50308 0.781278 0
M  V30 2733 O 252.947 1.66322 0.688251 0
M  V30 2734 H 249.322 0.751758 0.0190616 0
M  V30 2735 H 251.293 2.88011 -0.780528 0
M  V30 2736 C 250.042 3.34978 0.93195 0
M  V30 2737 H 249.365 3.98345 0.340817 0
M  V30 2738 H 250.805 4.00936 1.37936 0
M  V30 2739 C 249.264 2.67925 2.04249 0
M  V30 2740 O 249.794 2.51788 3.12995 0
M  V30 2741 N 248 2.2681 1.81675 0
M  V30 2742 H 247.547 2.40135 0.932363 0
M  V30 2743 H 247.505 1.8228 2.56167 0
M  V30 2744 N 251.277 0.427512 1.51691 0
M  V30 2745 C 252.224 -0.388867 2.275 0
M  V30 2746 C 253.194 -1.02532 1.30677 0
M  V30 2747 O 254.379 -1.0461 1.59566 0
M  V30 2748 C 251.519 -1.48954 3.11298 0
M  V30 2749 C 250.632 -0.872194 4.23104 0
M  V30 2750 C 249.767 -1.94709 4.94228 0
M  V30 2751 C 248.806 -1.30766 5.97969 0
M  V30 2752 N 247.943 -2.32349 6.62539 0
M  V30 2753 H 252.783 0.263997 2.96828 0
M  V30 2754 H 250.32 0.142033 1.46413 0
M  V30 2755 H 252.278 -2.13887 3.58201 0
M  V30 2756 H 250.908 -2.11217 2.44105 0
M  V30 2757 H 249.96 -0.111419 3.80237 0
M  V30 2758 H 251.272 -0.365264 4.97461 0
M  V30 2759 H 250.426 -2.67327 5.44629 0
M  V30 2760 H 249.165 -2.48773 4.1948 0
M  V30 2761 H 248.17 -0.566902 5.4687 0
M  V30 2762 H 249.395 -0.774483 6.74669 0
M  V30 2763 H 247.341 -2.85511 5.90609 0
M  V30 2764 H 247.258 -1.8652 7.3263 0
M  V30 2765 H 248.526 -3.04481 7.17574 0
M  V30 2766 N 252.755 -1.56801 0.158532 0
M  V30 2767 C 253.685 -2.20347 -0.772609 0
M  V30 2768 C 254.666 -1.15518 -1.24859 0
M  V30 2769 O 255.851 -1.43902 -1.30406 0
M  V30 2770 C 252.981 -2.83417 -2.00729 0
M  V30 2771 C 251.935 -3.94174 -1.66765 0
M  V30 2772 C 251.261 -4.44233 -2.97592 0
M  V30 2773 C 252.561 -5.14392 -0.905447 0
M  V30 2774 H 254.255 -2.98413 -0.242959 0
M  V30 2775 H 251.801 -1.43537 -0.115419 0
M  V30 2776 H 253.754 -3.26543 -2.6636 0
M  V30 2777 H 252.478 -2.02701 -2.56086 0
M  V30 2778 H 251.137 -3.51684 -1.03508 0
M  V30 2779 H 250.785 -3.60325 -3.50963 0
M  V30 2780 H 250.485 -5.18945 -2.75626 0
M  V30 2781 H 252.009 -4.90037 -3.64274 0
M  V30 2782 H 253.423 -5.5429 -1.46408 0
M  V30 2783 H 251.82 -5.9494 -0.7853 0
M  V30 2784 H 252.89 -4.84795 0.100668 0
M  V30 2785 N 254.233 0.115231 -1.57178 0
M  V30 2786 C 255.481 0.820727 -1.84685 0
M  V30 2787 C 255.802 1.80237 -0.744279 0
M  V30 2788 O 255.072 1.94529 0.231375 0
M  V30 2789 H 253.652 0.306084 -0.681411 0
M  V30 2790 H 256.314 0.101656 -1.94635 0
M  V30 2791 H 255.41 1.36366 -2.80733 0
M  V30 2792 N 255.711 1.52812 0.385517 0
M  V30 2793 C 256.641 1.80808 1.47752 0
M  V30 2794 C 257.622 0.660318 1.5676 0
M  V30 2795 O 258.807 0.908246 1.71652 0
M  V30 2796 C 255.937 1.98008 2.85324 0
M  V30 2797 C 254.891 3.13709 2.91154 0
M  V30 2798 C 254.217 3.16169 4.31209 0
M  V30 2799 C 255.517 4.52709 2.60483 0
M  V30 2800 H 257.211 2.72253 1.24573 0
M  V30 2801 H 254.757 1.31003 0.597839 0
M  V30 2802 H 256.71 2.16176 3.61726 0
M  V30 2803 H 255.434 1.03255 3.09848 0
M  V30 2804 H 254.093 2.95329 2.17201 0
M  V30 2805 H 253.741 2.19092 4.52778 0
M  V30 2806 H 253.441 3.93894 4.36029 0
M  V30 2807 H 254.965 3.36496 5.09512 0
M  V30 2808 H 256.379 4.71173 3.26602 0
M  V30 2809 H 254.776 5.32528 2.76648 0
M  V30 2810 H 255.846 4.59186 1.55809 0
M  V30 2811 N 257.189 -0.644168 1.43834 0
M  V30 2812 C 258.136 -1.75671 1.49694 0
M  V30 2813 C 259.106 -1.6246 0.345809 0
M  V30 2814 O 260.291 -1.82573 0.554234 0
M  V30 2815 C 257.431 -3.13867 1.43463 0
M  V30 2816 C 256.544 -3.38147 2.6885 0
M  V30 2817 C 255.679 -4.66241 2.54544 0
M  V30 2818 C 254.718 -4.83657 3.75157 0
M  V30 2819 N 253.855 -6.03016 3.59605 0
M  V30 2820 H 258.695 -1.69998 2.44754 0
M  V30 2821 H 256.232 -0.829458 1.21484 0
M  V30 2822 H 258.19 -3.9377 1.37843 0
M  V30 2823 H 256.82 -3.18588 0.519783 0
M  V30 2824 H 255.872 -2.52276 2.84712 0
M  V30 2825 H 257.184 -3.46899 3.58417 0
M  V30 2826 H 256.338 -5.54285 2.46683 0
M  V30 2827 H 255.077 -4.59826 1.62516 0
M  V30 2828 H 254.082 -3.94046 3.83416 0
M  V30 2829 H 255.307 -4.91896 4.68204 0
M  V30 2830 H 253.253 -5.97715 2.7032 0
M  V30 2831 H 253.17 -6.12766 4.42779 0
M  V30 2832 H 254.438 -6.93657 3.55613 0
M  V30 2833 N 258.668 -1.30515 -0.883378 0
M  V30 2834 C 259.914 -1.19607 -1.63774 0
M  V30 2835 C 260.247 0.248314 -1.92606 0
M  V30 2836 O 259.522 1.17742 -1.54813 0
M  V30 2837 C 259.805 -2.02669 -2.97653 0
M  V30 2838 C 259.658 -3.55335 -2.75784 0
M  V30 2839 C 260.977 -1.86573 -3.98596 0
M  V30 2840 H 258.096 -0.435856 -0.594305 0
M  V30 2841 H 260.738 -1.60165 -1.02212 0
M  V30 2842 H 258.888 -1.68208 -3.50197 0
M  V30 2843 H 260.56 -3.99863 -2.30016 0
M  V30 2844 H 258.803 -3.79438 -2.1026 0
M  V30 2845 H 259.474 -4.08745 -3.70988 0
M  V30 2846 H 261.95 -2.16703 -3.55217 0
M  V30 2847 H 260.826 -2.47014 -4.90179 0
M  V30 2848 H 261.087 -0.825321 -4.34328 0
M  V30 2849 N 260.146 1.09593 -1.13257 0
M  V30 2850 C 261.394 1.81375 -0.891492 0
M  V30 2851 C 261.715 1.86049 0.584009 0
M  V30 2852 O 260.985 1.34481 1.42449 0
M  V30 2853 H 259.565 0.671708 -0.326828 0
M  V30 2854 H 262.227 1.3256 -1.42877 0
M  V30 2855 H 261.323 2.84612 -1.28071 0
M  V30 2856 N 261.624 0.925811 1.2754 0
M  V30 2857 C 262.852 0.581509 1.9856 0
M  V30 2858 C 263.267 -0.840041 1.69082 0
M  V30 2859 O 262.624 -1.55805 0.950312 0
M  V30 2860 C 262.675 0.795589 3.52637 0
M  V30 2861 O 262.396 2.16121 3.81082 0
M  V30 2862 C 263.897 0.459744 4.4091 0
M  V30 2863 H 261.117 0.220538 0.633722 0
M  V30 2864 H 263.661 1.24232 1.6244 0
M  V30 2865 H 261.816 0.18161 3.86974 0
M  V30 2866 H 262.23 2.2098 4.75676 0
M  V30 2867 H 263.704 0.660244 5.48037 0
M  V30 2868 H 264.181 -0.604625 4.35018 0
M  V30 2869 H 264.787 1.05178 4.12089 0
M  V30 2870 N 263.102 -1.41638 0.69111 0
M  V30 2871 C 264.327 -2.06148 0.227583 0
M  V30 2872 C 264.752 -1.51652 -1.11281 0
M  V30 2873 O 264.11 -0.64164 -1.69566 0
M  V30 2874 C 264.158 -3.60095 0.190858 0
M  V30 2875 O 263.262 -4.03845 -0.835664 0
M  V30 2876 H 262.603 -0.654434 0.112306 0
M  V30 2877 H 265.133 -1.81484 0.944714 0
M  V30 2878 H 265.143 -4.07995 0.020207 0
M  V30 2879 H 263.818 -3.99129 1.16915 0
M  V30 2880 H 262.395 -3.67458 -0.63473 0
M  V30 2881 N 264.58 -0.43555 -1.51462 0
M  V30 2882 C 265.826 0.131709 -2.02372 0
M  V30 2883 C 266.159 1.42516 -1.3192 0
M  V30 2884 O 265.434 1.89606 -0.433573 0
M  V30 2885 C 265.717 0.352301 -3.58373 0
M  V30 2886 C 265.57 -0.959676 -4.39443 0
M  V30 2887 C 266.889 1.12286 -4.25535 0
M  V30 2888 H 264.008 0.0463936 -0.735538 0
M  V30 2889 H 266.65 -0.574197 -1.81116 0
M  V30 2890 H 264.8 0.9536 -3.76615 0
M  V30 2891 H 266.472 -1.59482 -4.32855 0
M  V30 2892 H 264.715 -1.56468 -4.04599 0
M  V30 2893 H 265.386 -0.759394 -5.46752 0
M  V30 2894 H 267.862 0.613545 -4.11552 0
M  V30 2895 H 266.738 1.24598 -5.34571 0
M  V30 2896 H 266.999 2.15048 -3.86273 0
M  V30 2897 N 266.058 1.56714 -0.166846 0
M  V30 2898 C 267.304 1.97039 0.479962 0
M  V30 2899 C 267.637 1.05264 1.63197 0
M  V30 2900 O 266.912 0.0988833 1.94248 0
M  V30 2901 C 267.195 3.46867 0.967212 0
M  V30 2902 C 267.048 4.49421 -0.18466 0
M  V30 2903 C 268.367 3.9968 1.84238 0
M  V30 2904 H 265.486 0.71641 0.172992 0
M  V30 2905 H 268.128 1.8832 -0.252079 0
M  V30 2906 H 266.278 3.54428 1.59101 0
M  V30 2907 H 267.95 4.53924 -0.821621 0
M  V30 2908 H 266.193 4.25573 -0.840837 0
M  V30 2909 H 266.864 5.51644 0.198317 0
M  V30 2910 H 269.34 3.94723 1.31655 0
M  V30 2911 H 268.216 5.04941 2.15234 0
M  V30 2912 H 268.477 3.43226 2.78654 0
M  V30 2913 N 267.536 -0.106894 1.57237 0
M  V30 2914 C 268.952 -0.46078 1.52804 0
M  V30 2915 C 269.152 -1.81184 0.881746 0
M  V30 2916 O 268.208 -2.48102 0.469224 0
M  V30 2917 C 269.521 -0.434127 2.9755 0
M  V30 2918 C 271.069 -0.516821 3.08704 0
M  V30 2919 C 271.544 -0.520436 4.55033 0
M  V30 2920 N 273.035 -0.58153 4.59535 0
M  V30 2921 C 273.77 -0.605973 5.70189 0
M  V30 2922 N 273.266 -0.587331 6.90306 0
M  V30 2923 N 275.059 -0.649895 5.5833 0
M  V30 2924 H 267.21 0.778203 1.9763 0
M  V30 2925 H 269.473 0.288403 0.903066 0
M  V30 2926 H 269.179 0.491197 3.48253 0
M  V30 2927 H 269.053 -1.25748 3.55622 0
M  V30 2928 H 271.44 -1.43256 2.57995 0
M  V30 2929 H 271.521 0.334449 2.53604 0
M  V30 2930 H 271.165 0.391313 5.0639 0
M  V30 2931 H 271.095 -1.38876 5.07958 0
M  V30 2932 H 273.586 -0.60161 3.73081 0
M  V30 2933 H 273.899 -0.60894 7.70397 0
M  V30 2934 H 272.244 -0.554564 6.92784 0
M  V30 2935 H 275.435 -0.661907 4.63397 0
M  V30 2936 H 275.608 -0.665476 6.44574 0
M  V30 2937 N 269.014 -1.53014 -0.377408 0
M  V30 2938 C 270.26 -1.68872 -1.12294 0
M  V30 2939 C 270.593 -0.433224 -1.89306 0
M  V30 2940 O 269.868 0.569258 -1.85983 0
M  V30 2941 C 270.151 -2.93115 -2.09179 0
M  V30 2942 C 270.004 -4.28794 -1.35853 0
M  V30 2943 C 271.323 -3.12928 -3.09458 0
M  V30 2944 H 268.442 -0.614518 -0.406862 0
M  V30 2945 H 271.084 -1.85633 -0.40503 0
M  V30 2946 H 269.234 -2.78956 -2.70399 0
M  V30 2947 H 270.906 -4.54742 -0.775082 0
M  V30 2948 H 269.149 -4.28744 -0.660364 0
M  V30 2949 H 269.82 -5.11837 -2.06706 0
M  V30 2950 H 272.296 -3.26194 -2.58334 0
M  V30 2951 H 271.172 -4.01316 -3.74482 0
M  V30 2952 H 271.433 -2.27669 -3.78971 0
M  V30 2953 N 270.492 0.636531 -1.44174 0
M  V30 2954 C 271.439 1.74875 -1.50624 0
M  V30 2955 C 272.409 1.62275 -0.35442 0
M  V30 2956 O 273.594 1.82276 -0.563908 0
M  V30 2957 C 270.734 3.13102 -1.45125 0
M  V30 2958 C 269.847 3.36717 -2.7064 0
M  V30 2959 C 268.982 4.64885 -2.57013 0
M  V30 2960 C 268.021 4.8166 -3.77717 0
M  V30 2961 N 267.158 6.01101 -3.62798 0
M  V30 2962 H 271.998 1.68697 -2.45653 0
M  V30 2963 H 269.535 0.823004 -1.21922 0
M  V30 2964 H 271.493 3.93034 -1.39929 0
M  V30 2965 H 270.123 3.18308 -0.536671 0
M  V30 2966 H 269.175 2.50763 -2.86046 0
M  V30 2967 H 270.487 3.44993 -3.60252 0
M  V30 2968 H 269.641 5.52969 -2.49619 0
M  V30 2969 H 268.38 4.58957 -1.64953 0
M  V30 2970 H 267.385 3.92007 -3.85501 0
M  V30 2971 H 268.61 4.89406 -4.70807 0
M  V30 2972 H 266.556 5.96273 -2.73486 0
M  V30 2973 H 266.473 6.10409 -4.46023 0
M  V30 2974 H 267.741 6.91761 -3.59286 0
M  V30 2975 N 271.97 1.30982 0.876444 0
M  V30 2976 C 273.218 1.20058 1.62575 0
M  V30 2977 C 273.539 -0.242947 1.93481 0
M  V30 2978 O 272.809 -1.1619 1.57724 0
M  V30 2979 H 271.389 0.44135 0.602677 0
M  V30 2980 H 274.051 1.64222 1.04962 0
M  V30 2981 H 273.147 1.76762 2.57219 0
M  V30 2982 N 273.449 -1.08991 1.13837 0
M  V30 2983 C 274.698 -1.80631 0.897509 0
M  V30 2984 C 275.011 -1.86872 -0.57777 0
M  V30 2985 O 276.217 -2.54866 -0.935701 0
M  V30 2986 C 274.673 -3.24517 1.55618 0
M  V30 2987 C 274.281 -3.26529 3.0673 0
M  V30 2988 C 276.025 -4.00882 1.3962 0
M  V30 2989 C 273.932 -4.64965 3.65461 0
M  V30 2990 H 272.862 -0.67691 0.332129 0
M  V30 2991 H 275.513 -1.2246 1.3666 0
M  V30 2992 H 273.895 -3.82778 1.01476 0
M  V30 2993 H 275.069 -2.78008 3.67489 0
M  V30 2994 H 273.384 -2.63656 3.22296 0
M  V30 2995 H 275.981 -5.03167 1.80906 0
M  V30 2996 H 276.324 -4.14896 0.341578 0
M  V30 2997 H 276.857 -3.49075 1.90766 0
M  V30 2998 H 273.596 -4.56153 4.70749 0
M  V30 2999 H 273.116 -5.13792 3.09481 0
M  V30 3000 H 274.795 -5.3394 3.654 0
M  V30 3001 N 274.927 -0.932562 -1.27047 0
M  V30 3002 C 276.343 -0.633544 -1.46487 0
M  V30 3003 C 276.543 0.815746 -1.84249 0
M  V30 3004 O 275.599 1.59319 -1.95892 0
M  V30 3005 C 276.912 -1.58758 -2.55375 0
M  V30 3006 C 278.46 -1.59634 -2.69232 0
M  V30 3007 C 278.935 -2.53747 -3.81283 0
M  V30 3008 N 280.426 -2.51982 -3.88664 0
M  V30 3009 C 281.161 -3.21491 -4.74796 0
M  V30 3010 N 280.657 -4.00395 -5.65381 0
M  V30 3011 N 282.45 -3.10485 -4.68568 0
M  V30 3012 H 274.601 -1.86946 -1.00821 0
M  V30 3013 H 276.864 -0.802897 -0.504044 0
M  V30 3014 H 276.57 -2.62172 -2.34432 0
M  V30 3015 H 276.444 -1.33301 -3.52861 0
M  V30 3016 H 278.831 -0.569488 -2.89553 0
M  V30 3017 H 278.912 -1.89142 -1.72218 0
M  V30 3018 H 278.556 -3.56545 -3.61715 0
M  V30 3019 H 278.486 -2.21532 -4.77735 0
M  V30 3020 H 280.977 -1.94681 -3.23895 0
M  V30 3021 H 281.29 -4.50406 -6.27976 0
M  V30 3022 H 279.635 -4.04498 -5.65161 0
M  V30 3023 H 282.826 -2.48331 -3.96799 0
M  V30 3024 H 282.999 -3.64925 -5.35475 0
M  V30 3025 N 276.405 1.4127 -0.698611 0
M  V30 3026 C 277.816 1.84187 -0.305289 0
M  V30 3027 C 278.167 1.58449 1.15708 0
M  V30 3028 O 277.292 1.05651 1.88856 0
M  V30 3029 C 277.887 3.3435 -0.547314 0
M  V30 3030 C 276.446 3.75826 -0.207878 0
M  V30 3031 C 275.593 2.64647 -0.828099 0
M  V30 3032 H 278.544 1.30778 -0.89904 0
M  V30 3033 H 278.565 3.8001 0.192998 0
M  V30 3034 H 278.077 3.53051 -1.61172 0
M  V30 3035 H 276.178 3.62725 0.852143 0
M  V30 3036 H 276.291 4.74462 -0.665021 0
M  V30 3037 H 274.655 2.53395 -0.257458 0
M  V30 3038 H 275.438 2.86165 -1.89643 0
M  V30 3039 N 277.883 0.443576 1.51229 0
M  V30 3040 C 279.16 -0.181038 1.9476 0
M  V30 3041 C 279.54 -1.59523 1.38259 0
M  V30 3042 O 278.888 -2.2122 0.572198 0
M  V30 3043 C 279.098 -0.152422 3.48667 0
M  V30 3044 C 280.446 -0.354923 4.23114 0
M  V30 3045 O 281.47 -0.230257 3.55455 0
M  V30 3046 O 280.329 -0.603674 5.43156 0
M  V30 3047 H 277.423 -0.1266 0.817252 0
M  V30 3048 H 279.969 0.502004 1.62105 0
M  V30 3049 H 278.741 0.836022 3.82265 0
M  V30 3050 H 278.364 -0.878107 3.87782 0
M  V30 3051 N 279.361 -1.56624 0.175154 0
M  V30 3052 C 280.638 -1.88688 -0.515373 0
M  V30 3053 C 281.018 -1.08564 -1.81044 0
M  V30 3054 O 280.366 -0.180703 -2.27784 0
M  V30 3055 C 280.576 -3.40768 -0.753552 0
M  V30 3056 C 281.924 -4.10587 -1.08184 0
M  V30 3057 O 282.948 -3.46106 -0.841961 0
M  V30 3058 O 281.807 -5.24512 -1.53459 0
M  V30 3059 H 278.901 -0.78301 -0.26613 0
M  V30 3060 H 281.447 -1.68347 0.213877 0
M  V30 3061 H 280.219 -3.90965 0.161829 0
M  V30 3062 H 279.842 -3.66733 -1.53598 0
M  V30 3063 N 280.839 0.0985539 -1.57292 0
M  V30 3064 C 281.786 1.11981 -2.01814 0
M  V30 3065 C 282.756 1.39999 -0.89384 0
M  V30 3066 O 283.941 1.5152 -1.15958 0
M  V30 3067 C 281.081 2.43577 -2.44467 0
M  V30 3068 C 280.194 2.2232 -3.70402 0
M  V30 3069 C 279.329 3.4729 -4.01949 0
M  V30 3070 C 278.368 3.2128 -5.21005 0
M  V30 3071 N 277.505 4.38507 -5.48321 0
M  V30 3072 H 282.345 0.733149 -2.88841 0
M  V30 3073 H 279.882 0.350482 -1.42864 0
M  V30 3074 H 281.84 3.20373 -2.6724 0
M  V30 3075 H 280.47 2.80097 -1.60455 0
M  V30 3076 H 279.522 1.36343 -3.55126 0
M  V30 3077 H 280.834 1.99089 -4.57345 0
M  V30 3078 H 279.988 4.32495 -4.25479 0
M  V30 3079 H 278.727 3.73572 -3.13521 0
M  V30 3080 H 277.732 2.34468 -4.97298 0
M  V30 3081 H 278.957 2.96348 -6.11028 0
M  V30 3082 H 276.903 4.64871 -4.62851 0
M  V30 3083 H 276.82 4.18455 -6.29628 0
M  V30 3084 H 278.088 5.24787 -5.76385 0
M  V30 3085 N 282.317 1.53212 0.369288 0
M  V30 3086 C 283.227 1.82342 1.47609 0
M  V30 3087 C 284.243 0.711532 1.58787 0
M  V30 3088 O 285.419 1.0012 1.74751 0
M  V30 3089 C 282.484 2.00393 2.8292 0
M  V30 3090 C 281.545 3.24297 2.81301 0
M  V30 3091 C 280.778 3.41478 4.10157 0
M  V30 3092 O 281.001 2.63033 5.06132 0
M  V30 3093 O 279.935 4.34817 4.16194 0
M  V30 3094 H 283.761 2.76366 1.25918 0
M  V30 3095 H 281.346 1.38547 0.559034 0
M  V30 3096 H 283.228 2.13859 3.63101 0
M  V30 3097 H 281.903 1.09559 3.04596 0
M  V30 3098 H 280.81 3.16257 1.99831 0
M  V30 3099 H 282.143 4.15041 2.64578 0
M  V30 3100 N 283.795 -0.628877 1.44509 0
M  V30 3101 C 284.742 -1.74074 1.51549 0
M  V30 3102 C 285.712 -1.62084 0.363021 0
M  V30 3103 O 286.897 -1.81975 0.573567 0
M  V30 3104 C 284.037 -3.12328 1.46784 0
M  V30 3105 C 283.15 -3.35277 2.72422 0
M  V30 3106 C 282.285 -4.63515 2.59475 0
M  V30 3107 C 281.324 -4.7965 3.80266 0
M  V30 3108 N 280.461 -5.99168 3.65981 0
M  V30 3109 H 285.301 -1.67392 2.46544 0
M  V30 3110 H 282.838 -0.816527 1.22357 0
M  V30 3111 H 284.796 -3.92286 1.42012 0
M  V30 3112 H 283.426 -3.18018 0.553544 0
M  V30 3113 H 282.478 -2.49242 2.87372 0
M  V30 3114 H 283.79 -3.43078 3.62076 0
M  V30 3115 H 282.944 -5.51638 2.52548 0
M  V30 3116 H 281.683 -4.58076 1.67384 0
M  V30 3117 H 280.688 -3.89957 3.87574 0
M  V30 3118 H 281.913 -4.86902 4.73395 0
M  V30 3119 H 279.859 -5.94814 2.76644 0
M  V30 3120 H 279.776 -6.08035 4.49254 0
M  V30 3121 H 281.044 -6.89846 3.6295 0
M  V30 3122 N 285.273 -1.31445 -0.869486 0
M  V30 3123 C 286.205 -1.14955 -1.98287 0
M  V30 3124 C 287.218 -0.0885037 -1.62559 0
M  V30 3125 O 288.407 -0.336044 -1.75308 0
M  V30 3126 C 285.507 -0.734255 -3.3085 0
M  V30 3127 C 284.68 -1.88042 -3.94917 0
M  V30 3128 C 283.739 -1.4511 -5.05796 0
M  V30 3129 O 282.765 -2.16082 -5.2659 0
M  V30 3130 N 283.967 -0.338763 -5.79511 0
M  V30 3131 H 286.732 -2.10856 -2.12979 0
M  V30 3132 H 284.293 -1.23786 -1.04349 0
M  V30 3133 H 286.285 -0.42975 -4.02412 0
M  V30 3134 H 284.855 0.133158 -3.12316 0
M  V30 3135 H 284.075 -2.35222 -3.1633 0
M  V30 3136 H 285.363 -2.6481 -4.34457 0
M  V30 3137 H 284.761 0.252274 -5.65137 0
M  V30 3138 H 283.318 -0.0937925 -6.51733 0
M  V30 3139 N 286.751 1.08385 -1.14413 0
M  V30 3140 C 287.998 1.80776 -0.912482 0
M  V30 3141 C 288.326 1.86236 0.560934 0
M  V30 3142 O 287.581 1.33431 1.43159 0
M  V30 3143 C 287.88 3.26273 -1.45879 0
M  V30 3144 C 287.546 3.4093 -2.95089 0
M  V30 3145 C 286.208 3.44638 -3.35824 0
M  V30 3146 C 288.56 3.44591 -3.91033 0
M  V30 3147 C 285.888 3.49597 -4.71167 0
M  V30 3148 C 288.24 3.51086 -5.26233 0
M  V30 3149 C 286.904 3.53067 -5.6648 0
M  V30 3150 H 286.174 0.661507 -0.333901 0
M  V30 3151 H 288.821 1.27613 -1.42784 0
M  V30 3152 H 287.126 3.82146 -0.864376 0
M  V30 3153 H 288.823 3.80839 -1.2555 0
M  V30 3154 H 285.413 3.38736 -2.62594 0
M  V30 3155 H 289.597 3.40957 -3.60641 0
M  V30 3156 H 284.853 3.49424 -5.0171 0
M  V30 3157 H 289.027 3.52864 -6.00383 0
M  V30 3158 H 286.654 3.56662 -6.71339 0
M  V30 3159 N 288.23 0.939286 1.26551 0
M  V30 3160 C 289.163 0.391702 2.24813 0
M  V30 3161 C 290.141 -0.518421 1.54114 0
M  V30 3162 O 291.325 -0.456299 1.82894 0
M  V30 3163 C 288.452 -0.437382 3.35864 0
M  V30 3164 C 287.498 0.410946 4.24516 0
M  V30 3165 S 288.331 1.83372 5.03125 0
M  V30 3166 C 289.487 1.01264 6.17654 0
M  V30 3167 H 289.72 1.22448 2.70913 0
M  V30 3168 H 287.253 0.742269 1.35387 0
M  V30 3169 H 289.211 -0.909837 4.0029 0
M  V30 3170 H 287.872 -1.24482 2.8838 0
M  V30 3171 H 287.065 -0.224191 5.03501 0
M  V30 3172 H 286.667 0.818014 3.64945 0
M  V30 3173 H 288.959 0.254023 6.77024 0
M  V30 3174 H 289.902 1.77589 6.85469 0
M  V30 3175 H 290.31 0.549532 5.61819 0
M  V30 3176 N 289.708 -1.40897 0.706093 0
M  V30 3177 C 290.656 -2.32572 0.0361893 0
M  V30 3178 C 291.65 -1.51532 -0.757266 0
M  V30 3179 O 292.856 -1.67396 -0.661703 0
M  V30 3180 H 289.231 -0.751966 -0.00709935 0
M  V30 3181 H 291.202 -2.86733 0.826249 0
M  V30 3182 C 289.951 -3.36418 -0.87854 0
M  V30 3183 H 289.274 -3.98836 -0.277401 0
M  V30 3184 H 290.714 -4.0308 -1.3154 0
M  V30 3185 C 289.173 -2.71141 -1.99961 0
M  V30 3186 O 289.703 -2.56735 -3.0895 0
M  V30 3187 N 287.909 -2.29671 -1.78043 0
M  V30 3188 H 287.456 -2.41588 -0.894042 0
M  V30 3189 H 287.414 -1.86332 -2.53235 0
M  V30 3190 N 291.186 -0.45159 -1.50991 0
M  V30 3191 C 292.116 0.342898 -2.30969 0
M  V30 3192 C 293.097 1.00815 -1.37005 0
M  V30 3193 O 294.282 1.00907 -1.65926 0
M  V30 3194 C 291.412 1.43637 -3.16205 0
M  V30 3195 C 290.366 0.893818 -4.18563 0
M  V30 3196 C 289.692 2.08411 -4.92411 0
M  V30 3197 C 290.992 -0.0815568 -5.22236 0
M  V30 3198 H 292.686 -0.324556 -2.97636 0
M  V30 3199 H 290.232 -0.157531 -1.43136 0
M  V30 3200 H 292.185 1.9995 -3.70942 0
M  V30 3201 H 290.909 2.13232 -2.47386 0
M  V30 3202 H 289.568 0.352798 -3.64898 0
M  V30 3203 H 289.216 2.76658 -4.20082 0
M  V30 3204 H 288.916 1.72741 -5.61636 0
M  V30 3205 H 290.44 2.65251 -5.49976 0
M  V30 3206 H 291.854 0.391742 -5.7196 0
M  V30 3207 H 290.251 -0.351551 -5.99069 0
M  V30 3208 H 291.321 -1.01374 -4.74185 0
M  V30 3209 N 292.664 1.56529 -0.183458 0
M  V30 3210 C 293.892 2.01623 0.464285 0
M  V30 3211 C 294.307 1.06366 1.55986 0
M  V30 3212 O 293.664 0.0665398 1.82379 0
M  V30 3213 C 293.715 3.46475 1.03139 0
M  V30 3214 O 293.436 4.38095 -0.0204675 0
M  V30 3215 C 294.937 4.0703 1.75617 0
M  V30 3216 H 292.157 0.660596 0.117704 0
M  V30 3217 H 294.701 2.02451 -0.288751 0
M  V30 3218 H 292.856 3.46383 1.73486 0
M  V30 3219 H 293.27 5.22973 0.399952 0
M  V30 3220 H 294.744 5.10271 2.10542 0
M  V30 3221 H 295.221 3.49819 2.65563 0
M  V30 3222 H 295.827 4.1086 1.09882 0
M  V30 3223 N 294.142 -0.090211 1.57342 0
M  V30 3224 C 295.09 -1.12792 2.03422 0
M  V30 3225 C 296.084 -1.41182 0.936166 0
M  V30 3226 O 297.29 -1.40805 1.12133 0
M  V30 3227 H 293.665 -0.380986 0.648347 0
M  V30 3228 H 295.636 -0.71299 2.89757 0
M  V30 3229 C 294.385 -2.43855 2.47851 0
M  V30 3230 H 293.708 -2.22855 3.31927 0
M  V30 3231 H 295.148 -3.14955 2.83865 0
M  V30 3232 C 293.607 -3.08503 1.3538 0
M  V30 3233 O 294.137 -3.95805 0.685641 0
M  V30 3234 N 292.343 -2.68831 1.10355 0
M  V30 3235 H 291.89 -1.97929 1.64869 0
M  V30 3236 H 291.848 -3.12412 0.353031 0
M  V30 3237 N 295.62 -1.53406 -0.361157 0
M  V30 3238 C 296.552 -1.76446 -1.46286 0
M  V30 3239 C 297.565 -0.645322 -1.49464 0
M  V30 3240 O 298.754 -0.921681 -1.52864 0
M  V30 3241 C 295.854 -1.83332 -2.85031 0
M  V30 3242 C 295.027 -3.13033 -3.05498 0
M  V30 3243 C 294.086 -3.11104 -4.24383 0
M  V30 3244 O 293.112 -3.84888 -4.19344 0
M  V30 3245 N 294.314 -2.32234 -5.32022 0
M  V30 3246 H 297.079 -2.71508 -1.26899 0
M  V30 3247 H 294.64 -1.52238 -0.550915 0
M  V30 3248 H 296.632 -1.79514 -3.62708 0
M  V30 3249 H 295.202 -0.955342 -2.97644 0
M  V30 3250 H 294.422 -3.30119 -2.15442 0
M  V30 3251 H 295.71 -3.9874 -3.16044 0
M  V30 3252 H 295.108 -1.71807 -5.38979 0
M  V30 3253 H 293.665 -2.3423 -6.08259 0
M  V30 3254 N 297.098 0.621204 -1.44841 0
M  V30 3255 C 298.375 1.38 -1.38619 0
M  V30 3256 C 298.755 2.11041 -0.0498935 0
M  V30 3257 O 298.103 2.06992 0.967816 0
M  V30 3258 C 298.313 2.33817 -2.59096 0
M  V30 3259 C 299.661 2.96844 -3.03593 0
M  V30 3260 O 300.685 2.44141 -2.59371 0
M  V30 3261 O 299.544 3.92476 -3.80296 0
M  V30 3262 H 296.638 0.61811 -0.549426 0
M  V30 3263 H 299.184 0.645429 -1.56947 0
M  V30 3264 H 297.956 1.79012 -3.47952 0
M  V30 3265 H 297.579 3.14676 -2.43032 0
M  V30 3266 N 298.576 1.31904 0.862503 0
M  V30 3267 C 299.823 1.22017 1.61611 0
M  V30 3268 C 300.151 -0.21991 1.93253 0
M  V30 3269 O 299.406 -1.17076 1.56817 0
M  V30 3270 C 299.705 2.01713 2.95037 0
M  V30 3271 C 299.371 3.51145 2.82857 0
M  V30 3272 C 298.033 3.91889 2.79243 0
M  V30 3273 C 300.385 4.46204 2.69353 0
M  V30 3274 C 297.713 5.25947 2.59993 0
M  V30 3275 C 300.065 5.80397 2.5164 0
M  V30 3276 C 298.729 6.20352 2.46413 0
M  V30 3277 H 297.999 0.44649 0.591378 0
M  V30 3278 H 300.646 1.63248 1.00111 0
M  V30 3279 H 298.951 1.53185 3.60613 0
M  V30 3280 H 300.648 1.91437 3.52353 0
M  V30 3281 H 297.238 3.1878 2.86491 0
M  V30 3282 H 301.422 4.15652 2.71196 0
M  V30 3283 H 296.678 5.5597 2.54376 0
M  V30 3284 H 300.852 6.53676 2.40169 0
M  V30 3285 H 298.479 7.24172 2.31256 0
M  V30 3286 N 300.054 -1.07777 1.14986 0
M  V30 3287 C 300.984 -2.16865 0.865557 0
M  V30 3288 C 301.965 -1.69123 -0.182083 0
M  V30 3289 O 303.15 -1.94164 -0.0373815 0
M  V30 3290 C 300.28 -3.45539 0.349313 0
M  V30 3291 C 299.234 -4.06708 1.33313 0
M  V30 3292 C 298.56 -5.30411 0.675918 0
M  V30 3293 C 299.86 -4.47241 2.69764 0
M  V30 3294 H 301.554 -2.40905 1.77778 0
M  V30 3295 H 299.1 -1.15781 0.856203 0
M  V30 3296 H 301.053 -4.21174 0.137983 0
M  V30 3297 H 299.777 -3.21072 -0.598362 0
M  V30 3298 H 298.436 -3.33112 1.53075 0
M  V30 3299 H 298.084 -5.02232 -0.277767 0
M  V30 3300 H 297.784 -5.72293 1.33244 0
M  V30 3301 H 299.308 -6.08755 0.474262 0
M  V30 3302 H 300.722 -5.14025 2.53873 0
M  V30 3303 H 299.119 -5.00062 3.3175 0
M  V30 3304 H 300.189 -3.58818 3.26156 0
M  V30 3305 N 301.532 -0.945985 -1.26051 0
M  V30 3306 C 302.465 -0.403619 -2.24602 0
M  V30 3307 C 303.443 0.510241 -1.54387 0
M  V30 3308 O 304.627 0.446593 -1.83133 0
M  V30 3309 C 301.754 0.419564 -3.36091 0
M  V30 3310 C 300.8 -0.433454 -4.24292 0
M  V30 3311 S 301.633 -1.86037 -5.02146 0
M  V30 3312 C 302.789 -1.04538 -6.17108 0
M  V30 3313 H 303.022 -1.23883 -2.7026 0
M  V30 3314 H 300.555 -0.749438 -1.34992 0
M  V30 3315 H 302.513 0.888595 -4.00767 0
M  V30 3316 H 301.174 1.22951 -2.89036 0
M  V30 3317 H 300.367 0.197486 -5.03613 0
M  V30 3318 H 299.969 -0.837357 -3.64506 0
M  V30 3319 H 302.261 -0.289923 -6.76879 0
M  V30 3320 H 303.204 -1.81222 -6.84518 0
M  V30 3321 H 303.612 -0.579319 -5.61519 0
M  V30 3322 N 303.011 1.40521 -0.713556 0
M  V30 3323 C 304.427 1.54839 -0.386907 0
M  V30 3324 C 304.627 1.68532 1.1045 0
M  V30 3325 O 303.683 1.67377 1.89053 0
M  V30 3326 C 304.996 2.77792 -1.15118 0
M  V30 3327 C 306.544 2.91607 -1.13729 0
M  V30 3328 C 307.019 4.1747 -1.88368 0
M  V30 3329 N 308.51 4.24466 -1.85427 0
M  V30 3330 C 309.245 5.20755 -2.40004 0
M  V30 3331 N 308.741 6.22965 -3.03129 0
M  V30 3332 N 310.534 5.1282 -2.30158 0
M  V30 3333 H 302.685 1.29879 -1.68063 0
M  V30 3334 H 304.948 0.627896 -0.710247 0
M  V30 3335 H 304.654 2.73944 -2.20561 0
M  V30 3336 H 304.528 3.6984 -0.741477 0
M  V30 3337 H 306.915 2.94959 -0.0910608 0
M  V30 3338 H 306.996 2.00682 -1.5862 0
M  V30 3339 H 306.64 4.1488 -2.9298 0
M  V30 3340 H 306.57 5.074 -1.40898 0
M  V30 3341 H 309.061 3.51241 -1.3942 0
M  V30 3342 H 309.374 6.92859 -3.42295 0
M  V30 3343 H 307.719 6.23415 -3.07212 0
M  V30 3344 H 310.91 4.31899 -1.80501 0
M  V30 3345 H 311.083 5.87689 -2.72993 0
M  V30 3346 N 304.489 0.459591 1.5075 0
M  V30 3347 C 305.735 -0.0994966 2.02556 0
M  V30 3348 C 306.068 -1.40399 1.3417 0
M  V30 3349 O 305.343 -1.88892 0.463683 0
M  V30 3350 C 305.626 -0.295242 3.58888 0
M  V30 3351 C 305.479 1.02947 4.37861 0
M  V30 3352 C 306.798 -1.05502 4.27267 0
M  V30 3353 H 303.917 -0.034686 0.736183 0
M  V30 3354 H 306.559 0.602938 1.8018 0
M  V30 3355 H 304.709 -0.893563 3.78084 0
M  V30 3356 H 306.381 1.66348 4.30263 0
M  V30 3357 H 304.624 1.62885 4.02058 0
M  V30 3358 H 305.295 0.846281 5.45474 0
M  V30 3359 H 307.771 -0.547993 4.12476 0
M  V30 3360 H 306.647 -1.16077 5.36486 0
M  V30 3361 H 306.908 -2.08875 3.89645 0
M  V30 3362 N 305.967 -1.56429 0.191757 0
M  V30 3363 C 306.877 -2.22541 -0.742481 0
M  V30 3364 C 307.893 -1.22342 -1.23727 0
M  V30 3365 O 309.069 -1.55069 -1.28513 0
M  V30 3366 C 306.134 -2.8692 -1.94623 0
M  V30 3367 C 305.195 -4.02378 -1.49633 0
M  V30 3368 C 304.428 -4.63678 -2.6427 0
M  V30 3369 O 304.651 -4.23895 -3.81666 0
M  V30 3370 O 303.585 -5.53202 -2.37174 0
M  V30 3371 H 307.411 -3.02977 -0.209462 0
M  V30 3372 H 304.996 -1.49353 -0.0373832 0
M  V30 3373 H 306.878 -3.27663 -2.64982 0
M  V30 3374 H 305.553 -2.09466 -2.46791 0
M  V30 3375 H 304.46 -3.66265 -0.761636 0
M  V30 3376 H 305.793 -4.81487 -1.02134 0
M  V30 3377 N 307.445 0.0818655 -1.57387 0
M  V30 3378 C 308.377 1.12484 -1.997 0
M  V30 3379 C 309.39 1.35564 -0.90146 0
M  V30 3380 O 310.579 1.33982 -1.17945 0
M  V30 3381 C 307.679 2.47778 -2.31213 0
M  V30 3382 C 306.852 2.44793 -3.62485 0
M  V30 3383 C 305.911 3.62117 -3.81782 0
M  V30 3384 O 304.937 3.44005 -4.53486 0
M  V30 3385 N 306.139 4.82094 -3.23367 0
M  V30 3386 H 308.904 0.764585 -2.89783 0
M  V30 3387 H 306.465 0.270664 -1.59621 0
M  V30 3388 H 308.457 3.24891 -2.41304 0
M  V30 3389 H 307.027 2.75843 -1.4707 0
M  V30 3390 H 306.247 1.53134 -3.6324 0
M  V30 3391 H 307.535 2.39889 -4.48699 0
M  V30 3392 H 306.933 4.99713 -2.65148 0
M  V30 3393 H 305.49 5.56753 -3.38923 0
M  V30 3394 N 308.923 1.53595 0.353017 0
M  V30 3395 C 310.169 1.70638 1.09593 0
M  V30 3396 C 310.502 0.463286 1.88593 0
M  V30 3397 O 309.777 -0.539597 1.86865 0
M  V30 3398 C 310.06 2.96406 2.04489 0
M  V30 3399 C 309.913 4.30901 1.29014 0
M  V30 3400 C 311.232 3.17812 3.0444 0
M  V30 3401 H 308.351 0.620913 0.397034 0
M  V30 3402 H 310.993 1.86254 0.375446 0
M  V30 3403 H 309.143 2.83223 2.65927 0
M  V30 3404 H 310.815 4.55917 0.702638 0
M  V30 3405 H 309.058 4.29741 0.592071 0
M  V30 3406 H 309.729 5.1506 1.98537 0
M  V30 3407 H 312.205 3.30263 2.53112 0
M  V30 3408 H 311.081 4.07223 3.6805 0
M  V30 3409 H 311.342 2.33669 3.75301 0
M  V30 3410 N 310.401 -0.613514 1.45168 0
M  V30 3411 C 311.364 -1.7065 1.53007 0
M  V30 3412 C 312.364 -1.5548 0.410184 0
M  V30 3413 O 313.554 -1.60656 0.673455 0
M  V30 3414 C 310.686 -3.09875 1.42093 0
M  V30 3415 H 311.879 -1.65068 2.50385 0
M  V30 3416 H 309.432 -0.828728 1.32521 0
M  V30 3417 H 310.167 -3.21039 0.458769 0
M  V30 3418 H 309.952 -3.22293 2.23315 0
M  V30 3419 H 311.442 -3.895 1.50598 0
M  V30 3420 N 311.879 -1.3236 -0.855495 0
M  V30 3421 C 313.109 -1.25688 -1.6397 0
M  V30 3422 C 313.517 0.177592 -1.88365 0
M  V30 3423 O 312.86 1.12485 -1.45234 0
M  V30 3424 C 312.922 -1.94602 -3.02275 0
M  V30 3425 C 312.586 -3.43937 -3.00926 0
M  V30 3426 C 313.583 -4.39435 -2.77835 0
M  V30 3427 C 311.268 -3.85858 -3.21588 0
M  V30 3428 C 313.262 -5.74829 -2.75409 0
M  V30 3429 C 310.949 -5.21361 -3.18789 0
M  V30 3430 C 311.947 -6.15658 -2.95727 0
M  V30 3431 O 311.635 -7.48681 -2.928 0
M  V30 3432 H 311.367 -0.434972 -0.51747 0
M  V30 3433 H 313.921 -1.75023 -1.075 0
M  V30 3434 H 312.151 -1.39836 -3.60531 0
M  V30 3435 H 313.84 -1.81651 -3.62985 0
M  V30 3436 H 314.606 -4.08374 -2.6164 0
M  V30 3437 H 310.485 -3.12883 -3.38564 0
M  V30 3438 H 314.029 -6.48404 -2.57328 0
M  V30 3439 H 309.926 -5.52052 -3.34528 0
M  V30 3440 H 310.694 -7.5803 -3.0876 0
M  V30 3441 N 313.357 1.07166 -1.15556 0
M  V30 3442 C 314.287 2.16403 -0.877046 0
M  V30 3443 C 315.268 1.69217 0.173111 0
M  V30 3444 O 316.453 1.94181 0.027084 0
M  V30 3445 C 313.583 3.45349 -0.367632 0
M  V30 3446 C 312.537 4.05995 -1.35468 0
M  V30 3447 C 311.863 5.30045 -0.704038 0
M  V30 3448 C 313.163 4.45804 -2.72132 0
M  V30 3449 H 314.857 2.39959 -1.79053 0
M  V30 3450 H 312.403 1.15325 -0.862331 0
M  V30 3451 H 314.356 4.21095 -0.160317 0
M  V30 3452 H 313.08 3.21385 0.581326 0
M  V30 3453 H 311.739 3.32296 -1.54839 0
M  V30 3454 H 311.387 5.02373 0.251128 0
M  V30 3455 H 311.087 5.71579 -1.36277 0
M  V30 3456 H 312.611 6.08495 -0.50654 0
M  V30 3457 H 314.025 5.12671 -2.56595 0
M  V30 3458 H 312.422 4.98296 -3.34397 0
M  V30 3459 H 313.492 3.57083 -3.28054 0
M  V30 3460 N 314.835 0.952656 1.25548 0
M  V30 3461 C 316.063 0.623496 1.97282 0
M  V30 3462 C 316.478 -0.803987 1.70826 0
M  V30 3463 O 315.835 -1.53755 0.983147 0
M  V30 3464 C 315.886 0.870209 3.5087 0
M  V30 3465 O 315.607 2.24156 3.76412 0
M  V30 3466 C 317.108 0.553164 4.39835 0
M  V30 3467 H 314.328 0.233931 0.628902 0
M  V30 3468 H 316.872 1.27649 1.59768 0
M  V30 3469 H 315.027 0.263652 3.86502 0
M  V30 3470 H 315.441 2.31021 4.70882 0
M  V30 3471 H 316.915 0.776342 5.46513 0
M  V30 3472 H 317.392 -0.512215 4.36203 0
M  V30 3473 H 317.998 1.13896 4.09766 0
M  V30 3474 N 316.313 -1.40141 0.720998 0
M  V30 3475 C 317.59 -1.94677 0.189757 0
M  V30 3476 C 317.97 -1.65879 -1.30566 0
M  V30 3477 O 317.318 -0.979391 -2.06447 0
M  V30 3478 C 317.528 -3.45279 0.508304 0
M  V30 3479 C 318.876 -4.22209 0.449934 0
M  V30 3480 O 319.9 -3.53413 0.444677 0
M  V30 3481 O 318.759 -5.44788 0.432189 0
M  V30 3482 H 315.853 -0.826459 0.0299026 0
M  V30 3483 H 318.399 -1.49719 0.7989 0
M  V30 3484 H 317.171 -3.59619 1.54239 0
M  V30 3485 H 316.794 -3.97386 -0.130525 0
M  V30 3486 N 317.792 -0.46758 -1.50504 0
M  V30 3487 C 319.04 0.0884469 -2.01906 0
M  V30 3488 C 319.361 1.40532 -1.35188 0
M  V30 3489 O 318.631 1.89515 -0.496079 0
M  V30 3490 H 317.211 0.0356765 -0.746148 0
M  V30 3491 H 319.873 -0.6172 -1.84869 0
M  V30 3492 H 318.969 0.2425 -3.11156 0
M  V30 3493 N 319.27 1.56325 -0.20005 0
M  V30 3494 C 320.686 1.58839 0.155716 0
M  V30 3495 C 320.886 1.21636 1.60645 0
M  V30 3496 O 319.942 0.941437 2.34293 0
M  V30 3497 C 321.255 3.0032 -0.151124 0
M  V30 3498 C 322.803 3.12866 -0.0916284 0
M  V30 3499 C 323.278 4.56488 -0.371845 0
M  V30 3500 N 324.769 4.62089 -0.320641 0
M  V30 3501 C 325.504 5.71116 -0.511243 0
M  V30 3502 N 325 6.88592 -0.762461 0
M  V30 3503 N 326.793 5.60335 -0.445157 0
M  V30 3504 H 318.944 1.78788 -1.14668 0
M  V30 3505 H 321.207 0.829996 -0.458051 0
M  V30 3506 H 320.913 3.32117 -1.15721 0
M  V30 3507 H 320.787 3.73257 0.543986 0
M  V30 3508 H 323.174 2.80878 0.905065 0
M  V30 3509 H 323.255 2.42304 -0.81989 0
M  V30 3510 H 322.899 4.89189 -1.36588 0
M  V30 3511 H 322.829 5.25246 0.377362 0
M  V30 3512 H 325.32 3.77665 -0.13329 0
M  V30 3513 H 325.633 7.67581 -0.896576 0
M  V30 3514 H 323.978 6.90387 -0.799412 0
M  V30 3515 H 327.169 4.67436 -0.249278 0
M  V30 3516 H 327.342 6.45243 -0.597116 0
M  V30 3517 N 320.748 -0.0735177 1.57428 0
M  V30 3518 C 321.976 -0.785969 1.9139 0
M  V30 3519 C 322.391 -1.71207 0.795847 0
M  V30 3520 O 321.748 -1.81033 -0.230915 0
M  V30 3521 C 321.799 -1.58107 3.25091 0
M  V30 3522 O 321.52 -0.6922 4.32597 0
M  V30 3523 C 323.021 -2.39467 3.73055 0
M  V30 3524 H 320.241 -0.223558 0.632663 0
M  V30 3525 H 322.785 -0.044302 2.04452 0
M  V30 3526 H 320.94 -2.27503 3.13562 0
M  V30 3527 H 321.354 -1.24504 5.09508 0
M  V30 3528 H 322.828 -2.90716 4.69242 0
M  V30 3529 H 323.305 -3.18913 3.01979 0
M  V30 3530 H 323.911 -1.7523 3.87523 0
M  V30 3531 N 322.226 -1.5378 -0.344866 0
M  V30 3532 C 323.473 -1.70963 -1.08526 0
M  V30 3533 C 323.801 -0.472126 -1.88683 0
M  V30 3534 O 323.056 0.546116 -1.87926 0
M  V30 3535 C 323.355 -2.92407 -2.05506 0
M  V30 3536 C 323.021 -4.28066 -1.41671 0
M  V30 3537 C 321.683 -4.64951 -1.2399 0
M  V30 3538 C 324.035 -5.12344 -0.956726 0
M  V30 3539 C 321.363 -5.83733 -0.589277 0
M  V30 3540 C 323.715 -6.3179 -0.320015 0
M  V30 3541 C 322.379 -6.67372 -0.130881 0
M  V30 3542 H 321.649 -0.625598 -0.397124 0
M  V30 3543 H 324.296 -1.87995 -0.36469 0
M  V30 3544 H 322.601 -2.69973 -2.8394 0
M  V30 3545 H 324.298 -3.02895 -2.62784 0
M  V30 3546 H 320.888 -3.99034 -1.56429 0
M  V30 3547 H 325.072 -4.8438 -1.08118 0
M  V30 3548 H 320.328 -6.09877 -0.431344 0
M  V30 3549 H 324.502 -6.96386 0.0445072 0
M  V30 3550 H 322.129 -7.59273 0.375318 0
M  V30 3551 N 323.704 0.605807 -1.45491 0
M  V30 3552 C 324.614 1.74466 -1.56839 0
M  V30 3553 C 325.63 1.68006 -0.452772 0
M  V30 3554 O 326.806 1.8833 -0.713708 0
M  V30 3555 C 323.871 3.10931 -1.53371 0
M  V30 3556 C 322.932 3.28832 -2.75986 0
M  V30 3557 C 322.165 4.58787 -2.72673 0
M  V30 3558 O 322.388 5.4122 -1.80102 0
M  V30 3559 O 321.322 4.79438 -3.63899 0
M  V30 3560 H 325.148 1.67843 -2.53106 0
M  V30 3561 H 322.733 0.770108 -1.28022 0
M  V30 3562 H 324.615 3.92233 -1.54051 0
M  V30 3563 H 323.29 3.18042 -0.602572 0
M  V30 3564 H 322.197 2.47112 -2.80867 0
M  V30 3565 H 323.53 3.26599 -3.68231 0
M  V30 3566 N 325.182 1.32811 0.848464 0
M  V30 3567 C 326.412 1.26556 1.63301 0
M  V30 3568 C 326.82 -0.1676 1.88456 0
M  V30 3569 O 326.163 -1.11713 1.45828 0
M  V30 3570 C 326.225 1.96202 3.01239 0
M  V30 3571 C 325.889 3.45528 2.99098 0
M  V30 3572 C 326.886 4.40903 2.75501 0
M  V30 3573 C 324.571 3.87558 3.19537 0
M  V30 3574 C 326.565 5.76282 2.72356 0
M  V30 3575 C 324.252 5.23044 3.16019 0
M  V30 3576 C 325.25 6.17217 2.92458 0
M  V30 3577 O 324.938 7.50223 2.88825 0
M  V30 3578 H 324.67 0.43771 0.515156 0
M  V30 3579 H 327.224 1.7559 1.0657 0
M  V30 3580 H 325.454 1.41746 3.59785 0
M  V30 3581 H 327.143 1.83573 3.62016 0
M  V30 3582 H 327.909 4.09756 2.5947 0
M  V30 3583 H 323.788 3.14674 3.369 0
M  V30 3584 H 327.332 6.4976 2.53886 0
M  V30 3585 H 323.229 5.53818 3.31596 0
M  V30 3586 H 323.997 7.59657 3.04735 0
M  V30 3587 N 326.66 -1.06551 1.16123 0
M  V30 3588 C 327.885 -1.83544 0.965735 0
M  V30 3589 C 328.31 -1.81843 -0.481102 0
M  V30 3590 O 327.668 -1.21732 -1.34354 0
M  V30 3591 C 327.716 -3.28169 1.49457 0
M  V30 3592 O 326.82 -4.0643 0.699157 0
M  V30 3593 H 326.161 -0.568026 0.343864 0
M  V30 3594 H 328.691 -1.34362 1.54299 0
M  V30 3595 H 328.701 -3.78992 1.51092 0
M  V30 3596 H 327.376 -3.28722 2.54784 0
M  V30 3597 H 325.953 -3.65216 0.7531 0
M  V30 3598 N 328.138 -0.959301 -1.25041 0
M  V30 3599 C 329.368 -0.63303 -1.96663 0
M  V30 3600 C 329.776 0.800031 -1.71453 0
M  V30 3601 O 329.119 1.54736 -0.99008 0
M  V30 3602 C 329.181 -0.817523 -3.50081 0
M  V30 3603 C 328.845 -2.22863 -3.98975 0
M  V30 3604 C 329.842 -3.20569 -4.09306 0
M  V30 3605 C 327.527 -2.55407 -4.32519 0
M  V30 3606 C 329.521 -4.4891 -4.52503 0
M  V30 3607 C 327.208 -3.83976 -4.754 0
M  V30 3608 C 328.206 -4.8054 -4.85356 0
M  V30 3609 O 327.894 -6.06817 -5.27284 0
M  V30 3610 H 327.626 -0.235866 -0.633516 0
M  V30 3611 H 330.18 -1.2874 -1.60047 0
M  V30 3612 H 328.41 -0.105992 -3.86555 0
M  V30 3613 H 330.099 -0.491604 -4.02912 0
M  V30 3614 H 330.865 -2.96753 -3.83618 0
M  V30 3615 H 326.744 -1.8097 -4.23994 0
M  V30 3616 H 330.288 -5.24283 -4.60188 0
M  V30 3617 H 326.185 -4.07596 -5.00535 0
M  V30 3618 H 326.953 -6.10262 -5.45457 0
M  V30 3619 N 329.616 1.39756 -0.72842 0
M  V30 3620 C 330.579 2.29012 -0.0927297 0
M  V30 3621 C 331.579 1.45992 0.674025 0
M  V30 3622 O 332.769 1.66749 0.50402 0
M  V30 3623 C 329.901 3.29396 0.878137 0
M  V30 3624 H 331.094 2.86729 -0.879011 0
M  V30 3625 H 328.647 1.48293 -0.493847 0
M  V30 3626 H 329.382 2.76722 1.69101 0
M  V30 3627 H 329.167 3.907 0.331051 0
M  V30 3628 H 330.657 3.96199 1.3197 0
M  V30 3629 N 331.094 0.475555 1.50254 0
M  V30 3630 C 332.371 -0.139685 1.95101 0
M  V30 3631 C 332.751 -1.56555 1.41611 0
M  V30 3632 O 332.099 -2.19956 0.618993 0
M  V30 3633 C 332.309 -0.0784298 3.48912 0
M  V30 3634 C 333.657 -0.265095 4.23772 0
M  V30 3635 O 334.681 -0.154808 3.55863 0
M  V30 3636 O 333.54 -0.488327 5.44314 0
M  V30 3637 H 330.634 -0.109236 0.819754 0
M  V30 3638 H 333.18 0.536276 1.61004 0
M  V30 3639 H 331.952 0.916918 3.80405 0
M  V30 3640 H 331.575 -0.795655 3.89558 0
M  V30 3641 N 332.573 -1.56217 0.208337 0
M  V30 3642 C 333.523 -2.16324 -0.720281 0
M  V30 3643 C 334.507 -1.10775 -1.16695 0
M  V30 3644 O 335.699 -1.36801 -1.12314 0
M  V30 3645 C 332.828 -2.83644 -1.93393 0
M  V30 3646 C 331.914 -3.96401 -1.50755 0
M  V30 3647 N 332.305 -4.99546 -0.792937 0
M  V30 3648 C 330.603 -4.08246 -1.79585 0
M  V30 3649 C 331.304 -5.78828 -0.577364 0
M  V30 3650 N 330.28 -5.31723 -1.1301 0
M  V30 3651 H 334.082 -2.93432 -0.165725 0
M  V30 3652 H 331.596 -1.62397 0.00906463 0
M  V30 3653 H 333.593 -3.25107 -2.60981 0
M  V30 3654 H 332.253 -2.08027 -2.49308 0
M  V30 3655 H 333.264 -5.15967 -0.447004 0
M  V30 3656 H 329.941 -3.4377 -2.36915 0
M  V30 3657 H 331.331 -6.71899 -0.00952956 0
M  V30 3658 N 334.051 0.0651679 -1.57465 0
M  V30 3659 C 334.981 1.07693 -2.07182 0
M  V30 3660 C 335.962 1.39962 -0.966673 0
M  V30 3661 O 337.147 1.49475 -1.2398 0
M  V30 3662 C 334.277 2.3885 -2.52127 0
M  V30 3663 C 333.231 2.20917 -3.66579 0
M  V30 3664 C 332.557 3.57515 -3.97601 0
M  V30 3665 C 333.857 1.62493 -4.9638 0
M  V30 3666 H 335.551 0.663199 -2.91962 0
M  V30 3667 H 333.097 0.317569 -1.40455 0
M  V30 3668 H 335.05 3.09928 -2.85522 0
M  V30 3669 H 333.774 2.82215 -1.64384 0
M  V30 3670 H 332.433 1.52279 -3.33477 0
M  V30 3671 H 332.081 3.98463 -3.06979 0
M  V30 3672 H 331.781 3.46353 -4.74672 0
M  V30 3673 H 333.305 4.30013 -4.33499 0
M  V30 3674 H 334.719 2.23445 -5.27963 0
M  V30 3675 H 333.116 1.62009 -5.77818 0
M  V30 3676 H 334.186 0.587041 -4.81333 0
M  V30 3677 N 335.529 1.53961 0.336706 0
M  V30 3678 C 336.94 1.62914 0.911925 0
M  V30 3679 C 337.291 0.514795 1.89326 0
M  V30 3680 O 336.416 -0.354395 2.13478 0
M  V30 3681 C 337.011 2.95304 1.66076 0
M  V30 3682 C 335.57 3.06496 2.18489 0
M  V30 3683 C 334.717 2.58403 1.00613 0
M  V30 3684 H 337.668 1.58285 0.114649 0
M  V30 3685 H 337.689 2.84727 2.5241 0
M  V30 3686 H 337.201 3.76387 0.946276 0
M  V30 3687 H 335.302 2.3006 2.93092 0
M  V30 3688 H 335.415 4.1208 2.44391 0
M  V30 3689 H 333.779 2.13977 1.38152 0
M  V30 3690 H 334.562 3.41932 0.306179 0
M  V30 3691 N 337.007 -0.598083 1.45811 0
M  V30 3692 C 337.917 -1.73632 1.57763 0
M  V30 3693 C 338.933 -1.67763 0.461676 0
M  V30 3694 O 340.109 -1.87949 0.723685 0
M  V30 3695 C 337.174 -3.10114 1.55018 0
M  V30 3696 C 336.235 -3.27364 2.77726 0
M  V30 3697 C 335.468 -4.57334 2.75102 0
M  V30 3698 O 335.691 -5.40258 1.8297 0
M  V30 3699 O 334.625 -4.77502 3.66437 0
M  V30 3700 H 338.451 -1.66498 2.53992 0
M  V30 3701 H 336.036 -0.763308 1.28429 0
M  V30 3702 H 337.918 -3.9141 1.56129 0
M  V30 3703 H 336.593 -3.17718 0.619431 0
M  V30 3704 H 335.5 -2.45619 2.82174 0
M  V30 3705 H 336.833 -3.24641 3.69958 0
M  V30 3706 N 338.485 -1.33259 -0.841409 0
M  V30 3707 C 339.713 -1.27605 -1.62864 0
M  V30 3708 C 340.128 0.153507 -1.88175 0
M  V30 3709 O 339.485 1.09485 -1.46011 0
M  V30 3710 C 339.536 -2.04596 -2.98031 0
M  V30 3711 O 339.257 -3.41975 -2.73834 0
M  V30 3712 C 340.758 -2.06122 -3.92465 0
M  V30 3713 H 337.978 -0.439718 -0.506842 0
M  V30 3714 H 340.522 -1.75591 -1.04824 0
M  V30 3715 H 338.677 -1.60299 -3.5268 0
M  V30 3716 H 339.091 -3.81549 -3.59889 0
M  V30 3717 H 340.565 -2.64451 -4.84531 0
M  V30 3718 H 341.042 -1.05083 -4.26444 0
M  V30 3719 H 341.648 -2.50427 -3.43753 0
M  V30 3720 N 339.963 1.05934 -1.16686 0
M  V30 3721 C 341.21 1.788 -0.950622 0
M  V30 3722 C 341.538 1.87384 0.521305 0
M  V30 3723 O 340.793 1.36438 1.40297 0
M  V30 3724 C 341.092 3.23105 -1.52767 0
M  V30 3725 C 340.758 3.34594 -3.02254 0
M  V30 3726 C 339.42 3.37437 -3.43059 0
M  V30 3727 C 341.772 3.36219 -3.98254 0
M  V30 3728 C 339.1 3.39525 -4.78477 0
M  V30 3729 C 341.452 3.39845 -5.33562 0
M  V30 3730 C 340.116 3.40971 -5.73842 0
M  V30 3731 H 339.386 0.654275 -0.347857 0
M  V30 3732 H 342.033 1.24555 -1.45459 0
M  V30 3733 H 340.338 3.80227 -0.94524 0
M  V30 3734 H 342.035 3.7809 -1.336 0
M  V30 3735 H 338.625 3.3309 -2.6972 0
M  V30 3736 H 342.809 3.33231 -3.67792 0
M  V30 3737 H 338.065 3.38703 -5.09009 0
M  V30 3738 H 342.239 3.4005 -6.07733 0
M  V30 3739 H 339.866 3.42342 -6.78753 0
M  V30 3740 N 341.441 0.965919 1.2453 0
M  V30 3741 C 342.351 0.502154 2.29163 0
M  V30 3742 C 343.367 -0.436017 1.68448 0
M  V30 3743 O 344.543 -0.309497 1.99008 0
M  V30 3744 C 341.608 -0.201956 3.46111 0
M  V30 3745 C 340.669 0.775821 4.22232 0
M  V30 3746 C 339.902 0.105217 5.33596 0
M  V30 3747 O 340.125 -1.10683 5.59558 0
M  V30 3748 O 339.059 0.796475 5.96607 0
M  V30 3749 H 342.885 1.37194 2.70946 0
M  V30 3750 H 340.47 0.732875 1.30189 0
M  V30 3751 H 342.352 -0.597564 4.17142 0
M  V30 3752 H 341.027 -1.04673 3.06309 0
M  V30 3753 H 339.934 1.22185 3.53584 0
M  V30 3754 H 341.267 1.58896 4.65846 0
M  V30 3755 N 342.919 -1.39368 0.735821 0
M  V30 3756 C 344.166 -2.00497 0.284123 0
M  V30 3757 C 344.494 -1.58387 -1.12889 0
M  V30 3758 O 343.749 -0.804359 -1.78406 0
M  V30 3759 C 344.048 -3.5583 0.334651 0
M  V30 3760 C 343.714 -4.17593 1.7008 0
M  V30 3761 C 342.376 -4.34176 2.07472 0
M  V30 3762 C 344.728 -4.51848 2.59775 0
M  V30 3763 C 342.056 -4.82304 3.34065 0
M  V30 3764 C 344.408 -5.01384 3.85741 0
M  V30 3765 C 343.072 -5.16175 4.23225 0
M  V30 3766 H 342.342 -0.73367 0.103968 0
M  V30 3767 H 344.989 -1.66683 0.942825 0
M  V30 3768 H 343.294 -3.89674 -0.407625 0
M  V30 3769 H 344.991 -4.00986 -0.0329927 0
M  V30 3770 H 341.581 -4.05087 1.40008 0
M  V30 3771 H 345.765 -4.38653 2.32157 0
M  V30 3772 H 341.021 -4.91941 3.63049 0
M  V30 3773 H 345.195 -5.26863 4.55399 0
M  V30 3774 H 342.822 -5.5323 5.21384 0
M  V30 3775 N 344.397 -0.483516 -1.5 0
M  V30 3776 C 345.307 0.309172 -2.32554 0
M  V30 3777 C 346.323 0.984159 -1.43493 0
M  V30 3778 O 347.499 0.969399 -1.76535 0
M  V30 3779 C 344.564 1.36979 -3.18493 0
M  V30 3780 C 343.625 0.710095 -4.23387 0
M  V30 3781 C 342.858 1.72018 -5.05218 0
M  V30 3782 O 343.081 2.94813 -4.88305 0
M  V30 3783 O 342.015 1.28515 -5.8802 0
M  V30 3784 H 345.841 -0.366064 -3.01486 0
M  V30 3785 H 343.426 -0.24514 -1.47375 0
M  V30 3786 H 345.308 1.98385 -3.71781 0
M  V30 3787 H 343.983 2.02828 -2.52275 0
M  V30 3788 H 342.89 0.0567539 -3.74057 0
M  V30 3789 H 344.223 0.0943557 -4.9211 0
M  V30 3790 N 345.875 1.56104 -0.216619 0
M  V30 3791 C 347.103 2.02563 0.421413 0
M  V30 3792 C 347.518 1.0965 1.53695 0
M  V30 3793 O 346.875 0.10521 1.82196 0
M  V30 3794 C 346.926 3.48584 0.957665 0
M  V30 3795 O 346.647 4.37953 -0.113389 0
M  V30 3796 C 348.148 4.10664 1.66943 0
M  V30 3797 H 345.368 0.662944 0.103665 0
M  V30 3798 H 347.912 2.01793 -0.331629 0
M  V30 3799 H 346.067 3.49985 1.661 0
M  V30 3800 H 346.481 5.23704 0.288932 0
M  V30 3801 H 347.955 5.14622 1.99671 0
M  V30 3802 H 348.432 3.55373 2.58083 0
M  V30 3803 H 349.038 4.13098 1.01142 0
M  V30 3804 N 347.353 -0.0568162 1.57498 0
M  V30 3805 C 348.599 -0.75422 1.88253 0
M  V30 3806 C 348.932 -1.76461 0.810865 0
M  V30 3807 O 348.207 -1.93691 -0.177259 0
M  V30 3808 C 348.49 -1.44878 3.2967 0
M  V30 3809 C 348.343 -0.453789 4.47505 0
M  V30 3810 C 349.662 -2.38994 3.69554 0
M  V30 3811 H 346.781 -0.272724 0.684683 0
M  V30 3812 H 349.423 -0.0172113 1.89992 0
M  V30 3813 H 347.573 -2.077 3.28318 0
M  V30 3814 H 349.245 0.170371 4.60985 0
M  V30 3815 H 347.488 0.229552 4.33192 0
M  V30 3816 H 348.159 -0.977699 5.43273 0
M  V30 3817 H 350.635 -1.86239 3.72095 0
M  V30 3818 H 349.511 -2.84587 4.69363 0
M  V30 3819 H 349.772 -3.24461 3.00296 0
M  V30 3820 N 348.832 -1.54138 -0.328536 0
M  V30 3821 C 350.081 -1.71318 -1.06456 0
M  V30 3822 C 350.394 -0.491109 -1.89334 0
M  V30 3823 O 351.6 -0.54416 -2.65991 0
M  V30 3824 C 350.056 -3.03 -1.94214 0
M  V30 3825 C 349.664 -4.32595 -1.16471 0
M  V30 3826 C 351.408 -3.29544 -2.67583 0
M  V30 3827 C 349.315 -5.55341 -2.03347 0
M  V30 3828 H 348.245 -0.638429 -0.401155 0
M  V30 3829 H 350.896 -1.80633 -0.323106 0
M  V30 3830 H 349.278 -2.87579 -2.72239 0
M  V30 3831 H 350.452 -4.58766 -0.432525 0
M  V30 3832 H 348.767 -4.12777 -0.548063 0
M  V30 3833 H 351.364 -4.18444 -3.3288 0
M  V30 3834 H 351.707 -2.47206 -3.34955 0
M  V30 3835 H 352.24 -3.45809 -1.96623 0
M  V30 3836 H 348.979 -6.40268 -1.40491 0
M  V30 3837 H 348.499 -5.33397 -2.74313 0
M  V30 3838 H 350.178 -5.91557 -2.62049 0
M  V30 3839 N 350.31 0.590341 -1.46126 0
M  V30 3840 C 351.538 1.37504 -1.54597 0
M  V30 3841 C 351.953 1.87897 -0.184447 0
M  V30 3842 O 351.31 1.63192 0.816984 0
M  V30 3843 C 351.361 2.56779 -2.54454 0
M  V30 3844 O 351.082 2.08476 -3.85317 0
M  V30 3845 C 352.583 3.49427 -2.72792 0
M  V30 3846 H 349.803 0.420325 -0.523037 0
M  V30 3847 H 352.347 0.718383 -1.91467 0
M  V30 3848 H 350.502 3.1845 -2.20609 0
M  V30 3849 H 350.916 2.86097 -4.396 0
M  V30 3850 H 352.39 4.29619 -3.466 0
M  V30 3851 H 352.867 4.00876 -1.79429 0
M  V30 3852 H 353.473 2.93598 -3.07702 0
M  V30 3853 N 351.788 1.33704 0.83433 0
M  V30 3854 C 352.751 1.24244 1.92603 0
M  V30 3855 C 353.751 0.160383 1.59998 0
M  V30 3856 O 354.941 0.412228 1.69252 0
M  V30 3857 C 352.073 0.91555 3.28376 0
M  V30 3858 H 353.266 2.21287 2.02416 0
M  V30 3859 H 350.819 1.17827 1.02696 0
M  V30 3860 H 351.554 -0.0521886 3.24258 0
M  V30 3861 H 351.339 1.69811 3.53422 0
M  V30 3862 H 352.829 0.874231 4.08347 0
M  V30 3863 N 353.266 -1.05314 1.17247 0
M  V30 3864 C 354.213 -2.13031 0.888058 0
M  V30 3865 C 355.183 -1.65253 -0.167537 0
M  V30 3866 O 356.368 -1.90775 -0.0305974 0
M  V30 3867 C 353.508 -3.42702 0.406147 0
M  V30 3868 C 352.621 -4.04161 1.52572 0
M  V30 3869 C 351.756 -5.21744 0.997808 0
M  V30 3870 C 350.795 -5.75207 2.09291 0
M  V30 3871 N 349.932 -6.84094 1.57986 0
M  V30 3872 H 354.772 -2.36698 1.81048 0
M  V30 3873 H 352.309 -1.16121 0.903013 0
M  V30 3874 H 354.267 -4.17059 0.108305 0
M  V30 3875 H 352.897 -3.19222 -0.479313 0
M  V30 3876 H 351.949 -3.27253 1.93931 0
M  V30 3877 H 353.261 -4.39881 2.35172 0
M  V30 3878 H 352.415 -6.03168 0.653739 0
M  V30 3879 H 351.154 -4.87495 0.141232 0
M  V30 3880 H 350.159 -4.92414 2.44557 0
M  V30 3881 H 351.384 -6.11505 2.95362 0
M  V30 3882 H 349.33 -6.51745 0.74598 0
M  V30 3883 H 349.247 -7.18811 2.34195 0
M  V30 3884 H 350.515 -7.69172 1.26468 0
M  V30 3885 N 354.744 -0.972509 -1.24016 0
M  V30 3886 C 355.969 -0.654417 -1.96805 0
M  V30 3887 C 356.394 0.770398 -1.716 0
M  V30 3888 O 355.752 1.52361 -0.982647 0
M  V30 3889 C 355.8 -0.941031 -3.48105 0
M  V30 3890 O 354.904 -0.0289472 -4.1239 0
M  V30 3891 H 354.245 -0.24692 -0.616382 0
M  V30 3892 H 356.775 -1.30396 -1.57664 0
M  V30 3893 H 356.785 -0.87452 -3.98517 0
M  V30 3894 H 355.46 -1.97939 -3.65777 0
M  V30 3895 H 354.037 -0.149192 -3.72601 0
M  V30 3896 N 356.222 1.38976 -0.743202 0
M  V30 3897 C 357.452 2.04339 -0.304807 0
M  V30 3898 C 357.86 1.56162 1.06819 0
M  V30 3899 O 357.203 0.725284 1.68776 0
M  V30 3900 C 357.265 3.58716 -0.237369 0
M  V30 3901 C 356.929 4.29905 -1.55018 0
M  V30 3902 C 357.926 4.55987 -2.49744 0
M  V30 3903 C 355.611 4.68294 -1.81675 0
M  V30 3904 C 357.605 5.19478 -3.69353 0
M  V30 3905 C 355.292 5.31512 -3.0156 0
M  V30 3906 C 356.29 5.57037 -3.9522 0
M  V30 3907 O 355.978 6.18941 -5.12998 0
M  V30 3908 H 355.71 0.663439 -0.12971 0
M  V30 3909 H 358.264 1.78852 -1.01001 0
M  V30 3910 H 356.494 3.83133 0.524003 0
M  V30 3911 H 358.183 4.05543 0.170121 0
M  V30 3912 H 358.949 4.26767 -2.30423 0
M  V30 3913 H 354.828 4.47779 -1.09615 0
M  V30 3914 H 358.372 5.39318 -4.42473 0
M  V30 3915 H 354.269 5.60153 -3.20778 0
M  V30 3916 H 355.037 6.37433 -5.13441 0
M  V30 3917 N 357.7 0.491464 1.49741 0
M  V30 3918 C 358.647 -0.292027 2.28945 0
M  V30 3919 C 359.617 -0.968973 1.34908 0
M  V30 3920 O 360.802 -0.97748 1.6386 0
M  V30 3921 C 357.942 -1.35617 3.17336 0
M  V30 3922 C 357.055 -0.691957 4.26422 0
M  V30 3923 C 356.19 -1.73572 5.02042 0
M  V30 3924 C 355.229 -1.05286 6.02977 0
M  V30 3925 N 354.366 -2.0404 6.71798 0
M  V30 3926 H 359.206 0.389654 2.95442 0
M  V30 3927 H 356.743 0.204003 1.45679 0
M  V30 3928 H 358.701 -1.98502 3.66951 0
M  V30 3929 H 357.331 -2.00674 2.52844 0
M  V30 3930 H 356.383 0.0499523 3.80367 0
M  V30 3931 H 357.695 -0.153946 4.98562 0
M  V30 3932 H 356.849 -2.43987 5.55478 0
M  V30 3933 H 355.588 -2.30757 4.29654 0
M  V30 3934 H 354.593 -0.334446 5.48782 0
M  V30 3935 H 355.818 -0.487636 6.77347 0
M  V30 3936 H 353.764 -2.60205 6.02187 0
M  V30 3937 H 353.681 -1.55279 7.39881 0
M  V30 3938 H 354.949 -2.73772 7.29842 0
M  V30 3939 N 359.178 -1.55987 0.224894 0
M  V30 3940 C 360.088 -2.24066 -0.69511 0
M  V30 3941 C 361.104 -1.24939 -1.21104 0
M  V30 3942 O 362.28 -1.5776 -1.25195 0
M  V30 3943 C 359.345 -2.90983 -1.88493 0
M  V30 3944 C 358.406 -4.05462 -1.41064 0
M  V30 3945 C 357.639 -4.69179 -2.54375 0
M  V30 3946 O 357.862 -4.31895 -3.72589 0
M  V30 3947 O 356.796 -5.58108 -2.25386 0
M  V30 3948 H 360.622 -3.03353 -0.145149 0
M  V30 3949 H 358.207 -1.49399 -0.00569476 0
M  V30 3950 H 360.089 -3.33209 -2.57972 0
M  V30 3951 H 358.764 -2.14653 -2.42293 0
M  V30 3952 H 357.671 -3.67798 -0.683774 0
M  V30 3953 H 359.004 -4.83545 -0.918985 0
M  V30 3954 N 360.656 0.0484629 -1.57525 0
M  V30 3955 C 361.619 1.03956 -2.04269 0
M  V30 3956 C 362.619 1.30211 -0.943496 0
M  V30 3957 O 363.809 1.25539 -1.20771 0
M  V30 3958 C 360.941 2.37742 -2.44319 0
M  V30 3959 H 362.134 0.636182 -2.93075 0
M  V30 3960 H 359.687 0.294811 -1.53494 0
M  V30 3961 H 360.422 2.82866 -1.5861 0
M  V30 3962 H 360.207 2.20021 -3.24551 0
M  V30 3963 H 361.697 3.08936 -2.80978 0
M  V30 3964 O 362.173 1.60359 0.191666 0
M  V30 3965 H 362.864 1.75005 0.830227 0
M  V30 END ATOM
M  V30 BEGIN BOND
M  V30 END BOND
M  V30 END CTAB
M  END
$$$$
