drugbank_target|Q746J6 Cytochrome P450 (DB01694)
 OpenBabel12092120223D

  0  0  0     0  0            999 V3000
M  V30 BEGIN CTAB
M  V30 COUNTS 6330 6414 0 0 0
M  V30 BEGIN ATOM
M  V30 1 H -0.908 1.98254 -0.117106 0
M  V30 2 N 0 1.576 0 0
M  V30 3 C 0.933 2.03868 1.02534 0
M  V30 4 C 1.911 0.928543 1.3348 0
M  V30 5 O 3.095 1.19667 1.45644 0
M  V30 6 C 0.222 2.43627 2.35294 0
M  V30 7 C -0.732 3.65373 2.2001 0
M  V30 8 S 0.101 5.13292 1.52614 0
M  V30 9 C 1.257 5.56322 2.86805 0
M  V30 10 H 1.49 2.90518 0.631377 0
M  V30 11 H -0.977 1.52953 0.210867 0
M  V30 12 H 0.981 2.67203 3.11629 0
M  V30 13 H -0.358 1.57376 2.7183 0
M  V30 14 H -1.165 3.90944 3.18086 0
M  V30 15 H -1.563 3.418 1.51819 0
M  V30 16 H 0.729 5.58782 3.83104 0
M  V30 17 H 1.672 6.56266 2.65933 0
M  V30 18 H 2.08 4.83886 2.90714 0
M  V30 19 N 1.4781 -0.272755 1.55222 0
M  V30 20 C 2.4251 -1.33716 1.88119 0
M  V30 21 C 3.3951 -1.49066 0.73271 0
M  V30 22 O 4.5801 -1.63469 0.984002 0
M  V30 23 C 1.7201 -2.69238 2.15882 0
M  V30 24 C 0.8331 -2.62108 3.43399 0
M  V30 25 C -0.0319 -3.89811 3.60861 0
M  V30 26 C -0.9929 -3.77193 4.8207 0
M  V30 27 N -1.8559 -4.9673 4.96189 0
M  V30 28 H 2.9841 -1.04962 2.78903 0
M  V30 29 H 0.5211 -0.507088 1.38083 0
M  V30 30 H 2.4791 -3.48089 2.29978 0
M  V30 31 H 1.1091 -2.96194 1.28331 0
M  V30 32 H 0.1611 -1.74967 3.37773 0
M  V30 33 H 1.4731 -2.48685 4.32386 0
M  V30 34 H 0.6271 -4.77103 3.74777 0
M  V30 35 H -0.6339 -4.06102 2.7006 0
M  V30 36 H -1.6289 -2.88284 4.68159 0
M  V30 37 H -0.4039 -3.62421 5.74307 0
M  V30 38 H -2.4579 -5.13431 4.08319 0
M  V30 39 H -2.5409 -4.85839 5.79221 0
M  V30 40 H -1.2729 -5.85594 5.1449 0
M  V30 41 N 2.9562 -1.48159 -0.537278 0
M  V30 42 C 4.3722 -1.34118 -0.865129 0
M  V30 43 C 4.5722 -0.346678 -1.98495 0
M  V30 44 O 3.6282 0.234715 -2.51407 0
M  V30 45 C 4.9412 -2.73963 -1.23954 0
M  V30 46 C 6.4892 -2.82397 -1.34984 0
M  V30 47 C 6.9642 -4.22928 -1.75772 0
M  V30 48 N 8.4552 -4.25566 -1.82887 0
M  V30 49 C 9.1902 -5.31235 -2.15817 0
M  V30 50 N 8.6862 -6.47189 -2.47222 0
M  V30 51 N 10.4792 -5.18624 -2.16761 0
M  V30 52 H 2.6302 -2.1144 0.201715 0
M  V30 53 H 4.8932 -0.947598 0.0275949 0
M  V30 54 H 4.5992 -3.48264 -0.490381 0
M  V30 55 H 4.4732 -3.0702 -2.19132 0
M  V30 56 H 6.8602 -2.08356 -2.08978 0
M  V30 57 H 6.9412 -2.5297 -0.379448 0
M  V30 58 H 6.5852 -4.97482 -1.02341 0
M  V30 59 H 6.5152 -4.49794 -2.73848 0
M  V30 60 H 9.0062 -3.41924 -1.60924 0
M  V30 61 H 9.3192 -7.23564 -2.71433 0
M  V30 62 H 7.6642 -6.50476 -2.44757 0
M  V30 63 H 10.8552 -4.27056 -1.91679 0
M  V30 64 H 11.0282 -6.01078 -2.42093 0
M  V30 65 N 4.4343 0.785586 -1.36625 0
M  V30 66 C 5.3643 1.91259 -1.33949 0
M  V30 67 C 6.3453 1.68795 -0.210325 0
M  V30 68 O 7.5303 1.89854 -0.408561 0
M  V30 69 C 4.6603 3.28339 -1.13186 0
M  V30 70 C 3.6143 3.65335 -2.22967 0
M  V30 71 C 2.9403 5.00806 -1.87342 0
M  V30 72 C 4.2403 3.7352 -3.65075 0
M  V30 73 H 5.9343 1.93755 -2.28253 0
M  V30 74 H 3.4803 0.930788 -1.09874 0
M  V30 75 H 5.4333 4.06804 -1.09948 0
M  V30 76 H 4.1573 3.2624 -0.153332 0
M  V30 77 H 2.8163 2.89169 -2.25337 0
M  V30 78 H 2.4643 4.95233 -0.880545 0
M  V30 79 H 2.1643 5.26529 -2.60846 0
M  V30 80 H 3.6883 5.81687 -1.85667 0
M  V30 81 H 5.1023 4.42168 -3.64911 0
M  V30 82 H 3.4993 4.10731 -4.37516 0
M  V30 83 H 4.5693 2.74527 -3.99703 0
M  V30 84 N 5.9124 1.20967 1.01018 0
M  V30 85 C 7.1374 1.0503 1.78839 0
M  V30 86 C 7.5624 -0.395752 1.8389 0
M  V30 87 O 6.9204 -1.28529 1.27867 0
M  V30 88 C 6.9684 1.64602 3.2084 0
M  V30 89 O 6.0724 0.887988 4.02726 0
M  V30 90 H 5.4134 0.369987 0.551367 0
M  V30 91 H 7.9434 1.60399 1.27018 0
M  V30 92 H 7.9534 1.68607 3.71532 0
M  V30 93 H 6.6284 2.69841 3.16479 0
M  V30 94 H 5.2054 0.922648 3.61305 0
M  V30 95 N 7.3905 -1.2043 1.01659 0
M  V30 96 C 8.3205 -2.25466 0.607226 0
M  V30 97 C 9.3015 -1.65853 -0.377716 0
M  V30 98 O 10.4865 -1.92409 -0.263149 0
M  V30 99 C 7.6165 -3.47256 -0.0552949 0
M  V30 100 C 6.5705 -4.19462 0.850632 0
M  V30 101 C 5.8965 -5.34673 0.0538859 0
M  V30 102 C 7.1965 -4.75603 2.15868 0
M  V30 103 H 8.8905 -2.59962 1.48526 0
M  V30 104 H 6.4365 -1.2496 0.715605 0
M  V30 105 H 8.3895 -4.19917 -0.353233 0
M  V30 106 H 7.1135 -3.11924 -0.968045 0
M  V30 107 H 5.7725 -3.48667 1.13257 0
M  V30 108 H 5.4205 -4.95585 -0.860514 0
M  V30 109 H 5.1205 -5.83913 0.657192 0
M  V30 110 H 6.6445 -6.10138 -0.237598 0
M  V30 111 H 8.0585 -5.40083 1.92311 0
M  V30 112 H 6.4555 -5.3528 2.71284 0
M  V30 113 H 7.5255 -3.94346 2.82169 0
M  V30 114 N 8.8686 -0.792821 -1.36206 0
M  V30 115 C 10.2846 -0.474903 -1.52371 0
M  V30 116 C 10.4846 1.00622 -1.74578 0
M  V30 117 O 9.5406 1.79162 -1.77924 0
M  V30 118 C 10.8536 -1.3083 -2.70747 0
M  V30 119 C 12.4016 -1.30234 -2.84619 0
M  V30 120 C 12.8766 -2.11956 -4.06004 0
M  V30 121 N 14.3676 -2.09419 -4.13156 0
M  V30 122 C 15.1026 -2.69419 -5.06163 0
M  V30 123 N 14.5986 -3.3829 -6.04592 0
M  V30 124 N 16.3916 -2.59134 -4.98804 0
M  V30 125 H 8.5426 -1.75222 -1.20046 0
M  V30 126 H 10.8056 -0.745024 -0.586211 0
M  V30 127 H 10.5116 -2.35881 -2.6087 0
M  V30 128 H 10.3856 -0.95196 -3.6499 0
M  V30 129 H 12.7726 -0.259748 -2.93955 0
M  V30 130 H 12.8536 -1.69847 -1.91274 0
M  V30 131 H 12.4976 -3.16248 -3.97429 0
M  V30 132 H 12.4276 -1.69711 -4.98503 0
M  V30 133 H 14.9186 -1.59297 -3.42685 0
M  V30 134 H 15.2316 -3.81394 -6.7213 0
M  V30 135 H 13.5766 -3.42393 -6.04807 0
M  V30 136 H 16.7676 -2.04927 -4.20859 0
M  V30 137 H 16.9406 -3.06185 -5.711 0
M  V30 138 N 10.3467 1.47872 -0.545128 0
M  V30 139 C 11.2567 2.33633 0.212746 0
M  V30 140 C 12.2727 1.4744 0.923983 0
M  V30 141 O 13.4487 1.80393 0.895572 0
M  V30 142 C 10.5137 3.23884 1.23693 0
M  V30 143 C 9.5747 4.25961 0.534417 0
M  V30 144 C 8.8077 5.11899 1.5098 0
M  V30 145 O 9.0307 5.00077 2.7437 0
M  V30 146 O 7.9647 5.92831 1.0409 0
M  V30 147 H 11.7907 2.99714 -0.490416 0
M  V30 148 H 9.3757 1.46235 -0.305871 0
M  V30 149 H 11.2577 3.79666 1.82843 0
M  V30 150 H 9.9327 2.60446 1.92222 0
M  V30 151 H 8.8397 3.73972 -0.0979679 0
M  V30 152 H 10.1727 4.92079 -0.109213 0
M  V30 153 N 11.8248 0.280983 1.55075 0
M  V30 154 C 12.7878 -0.590896 2.21452 0
M  V30 155 C 13.7878 -1.07682 1.19421 0
M  V30 156 O 14.9778 -0.97605 1.44288 0
M  V30 157 C 12.1098 -1.81587 2.88511 0
M  V30 158 H 13.3028 -0.0112554 2.99898 0
M  V30 159 H 10.8558 0.0316438 1.56268 0
M  V30 160 H 11.5908 -2.43587 2.14093 0
M  V30 161 H 11.3758 -1.4753 3.63287 0
M  V30 162 H 12.8658 -2.43575 3.39206 0
M  V30 163 N 13.3029 -1.57598 0.00835791 0
M  V30 164 C 14.5489 -1.92046 -0.670055 0
M  V30 165 C 14.9039 -0.88351 -1.70915 0
M  V30 166 O 14.1969 0.103223 -1.91322 0
M  V30 167 C 14.3909 -3.3101 -1.34787 0
M  V30 168 C 14.2199 -4.48126 -0.375945 0
M  V30 169 C 12.9899 -5.05297 0.0166914 0
M  V30 170 C 15.1879 -5.1303 0.361272 0
M  V30 171 N 13.1699 -6.05931 0.985952 0
M  V30 172 C 14.5409 -6.08571 1.18495 0
M  V30 173 C 16.5959 -4.9609 0.42421 0
M  V30 174 C 15.2989 -6.88996 2.06584 0
M  V30 175 C 17.3249 -5.77107 1.29236 0
M  V30 176 C 16.6869 -6.72248 2.10386 0
M  V30 177 H 12.7859 -0.75096 -0.218136 0
M  V30 178 H 15.3699 -1.94572 0.0706669 0
M  V30 179 H 13.5409 -3.29342 -2.05884 0
M  V30 180 H 15.2729 -3.52864 -1.98164 0
M  V30 181 H 12.0279 -4.72279 -0.353435 0
M  V30 182 H 12.4519 -6.60932 1.4662 0
M  V30 183 H 17.0939 -4.22378 -0.188915 0
M  V30 184 H 14.8119 -7.62028 2.6896 0
M  V30 185 H 18.3979 -5.66038 1.34508 0
M  V30 186 H 17.2779 -7.33846 2.76476 0
M  V30 187 N 14.781 0.264519 -1.55364 0
M  V30 188 C 16.192 0.834936 -1.6699 0
M  V30 189 C 16.543 1.86718 -0.602552 0
M  V30 190 O 15.668 2.14899 0.254425 0
M  V30 191 C 16.263 1.5212 -3.02729 0
M  V30 192 C 14.822 2.03954 -3.16354 0
M  V30 193 C 13.969 0.884498 -2.62815 0
M  V30 194 H 16.92 0.0406869 -1.58648 0
M  V30 195 H 16.941 2.38853 -2.96191 0
M  V30 196 H 16.453 0.769668 -3.80392 0
M  V30 197 H 14.554 2.82041 -2.43482 0
M  V30 198 H 14.667 2.24902 -4.23032 0
M  V30 199 H 13.031 1.2802 -2.20188 0
M  V30 200 H 13.814 0.14634 -3.42988 0
M  V30 201 N 16.2591 1.48442 0.529413 0
M  V30 202 C 17.4891 1.59919 1.30804 0
M  V30 203 C 17.8971 0.258792 1.87422 0
M  V30 204 O 17.2401 -0.762096 1.67146 0
M  V30 205 C 17.3021 2.58693 2.49636 0
M  V30 206 C 16.9661 4.03745 2.14101 0
M  V30 207 C 17.9631 4.9141 1.6974 0
M  V30 208 C 15.6481 4.49285 2.24607 0
M  V30 209 C 17.6421 6.22645 1.36351 0
M  V30 210 C 15.3291 5.8054 1.9083 0
M  V30 211 C 16.3271 6.67043 1.46773 0
M  V30 212 O 16.0151 7.95856 1.1344 0
M  V30 213 H 15.7471 0.541981 0.404021 0
M  V30 214 H 18.3011 1.95 0.645309 0
M  V30 215 H 16.5311 2.18734 3.18892 0
M  V30 216 H 18.2201 2.59999 3.11698 0
M  V30 217 H 18.9861 4.57465 1.61094 0
M  V30 218 H 14.8651 3.82142 2.57854 0
M  V30 219 H 18.4091 6.90119 1.01891 0
M  V30 220 H 14.3061 6.14022 1.99117 0
M  V30 221 H 15.0741 8.08613 1.26832 0
M  V30 222 N 17.7372 -0.778329 1.37039 0
M  V30 223 C 18.6672 -1.90546 1.34962 0
M  V30 224 C 19.6482 -1.68681 0.219274 0
M  V30 225 O 20.8332 -1.89634 0.418624 0
M  V30 226 C 17.9632 -3.27734 1.14925 0
M  V30 227 C 16.9172 -3.64147 2.24902 0
M  V30 228 C 16.2432 -4.99806 1.89996 0
M  V30 229 C 17.5432 -3.71579 3.67051 0
M  V30 230 H 19.2372 -1.92541 2.29277 0
M  V30 231 H 16.7832 -0.924948 1.10366 0
M  V30 232 H 18.7362 -4.06215 1.12104 0
M  V30 233 H 17.4602 -3.26154 0.170631 0
M  V30 234 H 16.1192 -2.8797 2.26868 0
M  V30 235 H 15.7672 -4.94759 0.906796 0
M  V30 236 H 15.4672 -5.25139 2.63634 0
M  V30 237 H 16.9912 -5.80694 1.88749 0
M  V30 238 H 18.4052 -4.40227 3.67251 0
M  V30 239 H 16.8022 -4.08405 4.39688 0
M  V30 240 H 17.8722 -2.72404 4.01154 0
M  V30 241 N 19.2153 -1.21501 -1.00376 0
M  V30 242 C 20.1623 -0.975387 -2.09177 0
M  V30 243 C 21.1323 0.0990615 -1.65804 0
M  V30 244 O 22.3173 -0.0483147 -1.90739 0
M  V30 245 C 19.4573 -0.547507 -3.40729 0
M  V30 246 C 18.5703 -1.69153 -3.97506 0
M  V30 247 C 17.7053 -1.2127 -5.17172 0
M  V30 248 C 16.7443 -2.32897 -5.66061 0
M  V30 249 N 15.8813 -1.86138 -6.76976 0
M  V30 250 H 20.7213 -1.9068 -2.29009 0
M  V30 251 H 18.2583 -0.950257 -1.12288 0
M  V30 252 H 20.2163 -0.280667 -4.16255 0
M  V30 253 H 18.8463 0.346904 -3.20931 0
M  V30 254 H 17.8983 -2.07298 -3.18954 0
M  V30 255 H 19.2103 -2.5316 -4.29781 0
M  V30 256 H 18.3643 -0.902591 -5.99948 0
M  V30 257 H 17.1033 -0.342692 -4.86495 0
M  V30 258 H 16.1083 -2.64709 -4.81881 0
M  V30 259 H 17.3333 -3.20396 -5.98768 0
M  V30 260 H 15.2793 -1.01484 -6.48103 0
M  V30 261 H 15.1963 -2.63717 -7.08512 0
M  V30 262 H 16.4643 -1.58165 -7.63285 0
M  V30 263 N 20.6934 1.19889 -1.02296 0
M  V30 264 C 21.9704 1.85148 -0.630832 0
M  V30 265 C 22.3504 1.91385 0.890782 0
M  V30 266 O 21.6984 1.42642 1.78509 0
M  V30 267 C 21.9084 3.24442 -1.28602 0
M  V30 268 C 23.2564 4.00663 -1.4055 0
M  V30 269 O 24.2804 3.33818 -1.24273 0
M  V30 270 O 23.1394 5.20387 -1.66913 0
M  V30 271 H 20.2334 0.797613 -0.218499 0
M  V30 272 H 22.7794 1.27427 -1.12074 0
M  V30 273 H 21.5514 3.14704 -2.32545 0
M  V30 274 H 21.1744 3.89802 -0.7836 0
M  V30 275 N 22.1715 0.800033 1.35784 0
M  V30 276 C 23.1015 0.220184 2.3246 0
M  V30 277 C 24.0825 -0.65073 1.57161 0
M  V30 278 O 25.2675 -0.582359 1.85263 0
M  V30 279 C 22.3975 -0.637353 3.41402 0
M  V30 280 C 21.3515 0.134531 4.27789 0
M  V30 281 C 20.6775 -0.844285 5.27992 0
M  V30 282 C 21.9775 1.32979 5.05088 0
M  V30 283 H 23.6715 1.02787 2.81203 0
M  V30 284 H 21.2175 0.495717 1.35199 0
M  V30 285 H 23.1705 -1.05302 4.08031 0
M  V30 286 H 21.8945 -1.47785 2.91251 0
M  V30 287 H 20.5535 0.531296 3.6273 0
M  V30 288 H 20.2015 -1.68011 4.74111 0
M  V30 289 H 19.9015 -0.332184 5.8666 0
M  V30 290 H 21.4255 -1.2583 5.97494 0
M  V30 291 H 22.8395 0.98934 5.64699 0
M  V30 292 H 21.2365 1.77593 5.7322 0
M  V30 293 H 22.3065 2.11978 4.36111 0
M  V30 294 N 23.6496 -1.47581 0.552962 0
M  V30 295 C 24.5816 -2.27997 -0.234533 0
M  V30 296 C 25.5946 -1.36753 -0.883321 0
M  V30 297 O 26.7836 -1.61612 -0.757889 0
M  V30 298 C 23.8836 -3.10879 -1.34935 0
M  V30 299 C 23.0566 -4.30056 -0.798158 0
M  V30 300 C 22.1156 -4.94567 -1.79694 0
M  V30 301 O 21.1416 -5.53087 -1.34474 0
M  V30 302 N 22.3436 -4.88878 -3.13015 0
M  V30 303 H 25.1086 -2.96222 0.455255 0
M  V30 304 H 22.6696 -1.57163 0.388761 0
M  V30 305 H 24.6616 -3.50903 -2.01616 0
M  V30 306 H 23.2316 -2.44924 -1.94244 0
M  V30 307 H 22.4516 -3.94174 0.0453079 0
M  V30 308 H 23.7396 -5.07152 -0.409173 0
M  V30 309 H 23.1376 -4.42526 -3.52402 0
M  V30 310 H 21.6946 -5.32934 -3.75266 0
M  V30 311 N 25.1277 -0.289203 -1.54924 0
M  V30 312 C 26.0597 0.625583 -2.20497 0
M  V30 313 C 27.0727 1.10667 -1.19402 0
M  V30 314 O 28.2617 1.02615 -1.46056 0
M  V30 315 C 25.3617 1.86702 -2.82835 0
M  V30 316 C 24.5347 1.5304 -4.09753 0
M  V30 317 C 23.5937 2.62576 -4.56005 0
M  V30 318 O 22.6197 2.28167 -5.21468 0
M  V30 319 N 23.8217 3.92901 -4.27328 0
M  V30 320 H 26.5867 0.0642801 -2.99631 0
M  V30 321 H 24.1477 -0.110896 -1.6152 0
M  V30 322 H 26.1397 2.59304 -3.10715 0
M  V30 323 H 24.7097 2.33702 -2.07611 0
M  V30 324 H 23.9297 0.637564 -3.8901 0
M  V30 325 H 25.2177 1.28072 -4.92418 0
M  V30 326 H 24.6157 4.23671 -3.74859 0
M  V30 327 H 23.1727 4.61837 -4.59946 0
M  V30 328 N 26.6058 1.57591 -0.0167156 0
M  V30 329 C 27.8828 1.82547 0.702564 0
M  V30 330 C 28.2628 0.898018 1.91047 0
M  V30 331 O 27.6108 -0.0493456 2.28447 0
M  V30 332 C 27.8208 3.31459 1.09251 0
M  V30 333 C 29.1688 3.97622 1.48937 0
M  V30 334 O 30.1928 3.35881 1.18584 0
M  V30 335 O 29.0518 5.06415 2.05442 0
M  V30 336 H 26.1458 0.752268 0.343544 0
M  V30 337 H 28.6918 1.69644 -0.0434495 0
M  V30 338 H 27.4638 3.9061 0.23227 0
M  V30 339 H 27.0868 3.49422 1.89709 0
M  V30 340 N 28.0839 -0.256276 1.55502 0
M  V30 341 C 29.4949 -0.826068 1.67431 0
M  V30 342 C 29.8459 -1.86396 0.612446 0
M  V30 343 O 28.9709 -2.15031 -0.243025 0
M  V30 344 C 29.5659 -1.50512 3.03532 0
M  V30 345 C 28.1249 -2.02273 3.17431 0
M  V30 346 C 27.2719 -0.870548 2.63281 0
M  V30 347 H 30.2229 -0.0322728 1.58667 0
M  V30 348 H 30.2439 -2.37279 2.97454 0
M  V30 349 H 29.7559 -0.749484 3.80794 0
M  V30 350 H 27.8569 -2.80746 2.44974 0
M  V30 351 H 27.9699 -2.22655 4.24219 0
M  V30 352 H 26.3339 -1.26851 2.20864 0
M  V30 353 H 27.1169 -0.128149 3.43061 0
M  V30 354 N 29.562 -1.4872 -0.521534 0
M  V30 355 C 30.492 -1.66771 -1.63431 0
M  V30 356 C 31.473 -0.516499 -1.62069 0
M  V30 357 O 32.658 -0.750013 -1.79132 0
M  V30 358 C 29.788 -1.71515 -3.01993 0
M  V30 359 C 28.742 -2.86222 -3.18216 0
M  V30 360 C 28.068 -2.76061 -4.57924 0
M  V30 361 C 29.368 -4.27419 -3.00184 0
M  V30 362 H 31.062 -2.59932 -1.48579 0
M  V30 363 H 28.608 -1.25089 -0.713358 0
M  V30 364 H 30.561 -1.82731 -3.7972 0
M  V30 365 H 29.285 -0.749393 -3.17886 0
M  V30 366 H 27.944 -2.74575 -2.42908 0
M  V30 367 H 27.592 -1.77437 -4.70665 0
M  V30 368 H 27.292 -3.53037 -4.69722 0
M  V30 369 H 28.816 -2.89256 -5.37739 0
M  V30 370 H 30.23 -4.39855 -3.67697 0
M  V30 371 H 28.627 -5.05458 -3.2347 0
M  V30 372 H 29.697 -4.43293 -1.96518 0
M  V30 373 N 31.0401 0.771051 -1.3745 0
M  V30 374 C 32.0031 1.86598 -1.33093 0
M  V30 375 C 33.0031 1.59076 -0.234845 0
M  V30 376 O 34.1931 1.67145 -0.490732 0
M  V30 377 C 31.3251 3.23747 -1.06773 0
M  V30 378 H 32.5181 1.91873 -2.30488 0
M  V30 379 H 30.0711 0.970876 -1.2249 0
M  V30 380 H 30.8061 3.24148 -0.099129 0
M  V30 381 H 30.5911 3.45115 -1.86112 0
M  V30 382 H 32.0811 4.03824 -1.06377 0
M  V30 383 N 32.5182 1.22032 0.997298 0
M  V30 384 C 33.7642 1.04376 1.73878 0
M  V30 385 C 34.0972 -0.420716 1.89588 0
M  V30 386 O 33.3722 -1.31202 1.43583 0
M  V30 387 C 33.6552 1.75047 3.14691 0
M  V30 388 C 33.5082 3.29062 3.06656 0
M  V30 389 C 34.8272 1.49928 4.13775 0
M  V30 390 H 31.9462 0.380578 0.631133 0
M  V30 391 H 34.5882 1.50312 1.16217 0
M  V30 392 H 32.7382 1.35996 3.63919 0
M  V30 393 H 34.4102 3.7753 2.65083 0
M  V30 394 H 32.6532 3.58967 2.43568 0
M  V30 395 H 33.3242 3.73683 4.06282 0
M  V30 396 H 35.8002 1.83842 3.73285 0
M  V30 397 H 34.6762 2.01878 5.10428 0
M  V30 398 H 34.9372 0.430929 4.39995 0
M  V30 399 N 33.9963 -1.19345 1.0293 0
M  V30 400 C 34.9263 -2.2481 0.631105 0
M  V30 401 C 35.9073 -1.66245 -0.360104 0
M  V30 402 O 37.0923 -1.92677 -0.242726 0
M  V30 403 C 34.2223 -3.47295 -0.0184607 0
M  V30 404 C 33.1763 -4.18536 0.895073 0
M  V30 405 C 32.5023 -5.34586 0.110592 0
M  V30 406 C 33.8023 -4.73287 2.209 0
M  V30 407 H 35.4963 -2.58372 1.51275 0
M  V30 408 H 33.0423 -1.24194 0.728818 0
M  V30 409 H 34.9953 -4.20268 -0.308675 0
M  V30 410 H 33.7193 -3.12933 -0.934907 0
M  V30 411 H 32.3783 -3.47446 1.16949 0
M  V30 412 H 32.0263 -4.96469 -0.807902 0
M  V30 413 H 31.7263 -5.83183 0.719087 0
M  V30 414 H 33.2503 -6.10355 -0.172871 0
M  V30 415 H 34.6643 -5.38013 1.98028 0
M  V30 416 H 33.0613 -5.32373 2.76946 0
M  V30 417 H 34.1313 -3.91331 2.86336 0
M  V30 418 N 35.4744 -0.807222 -1.35358 0
M  V30 419 C 36.4044 -0.232509 -2.3234 0
M  V30 420 C 37.3854 0.642386 -1.57504 0
M  V30 421 O 38.5704 0.572526 -1.85569 0
M  V30 422 C 35.7004 0.619238 -3.41735 0
M  V30 423 C 34.6544 -0.157215 -4.27711 0
M  V30 424 C 33.9804 0.816273 -5.28433 0
M  V30 425 C 35.2804 -1.35656 -5.04376 0
M  V30 426 H 36.9744 -1.04276 -2.80654 0
M  V30 427 H 34.5204 -0.50288 -1.34934 0
M  V30 428 H 36.4734 1.03137 -4.08584 0
M  V30 429 H 35.1974 1.46239 -2.92031 0
M  V30 430 H 33.8564 -0.550525 -3.62443 0
M  V30 431 H 33.5044 1.65494 -4.74996 0
M  V30 432 H 33.2044 0.301067 -5.86828 0
M  V30 433 H 34.7284 1.22659 -5.98153 0
M  V30 434 H 36.1424 -1.01927 -5.64166 0
M  V30 435 H 34.5394 -1.8063 -5.7227 0
M  V30 436 H 35.6094 -2.14288 -4.34981 0
M  V30 437 N 36.9525 1.47285 -0.560781 0
M  V30 438 C 37.9155 2.28535 0.174488 0
M  V30 439 C 38.9155 1.37153 0.839388 0
M  V30 440 O 40.1055 1.59748 0.694702 0
M  V30 441 C 37.2375 3.16934 1.25561 0
M  V30 442 H 38.4305 2.95012 -0.539262 0
M  V30 443 H 35.9835 1.53034 -0.317865 0
M  V30 444 H 36.7185 2.55157 2.00164 0
M  V30 445 H 36.5035 3.8419 0.783604 0
M  V30 446 H 37.9935 3.78143 1.77193 0
M  V30 447 N 38.4306 0.297415 1.54768 0
M  V30 448 C 39.6766 -0.306263 2.01081 0
M  V30 449 C 40.0316 -1.518 1.18214 0
M  V30 450 O 39.3246 -1.89967 0.249613 0
M  V30 451 C 39.5186 -0.717561 3.50123 0
M  V30 452 C 39.3476 0.45277 4.47415 0
M  V30 453 C 38.1176 0.943651 4.9641 0
M  V30 454 C 40.3156 1.29657 4.97688 0
M  V30 455 N 38.2976 2.08112 5.77549 0
M  V30 456 C 39.6686 2.28158 5.76493 0
M  V30 457 C 41.7236 1.32735 4.79881 0
M  V30 458 C 40.4266 3.29509 6.39387 0
M  V30 459 C 42.4526 2.32943 5.43591 0
M  V30 460 C 41.8146 3.30174 6.22225 0
M  V30 461 H 37.9136 -0.0766274 0.778237 0
M  V30 462 H 40.4976 0.426515 1.89971 0
M  V30 463 H 38.6686 -1.41952 3.6153 0
M  V30 464 H 40.4006 -1.30047 3.83236 0
M  V30 465 H 37.1556 0.51922 4.70745 0
M  V30 466 H 37.5796 2.65414 6.22803 0
M  V30 467 H 42.2216 0.589375 4.18672 0
M  V30 468 H 39.9396 4.04228 6.99732 0
M  V30 469 H 43.5256 2.36094 5.31743 0
M  V30 470 H 42.4056 4.06445 6.7065 0
M  V30 471 N 39.9087 -1.5758 0.0250728 0
M  V30 472 C 41.1567 -1.91255 -0.653151 0
M  V30 473 C 41.4777 -0.901691 -1.729 0
M  V30 474 O 40.7477 0.0573785 -1.95816 0
M  V30 475 H 39.3277 -0.705942 -0.244243 0
M  V30 476 H 41.9897 -1.94767 0.0719209 0
M  V30 477 H 41.0857 -2.91752 -1.10847 0
M  V30 478 N 41.3868 0.248026 -1.55636 0
M  V30 479 C 42.8028 0.596483 -1.48035 0
M  V30 480 C 43.0028 1.88386 -0.715039 0
M  V30 481 O 42.0588 2.51319 -0.243944 0
M  V30 482 C 43.3718 0.700258 -2.92433 0
M  V30 483 C 44.9198 0.792659 -3.02797 0
M  V30 484 C 45.3948 0.928005 -4.485 0
M  V30 485 N 46.8858 0.992903 -4.52433 0
M  V30 486 C 47.6208 1.11687 -5.62418 0
M  V30 487 N 47.1168 1.20645 -6.82214 0
M  V30 488 N 48.9098 1.14994 -5.50212 0
M  V30 489 H 41.0608 -0.597109 -2.03834 0
M  V30 490 H 43.3238 -0.205925 -0.925364 0
M  V30 491 H 43.0298 -0.175658 -3.51261 0
M  V30 492 H 42.9038 1.57255 -3.42857 0
M  V30 493 H 45.2908 1.65903 -2.4405 0
M  V30 494 H 45.3718 -0.104762 -2.55585 0
M  V30 495 H 45.0158 0.0661971 -5.07857 0
M  V30 496 H 44.9458 1.84045 -4.93391 0
M  V30 497 H 47.4368 0.935064 -3.66149 0
M  V30 498 H 47.7498 1.30008 -7.61786 0
M  V30 499 H 46.0948 1.17605 -6.84977 0
M  V30 500 H 49.2858 1.07643 -4.55555 0
M  V30 501 H 49.4588 1.24311 -6.35965 0
M  V30 502 N 42.8649 1.48995 0.513639 0
M  V30 503 C 43.8279 1.64229 1.59879 0
M  V30 504 C 44.8279 0.514696 1.5234 0
M  V30 505 O 46.0179 0.78087 1.55718 0
M  V30 506 C 43.1499 1.62783 2.99524 0
M  V30 507 H 44.3429 2.61004 1.47705 0
M  V30 508 H 41.8959 1.37837 0.736936 0
M  V30 509 H 42.6309 0.675461 3.17188 0
M  V30 510 H 42.4159 2.4466 3.06404 0
M  V30 511 H 43.9059 1.76669 3.78388 0
M  V30 512 N 44.343 -0.763751 1.37857 0
M  V30 513 C 45.293 -1.86765 1.30777 0
M  V30 514 C 46.277 -1.59726 0.194015 0
M  V30 515 O 47.469 -1.7172 0.42911 0
M  V30 516 C 44.598 -3.24343 1.12502 0
M  V30 517 C 43.684 -3.57307 2.28456 0
M  V30 518 N 44.075 -3.61398 3.53871 0
M  V30 519 C 42.373 -3.87517 2.20786 0
M  V30 520 C 43.074 -3.91339 4.30382 0
M  V30 521 N 42.05 -4.07649 3.59615 0
M  V30 522 H 45.852 -1.88191 2.25746 0
M  V30 523 H 43.366 -0.9606 1.30944 0
M  V30 524 H 45.363 -4.03327 1.05514 0
M  V30 525 H 44.023 -3.24175 0.184574 0
M  V30 526 H 45.034 -3.43407 3.87675 0
M  V30 527 H 41.711 -3.95125 1.34844 0
M  V30 528 H 43.101 -4.01213 5.3896 0
M  V30 529 N 45.8211 -1.22559 -0.990812 0
M  V30 530 C 47.2321 -1.04791 -1.54518 0
M  V30 531 C 47.5831 0.387998 -1.92325 0
M  V30 532 O 46.7081 1.27328 -1.74976 0
M  V30 533 C 47.3031 -1.896 -2.80779 0
M  V30 534 C 45.8621 -1.76124 -3.32652 0
M  V30 535 C 45.0091 -1.8594 -2.05722 0
M  V30 536 H 47.9601 -1.36374 -0.811662 0
M  V30 537 H 47.9811 -1.41464 -3.53225 0
M  V30 538 H 47.4931 -2.94101 -2.53231 0
M  V30 539 H 45.5941 -0.743643 -3.65104 0
M  V30 540 H 45.7071 -2.58913 -4.03114 0
M  V30 541 H 44.0711 -1.29403 -2.19379 0
M  V30 542 H 44.8541 -2.91976 -1.80568 0
M  V30 543 N 47.2992 1.18797 -1.03562 0
M  V30 544 C 48.7152 1.40671 -0.753917 0
M  V30 545 C 48.9152 1.9043 0.658686 0
M  V30 546 O 47.9712 2.08538 1.42366 0
M  V30 547 C 49.2842 2.41192 -1.79574 0
M  V30 548 C 50.8322 2.54928 -1.81606 0
M  V30 549 C 51.3072 3.58709 -2.84766 0
M  V30 550 N 52.7982 3.66212 -2.83625 0
M  V30 551 C 53.5332 4.46225 -3.60098 0
M  V30 552 N 53.0292 5.29888 -4.46308 0
M  V30 553 N 54.8222 4.40939 -3.4861 0
M  V30 554 H 46.9732 0.848221 -1.94728 0
M  V30 555 H 49.2362 0.435081 -0.842264 0
M  V30 556 H 48.9422 2.11669 -2.80872 0
M  V30 557 H 48.8162 3.40467 -1.62365 0
M  V30 558 H 51.2032 2.83771 -0.809817 0
M  V30 559 H 51.2842 1.55784 -2.02891 0
M  V30 560 H 50.9282 3.30607 -3.85566 0
M  V30 561 H 50.8582 4.57519 -2.60737 0
M  V30 562 H 53.3492 3.06466 -2.21105 0
M  V30 563 H 53.6622 5.88078 -5.01382 0
M  V30 564 H 52.0072 5.29326 -4.50377 0
M  V30 565 H 55.1982 3.74624 -2.80668 0
M  V30 566 H 55.3712 5.03056 -4.08459 0
M  V30 567 N 48.7773 0.814389 1.34928 0
M  V30 568 C 49.7073 0.244827 2.32213 0
M  V30 569 C 50.6883 -0.634024 1.57842 0
M  V30 570 O 51.8733 -0.562676 1.8587 0
M  V30 571 C 49.0033 -0.601106 3.42058 0
M  V30 572 C 47.9573 0.179896 4.27622 0
M  V30 573 C 47.2833 -0.788237 5.28858 0
M  V30 574 C 48.5833 1.38329 5.03649 0
M  V30 575 H 50.2773 1.05763 2.80097 0
M  V30 576 H 47.8233 0.510029 1.34665 0
M  V30 577 H 49.7763 -1.00968 4.09125 0
M  V30 578 H 48.5003 -1.44688 2.92802 0
M  V30 579 H 47.1593 0.569739 3.62146 0
M  V30 580 H 46.8073 -1.62973 4.75866 0
M  V30 581 H 46.5073 -0.269942 5.8698 0
M  V30 582 H 48.0313 -1.19485 5.98795 0
M  V30 583 H 49.4453 1.04918 5.63618 0
M  V30 584 H 47.8423 1.83662 5.71304 0
M  V30 585 H 48.9123 2.16592 4.33839 0
M  V30 586 N 50.2554 -1.46986 0.568584 0
M  V30 587 C 51.5024 -2.02441 0.0487986 0
M  V30 588 C 51.8304 -1.44169 -1.30559 0
M  V30 589 O 51.0854 -0.591213 -1.86556 0
M  V30 590 C 51.3844 -3.57306 -0.081836 0
M  V30 591 C 51.0504 -4.34552 1.20313 0
M  V30 592 C 49.7124 -4.55376 1.5552 0
M  V30 593 C 52.0644 -4.79016 2.05411 0
M  V30 594 C 49.3924 -5.17913 2.7565 0
M  V30 595 C 51.7444 -5.42879 3.24754 0
M  V30 596 C 50.4084 -5.61933 3.60261 0
M  V30 597 H 49.6784 -0.740785 0.0178567 0
M  V30 598 H 52.3254 -1.76525 0.742384 0
M  V30 599 H 50.6304 -3.8228 -0.858463 0
M  V30 600 H 52.3274 -3.97876 -0.499546 0
M  V30 601 H 48.9174 -4.18631 0.919014 0
M  V30 602 H 53.1014 -4.62696 1.79516 0
M  V30 603 H 48.3574 -5.30858 3.03315 0
M  V30 604 H 52.5314 -5.76293 3.90973 0
M  V30 605 H 50.1584 -6.10161 4.53439 0
M  V30 606 N 51.7335 -0.305618 -1.54608 0
M  V30 607 C 52.6635 0.561482 -2.26649 0
M  V30 608 C 53.6445 1.13415 -1.26772 0
M  V30 609 O 54.8295 1.16262 -1.55553 0
M  V30 610 C 51.9595 1.73122 -3.01075 0
M  V30 611 C 50.9135 1.2887 -4.08138 0
M  V30 612 C 50.2395 2.54396 -4.70305 0
M  V30 613 C 51.5395 0.416578 -5.20636 0
M  V30 614 H 53.2335 -0.0393902 -2.99374 0
M  V30 615 H 50.7795 -0.020385 -1.43986 0
M  V30 616 H 52.7325 2.34396 -3.50195 0
M  V30 617 H 51.4565 2.3584 -2.25936 0
M  V30 618 H 50.1155 0.698991 -3.59875 0
M  V30 619 H 49.7635 3.15439 -3.918 0
M  V30 620 H 49.4635 2.25486 -5.42614 0
M  V30 621 H 50.9875 3.16464 -5.2219 0
M  V30 622 H 52.4015 0.935116 -5.65622 0
M  V30 623 H 50.7985 0.221046 -5.99693 0
M  V30 624 H 51.8685 -0.557162 -4.81688 0
M  V30 625 N 53.2116 1.57565 -0.0334293 0
M  V30 626 C 54.6226 1.79746 0.504798 0
M  V30 627 C 54.9736 0.944091 1.71992 0
M  V30 628 O 54.0986 0.155694 2.15839 0
M  V30 629 C 54.6936 3.25997 0.922567 0
M  V30 630 C 53.2526 3.49159 1.40588 0
M  V30 631 C 52.3996 2.74785 0.372633 0
M  V30 632 H 55.3506 1.56565 -0.259436 0
M  V30 633 H 55.3716 3.35945 1.78666 0
M  V30 634 H 54.8836 3.88081 0.0379825 0
M  V30 635 H 52.9846 2.92332 2.31025 0
M  V30 636 H 53.0976 4.57873 1.41028 0
M  V30 637 H 51.4616 2.40391 0.841672 0
M  V30 638 H 52.2446 3.39587 -0.503559 0
M  V30 639 N 54.6897 -0.239769 1.55765 0
M  V30 640 C 55.6197 -1.30052 1.9393 0
M  V30 641 C 56.6007 -1.49839 0.805132 0
M  V30 642 O 57.7857 -1.62328 1.06599 0
M  V30 643 C 54.9157 -2.65391 2.2402 0
M  V30 644 C 53.8697 -2.60289 3.39755 0
M  V30 645 C 53.1957 -3.99489 3.55405 0
M  V30 646 C 54.4957 -2.16654 4.75246 0
M  V30 647 H 56.1897 -0.983573 2.82783 0
M  V30 648 H 53.7357 -0.471701 1.36055 0
M  V30 649 H 55.6887 -3.3974 2.49308 0
M  V30 650 H 54.4127 -2.98736 1.32 0
M  V30 651 H 53.0717 -1.88398 3.14487 0
M  V30 652 H 52.7197 -4.30112 2.60793 0
M  V30 653 H 52.4197 -3.96962 4.33238 0
M  V30 654 H 53.9437 -4.75528 3.83022 0
M  V30 655 H 55.3577 -2.80737 4.99859 0
M  V30 656 H 53.7547 -2.25223 5.56232 0
M  V30 657 H 54.8247 -1.11835 4.71827 0
M  V30 658 N 56.1678 -1.49265 -0.50573 0
M  V30 659 C 57.5788 -1.51769 -1.08734 0
M  V30 660 C 57.9298 -0.301192 -1.93874 0
M  V30 661 O 57.0548 0.589456 -2.08217 0
M  V30 662 C 57.6498 -2.75017 -1.97867 0
M  V30 663 C 56.2088 -2.80314 -2.51199 0
M  V30 664 C 55.3558 -2.4562 -1.28709 0
M  V30 665 H 58.3068 -1.56031 -0.289855 0
M  V30 666 H 58.3278 -2.5491 -2.82491 0
M  V30 667 H 57.8398 -3.63539 -1.35873 0
M  V30 668 H 55.9408 -1.96061 -3.16845 0
M  V30 669 H 56.0538 -3.82366 -2.88675 0
M  V30 670 H 54.4178 -1.97297 -1.61078 0
M  V30 671 H 55.2008 -3.36411 -0.6843 0
M  V30 672 N 57.6459 0.756429 -1.3826 0
M  V30 673 C 59.0619 1.0591 -1.19395 0
M  V30 674 C 59.2619 2.01459 -0.0406567 0
M  V30 675 O 58.3179 2.44909 0.614467 0
M  V30 676 C 59.6309 1.64191 -2.51916 0
M  V30 677 C 61.1789 1.76376 -2.58574 0
M  V30 678 C 61.6539 2.38069 -3.91264 0
M  V30 679 N 63.1449 2.45503 -3.92788 0
M  V30 680 C 63.8799 2.94126 -4.92217 0
M  V30 681 N 63.3759 3.42805 -6.02043 0
M  V30 682 N 65.1689 2.9314 -4.7961 0
M  V30 683 H 57.3199 0.122313 -2.12048 0
M  V30 684 H 59.5829 0.116892 -0.940766 0
M  V30 685 H 59.2889 1.01451 -3.3675 0
M  V30 686 H 59.1629 2.6329 -2.70108 0
M  V30 687 H 61.5499 2.38244 -1.74137 0
M  V30 688 H 61.6309 0.759894 -2.44252 0
M  V30 689 H 61.2749 1.76835 -4.76121 0
M  V30 690 H 61.2049 3.39091 -4.02895 0
M  V30 691 H 63.6959 2.1107 -3.13461 0
M  V30 692 H 64.0089 3.78354 -6.73846 0
M  V30 693 H 62.3539 3.4087 -6.05667 0
M  V30 694 H 65.5449 2.54419 -3.92923 0
M  V30 695 H 65.7179 3.30721 -5.5725 0
M  V30 696 N 59.124 1.23083 0.984299 0
M  V30 697 C 60.371 1.06057 1.72505 0
M  V30 698 C 60.699 -0.403105 1.90277 0
M  V30 699 O 59.954 -1.3149 1.44944 0
M  V30 700 C 60.253 1.72673 3.1292 0
M  V30 701 C 59.919 3.22586 3.15038 0
M  V30 702 C 58.581 3.63489 3.15324 0
M  V30 703 C 60.933 4.185 3.10657 0
M  V30 704 C 58.261 4.98772 3.08939 0
M  V30 705 C 60.613 5.53769 3.05814 0
M  V30 706 C 59.277 5.94041 3.04419 0
M  V30 707 H 58.547 0.388091 0.631242 0
M  V30 708 H 61.194 1.52963 1.15215 0
M  V30 709 H 59.499 1.18116 3.73572 0
M  V30 710 H 61.196 1.56982 3.68996 0
M  V30 711 H 57.786 2.90022 3.15571 0
M  V30 712 H 61.97 3.87911 3.09579 0
M  V30 713 H 57.226 5.29193 3.0621 0
M  V30 714 H 61.4 6.27808 3.0138 0
M  V30 715 H 59.027 6.98833 2.99227 0
M  V30 716 N 60.6021 -1.18246 1.0419 0
M  V30 717 C 62.0131 -1.69914 0.773698 0
M  V30 718 C 62.3641 -1.83085 -0.705297 0
M  V30 719 O 61.4891 -1.51123 -1.5489 0
M  V30 720 C 62.0841 -3.08619 1.39784 0
M  V30 721 C 60.6431 -3.57494 1.17792 0
M  V30 722 C 59.7901 -2.34013 1.48773 0
M  V30 723 H 62.7411 -1.02904 1.20816 0
M  V30 724 H 62.7621 -3.71958 0.801714 0
M  V30 725 H 62.2741 -2.99001 2.47426 0
M  V30 726 H 60.3751 -3.72406 0.120295 0
M  V30 727 H 60.4881 -4.40852 1.87581 0
M  V30 728 H 58.8521 -2.37986 0.907463 0
M  V30 729 H 59.6351 -2.27013 2.57527 0
M  V30 730 N 62.0802 -0.821533 -1.34494 0
M  V30 731 C 63.0102 -0.257138 -2.3208 0
M  V30 732 C 63.9912 0.625645 -1.58176 0
M  V30 733 O 65.1762 0.552811 -1.86166 0
M  V30 734 C 62.3062 0.582958 -3.42372 0
M  V30 735 C 61.2602 -0.202571 -4.2752 0
M  V30 736 C 60.5862 0.760179 -5.29269 0
M  V30 737 C 61.8862 -1.40998 -5.02908 0
M  V30 738 H 63.5802 -1.07247 -2.79532 0
M  V30 739 H 61.1262 -0.517163 -1.34393 0
M  V30 740 H 63.0792 0.987972 -4.09655 0
M  V30 741 H 61.8032 1.43133 -2.93565 0
M  V30 742 H 60.4622 -0.588936 -3.61838 0
M  V30 743 H 60.1102 1.60447 -4.76724 0
M  V30 744 H 59.8102 0.238809 -5.87115 0
M  V30 745 H 61.3342 1.16308 -5.9942 0
M  V30 746 H 62.7482 -1.07905 -5.63054 0
M  V30 747 H 61.1452 -1.86689 -5.70322 0
M  V30 748 H 62.2152 -2.1889 -4.32684 0
M  V30 749 N 63.5583 1.46682 -0.576371 0
M  V30 750 C 64.5213 2.28707 0.150239 0
M  V30 751 C 65.5213 1.38035 0.824794 0
M  V30 752 O 66.7113 1.60476 0.677719 0
M  V30 753 C 63.8433 3.18248 1.22192 0
M  V30 754 H 65.0363 2.94423 -0.570521 0
M  V30 755 H 62.5893 1.52688 -0.334078 0
M  V30 756 H 63.3243 2.57265 1.97447 0
M  V30 757 H 63.1093 3.85 0.742812 0
M  V30 758 H 64.5993 3.80001 1.73172 0
M  V30 759 N 65.0364 0.313813 1.54444 0
M  V30 760 C 65.9664 -0.549454 2.26943 0
M  V30 761 C 66.9474 -1.12741 1.27372 0
M  V30 762 O 68.1324 -1.15436 1.56167 0
M  V30 763 C 65.2624 -1.71523 3.01989 0
M  V30 764 C 64.2164 -1.26703 4.08816 0
M  V30 765 C 63.5424 -2.51898 4.71647 0
M  V30 766 C 64.8424 -0.388962 5.2085 0
M  V30 767 H 66.5364 0.0552661 2.99349 0
M  V30 768 H 64.0824 0.0280207 1.43973 0
M  V30 769 H 66.0354 -2.32535 3.51433 0
M  V30 770 H 64.7594 -2.34639 2.27183 0
M  V30 771 H 63.4184 -0.679896 3.6024 0
M  V30 772 H 63.0664 -3.13356 3.93468 0
M  V30 773 H 62.7664 -2.22605 5.43802 0
M  V30 774 H 64.2904 -3.1369 5.23861 0
M  V30 775 H 65.7044 -0.905107 5.6611 0
M  V30 776 H 64.1014 -0.18924 5.99802 0
M  V30 777 H 65.1714 0.582699 4.81386 0
M  V30 778 N 66.5145 -1.57545 0.0417849 0
M  V30 779 C 67.7635 -1.91494 -0.633492 0
M  V30 780 C 68.0765 -0.921084 -1.72556 0
M  V30 781 O 69.2825 -1.15228 -2.45835 0
M  V30 782 C 67.7385 -3.40072 -1.17808 0
M  V30 783 C 67.3465 -4.47843 -0.118633 0
M  V30 784 C 69.0905 -3.8307 -1.82915 0
M  V30 785 C 66.9975 -5.87529 -0.675578 0
M  V30 786 H 65.9275 -0.714653 -0.24039 0
M  V30 787 H 68.5785 -1.83175 0.109148 0
M  V30 788 H 66.9605 -3.43364 -1.97274 0
M  V30 789 H 68.1345 -4.56128 0.654494 0
M  V30 790 H 66.4495 -4.14128 0.434414 0
M  V30 791 H 69.0465 -4.84794 -2.25563 0
M  V30 792 H 69.3895 -3.1881 -2.67705 0
M  V30 793 H 69.9225 -3.82255 -1.10119 0
M  V30 794 H 66.6615 -6.55362 0.134475 0
M  V30 795 H 66.1815 -5.82824 -1.4169 0
M  V30 796 H 67.8605 -6.36491 -1.1614 0
M  V30 797 N 67.9926 0.231505 -1.5589 0
M  V30 798 C 69.2396 0.957352 -1.78441 0
M  V30 799 C 69.5676 1.84726 -0.60882 0
M  V30 800 O 68.8226 1.91416 0.40725 0
M  V30 801 C 69.1216 1.83577 -3.0665 0
M  V30 802 C 68.7876 1.09993 -4.37278 0
M  V30 803 C 67.4496 0.896629 -4.72773 0
M  V30 804 C 69.8016 0.579558 -5.17968 0
M  V30 805 C 67.1296 0.160896 -5.86479 0
M  V30 806 C 69.4816 -0.142783 -6.32439 0
M  V30 807 C 68.1456 -0.357427 -6.66542 0
M  V30 808 H 67.4156 0.35032 -0.65296 0
M  V30 809 H 70.0626 0.226259 -1.90159 0
M  V30 810 H 68.3676 2.63441 -2.90011 0
M  V30 811 H 70.0646 2.39934 -3.21298 0
M  V30 812 H 66.6546 1.26835 -4.09403 0
M  V30 813 H 70.8386 0.724125 -4.90989 0
M  V30 814 H 66.0946 -0.0157293 -6.11398 0
M  V30 815 H 70.2686 -0.553559 -6.94196 0
M  V30 816 H 67.8956 -0.929466 -7.54497 0
M  V30 817 N 69.4707 1.49531 0.497807 0
M  V30 818 C 70.7477 1.49682 1.25915 0
M  V30 819 C 71.1277 0.226339 2.09883 0
M  V30 820 O 70.4757 -0.791189 2.14365 0
M  V30 821 C 70.6857 2.77755 2.11313 0
M  V30 822 C 72.0337 3.27371 2.70395 0
M  V30 823 O 73.0577 2.78894 2.21578 0
M  V30 824 O 71.9167 4.11808 3.59272 0
M  V30 825 H 69.0107 0.599228 0.56996 0
M  V30 826 H 71.5567 1.61798 0.511816 0
M  V30 827 H 70.3287 3.61713 1.49264 0
M  V30 828 H 69.9517 2.68515 2.93233 0
M  V30 829 N 70.9488 -0.749086 1.3866 0
M  V30 830 C 72.3598 -1.32664 1.31366 0
M  V30 831 C 72.7108 -1.96179 -0.028484 0
M  V30 832 O 71.8358 -1.9537 -0.93057 0
M  V30 833 C 72.4308 -2.41219 2.37905 0
M  V30 834 C 70.9898 -2.94684 2.34176 0
M  V30 835 C 70.1368 -1.68108 2.20533 0
M  V30 836 H 73.0878 -0.547628 1.48952 0
M  V30 837 H 73.1088 -3.21268 2.0388 0
M  V30 838 H 72.6208 -1.94962 3.35576 0
M  V30 839 H 70.7218 -3.45258 1.401 0
M  V30 840 H 70.8348 -3.48757 3.2849 0
M  V30 841 H 69.1988 -1.91907 1.67463 0
M  V30 842 H 69.9818 -1.23923 3.20153 0
M  V30 843 N 72.4269 -1.23603 -0.977757 0
M  V30 844 C 73.3369 -1.03632 -2.1047 0
M  V30 845 C 74.3529 0.0199435 -1.73989 0
M  V30 846 O 75.5289 -0.176076 -2.00629 0
M  V30 847 C 72.5939 -0.63276 -3.40877 0
M  V30 848 C 71.6549 -1.76437 -3.91367 0
M  V30 849 C 70.8879 -1.37997 -5.15551 0
M  V30 850 O 71.1109 -0.265357 -5.69782 0
M  V30 851 O 70.0449 -2.20201 -5.60174 0
M  V30 852 H 73.8709 -1.98086 -2.30208 0
M  V30 853 H 71.4559 -1.02332 -1.08851 0
M  V30 854 H 73.3379 -0.418761 -4.19314 0
M  V30 855 H 72.0129 0.282754 -3.22463 0
M  V30 856 H 70.9199 -2.03304 -3.14036 0
M  V30 857 H 72.2529 -2.6583 -4.14241 0
M  V30 858 N 73.905 1.17692 -1.04816 0
M  V30 859 C 75.153 1.87488 -0.754497 0
M  V30 860 C 75.474 1.81205 0.720407 0
M  V30 861 O 74.744 1.23544 1.52032 0
M  V30 862 H 73.324 0.694101 -0.276102 0
M  V30 863 H 75.986 1.42793 -1.32651 0
M  V30 864 H 75.082 2.93328 -1.06606 0
M  V30 865 N 75.3831 0.828654 1.34056 0
M  V30 866 C 76.6291 0.42008 1.98402 0
M  V30 867 C 76.9621 -1.01564 1.65525 0
M  V30 868 O 76.2371 -1.70834 0.929831 0
M  V30 869 C 76.5201 0.62927 3.54559 0
M  V30 870 C 76.3731 2.11152 3.97159 0
M  V30 871 C 77.6921 0.0688756 4.40046 0
M  V30 872 H 74.8111 0.154104 0.720709 0
M  V30 873 H 77.4531 1.04228 1.5886 0
M  V30 874 H 75.6031 0.0996418 3.88372 0
M  V30 875 H 77.2751 2.70522 3.73651 0
M  V30 876 H 75.5181 2.59985 3.47261 0
M  V30 877 H 76.1891 2.20868 5.05887 0
M  V30 878 H 78.6651 0.521458 4.1282 0
M  V30 879 H 77.5411 0.245006 5.48353 0
M  V30 880 H 77.8021 -1.0266 4.30015 0
M  V30 881 N 76.8612 -1.46375 0.584142 0
M  V30 882 C 77.7712 -2.34115 -0.150728 0
M  V30 883 C 78.7872 -1.49838 -0.884567 0
M  V30 884 O 79.9632 -1.82704 -0.847429 0
M  V30 885 C 77.0282 -3.2705 -1.15062 0
M  V30 886 C 76.0892 -4.27228 -0.421293 0
M  V30 887 C 75.3222 -5.15722 -1.37355 0
M  V30 888 O 75.5452 -5.07176 -2.61014 0
M  V30 889 O 74.4792 -5.95383 -0.883355 0
M  V30 890 H 78.3052 -2.98309 0.569708 0
M  V30 891 H 75.8902 -1.45373 0.344535 0
M  V30 892 H 77.7722 -3.84381 -1.72712 0
M  V30 893 H 76.4472 -2.65451 -1.8525 0
M  V30 894 H 75.3542 -3.7358 0.197085 0
M  V30 895 H 76.6872 -4.91616 0.239641 0
M  V30 896 N 78.3393 -0.321999 -1.54275 0
M  V30 897 C 79.5873 0.280489 -2.00144 0
M  V30 898 C 79.9083 1.52777 -1.21178 0
M  V30 899 O 79.1783 1.9338 -0.313187 0
M  V30 900 H 77.7583 0.106632 -0.73935 0
M  V30 901 H 80.4203 -0.438184 -1.8991 0
M  V30 902 H 79.5163 0.537972 -3.07428 0
M  V30 903 N 79.8174 1.5752 -0.0501392 0
M  V30 904 C 80.7804 2.1037 0.909786 0
M  V30 905 C 81.7804 1.02308 1.24056 0
M  V30 906 O 82.9704 1.28385 1.17741 0
M  V30 907 C 80.1024 2.58708 2.21998 0
M  V30 908 H 81.2954 2.96479 0.451665 0
M  V30 909 H 78.8484 1.55038 0.198248 0
M  V30 910 H 79.5834 1.75989 2.72394 0
M  V30 911 H 79.3684 3.37675 1.99295 0
M  V30 912 H 80.8584 2.99747 2.9076 0
M  V30 913 N 81.2955 -0.223234 1.56011 0
M  V30 914 C 82.2255 -1.27988 1.95298 0
M  V30 915 C 83.2065 -1.48976 0.820979 0
M  V30 916 O 84.3915 -1.61188 1.08315 0
M  V30 917 C 81.5215 -2.63 2.26822 0
M  V30 918 C 80.4755 -2.56671 3.42497 0
M  V30 919 C 79.8015 -3.95697 3.59622 0
M  V30 920 C 81.1015 -2.11601 4.77517 0
M  V30 921 H 82.7955 -0.953525 2.8381 0
M  V30 922 H 80.3415 -0.457244 1.36548 0
M  V30 923 H 82.2945 -3.37077 2.52898 0
M  V30 924 H 81.0185 -2.9732 1.35161 0
M  V30 925 H 79.6775 -1.85051 3.16467 0
M  V30 926 H 79.3255 -4.27322 2.6534 0
M  V30 927 H 79.0255 -3.92345 4.37424 0
M  V30 928 H 80.5495 -4.71438 3.88044 0
M  V30 929 H 81.9635 -2.7542 5.02809 0
M  V30 930 H 80.3605 -2.19311 5.5859 0
M  V30 931 H 81.4305 -1.06824 4.72987 0
M  V30 932 N 82.7736 -1.49793 -0.48987 0
M  V30 933 C 83.7036 -1.70201 -1.59856 0
M  V30 934 C 84.6846 -0.55076 -1.60937 0
M  V30 935 O 85.8696 -0.787841 -1.77501 0
M  V30 936 C 82.9996 -1.77882 -2.98287 0
M  V30 937 C 81.9536 -2.92907 -3.12073 0
M  V30 938 C 81.2796 -2.85712 -4.51965 0
M  V30 939 C 82.5796 -4.3369 -2.91051 0
M  V30 940 H 84.2736 -2.63025 -1.43032 0
M  V30 941 H 81.8196 -1.26574 -0.686664 0
M  V30 942 H 83.7726 -1.90744 -3.75759 0
M  V30 943 H 82.4966 -0.816653 -3.16225 0
M  V30 944 H 81.1556 -2.79665 -2.37029 0
M  V30 945 H 80.8036 -1.8738 -4.66795 0
M  V30 946 H 80.5036 -3.62921 -4.62128 0
M  V30 947 H 82.0276 -3.00598 -5.31482 0
M  V30 948 H 83.4416 -4.47555 -3.58284 0
M  V30 949 H 81.8386 -5.12205 -3.12675 0
M  V30 950 H 82.9086 -4.47362 -1.87071 0
M  V30 951 N 84.2517 0.741722 -1.39055 0
M  V30 952 C 85.2147 1.83733 -1.37021 0
M  V30 953 C 86.2147 1.58542 -0.268534 0
M  V30 954 O 87.4047 1.66067 -0.526076 0
M  V30 955 C 84.5367 3.2141 -1.13617 0
M  V30 956 H 85.7297 1.86941 -2.34506 0
M  V30 957 H 83.2827 0.944676 -1.24521 0
M  V30 958 H 84.0177 3.23865 -0.167863 0
M  V30 959 H 83.8027 3.4109 -1.93391 0
M  V30 960 H 85.2927 4.01477 -1.14918 0
M  V30 961 N 85.7298 1.2412 0.971189 0
M  V30 962 C 86.6398 1.04747 2.09917 0
M  V30 963 C 87.6558 -0.0107162 1.73997 0
M  V30 964 O 88.8318 0.186714 2.00533 0
M  V30 965 C 85.8968 0.650828 3.40537 0
M  V30 966 C 84.9578 1.7851 3.90426 0
M  V30 967 C 84.1908 1.40729 5.14812 0
M  V30 968 O 84.4138 0.29557 5.69634 0
M  V30 969 O 83.3478 2.23168 5.58999 0
M  V30 970 H 87.1738 1.99304 2.29154 0
M  V30 971 H 84.7588 1.02908 1.08307 0
M  V30 972 H 86.6408 0.440992 4.19086 0
M  V30 973 H 85.3158 -0.265649 3.22608 0
M  V30 974 H 84.2228 2.04966 3.12953 0
M  V30 975 H 85.5558 2.68023 4.12825 0
M  V30 976 N 87.2079 -1.17134 1.05439 0
M  V30 977 C 88.4559 -1.87085 0.764429 0
M  V30 978 C 88.7769 -1.81584 -0.710787 0
M  V30 979 O 88.0469 -1.24349 -1.51374 0
M  V30 980 H 86.6269 -0.692627 0.279779 0
M  V30 981 H 89.2889 -1.42087 1.33406 0
M  V30 982 H 88.3849 -2.92759 1.0816 0
M  V30 983 N 88.686 -0.835752 -1.33615 0
M  V30 984 C 89.914 -0.443344 -2.02094 0
M  V30 985 C 90.329 0.954522 -1.62894 0
M  V30 986 O 89.686 1.61982 -0.840723 0
M  V30 987 C 89.737 -0.550775 -3.5728 0
M  V30 988 O 89.458 -1.89356 -3.95065 0
M  V30 989 C 90.959 -0.154919 -4.43029 0
M  V30 990 H 88.179 -0.176359 -0.647409 0
M  V30 991 H 90.723 -1.12746 -1.70612 0
M  V30 992 H 88.878 0.0853997 -3.87306 0
M  V30 993 H 89.292 -1.87687 -4.89769 0
M  V30 994 H 90.766 -0.281144 -5.51284 0
M  V30 995 H 91.243 0.902863 -4.2982 0
M  V30 996 H 91.849 -0.765404 -4.18356 0
M  V30 997 N 90.1641 1.46063 -0.591896 0
M  V30 998 C 91.3921 2.06717 -0.0868936 0
M  V30 999 C 91.8071 1.43916 1.22203 0
M  V30 1000 O 91.1641 0.547698 1.74088 0
M  V30 1001 C 91.2151 3.6142 0.0758725 0
M  V30 1002 O 90.9361 4.21874 -1.18126 0
M  V30 1003 C 92.4371 4.39025 0.61416 0
M  V30 1004 H 89.6571 0.668162 -0.0616518 0
M  V30 1005 H 92.2011 1.8755 -0.815175 0
M  V30 1006 H 90.3561 3.79983 0.754413 0
M  V30 1007 H 90.7701 5.14861 -1.00092 0
M  V30 1008 H 92.2441 5.4783 0.677193 0
M  V30 1009 H 92.7211 4.07708 1.63312 0
M  V30 1010 H 93.3271 4.2529 -0.0298142 0
M  V30 1011 N 91.6422 0.330177 1.54103 0
M  V30 1012 C 92.5892 -0.532762 2.24567 0
M  V30 1013 C 93.5592 -1.10635 1.23892 0
M  V30 1014 O 94.7442 -1.14546 1.5259 0
M  V30 1015 C 91.8842 -1.6845 3.01195 0
M  V30 1016 C 90.9972 -1.13951 4.167 0
M  V30 1017 C 90.1322 -2.25746 4.80845 0
M  V30 1018 C 89.1712 -1.6853 5.88442 0
M  V30 1019 N 88.3082 -2.74014 6.46421 0
M  V30 1020 H 93.1482 0.0746905 2.97906 0
M  V30 1021 H 90.6852 0.048632 1.4702 0
M  V30 1022 H 92.6432 -2.36234 3.43874 0
M  V30 1023 H 91.2732 -2.26314 2.30178 0
M  V30 1024 H 90.3252 -0.35301 3.78758 0
M  V30 1025 H 91.6372 -0.680892 4.94131 0
M  V30 1026 H 90.7912 -3.01422 5.26526 0
M  V30 1027 H 89.5302 -2.74947 4.0281 0
M  V30 1028 H 88.5352 -0.913543 5.42157 0
M  V30 1029 H 89.7602 -1.20198 6.68378 0
M  V30 1030 H 87.7062 -3.22494 5.71256 0
M  V30 1031 H 87.6232 -2.32735 7.19285 0
M  V30 1032 H 88.8912 -3.49499 6.96757 0
M  V30 1033 N 93.1203 -1.57491 0.0584922 0
M  V30 1034 C 94.0833 -2.1085 -0.898617 0
M  V30 1035 C 95.0833 -1.02964 -1.23511 0
M  V30 1036 O 96.2733 -1.29007 -1.17059 0
M  V30 1037 C 93.4053 -2.59881 -2.20623 0
M  V30 1038 H 94.5983 -2.96715 -0.435936 0
M  V30 1039 H 92.1513 -1.55141 -0.190023 0
M  V30 1040 H 92.8863 -1.77431 -2.71457 0
M  V30 1041 H 92.6713 -3.38727 -1.97501 0
M  V30 1042 H 94.1613 -3.01285 -2.89166 0
M  V30 1043 N 94.5984 0.214957 -1.56127 0
M  V30 1044 C 95.8264 0.955092 -1.83536 0
M  V30 1045 C 96.2414 1.77677 -0.638472 0
M  V30 1046 O 95.5984 1.78219 0.392968 0
M  V30 1047 C 95.6494 1.86734 -3.09536 0
M  V30 1048 O 95.3704 1.07887 -4.24608 0
M  V30 1049 C 96.8714 2.72082 -3.4998 0
M  V30 1050 H 94.0914 0.279611 -0.609966 0
M  V30 1051 H 96.6354 0.228197 -2.03223 0
M  V30 1052 H 94.7904 2.5481 -2.91806 0
M  V30 1053 H 95.2044 1.69872 -4.9623 0
M  V30 1054 H 96.6784 3.31782 -4.41163 0
M  V30 1055 H 97.1554 3.44806 -2.7204 0
M  V30 1056 H 97.7614 2.09409 -3.70173 0
M  V30 1057 N 96.0765 1.50051 0.48192 0
M  V30 1058 C 97.3235 1.60498 1.23477 0
M  V30 1059 C 97.6515 0.300331 1.92167 0
M  V30 1060 O 96.9065 -0.713094 1.82246 0
M  V30 1061 C 97.2055 2.72717 2.30998 0
M  V30 1062 C 96.8715 4.13572 1.79636 0
M  V30 1063 C 95.5335 4.519 1.65348 0
M  V30 1064 C 97.8855 5.01649 1.41412 0
M  V30 1065 C 95.2135 5.76057 1.11244 0
M  V30 1066 C 97.5655 6.26343 0.887538 0
M  V30 1067 C 96.2295 6.63483 0.731207 0
M  V30 1068 H 95.4995 0.587303 0.451836 0
M  V30 1069 H 98.1465 1.83948 0.532468 0
M  V30 1070 H 96.4515 2.43312 3.07094 0
M  V30 1071 H 98.1485 2.78006 2.88988 0
M  V30 1072 H 94.7385 3.83329 1.91721 0
M  V30 1073 H 98.9225 4.72679 1.51289 0
M  V30 1074 H 94.1785 6.03516 0.978686 0
M  V30 1075 H 98.3525 6.93958 0.582654 0
M  V30 1076 H 95.9795 7.59568 0.309806 0
M  V30 1077 N 97.5546 -0.734337 1.39446 0
M  V30 1078 C 98.4866 -1.85861 1.34121 0
M  V30 1079 C 99.4996 -1.60871 0.249864 0
M  V30 1080 O 100.689 -1.71093 0.508865 0
M  V30 1081 C 97.7886 -3.21899 1.05991 0
M  V30 1082 C 96.9616 -3.74239 2.26415 0
M  V30 1083 C 96.0206 -4.88841 1.94733 0
M  V30 1084 O 95.0466 -5.02468 2.67422 0
M  V30 1085 N 96.2486 -5.73261 0.913884 0
M  V30 1086 H 99.0136 -1.90934 2.31007 0
M  V30 1087 H 96.5746 -0.915102 1.33557 0
M  V30 1088 H 98.5666 -3.96136 0.828147 0
M  V30 1089 H 97.1366 -3.12091 0.178361 0
M  V30 1090 H 96.3566 -2.91347 2.65539 0
M  V30 1091 H 97.6446 -4.05942 3.06738 0
M  V30 1092 H 97.0426 -5.64842 0.311476 0
M  V30 1093 H 95.5996 -6.47563 0.742015 0
M  V30 1094 N 99.0327 -1.24633 -0.964593 0
M  V30 1095 C 100.263 -1.11339 -1.74032 0
M  V30 1096 C 100.671 0.336593 -1.86182 0
M  V30 1097 O 100.014 1.24389 -1.35178 0
M  V30 1098 C 100.076 -1.68284 -3.1768 0
M  V30 1099 C 99.7397 -3.17196 -3.28992 0
M  V30 1100 C 100.737 -4.14308 -3.14078 0
M  V30 1101 C 98.4217 -3.57215 -3.53133 0
M  V30 1102 C 100.416 -5.4942 -3.23135 0
M  V30 1103 C 98.1027 -4.92468 -3.61827 0
M  V30 1104 C 99.1007 -5.8838 -3.46841 0
M  V30 1105 O 98.7887 -7.21173 -3.55197 0
M  V30 1106 H 98.5207 -0.389551 -0.552472 0
M  V30 1107 H 101.075 -1.65282 -1.21946 0
M  V30 1108 H 99.3047 -1.08777 -3.71085 0
M  V30 1109 H 100.994 -1.50234 -3.77074 0
M  V30 1110 H 101.76 -3.84731 -2.95308 0
M  V30 1111 H 97.6387 -2.83063 -3.63863 0
M  V30 1112 H 101.183 -6.24263 -3.11355 0
M  V30 1113 H 97.0797 -5.21714 -3.80111 0
M  V30 1114 H 97.8477 -7.29135 -3.71892 0
M  V30 1115 N 100.511 1.16574 -1.06058 0
M  V30 1116 C 101.927 1.3904 -0.783585 0
M  V30 1117 C 102.127 1.91784 0.618145 0
M  V30 1118 O 101.183 2.11511 1.37911 0
M  V30 1119 C 102.496 2.37329 -1.84649 0
M  V30 1120 C 104.044 2.51018 -1.86973 0
M  V30 1121 C 104.519 3.52588 -2.92311 0
M  V30 1122 N 106.01 3.60113 -2.91329 0
M  V30 1123 C 106.745 4.38486 -3.69482 0
M  V30 1124 N 106.241 5.20302 -4.57447 0
M  V30 1125 N 108.034 4.33446 -3.57885 0
M  V30 1126 H 100.185 0.806725 -1.96483 0
M  V30 1127 H 102.448 0.417117 -0.851303 0
M  V30 1128 H 102.154 2.05663 -2.85299 0
M  V30 1129 H 102.028 3.36946 -1.6955 0
M  V30 1130 H 104.415 2.81989 -0.869827 0
M  V30 1131 H 104.496 1.51445 -2.0615 0
M  V30 1132 H 104.14 3.22354 -3.92492 0
M  V30 1133 H 104.07 4.51886 -2.70383 0
M  V30 1134 H 106.561 3.01707 -2.27555 0
M  V30 1135 H 106.874 5.77311 -5.13743 0
M  V30 1136 H 105.219 5.19653 -4.61503 0
M  V30 1137 H 108.41 3.68586 -2.88551 0
M  V30 1138 H 108.583 4.94279 -4.19037 0
M  V30 1139 N 101.989 0.842826 1.3317 0
M  V30 1140 C 102.952 0.284065 2.27433 0
M  V30 1141 C 103.952 -0.54948 1.5112 0
M  V30 1142 O 105.142 -0.362699 1.70382 0
M  V30 1143 C 102.274 -0.599384 3.35589 0
M  V30 1144 H 103.467 1.11589 2.78366 0
M  V30 1145 H 101.02 0.616221 1.4364 0
M  V30 1146 H 101.755 -1.45349 2.89904 0
M  V30 1147 H 101.54 -0.00291266 3.921 0
M  V30 1148 H 103.03 -0.983488 4.05854 0
M  V30 1149 N 103.467 -1.45747 0.599634 0
M  V30 1150 C 104.397 -2.33235 -0.111306 0
M  V30 1151 C 105.378 -1.46359 -0.866781 0
M  V30 1152 O 106.563 -1.75146 -0.838904 0
M  V30 1153 C 103.693 -3.28932 -1.11451 0
M  V30 1154 C 102.647 -4.25381 -0.472772 0
M  V30 1155 C 101.973 -5.1071 -1.58365 0
M  V30 1156 C 103.273 -5.18831 0.600948 0
M  V30 1157 H 104.967 -2.92927 0.61919 0
M  V30 1158 H 102.513 -1.40857 0.299215 0
M  V30 1159 H 104.466 -3.89002 -1.62036 0
M  V30 1160 H 103.19 -2.67381 -1.8755 0
M  V30 1161 H 101.849 -3.66598 0.0121472 0
M  V30 1162 H 101.497 -4.45533 -2.33473 0
M  V30 1163 H 101.197 -5.7604 -1.15982 0
M  V30 1164 H 102.721 -5.73647 -2.09194 0
M  V30 1165 H 104.135 -5.73019 0.179491 0
M  V30 1166 H 102.532 -5.92595 0.946076 0
M  V30 1167 H 103.602 -4.6174 1.48068 0
M  V30 1168 N 104.945 -0.338344 -1.53925 0
M  V30 1169 C 106.17 0.263987 -2.05713 0
M  V30 1170 C 106.595 1.43847 -1.21201 0
M  V30 1171 O 105.953 1.79904 -0.224535 0
M  V30 1172 C 106.001 0.662 -3.54471 0
M  V30 1173 O 105.105 1.76265 -3.72833 0
M  V30 1174 H 104.446 0.0448722 -0.662482 0
M  V30 1175 H 106.976 -0.491048 -1.9862 0
M  V30 1176 H 106.986 0.940594 -3.9701 0
M  V30 1177 H 105.661 -0.196937 -4.15433 0
M  V30 1178 H 104.238 1.48173 -3.42198 0
M  V30 1179 N 106.423 1.57458 -0.0668435 0
M  V30 1180 C 107.839 1.56947 0.289772 0
M  V30 1181 C 108.039 1.07584 1.70376 0
M  V30 1182 O 107.095 0.739486 2.41429 0
M  V30 1183 C 108.408 3.0052 0.103943 0
M  V30 1184 C 109.956 3.12517 0.173857 0
M  V30 1185 C 110.431 4.57997 0.0163682 0
M  V30 1186 N 111.922 4.63144 0.0721352 0
M  V30 1187 C 112.657 5.73394 -0.0253794 0
M  V30 1188 N 112.153 6.92576 -0.176133 0
M  V30 1189 N 113.946 5.62091 0.0313305 0
M  V30 1190 H 106.097 1.87863 -0.991027 0
M  V30 1191 H 108.36 0.86583 -0.38606 0
M  V30 1192 H 108.066 3.40729 -0.871572 0
M  V30 1193 H 107.94 3.67304 0.858366 0
M  V30 1194 H 110.327 2.72197 1.13985 0
M  V30 1195 H 110.408 2.48381 -0.611586 0
M  V30 1196 H 110.052 4.99005 -0.946374 0
M  V30 1197 H 109.982 5.20158 0.821153 0
M  V30 1198 H 112.473 3.77436 0.187263 0
M  V30 1199 H 112.786 7.72418 -0.242821 0
M  V30 1200 H 111.131 6.94678 -0.211429 0
M  V30 1201 H 114.322 4.67867 0.147773 0
M  V30 1202 H 114.495 6.47982 -0.048121 0
M  V30 1203 N 107.901 -0.206675 1.56239 0
M  V30 1204 C 108.831 -1.25909 1.96645 0
M  V30 1205 C 109.812 -1.48097 0.836734 0
M  V30 1206 O 110.997 -1.6003 1.10019 0
M  V30 1207 C 108.127 -2.6058 2.29599 0
M  V30 1208 C 107.081 -2.53024 3.452 0
M  V30 1209 C 106.407 -3.91861 3.63798 0
M  V30 1210 C 107.707 -2.06524 4.79734 0
M  V30 1211 H 109.401 -0.923369 2.84806 0
M  V30 1212 H 106.947 -0.442735 1.37025 0
M  V30 1213 H 108.9 -3.34375 2.56459 0
M  V30 1214 H 107.624 -2.95869 1.38307 0
M  V30 1215 H 106.283 -1.81684 3.18412 0
M  V30 1216 H 105.931 -4.24483 2.69857 0
M  V30 1217 H 105.631 -3.87683 4.4156 0
M  V30 1218 H 107.155 -4.67296 3.93022 0
M  V30 1219 H 108.569 -2.70072 5.05702 0
M  V30 1220 H 106.966 -2.13374 5.60885 0
M  V30 1221 H 108.036 -1.01802 4.74093 0
M  V30 1222 N 109.379 -1.50304 -0.473955 0
M  V30 1223 C 110.607 -1.64902 -1.24959 0
M  V30 1224 C 111.022 -0.331198 -1.85872 0
M  V30 1225 O 110.379 0.68652 -1.69095 0
M  V30 1226 C 110.43 -2.73803 -2.36038 0
M  V30 1227 O 110.151 -4.00477 -1.77624 0
M  V30 1228 C 111.652 -2.99349 -3.26964 0
M  V30 1229 H 108.872 -0.554383 -0.378022 0
M  V30 1230 H 111.416 -1.9651 -0.566054 0
M  V30 1231 H 109.571 -2.44898 -3.00173 0
M  V30 1232 H 109.985 -4.60678 -2.5075 0
M  V30 1233 H 111.459 -3.79217 -4.01121 0
M  V30 1234 H 111.936 -2.10307 -3.85574 0
M  V30 1235 H 112.542 -3.29774 -2.68569 0
M  V30 1236 N 110.857 0.726932 -1.39834 0
M  V30 1237 C 112.105 1.4837 -1.37225 0
M  V30 1238 C 112.426 1.94979 0.0284857 0
M  V30 1239 O 111.696 1.69555 0.981213 0
M  V30 1240 H 110.276 0.55043 -0.505011 0
M  V30 1241 H 112.938 0.862468 -1.74778 0
M  V30 1242 H 112.034 2.36198 -2.04003 0
M  V30 1243 N 112.336 1.25143 0.95797 0
M  V30 1244 C 113.752 1.01892 1.22842 0
M  V30 1245 C 113.952 -0.266311 1.99732 0
M  V30 1246 O 113.008 -0.979913 2.3271 0
M  V30 1247 C 114.321 2.24004 2.00606 0
M  V30 1248 C 115.869 2.28731 2.13662 0
M  V30 1249 C 116.344 3.5049 2.94823 0
M  V30 1250 N 117.835 3.50866 3.02403 0
M  V30 1251 C 118.57 4.4174 3.65586 0
M  V30 1252 N 118.066 5.42882 4.30408 0
M  V30 1253 N 119.859 4.29429 3.62694 0
M  V30 1254 H 112.01 2.07718 0.443493 0
M  V30 1255 H 114.273 0.912031 0.258657 0
M  V30 1256 H 113.979 3.17395 1.51503 0
M  V30 1257 H 113.853 2.26907 3.01319 0
M  V30 1258 H 116.24 1.35865 2.61963 0
M  V30 1259 H 116.321 2.29848 1.12265 0
M  V30 1260 H 115.965 4.43676 2.47213 0
M  V30 1261 H 115.895 3.46617 3.96439 0
M  V30 1262 H 118.386 2.777 2.56302 0
M  V30 1263 H 118.699 6.0844 4.76467 0
M  V30 1264 H 117.044 5.46758 4.29047 0
M  V30 1265 H 120.235 3.49643 3.11236 0
M  V30 1266 H 120.408 5.00448 4.1165 0
M  V30 1267 N 113.814 -1.1601 1.06675 0
M  V30 1268 C 115.062 -1.86264 0.784229 0
M  V30 1269 C 115.383 -1.82328 -0.691488 0
M  V30 1270 O 114.653 -1.25947 -1.50047 0
M  V30 1271 H 113.233 -0.689621 0.28711 0
M  V30 1272 H 115.895 -1.40664 1.34906 0
M  V30 1273 H 114.991 -2.91595 1.11259 0
M  V30 1274 N 115.292 -0.849877 -1.32721 0
M  V30 1275 C 116.222 -0.306308 -2.31482 0
M  V30 1276 C 117.203 0.591952 -1.59468 0
M  V30 1277 O 118.388 0.513199 -1.87296 0
M  V30 1278 C 115.518 0.510204 -3.43532 0
M  V30 1279 C 114.472 -0.293209 -4.26994 0
M  V30 1280 C 113.798 0.647743 -5.30762 0
M  V30 1281 C 115.098 -1.51634 -4.99804 0
M  V30 1282 H 116.792 -1.13153 -2.77195 0
M  V30 1283 H 114.338 -0.545553 -1.33266 0
M  V30 1284 H 116.291 0.900856 -4.11658 0
M  V30 1285 H 115.015 1.36874 -2.96535 0
M  V30 1286 H 113.674 -0.665555 -3.60508 0
M  V30 1287 H 113.322 1.50299 -4.8002 0
M  V30 1288 H 113.022 0.11422 -5.87489 0
M  V30 1289 H 114.546 1.03567 -6.01753 0
M  V30 1290 H 115.96 -1.19824 -5.60638 0
M  V30 1291 H 114.357 -1.98745 -5.66234 0
M  V30 1292 H 115.427 -2.28018 -4.27943 0
M  V30 1293 N 116.77 1.45427 -0.607355 0
M  V30 1294 C 117.7 2.3329 0.0989352 0
M  V30 1295 C 118.681 1.46816 0.859007 0
M  V30 1296 O 119.866 1.75588 0.829604 0
M  V30 1297 C 116.996 3.29518 1.09705 0
M  V30 1298 C 115.95 4.25626 0.450206 0
M  V30 1299 C 115.276 5.11542 1.55655 0
M  V30 1300 C 116.576 5.18505 -0.628455 0
M  V30 1301 H 118.27 2.92595 -0.634716 0
M  V30 1302 H 115.816 1.40696 -0.306681 0
M  V30 1303 H 117.769 3.89855 1.59971 0
M  V30 1304 H 116.493 2.68372 1.86129 0
M  V30 1305 H 115.152 3.66586 -0.0315886 0
M  V30 1306 H 114.8 4.46765 2.31107 0
M  V30 1307 H 114.5 5.76647 1.12925 0
M  V30 1308 H 116.024 5.74748 2.06148 0
M  V30 1309 H 117.438 5.72916 -0.209877 0
M  V30 1310 H 115.835 5.92085 -0.977489 0
M  V30 1311 H 116.905 4.60948 -1.50514 0
M  V30 1312 N 118.248 0.346503 1.53744 0
M  V30 1313 C 119.476 -0.25041 2.05379 0
M  V30 1314 C 119.891 -1.43979 1.22129 0
M  V30 1315 O 119.248 -1.80677 0.257321 0
M  V30 1316 C 119.299 -0.662575 3.55376 0
M  V30 1317 O 119.02 0.479515 4.35468 0
M  V30 1318 C 120.521 -1.31989 4.23195 0
M  V30 1319 H 117.741 -0.0478198 0.669294 0
M  V30 1320 H 120.285 0.499346 1.9831 0
M  V30 1321 H 118.44 -1.36227 3.62658 0
M  V30 1322 H 118.854 0.15037 5.24284 0
M  V30 1323 H 120.328 -1.55902 5.29527 0
M  V30 1324 H 120.805 -2.27436 3.75725 0
M  V30 1325 H 121.411 -0.662154 4.20114 0
M  V30 1326 N 119.726 -1.57421 0.075193 0
M  V30 1327 C 121.003 -1.85029 -0.634329 0
M  V30 1328 C 121.383 -0.968305 -1.87582 0
M  V30 1329 O 120.731 -0.0354749 -2.28472 0
M  V30 1330 C 120.941 -3.35286 -0.968742 0
M  V30 1331 C 122.289 -4.02875 -1.34077 0
M  V30 1332 O 123.313 -3.40051 -1.06037 0
M  V30 1333 O 122.172 -5.13691 -1.86506 0
M  V30 1334 H 119.266 -0.7645 -0.315387 0
M  V30 1335 H 121.812 -1.69366 0.106382 0
M  V30 1336 H 120.584 -3.91203 -0.0871376 0
M  V30 1337 H 120.207 -3.56223 -1.7661 0
M  V30 1338 N 121.204 0.198386 -1.56346 0
M  V30 1339 C 122.45 0.916115 -1.81601 0
M  V30 1340 C 122.805 1.81025 -0.651744 0
M  V30 1341 O 122.098 1.88316 0.353229 0
M  V30 1342 C 122.292 1.77031 -3.10475 0
M  V30 1343 C 122.121 0.960365 -4.39326 0
M  V30 1344 C 120.891 0.646093 -5.01152 0
M  V30 1345 C 123.089 0.314628 -5.13337 0
M  V30 1346 N 121.071 -0.182828 -6.13628 0
M  V30 1347 C 122.442 -0.37664 -6.18855 0
M  V30 1348 C 124.497 0.230019 -4.97368 0
M  V30 1349 C 123.2 -1.14445 -7.10137 0
M  V30 1350 C 125.226 -0.524389 -5.89071 0
M  V30 1351 C 124.588 -1.20412 -6.94032 0
M  V30 1352 H 120.687 0.314732 -0.715868 0
M  V30 1353 H 123.271 0.185102 -1.93818 0
M  V30 1354 H 121.442 2.47295 -2.99499 0
M  V30 1355 H 123.174 2.42727 -3.2383 0
M  V30 1356 H 119.929 0.969724 -4.63566 0
M  V30 1357 H 120.353 -0.586802 -6.74452 0
M  V30 1358 H 124.995 0.741184 -4.16253 0
M  V30 1359 H 122.713 -1.66706 -7.90718 0
M  V30 1360 H 126.299 -0.591167 -5.78789 0
M  V30 1361 H 125.179 -1.77853 -7.63766 0
M  V30 1362 N 122.682 1.50554 0.465978 0
M  V30 1363 C 123.93 1.61479 1.21528 0
M  V30 1364 C 124.251 0.319596 1.92363 0
M  V30 1365 O 123.521 -0.663194 1.84333 0
M  V30 1366 H 122.101 0.595055 0.451573 0
M  V30 1367 H 124.763 1.87355 0.53704 0
M  V30 1368 H 123.859 2.42846 1.96042 0
M  V30 1369 N 124.16 -0.719506 1.40217 0
M  V30 1370 C 125.07 -1.86378 1.42479 0
M  V30 1371 C 126.086 -1.71073 0.317834 0
M  V30 1372 O 127.262 -1.93406 0.561794 0
M  V30 1373 C 124.327 -3.22136 1.28178 0
M  V30 1374 C 123.388 -3.49723 2.48982 0
M  V30 1375 C 122.621 -4.79004 2.35353 0
M  V30 1376 O 122.844 -5.53821 1.36524 0
M  V30 1377 O 121.778 -5.06839 3.2465 0
M  V30 1378 H 125.604 -1.87425 2.38968 0
M  V30 1379 H 123.189 -0.869405 1.21498 0
M  V30 1380 H 125.071 -4.03234 1.22395 0
M  V30 1381 H 123.746 -3.21825 0.347934 0
M  V30 1382 H 122.653 -2.6865 2.60342 0
M  V30 1383 H 123.986 -3.54828 3.41113 0
M  V30 1384 N 125.638 -1.25649 -0.95132 0
M  V30 1385 C 126.863 -1.13443 -1.73624 0
M  V30 1386 C 127.288 0.307565 -1.85568 0
M  V30 1387 O 126.646 1.22282 -1.33854 0
M  V30 1388 C 126.694 -1.79723 -3.12621 0
M  V30 1389 O 125.798 -1.07912 -3.98031 0
M  V30 1390 H 125.139 -0.395872 -0.533086 0
M  V30 1391 H 127.669 -1.66276 -1.1922 0
M  V30 1392 H 127.679 -1.86141 -3.63064 0
M  V30 1393 H 126.354 -2.84633 -3.03244 0
M  V30 1394 H 124.931 -1.09398 -3.56492 0
M  V30 1395 N 127.117 1.15442 -1.07289 0
M  V30 1396 C 128.363 1.8672 -0.806679 0
M  V30 1397 C 128.718 1.80723 0.660084 0
M  V30 1398 O 128.011 1.21902 1.47819 0
M  V30 1399 C 128.205 3.3489 -1.24834 0
M  V30 1400 C 128.034 3.55313 -2.7565 0
M  V30 1401 C 126.804 3.7082 -3.4325 0
M  V30 1402 C 129.002 3.53188 -3.73848 0
M  V30 1403 N 126.984 3.7929 -4.82713 0
M  V30 1404 C 128.355 3.67765 -4.99149 0
M  V30 1405 C 130.41 3.36459 -3.67015 0
M  V30 1406 C 129.113 3.6734 -6.18428 0
M  V30 1407 C 131.139 3.37333 -4.85758 0
M  V30 1408 C 130.501 3.52438 -6.09891 0
M  V30 1409 H 126.6 0.700433 -0.347733 0
M  V30 1410 H 129.184 1.38441 -1.36902 0
M  V30 1411 H 127.355 3.81786 -0.713713 0
M  V30 1412 H 129.087 3.93875 -0.929745 0
M  V30 1413 H 125.842 3.71568 -2.93656 0
M  V30 1414 H 126.266 3.8727 -5.55294 0
M  V30 1415 H 130.908 3.237 -2.71989 0
M  V30 1416 H 128.626 3.78878 -7.13777 0
M  V30 1417 H 132.212 3.25617 -4.82146 0
M  V30 1418 H 131.092 3.53047 -7.00234 0
M  V30 1419 N 128.595 0.856903 1.32268 0
M  V30 1420 C 129.542 0.301172 2.28827 0
M  V30 1421 C 130.512 -0.593104 1.5515 0
M  V30 1422 O 131.697 -0.527537 1.83362 0
M  V30 1423 C 128.837 -0.502523 3.41422 0
M  V30 1424 C 127.95 0.417797 4.29975 0
M  V30 1425 C 127.085 -0.398749 5.29701 0
M  V30 1426 C 126.124 0.518827 6.09897 0
M  V30 1427 N 125.261 -0.260674 7.01616 0
M  V30 1428 H 130.101 1.12983 2.75751 0
M  V30 1429 H 127.638 0.568582 1.35667 0
M  V30 1430 H 129.596 -0.984141 4.05426 0
M  V30 1431 H 128.226 -1.29599 2.95642 0
M  V30 1432 H 127.278 1.01781 3.66531 0
M  V30 1433 H 128.59 1.12191 4.86019 0
M  V30 1434 H 127.744 -0.943435 5.9932 0
M  V30 1435 H 126.483 -1.13622 4.7428 0
M  V30 1436 H 125.488 1.07538 5.39181 0
M  V30 1437 H 126.713 1.25495 6.67404 0
M  V30 1438 H 124.659 -0.981198 6.4862 0
M  V30 1439 H 124.576 0.384364 7.55022 0
M  V30 1440 H 125.844 -0.787014 7.75517 0
M  V30 1441 N 130.073 -1.45103 0.615059 0
M  V30 1442 C 130.983 -2.34382 -0.101034 0
M  V30 1443 C 131.999 -1.51681 -0.852585 0
M  V30 1444 O 133.175 -1.8446 -0.808484 0
M  V30 1445 C 130.24 -3.29417 -1.08099 0
M  V30 1446 C 129.301 -4.28025 -0.330577 0
M  V30 1447 C 128.534 -5.1852 -1.26385 0
M  V30 1448 O 128.757 -5.12598 -2.50198 0
M  V30 1449 O 127.691 -5.97122 -0.756866 0
M  V30 1450 H 131.517 -2.97033 0.632855 0
M  V30 1451 H 129.102 -1.4461 0.375293 0
M  V30 1452 H 130.984 -3.87958 -1.6452 0
M  V30 1453 H 129.659 -2.69321 -1.79577 0
M  V30 1454 H 128.566 -3.73078 0.276283 0
M  V30 1455 H 129.899 -4.90997 0.343866 0
M  V30 1456 N 131.551 -0.354651 -1.53558 0
M  V30 1457 C 132.514 0.484566 -2.24019 0
M  V30 1458 C 133.514 1.01861 -1.24422 0
M  V30 1459 O 134.704 0.906097 -1.4878 0
M  V30 1460 C 131.836 1.67615 -2.96847 0
M  V30 1461 H 133.029 -0.131843 -2.9961 0
M  V30 1462 H 130.582 -0.106165 -1.55939 0
M  V30 1463 H 131.317 2.33095 -2.25471 0
M  V30 1464 H 131.102 1.30029 -3.69912 0
M  V30 1465 H 132.592 2.27114 -3.50441 0
M  V30 1466 N 133.029 1.57378 -0.0835403 0
M  V30 1467 C 134.445 1.57246 0.273109 0
M  V30 1468 C 134.645 1.09385 1.69225 0
M  V30 1469 O 133.701 0.765051 2.40631 0
M  V30 1470 C 135.014 3.00614 0.0720628 0
M  V30 1471 C 136.562 3.12684 0.1407 0
M  V30 1472 C 137.037 4.57989 -0.0322094 0
M  V30 1473 N 138.528 4.63194 0.0230085 0
M  V30 1474 C 139.263 5.73335 -0.0861941 0
M  V30 1475 N 138.759 6.9235 -0.24958 0
M  V30 1476 N 140.552 5.62093 -0.0282886 0
M  V30 1477 H 132.703 1.86801 -1.0109 0
M  V30 1478 H 134.966 0.861687 -0.395222 0
M  V30 1479 H 134.672 3.39786 -0.907662 0
M  V30 1480 H 134.546 3.68193 0.81936 0
M  V30 1481 H 136.933 2.73391 1.11092 0
M  V30 1482 H 137.014 2.47719 -0.637896 0
M  V30 1483 H 136.658 4.97973 -0.999247 0
M  V30 1484 H 136.588 5.21 0.765937 0
M  V30 1485 H 139.079 3.77613 0.14722 0
M  V30 1486 H 139.392 7.72117 -0.324733 0
M  V30 1487 H 137.737 6.94415 -0.285097 0
M  V30 1488 H 140.928 4.67997 0.0981408 0
M  V30 1489 H 141.101 6.47895 -0.116845 0
M  V30 1490 N 134.507 -0.190092 1.56449 0
M  V30 1491 C 135.454 -1.23557 1.94942 0
M  V30 1492 C 136.424 -1.44972 0.810696 0
M  V30 1493 O 137.609 -1.58023 1.06927 0
M  V30 1494 C 134.749 -2.57416 2.2985 0
M  V30 1495 C 133.862 -2.43537 3.5681 0
M  V30 1496 C 132.997 -3.70134 3.81017 0
M  V30 1497 C 132.036 -3.51109 5.01387 0
M  V30 1498 N 131.173 -4.6973 5.21822 0
M  V30 1499 H 136.013 -0.900304 2.84075 0
M  V30 1500 H 133.55 -0.43318 1.40577 0
M  V30 1501 H 135.508 -3.35409 2.48106 0
M  V30 1502 H 134.138 -2.88975 1.43852 0
M  V30 1503 H 133.19 -1.56816 3.46573 0
M  V30 1504 H 134.502 -2.25415 4.4496 0
M  V30 1505 H 133.656 -4.56566 3.9954 0
M  V30 1506 H 132.395 -3.91215 2.91207 0
M  V30 1507 H 131.4 -2.63063 4.82782 0
M  V30 1508 H 132.625 -3.31468 5.9271 0
M  V30 1509 H 130.571 -4.91065 4.34961 0
M  V30 1510 H 130.488 -4.54452 6.0416 0
M  V30 1511 H 131.756 -5.57499 5.44808 0
M  V30 1512 N 135.985 -1.50799 -0.457987 0
M  V30 1513 C 136.948 -1.7005 -1.53674 0
M  V30 1514 C 137.948 -0.570881 -1.50325 0
M  V30 1515 O 139.138 -0.838126 -1.52712 0
M  V30 1516 C 136.27 -1.73788 -2.93276 0
M  V30 1517 H 137.463 -2.66306 -1.37917 0
M  V30 1518 H 135.016 -1.40477 -0.685271 0
M  V30 1519 H 135.751 -0.792717 -3.14462 0
M  V30 1520 H 135.536 -2.55864 -2.97113 0
M  V30 1521 H 137.026 -1.90591 -3.71571 0
M  V30 1522 N 137.463 0.71206 -1.40597 0
M  V30 1523 C 138.393 1.83889 -1.43899 0
M  V30 1524 C 139.374 1.67442 -0.299504 0
M  V30 1525 O 140.559 1.87421 -0.508624 0
M  V30 1526 C 137.689 3.21877 -1.30431 0
M  V30 1527 C 136.643 3.53002 -2.42019 0
M  V30 1528 C 135.969 4.90172 -2.13626 0
M  V30 1529 C 137.269 3.53643 -3.84362 0
M  V30 1530 H 138.963 1.81383 -2.38203 0
M  V30 1531 H 136.509 0.871237 -1.14654 0
M  V30 1532 H 138.462 4.00404 -1.31357 0
M  V30 1533 H 137.186 3.24968 -0.326049 0
M  V30 1534 H 135.845 2.76818 -2.40349 0
M  V30 1535 H 135.493 4.89869 -1.14182 0
M  V30 1536 H 135.193 5.11962 -2.88389 0
M  V30 1537 H 136.717 5.71028 -2.1624 0
M  V30 1538 H 138.131 4.22203 -3.87837 0
M  V30 1539 H 136.528 3.86961 -4.58673 0
M  V30 1540 H 137.598 2.52954 -4.13693 0
M  V30 1541 N 138.941 1.26152 0.944643 0
M  V30 1542 C 139.888 1.07408 2.04285 0
M  V30 1543 C 140.858 -0.0198413 1.66088 0
M  V30 1544 O 142.043 0.139264 1.90291 0
M  V30 1545 C 139.183 0.70945 3.37729 0
M  V30 1546 C 138.296 1.87926 3.88983 0
M  V30 1547 C 137.431 1.45807 5.10797 0
M  V30 1548 C 136.47 2.5964 5.54305 0
M  V30 1549 N 135.607 2.18226 6.67324 0
M  V30 1550 H 140.447 2.01389 2.1965 0
M  V30 1551 H 137.984 1.00275 1.07626 0
M  V30 1552 H 139.942 0.478948 4.14442 0
M  V30 1553 H 138.572 -0.193389 3.2222 0
M  V30 1554 H 137.624 2.22279 3.08701 0
M  V30 1555 H 138.936 2.73377 4.17213 0
M  V30 1556 H 138.09 1.18781 5.94959 0
M  V30 1557 H 136.829 0.574414 4.84305 0
M  V30 1558 H 135.834 2.87399 4.68702 0
M  V30 1559 H 137.059 3.48599 5.828 0
M  V30 1560 H 135.005 1.3229 6.42523 0
M  V30 1561 H 134.922 2.97221 6.95123 0
M  V30 1562 H 136.19 1.94403 7.54869 0
M  V30 1563 N 140.419 -1.14872 1.07899 0
M  V30 1564 C 141.696 -1.81928 0.71845 0
M  V30 1565 C 142.076 -1.95417 -0.798455 0
M  V30 1566 O 141.424 -1.50997 -1.715 0
M  V30 1567 C 141.634 -3.17937 1.43935 0
M  V30 1568 C 142.982 -3.93501 1.59506 0
M  V30 1569 O 144.006 -3.27509 1.40058 0
M  V30 1570 O 142.865 -5.1183 1.91551 0
M  V30 1571 H 139.959 -0.78628 0.256305 0
M  V30 1572 H 142.505 -1.21934 1.18026 0
M  V30 1573 H 141.277 -3.0325 2.47295 0
M  V30 1574 H 140.9 -3.85619 0.968687 0
M  V30 1575 N 141.898 -0.863906 -1.31812 0
M  V30 1576 C 143.309 -0.52522 -1.7916 0
M  V30 1577 C 143.66 0.957518 -1.71248 0
M  V30 1578 O 142.785 1.74734 -1.27659 0
M  V30 1579 C 143.38 -0.9466 -3.25307 0
M  V30 1580 C 141.939 -0.659668 -3.70574 0
M  V30 1581 C 141.086 -1.14126 -2.52726 0
M  V30 1582 H 144.037 -1.05022 -1.1898 0
M  V30 1583 H 144.058 -0.266766 -3.79564 0
M  V30 1584 H 143.57 -2.02579 -3.31034 0
M  V30 1585 H 141.671 0.408416 -3.70355 0
M  V30 1586 H 141.784 -1.23245 -4.62977 0
M  V30 1587 H 140.148 -0.561216 -2.4844 0
M  V30 1588 H 140.931 -2.22775 -2.61201 0
M  V30 1589 N 143.376 1.44774 -0.622745 0
M  V30 1590 C 144.623 2.02121 -0.1239 0
M  V30 1591 C 144.951 1.48915 1.25118 0
M  V30 1592 O 144.206 0.660045 1.84233 0
M  V30 1593 C 144.505 3.57364 -0.0508323 0
M  V30 1594 C 144.171 4.29787 -1.36358 0
M  V30 1595 C 142.833 4.4929 -1.72314 0
M  V30 1596 C 145.185 4.71062 -2.23048 0
M  V30 1597 C 142.513 5.07325 -2.94682 0
M  V30 1598 C 144.865 5.30452 -3.44679 0
M  V30 1599 C 143.529 5.48175 -3.80868 0
M  V30 1600 H 142.799 0.739612 -0.0453381 0
M  V30 1601 H 145.446 1.73648 -0.807389 0
M  V30 1602 H 143.751 3.85202 0.715991 0
M  V30 1603 H 145.448 3.99456 0.351533 0
M  V30 1604 H 142.038 4.14932 -1.07375 0
M  V30 1605 H 146.222 4.55715 -1.96565 0
M  V30 1606 H 141.478 5.19235 -3.22809 0
M  V30 1607 H 145.652 5.61385 -4.12092 0
M  V30 1608 H 143.279 5.92912 -4.75773 0
M  V30 1609 N 144.854 0.36279 1.53368 0
M  V30 1610 C 145.784 -0.476976 2.28576 0
M  V30 1611 C 146.765 -1.08631 1.30894 0
M  V30 1612 O 147.95 -1.10409 1.59761 0
M  V30 1613 C 145.08 -1.61828 3.07293 0
M  V30 1614 C 144.034 -1.13633 4.1264 0
M  V30 1615 C 143.36 -2.36766 4.79423 0
M  V30 1616 C 144.66 -0.223061 5.21823 0
M  V30 1617 H 146.354 0.150474 2.99022 0
M  V30 1618 H 143.9 0.0738103 1.43811 0
M  V30 1619 H 145.853 -2.21237 3.58653 0
M  V30 1620 H 144.577 -2.27292 2.34533 0
M  V30 1621 H 143.236 -0.564945 3.62221 0
M  V30 1622 H 142.884 -3.0068 4.03238 0
M  V30 1623 H 142.584 -2.05192 5.50609 0
M  V30 1624 H 144.108 -2.96865 5.33576 0
M  V30 1625 H 145.522 -0.724545 5.68703 0
M  V30 1626 H 143.919 0.001678 6.001 0
M  V30 1627 H 144.989 0.735553 4.79289 0
M  V30 1628 N 146.332 -1.57332 0.0918853 0
M  V30 1629 C 147.743 -1.81496 -0.437739 0
M  V30 1630 C 148.094 -1.00727 -1.6837 0
M  V30 1631 O 147.219 -0.235694 -2.15113 0
M  V30 1632 C 147.814 -3.29197 -0.800939 0
M  V30 1633 C 146.373 -3.54136 -1.27532 0
M  V30 1634 C 145.52 -2.75979 -0.270392 0
M  V30 1635 H 148.471 -1.55494 0.317366 0
M  V30 1636 H 148.492 -3.42344 -1.66074 0
M  V30 1637 H 148.004 -3.87955 0.106078 0
M  V30 1638 H 146.105 -3.00705 -2.20016 0
M  V30 1639 H 146.218 -4.62792 -1.23938 0
M  V30 1640 H 144.582 -2.43349 -0.751872 0
M  V30 1641 H 145.365 -3.37484 0.629248 0
M  V30 1642 N 147.81 0.181792 -1.56548 0
M  V30 1643 C 148.757 1.22521 -1.95595 0
M  V30 1644 C 149.727 1.4454 -0.818373 0
M  V30 1645 O 150.912 1.57454 -1.07763 0
M  V30 1646 C 148.052 2.56193 -2.31212 0
M  V30 1647 C 147.165 2.41641 -3.58097 0
M  V30 1648 C 146.3 3.68108 -3.82975 0
M  V30 1649 C 145.339 3.48445 -5.03242 0
M  V30 1650 N 144.476 4.66956 -5.24306 0
M  V30 1651 H 149.316 0.885226 -2.84548 0
M  V30 1652 H 146.853 0.425718 -1.40805 0
M  V30 1653 H 148.811 3.34088 -2.49882 0
M  V30 1654 H 147.441 2.88208 -1.45382 0
M  V30 1655 H 146.493 1.54976 -3.474 0
M  V30 1656 H 147.805 2.23052 -4.46149 0
M  V30 1657 H 146.959 4.54441 -4.01956 0
M  V30 1658 H 145.698 3.89666 -2.93278 0
M  V30 1659 H 144.703 2.60499 -4.8417 0
M  V30 1660 H 145.928 3.2832 -5.9446 0
M  V30 1661 H 143.874 4.88752 -4.37559 0
M  V30 1662 H 143.791 4.51242 -6.06561 0
M  V30 1663 H 145.059 5.54602 -5.47756 0
M  V30 1664 N 149.288 1.51039 0.449983 0
M  V30 1665 C 150.236 1.71995 1.5659 0
M  V30 1666 C 151.23 0.586029 1.5894 0
M  V30 1667 O 152.436 0.76709 1.62837 0
M  V30 1668 H 148.811 0.543233 0.520001 0
M  V30 1669 H 150.782 2.65562 1.36085 0
M  V30 1670 C 149.531 1.8506 2.9436 0
M  V30 1671 H 148.854 2.71712 2.93279 0
M  V30 1672 H 150.294 2.0374 3.71842 0
M  V30 1673 C 148.753 0.607277 3.31382 0
M  V30 1674 O 149.283 -0.243903 4.00959 0
M  V30 1675 N 147.489 0.455073 2.87015 0
M  V30 1676 H 147.036 1.14879 2.30566 0
M  V30 1677 H 146.994 -0.375611 3.12148 0
M  V30 1678 N 150.766 -0.704594 1.40972 0
M  V30 1679 C 152.012 -1.46675 1.40051 0
M  V30 1680 C 152.345 -1.94199 0.00641102 0
M  V30 1681 O 151.62 -1.68916 -0.964235 0
M  V30 1682 C 151.903 -2.68505 2.39952 0
M  V30 1683 C 151.756 -2.26805 3.88432 0
M  V30 1684 C 153.075 -3.70686 2.37233 0
M  V30 1685 H 150.194 -0.532015 0.510028 0
M  V30 1686 H 152.836 -0.803255 1.72185 0
M  V30 1687 H 150.986 -3.25114 2.1268 0
M  V30 1688 H 152.658 -1.75592 4.26574 0
M  V30 1689 H 150.901 -1.58685 4.03734 0
M  V30 1690 H 151.572 -3.14181 4.53866 0
M  V30 1691 H 154.048 -3.23731 2.61415 0
M  V30 1692 H 152.924 -4.53553 3.09162 0
M  V30 1693 H 153.185 -4.19754 1.38777 0
M  V30 1694 N 152.244 -1.26651 -0.937939 0
M  V30 1695 C 153.66 -1.03834 -1.21205 0
M  V30 1696 C 153.86 0.234502 -2.00131 0
M  V30 1697 O 152.916 0.942767 -2.3424 0
M  V30 1698 C 154.229 -2.27167 -1.97017 0
M  V30 1699 C 155.777 -2.32101 -2.09996 0
M  V30 1700 C 156.252 -3.55136 -2.8921 0
M  V30 1701 N 157.743 -3.55632 -2.96783 0
M  V30 1702 C 158.478 -4.475 -3.58512 0
M  V30 1703 N 157.974 -5.4966 -4.21717 0
M  V30 1704 N 159.767 -4.35145 -3.55816 0
M  V30 1705 H 151.918 -2.08398 -0.410391 0
M  V30 1706 H 154.181 -0.916031 -0.244114 0
M  V30 1707 H 153.887 -3.19765 -1.46434 0
M  V30 1708 H 153.761 -2.31672 -2.97671 0
M  V30 1709 H 156.148 -1.40015 -2.59769 0
M  V30 1710 H 156.229 -2.31605 -1.08594 0
M  V30 1711 H 155.873 -4.47553 -2.40123 0
M  V30 1712 H 155.803 -3.5288 -3.90875 0
M  V30 1713 H 158.294 -2.81743 -2.51852 0
M  V30 1714 H 158.607 -6.15943 -4.66727 0
M  V30 1715 H 156.952 -5.53514 -4.20294 0
M  V30 1716 H 160.143 -3.5455 -3.05634 0
M  V30 1717 H 160.316 -5.06934 -4.03636 0
M  V30 1718 N 153.722 1.14298 -1.08507 0
M  V30 1719 C 154.97 1.84993 -0.813763 0
M  V30 1720 C 155.291 1.83405 0.662393 0
M  V30 1721 O 154.561 1.28319 1.48024 0
M  V30 1722 H 153.141 0.684966 -0.298045 0
M  V30 1723 H 155.803 1.385 -1.37126 0
M  V30 1724 H 154.899 2.89788 -1.15884 0
M  V30 1725 N 155.201 0.870884 1.31352 0
M  V30 1726 C 156.431 0.496049 2.00557 0
M  V30 1727 C 156.839 -0.916241 1.65534 0
M  V30 1728 O 156.182 -1.61188 0.881134 0
M  V30 1729 C 156.244 0.574418 3.54881 0
M  V30 1730 C 155.908 1.94849 4.1338 0
M  V30 1731 C 156.905 2.91611 4.30417 0
M  V30 1732 C 154.59 2.25005 4.49086 0
M  V30 1733 C 156.584 4.16672 4.82352 0
M  V30 1734 C 154.271 3.50315 5.00722 0
M  V30 1735 C 155.269 4.45964 5.17306 0
M  V30 1736 O 154.957 5.69052 5.67833 0
M  V30 1737 H 154.689 0.191664 0.64826 0
M  V30 1738 H 157.243 1.17409 1.68536 0
M  V30 1739 H 155.473 -0.160549 3.86367 0
M  V30 1740 H 157.162 0.212879 4.05341 0
M  V30 1741 H 157.928 2.69622 4.03149 0
M  V30 1742 H 153.807 1.51332 4.35453 0
M  V30 1743 H 157.351 4.91336 4.95211 0
M  V30 1744 H 153.248 3.72147 5.27424 0
M  V30 1745 H 154.016 5.71236 5.86201 0
M  V30 1746 N 156.679 -1.44442 0.630414 0
M  V30 1747 C 158.095 -1.56832 0.295973 0
M  V30 1748 C 158.295 -1.61806 -1.20088 0
M  V30 1749 O 157.351 -1.5607 -1.9849 0
M  V30 1750 C 158.664 -2.84031 0.987264 0
M  V30 1751 C 160.212 -2.97742 0.96534 0
M  V30 1752 C 160.687 -4.27743 1.63708 0
M  V30 1753 N 162.178 -4.34555 1.60364 0
M  V30 1754 C 162.913 -5.33862 2.09234 0
M  V30 1755 N 162.409 -6.39578 2.66292 0
M  V30 1756 N 164.202 -5.25366 1.99867 0
M  V30 1757 H 156.353 -1.39457 1.60205 0
M  V30 1758 H 158.616 -0.668237 0.672431 0
M  V30 1759 H 158.322 -2.86338 2.04215 0
M  V30 1760 H 158.196 -3.73534 0.524588 0
M  V30 1761 H 160.583 -2.94989 -0.0810639 0
M  V30 1762 H 160.664 -2.09589 1.4665 0
M  V30 1763 H 160.308 -4.31255 2.68293 0
M  V30 1764 H 160.238 -5.14752 1.11076 0
M  V30 1765 H 162.729 -3.58772 1.18705 0
M  V30 1766 H 163.042 -7.11637 3.01317 0
M  V30 1767 H 161.387 -6.40265 2.70343 0
M  V30 1768 H 164.578 -4.41688 1.55013 0
M  V30 1769 H 164.751 -6.02606 2.38265 0
M  V30 1770 N 158.157 -0.370918 -1.53173 0
M  V30 1771 C 159.067 0.480823 -2.2962 0
M  V30 1772 C 160.083 1.08789 -1.35798 0
M  V30 1773 O 161.259 1.09768 -1.68858 0
M  V30 1774 C 158.324 1.60227 -3.07454 0
M  V30 1775 C 157.385 1.0222 -4.16953 0
M  V30 1776 C 156.618 2.0902 -4.91066 0
M  V30 1777 O 156.841 3.30222 -4.65091 0
M  V30 1778 O 155.775 1.71778 -5.76867 0
M  V30 1779 H 159.601 -0.141421 -3.03371 0
M  V30 1780 H 157.186 -0.135146 -1.48787 0
M  V30 1781 H 159.068 2.25417 -3.56041 0
M  V30 1782 H 157.743 2.20982 -2.36535 0
M  V30 1783 H 156.65 0.334064 -3.72605 0
M  V30 1784 H 157.983 0.459131 -4.90054 0
M  V30 1785 N 159.635 1.57281 -0.100228 0
M  V30 1786 C 160.598 2.13158 0.842398 0
M  V30 1787 C 161.598 1.06202 1.20738 0
M  V30 1788 O 162.788 1.32066 1.13597 0
M  V30 1789 C 159.92 2.65639 2.13655 0
M  V30 1790 H 161.113 2.97766 0.357114 0
M  V30 1791 H 158.666 1.5559 0.148823 0
M  V30 1792 H 159.401 1.84566 2.66657 0
M  V30 1793 H 159.186 3.43844 1.88451 0
M  V30 1794 H 160.676 3.08846 2.81077 0
M  V30 1795 N 161.113 -0.173488 1.56642 0
M  V30 1796 C 162.046 -1.24353 1.91342 0
M  V30 1797 C 163.024 -1.4289 0.775965 0
M  V30 1798 O 164.208 -1.57932 1.02907 0
M  V30 1799 C 161.335 -2.60683 2.16245 0
M  V30 1800 C 160.381 -2.58894 3.38934 0
M  V30 1801 S 161.214 -2.0819 4.93373 0
M  V30 1802 C 162.37 -3.46302 5.21369 0
M  V30 1803 H 162.603 -0.947345 2.81803 0
M  V30 1804 H 160.136 -0.377958 1.49703 0
M  V30 1805 H 162.094 -3.39149 2.31275 0
M  V30 1806 H 160.755 -2.87502 1.26496 0
M  V30 1807 H 159.948 -3.59188 3.53553 0
M  V30 1808 H 159.55 -1.88522 3.2301 0
M  V30 1809 H 161.842 -4.42287 5.13214 0
M  V30 1810 H 162.785 -3.3656 6.23003 0
M  V30 1811 H 163.193 -3.42214 4.48943 0
M  V30 1812 N 162.591 -1.51276 -0.441967 0
M  V30 1813 C 163.501 -1.75092 -1.56141 0
M  V30 1814 C 164.517 -0.634963 -1.62001 0
M  V30 1815 O 165.693 -0.916686 -1.79329 0
M  V30 1816 C 162.758 -1.86666 -2.92158 0
M  V30 1817 C 161.819 -3.10506 -2.96453 0
M  V30 1818 C 161.052 -3.21519 -4.25982 0
M  V30 1819 O 161.275 -2.38586 -5.18105 0
M  V30 1820 O 160.209 -4.14465 -4.36466 0
M  V30 1821 H 164.035 -2.70044 -1.38961 0
M  V30 1822 H 161.62 -1.35722 -0.624499 0
M  V30 1823 H 163.502 -1.96292 -3.72891 0
M  V30 1824 H 162.177 -0.949014 -3.09476 0
M  V30 1825 H 161.084 -3.06363 -2.14692 0
M  V30 1826 H 162.417 -4.01945 -2.84079 0
M  V30 1827 N 164.069 0.697108 -1.41344 0
M  V30 1828 C 164.979 1.84088 -1.45427 0
M  V30 1829 C 165.995 1.70545 -0.34501 0
M  V30 1830 O 167.171 1.92488 -0.592492 0
M  V30 1831 C 164.236 3.20056 -1.33286 0
M  V30 1832 C 163.297 3.45718 -2.54514 0
M  V30 1833 C 162.53 4.75199 -2.42944 0
M  V30 1834 O 162.753 5.51579 -1.45318 0
M  V30 1835 O 161.687 5.0161 -3.32672 0
M  V30 1836 H 165.513 1.836 -2.41919 0
M  V30 1837 H 163.098 0.849966 -1.22866 0
M  V30 1838 H 164.98 4.01236 -1.28794 0
M  V30 1839 H 163.655 3.2123 -0.39909 0
M  V30 1840 H 162.562 2.64474 -2.64583 0
M  V30 1841 H 163.895 3.49356 -3.46715 0
M  V30 1842 N 165.547 1.27147 0.931209 0
M  V30 1843 C 166.457 1.11372 2.06478 0
M  V30 1844 C 167.473 0.044645 1.73943 0
M  V30 1845 O 168.649 0.250417 1.99837 0
M  V30 1846 C 165.714 0.758838 3.38294 0
M  V30 1847 C 164.775 1.90841 3.84549 0
M  V30 1848 C 164.008 1.57036 5.10074 0
M  V30 1849 O 164.231 0.476645 5.68405 0
M  V30 1850 O 163.165 2.40839 5.51616 0
M  V30 1851 H 166.991 2.06493 2.22698 0
M  V30 1852 H 164.576 1.06301 1.04978 0
M  V30 1853 H 166.458 0.574098 4.17471 0
M  V30 1854 H 165.133 -0.162879 3.2329 0
M  V30 1855 H 164.04 2.14819 3.06274 0
M  V30 1856 H 165.373 2.81021 4.04089 0
M  V30 1857 N 167.025 -1.13721 1.09112 0
M  V30 1858 C 167.988 -2.17222 0.731241 0
M  V30 1859 C 168.988 -1.59035 -0.237566 0
M  V30 1860 O 170.178 -1.74192 -0.0161704 0
M  V30 1861 C 167.31 -3.40804 0.0808443 0
M  V30 1862 H 168.503 -2.50573 1.64783 0
M  V30 1863 H 166.056 -1.28493 0.889897 0
M  V30 1864 H 166.791 -3.1304 -0.847127 0
M  V30 1865 H 166.576 -3.84306 0.777896 0
M  V30 1866 H 168.066 -4.1731 -0.155657 0
M  V30 1867 N 168.503 -0.877838 -1.30888 0
M  V30 1868 C 169.919 -0.570844 -1.49042 0
M  V30 1869 C 170.119 0.893159 -1.80624 0
M  V30 1870 O 169.175 1.67485 -1.88958 0
M  V30 1871 C 170.488 -1.47784 -2.61878 0
M  V30 1872 C 172.036 -1.48071 -2.75761 0
M  V30 1873 C 172.511 -2.37347 -3.91702 0
M  V30 1874 N 174.002 -2.35271 -3.99001 0
M  V30 1875 C 174.737 -3.01063 -4.88004 0
M  V30 1876 N 174.233 -3.76055 -5.81854 0
M  V30 1877 N 176.026 -2.90332 -4.81315 0
M  V30 1878 H 168.177 -1.82502 -1.0866 0
M  V30 1879 H 170.44 -0.780797 -0.537644 0
M  V30 1880 H 170.146 -2.51993 -2.45341 0
M  V30 1881 H 170.02 -1.18215 -3.58197 0
M  V30 1882 H 172.407 -0.446166 -2.91708 0
M  V30 1883 H 172.488 -1.81668 -1.80085 0
M  V30 1884 H 172.132 -3.40883 -3.76512 0
M  V30 1885 H 172.062 -2.01071 -4.86701 0
M  V30 1886 H 174.553 -1.80768 -3.3186 0
M  V30 1887 H 174.866 -4.23366 -6.46514 0
M  V30 1888 H 173.211 -3.80163 -5.81808 0
M  V30 1889 H 176.402 -2.31278 -4.06974 0
M  V30 1890 H 176.575 -3.41885 -5.50471 0
M  V30 1891 N 169.982 1.44106 -0.638065 0
M  V30 1892 C 170.945 2.29138 0.0531013 0
M  V30 1893 C 171.945 1.41409 0.765506 0
M  V30 1894 O 173.135 1.63206 0.609046 0
M  V30 1895 C 170.267 3.23144 1.08584 0
M  V30 1896 H 171.46 2.91739 -0.694883 0
M  V30 1897 H 169.013 1.51134 -0.398538 0
M  V30 1898 H 169.748 2.65408 1.86357 0
M  V30 1899 H 169.533 3.87804 0.578852 0
M  V30 1900 H 171.023 3.87004 1.56899 0
M  V30 1901 N 171.46 0.379036 1.52974 0
M  V30 1902 C 172.707 -0.206421 2.01445 0
M  V30 1903 C 173.035 -1.47668 1.26587 0
M  V30 1904 O 172.29 -1.92514 0.351675 0
M  V30 1905 C 172.589 -0.53096 3.53434 0
M  V30 1906 C 172.255 0.646546 4.46241 0
M  V30 1907 C 170.917 0.969604 4.7133 0
M  V30 1908 C 173.269 1.43479 5.01062 0
M  V30 1909 C 170.597 2.08263 5.48492 0
M  V30 1910 C 172.949 2.53834 5.7944 0
M  V30 1911 C 171.613 2.86659 6.02812 0
M  V30 1912 H 170.883 -0.0755349 0.73714 0
M  V30 1913 H 173.53 0.514271 1.84465 0
M  V30 1914 H 171.835 -1.33285 3.68432 0
M  V30 1915 H 173.532 -0.996417 3.88423 0
M  V30 1916 H 170.122 0.384734 4.2687 0
M  V30 1917 H 174.306 1.19844 4.81613 0
M  V30 1918 H 169.562 2.34078 5.64816 0
M  V30 1919 H 173.736 3.15319 6.20924 0
M  V30 1920 H 171.363 3.73026 6.62387 0
M  V30 1921 N 172.938 -1.57226 0.108567 0
M  V30 1922 C 174.185 -1.94833 -0.551943 0
M  V30 1923 C 174.513 -0.991204 -1.67348 0
M  V30 1924 O 173.768 -0.0131878 -1.95696 0
M  V30 1925 C 174.067 -3.38911 -1.13463 0
M  V30 1926 C 173.733 -4.50696 -0.135509 0
M  V30 1927 C 172.395 -4.80998 0.139252 0
M  V30 1928 C 174.747 -5.18333 0.545957 0
M  V30 1929 C 172.075 -5.76259 1.10194 0
M  V30 1930 C 174.427 -6.14627 1.49721 0
M  V30 1931 C 173.091 -6.43327 1.78006 0
M  V30 1932 H 172.361 -0.712944 -0.20197 0
M  V30 1933 H 175.008 -1.90582 0.18726 0
M  V30 1934 H 173.313 -3.39805 -1.95037 0
M  V30 1935 H 175.01 -3.65317 -1.65362 0
M  V30 1936 H 171.6 -4.27087 -0.359846 0
M  V30 1937 H 175.784 -4.95087 0.346842 0
M  V30 1938 H 171.04 -5.96804 1.32795 0
M  V30 1939 H 175.214 -6.66126 2.03099 0
M  V30 1940 H 172.841 -7.1695 2.52759 0
M  V30 1941 N 174.416 0.165178 -1.56732 0
M  V30 1942 C 175.664 0.879068 -1.8198 0
M  V30 1943 C 175.985 1.82514 -0.686561 0
M  V30 1944 O 175.255 1.93694 0.293146 0
M  V30 1945 H 173.835 0.327608 -0.671329 0
M  V30 1946 H 176.497 0.163526 -1.94213 0
M  V30 1947 H 175.593 1.45228 -2.76252 0
M  V30 1948 N 175.894 1.51508 0.433938 0
M  V30 1949 C 176.804 1.75917 1.5521 0
M  V30 1950 C 177.82 0.643545 1.61662 0
M  V30 1951 O 178.996 0.926183 1.7884 0
M  V30 1952 C 176.061 1.88213 2.91164 0
M  V30 1953 C 175.122 3.12074 2.94802 0
M  V30 1954 C 174.355 3.23774 4.24271 0
M  V30 1955 O 174.578 2.4133 5.16833 0
M  V30 1956 O 173.512 4.16774 4.34262 0
M  V30 1957 H 177.338 2.70777 1.37527 0
M  V30 1958 H 174.923 1.36051 0.617293 0
M  V30 1959 H 176.805 1.98267 3.71845 0
M  V30 1960 H 175.48 0.965413 3.08968 0
M  V30 1961 H 174.387 3.07497 2.13065 0
M  V30 1962 H 175.72 4.03446 2.81943 0
M  V30 1963 N 177.372 -0.689602 1.41712 0
M  V30 1964 C 178.618 -1.45041 1.42599 0
M  V30 1965 C 178.973 -1.92366 0.0363764 0
M  V30 1966 O 178.266 -1.67022 -0.938844 0
M  V30 1967 C 178.46 -2.67298 2.37247 0
M  V30 1968 C 178.289 -2.31935 3.85274 0
M  V30 1969 C 177.059 -2.2201 4.53916 0
M  V30 1970 C 179.257 -1.94526 4.76093 0
M  V30 1971 N 177.239 -1.79594 5.87043 0
M  V30 1972 C 178.61 -1.62915 5.98213 0
M  V30 1973 C 180.665 -1.81388 4.63684 0
M  V30 1974 C 179.368 -1.19486 7.09306 0
M  V30 1975 C 181.394 -1.39364 5.74745 0
M  V30 1976 C 180.756 -1.08668 6.95967 0
M  V30 1977 H 176.855 -0.527806 0.577014 0
M  V30 1978 H 179.439 -0.797266 1.77628 0
M  V30 1979 H 177.61 -3.30325 2.04304 0
M  V30 1980 H 179.342 -3.33806 2.28814 0
M  V30 1981 H 176.097 -2.406 4.07932 0
M  V30 1982 H 176.521 -1.60851 6.57614 0
M  V30 1983 H 181.163 -2.03772 3.70455 0
M  V30 1984 H 178.881 -0.958477 8.02396 0
M  V30 1985 H 182.467 -1.2974 5.6715 0
M  V30 1986 H 181.347 -0.766417 7.80446 0
M  V30 1987 N 178.85 -1.27639 -0.924453 0
M  V30 1988 C 180.266 -1.05113 -1.20097 0
M  V30 1989 C 180.466 0.213262 -2.00368 0
M  V30 1990 O 179.522 0.91787 -2.35226 0
M  V30 1991 C 180.835 -2.29244 -1.94596 0
M  V30 1992 C 182.383 -2.34315 -2.07522 0
M  V30 1993 C 182.858 -3.58183 -2.85427 0
M  V30 1994 N 184.349 -3.5876 -2.92994 0
M  V30 1995 C 185.084 -4.51277 -3.53746 0
M  V30 1996 N 184.58 -5.54102 -4.15863 0
M  V30 1997 N 186.373 -4.38894 -3.51181 0
M  V30 1998 H 178.524 -2.08821 -0.388264 0
M  V30 1999 H 180.787 -0.918568 -0.234385 0
M  V30 2000 H 180.493 -3.21301 -1.43034 0
M  V30 2001 H 180.367 -2.34816 -2.95197 0
M  V30 2002 H 182.754 -1.42762 -2.58269 0
M  V30 2003 H 182.835 -2.32744 -1.06131 0
M  V30 2004 H 182.479 -4.50074 -2.35363 0
M  V30 2005 H 182.409 -3.57006 -3.8711 0
M  V30 2006 H 184.9 -2.84398 -2.4885 0
M  V30 2007 H 185.213 -6.20859 -4.60168 0
M  V30 2008 H 183.558 -5.57941 -4.144 0
M  V30 2009 H 186.749 -3.57772 -3.01856 0
M  V30 2010 H 186.922 -5.11186 -3.98237 0
M  V30 2011 N 180.328 1.1314 -1.09713 0
M  V30 2012 C 181.576 1.84119 -0.833338 0
M  V30 2013 C 181.897 1.84097 0.642904 0
M  V30 2014 O 181.167 1.29881 1.46655 0
M  V30 2015 H 179.747 0.681766 -0.305293 0
M  V30 2016 H 182.409 1.37038 -1.38588 0
M  V30 2017 H 181.505 2.88543 -1.18951 0
M  V30 2018 N 181.806 0.884767 1.30421 0
M  V30 2019 C 182.716 0.355398 2.31892 0
M  V30 2020 C 183.732 -0.542261 1.65335 0
M  V30 2021 O 184.908 -0.435432 1.96637 0
M  V30 2022 C 181.973 -0.421661 3.44126 0
M  V30 2023 C 181.034 0.505727 4.26311 0
M  V30 2024 C 180.267 -0.234343 5.33185 0
M  V30 2025 O 180.49 -1.46045 5.51386 0
M  V30 2026 O 179.424 0.415443 6.00465 0
M  V30 2027 H 183.25 1.19685 2.79122 0
M  V30 2028 H 180.835 0.648596 1.34587 0
M  V30 2029 H 182.717 -0.861641 4.12497 0
M  V30 2030 H 181.392 -1.23942 2.99032 0
M  V30 2031 H 180.299 0.994513 3.60639 0
M  V30 2032 H 181.632 1.28948 4.75009 0
M  V30 2033 N 183.284 -1.43765 0.645699 0
M  V30 2034 C 184.194 -2.34544 -0.0512957 0
M  V30 2035 C 185.21 -1.53455 -0.82022 0
M  V30 2036 O 186.386 -1.86133 -0.769176 0
M  V30 2037 C 183.451 -3.31636 -1.01087 0
M  V30 2038 C 182.512 -4.2863 -0.239712 0
M  V30 2039 C 181.745 -5.21084 -1.15358 0
M  V30 2040 O 181.968 -5.1779 -2.39269 0
M  V30 2041 O 180.902 -5.98593 -0.630038 0
M  V30 2042 H 184.728 -2.95624 0.695718 0
M  V30 2043 H 182.313 -1.43781 0.405882 0
M  V30 2044 H 184.195 -3.9136 -1.56254 0
M  V30 2045 H 182.87 -2.73069 -1.73824 0
M  V30 2046 H 181.777 -3.72408 0.355356 0
M  V30 2047 H 183.11 -4.90157 0.447936 0
M  V30 2048 N 184.763 -0.387143 -1.52771 0
M  V30 2049 C 186.179 -0.037007 -1.59557 0
M  V30 2050 C 186.379 1.44801 -1.40124 0
M  V30 2051 O 185.435 2.21227 -1.21716 0
M  V30 2052 C 186.748 -0.512256 -2.96305 0
M  V30 2053 C 188.296 -0.468328 -3.09476 0
M  V30 2054 C 188.771 -0.919731 -4.4867 0
M  V30 2055 N 190.262 -0.875656 -4.54848 0
M  V30 2056 C 190.997 -1.19637 -5.6078 0
M  V30 2057 N 190.493 -1.58745 -6.74368 0
M  V30 2058 N 192.286 -1.11776 -5.50874 0
M  V30 2059 H 184.437 -1.35395 -1.63652 0
M  V30 2060 H 186.7 -0.554818 -0.768688 0
M  V30 2061 H 186.406 -1.54935 -3.15734 0
M  V30 2062 H 186.28 0.089805 -3.77093 0
M  V30 2063 H 188.667 0.559671 -2.89744 0
M  V30 2064 H 188.748 -1.10616 -2.30646 0
M  V30 2065 H 188.392 -1.94595 -4.69143 0
M  V30 2066 H 188.322 -0.258927 -5.25963 0
M  V30 2067 H 190.813 -0.587843 -3.733 0
M  V30 2068 H 191.126 -1.81586 -7.51163 0
M  V30 2069 H 189.471 -1.6263 -6.75705 0
M  V30 2070 H 192.662 -0.811264 -4.61016 0
M  V30 2071 H 192.835 -1.37103 -6.3333 0
M  V30 2072 N 186.241 1.57166 -0.116904 0
M  V30 2073 C 187.518 1.86645 0.585049 0
M  V30 2074 C 187.898 1.0177 1.84949 0
M  V30 2075 O 187.246 0.0960379 2.28298 0
M  V30 2076 C 187.456 3.37736 0.879507 0
M  V30 2077 C 188.804 4.06289 1.23348 0
M  V30 2078 O 189.828 3.42743 0.969836 0
M  V30 2079 O 188.687 5.18455 1.7282 0
M  V30 2080 H 185.781 0.772593 0.295007 0
M  V30 2081 H 188.327 1.69025 -0.151249 0
M  V30 2082 H 187.099 3.91296 -0.0166136 0
M  V30 2083 H 186.722 3.6078 1.67103 0
M  V30 2084 N 187.719 -0.156864 1.56817 0
M  V30 2085 C 188.649 -1.19589 2.00551 0
M  V30 2086 C 189.63 -1.4536 0.883426 0
M  V30 2087 O 190.815 -1.56449 1.15054 0
M  V30 2088 C 187.945 -2.53143 2.37773 0
M  V30 2089 C 186.899 -2.41913 3.53075 0
M  V30 2090 C 186.225 -3.80088 3.76081 0
M  V30 2091 C 187.525 -1.91157 4.86062 0
M  V30 2092 H 189.219 -0.832293 2.87599 0
M  V30 2093 H 186.765 -0.398918 1.38364 0
M  V30 2094 H 188.718 -3.26047 2.66967 0
M  V30 2095 H 187.442 -2.91319 1.4765 0
M  V30 2096 H 186.101 -1.71462 3.24031 0
M  V30 2097 H 185.749 -4.15683 2.83225 0
M  V30 2098 H 185.449 -3.73439 4.53671 0
M  V30 2099 H 186.973 -4.54556 4.0769 0
M  V30 2100 H 188.387 -2.53846 5.14038 0
M  V30 2101 H 186.784 -1.95422 5.67389 0
M  V30 2102 H 187.854 -0.866673 4.77092 0
M  V30 2103 N 189.197 -1.51736 -0.425897 0
M  V30 2104 C 190.474 -1.55519 -1.1863 0
M  V30 2105 C 190.854 -0.326219 -2.08564 0
M  V30 2106 O 190.202 0.688012 -2.17896 0
M  V30 2107 C 190.412 -2.87521 -1.9782 0
M  V30 2108 C 191.76 -3.39899 -2.54468 0
M  V30 2109 O 192.784 -2.89148 -2.08019 0
M  V30 2110 O 191.643 -4.2848 -3.39215 0
M  V30 2111 H 188.737 -0.625739 -0.540721 0
M  V30 2112 H 191.283 -1.64055 -0.434038 0
M  V30 2113 H 190.055 -3.68422 -1.31836 0
M  V30 2114 H 189.678 -2.822 -2.80088 0
M  V30 2115 N 190.675 0.682077 -1.42076 0
M  V30 2116 C 191.625 1.78823 -1.41444 0
M  V30 2117 C 192.609 1.58323 -0.28681 0
M  V30 2118 O 193.801 1.68926 -0.528498 0
M  V30 2119 C 190.93 3.17232 -1.3122 0
M  V30 2120 C 190.016 3.4338 -2.489 0
M  V30 2121 N 190.407 3.40152 -3.7434 0
M  V30 2122 C 188.705 3.73986 -2.43003 0
M  V30 2123 C 189.406 3.65581 -4.52466 0
M  V30 2124 N 188.382 3.85989 -3.8277 0
M  V30 2125 H 192.184 1.7471 -2.36334 0
M  V30 2126 H 189.698 0.882622 -1.36321 0
M  V30 2127 H 191.695 3.96489 -1.2885 0
M  V30 2128 H 190.355 3.22547 -0.373263 0
M  V30 2129 H 191.366 3.20221 -4.07037 0
M  V30 2130 H 188.043 3.86591 -1.57651 0
M  V30 2131 H 189.433 3.69108 -5.61435 0
M  V30 2132 N 192.153 1.28127 0.917671 0
M  V30 2133 C 193.063 1.13556 2.05286 0
M  V30 2134 C 194.079 0.0630914 1.73886 0
M  V30 2135 O 195.255 0.271598 1.9956 0
M  V30 2136 C 192.32 0.794676 3.3747 0
M  V30 2137 C 191.381 1.94909 3.82504 0
M  V30 2138 C 190.614 1.62437 5.0838 0
M  V30 2139 O 190.837 0.536905 5.67867 0
M  V30 2140 O 189.771 2.46677 5.4903 0
M  V30 2141 H 193.597 2.08844 2.20495 0
M  V30 2142 H 191.182 1.07409 1.03845 0
M  V30 2143 H 193.064 0.618344 4.16839 0
M  V30 2144 H 191.739 -0.128581 3.23445 0
M  V30 2145 H 190.646 2.18055 3.03978 0
M  V30 2146 H 191.979 2.85291 4.01086 0
M  V30 2147 N 193.631 -1.12557 1.10312 0
M  V30 2148 C 194.564 -2.1737 0.694674 0
M  V30 2149 C 195.542 -1.59745 -0.303373 0
M  V30 2150 O 196.726 -1.87408 -0.202578 0
M  V30 2151 C 193.853 -3.38691 0.0248052 0
M  V30 2152 C 192.899 -4.14943 0.986121 0
M  V30 2153 S 193.732 -4.73413 2.50281 0
M  V30 2154 C 194.888 -5.9807 1.84562 0
M  V30 2155 H 195.121 -2.5168 1.58255 0
M  V30 2156 H 192.654 -1.23998 0.919992 0
M  V30 2157 H 194.612 -4.08959 -0.355361 0
M  V30 2158 H 193.273 -3.02664 -0.839851 0
M  V30 2159 H 192.466 -5.01854 0.464651 0
M  V30 2160 H 192.068 -3.50377 1.30813 0
M  V30 2161 H 194.36 -6.67232 1.17507 0
M  V30 2162 H 195.303 -6.54841 2.69423 0
M  V30 2163 H 195.711 -5.49073 1.31069 0
M  V30 2164 N 195.109 -0.891671 -1.2995 0
M  V30 2165 C 196.039 -0.379797 -2.30391 0
M  V30 2166 C 197.02 0.540919 -1.6127 0
M  V30 2167 O 198.205 0.453352 -1.88834 0
M  V30 2168 C 195.335 0.400654 -3.44981 0
M  V30 2169 C 194.289 -0.428905 -4.25846 0
M  V30 2170 C 193.615 0.478557 -5.32554 0
M  V30 2171 C 194.915 -1.67458 -4.94727 0
M  V30 2172 H 196.609 -1.21914 -2.73454 0
M  V30 2173 H 194.155 -0.587675 -1.31462 0
M  V30 2174 H 196.108 0.769434 -4.14316 0
M  V30 2175 H 194.832 1.27371 -3.0074 0
M  V30 2176 H 193.491 -0.779911 -3.58208 0
M  V30 2177 H 193.139 1.34951 -4.84559 0
M  V30 2178 H 192.839 -0.0727433 -5.87555 0
M  V30 2179 H 194.363 0.843705 -6.04743 0
M  V30 2180 H 195.777 -1.376 -5.56542 0
M  V30 2181 H 194.174 -2.16659 -5.59624 0
M  V30 2182 H 195.244 -2.41518 -4.20473 0
M  V30 2183 N 196.587 1.43421 -0.653314 0
M  V30 2184 C 197.55 2.29182 0.0287951 0
M  V30 2185 C 198.55 1.42213 0.750465 0
M  V30 2186 O 199.74 1.63843 0.591701 0
M  V30 2187 C 196.872 3.24278 1.05151 0
M  V30 2188 H 198.065 2.90985 -0.725786 0
M  V30 2189 H 195.618 1.50702 -0.414545 0
M  V30 2190 H 196.353 2.6737 1.83532 0
M  V30 2191 H 196.138 3.88396 0.537687 0
M  V30 2192 H 197.628 3.88647 1.52786 0
M  V30 2193 N 198.065 0.39524 1.52563 0
M  V30 2194 C 198.995 -0.428384 2.29537 0
M  V30 2195 C 199.976 -1.05831 1.33169 0
M  V30 2196 O 201.161 -1.06995 1.62067 0
M  V30 2197 C 198.291 -1.55274 3.10656 0
M  V30 2198 C 197.245 -1.04855 4.14957 0
M  V30 2199 C 196.571 -2.26543 4.84337 0
M  V30 2200 C 197.871 -0.112324 5.22179 0
M  V30 2201 H 199.565 0.213867 2.98635 0
M  V30 2202 H 197.111 0.104298 1.43622 0
M  V30 2203 H 199.064 -2.1358 3.63265 0
M  V30 2204 H 197.788 -2.22266 2.39302 0
M  V30 2205 H 196.447 -0.487985 3.63338 0
M  V30 2206 H 196.095 -2.92059 4.09525 0
M  V30 2207 H 195.795 -1.93466 5.54837 0
M  V30 2208 H 197.319 -2.85481 5.39753 0
M  V30 2209 H 198.733 -0.603752 5.70112 0
M  V30 2210 H 197.13 0.128968 5.99961 0
M  V30 2211 H 198.2 0.837052 4.77621 0
M  V30 2212 N 199.544 -1.57102 0.125237 0
M  V30 2213 C 200.769 -2.0019 -0.542101 0
M  V30 2214 C 201.194 -1.00449 -1.59034 0
M  V30 2215 O 200.552 0.0229423 -1.81285 0
M  V30 2216 C 200.6 -3.42129 -1.13929 0
M  V30 2217 O 199.704 -3.45307 -2.2547 0
M  V30 2218 H 199.045 -0.650171 -0.134812 0
M  V30 2219 H 201.575 -2.03461 0.215553 0
M  V30 2220 H 201.585 -3.80471 -1.4733 0
M  V30 2221 H 200.26 -4.14237 -0.371531 0
M  V30 2222 H 198.837 -3.1879 -1.93462 0
M  V30 2223 N 201.022 0.148545 -1.56898 0
M  V30 2224 C 201.952 1.18524 -2.01182 0
M  V30 2225 C 202.933 1.4489 -0.891123 0
M  V30 2226 O 204.118 1.55836 -1.15882 0
M  V30 2227 C 201.248 2.51879 -2.39112 0
M  V30 2228 C 200.202 2.40038 -3.54353 0
M  V30 2229 C 199.528 3.78089 -3.78091 0
M  V30 2230 C 200.828 1.88577 -4.87069 0
M  V30 2231 H 202.522 0.817029 -2.88036 0
M  V30 2232 H 200.068 0.391575 -1.38574 0
M  V30 2233 H 202.021 3.24627 -2.68692 0
M  V30 2234 H 200.745 2.90532 -1.49193 0
M  V30 2235 H 199.404 1.69742 -3.24936 0
M  V30 2236 H 199.052 4.14175 -2.85426 0
M  V30 2237 H 198.752 3.71028 -4.55645 0
M  V30 2238 H 200.276 4.52387 -4.10095 0
M  V30 2239 H 201.69 2.51117 -5.15377 0
M  V30 2240 H 200.087 1.9241 -5.68417 0
M  V30 2241 H 201.157 0.84136 -4.77545 0
M  V30 2242 N 202.5 1.5196 0.417844 0
M  V30 2243 C 203.916 1.40569 0.755816 0
M  V30 2244 C 204.116 0.503316 1.95113 0
M  V30 2245 O 203.172 -0.0341925 2.52477 0
M  V30 2246 C 204.485 2.82947 1.01791 0
M  V30 2247 C 206.033 2.92231 1.12116 0
M  V30 2248 C 206.508 4.35559 1.41608 0
M  V30 2249 N 207.999 4.38753 1.48491 0
M  V30 2250 C 208.734 5.46705 1.7292 0
M  V30 2251 N 208.23 6.64788 1.95011 0
M  V30 2252 N 210.023 5.34209 1.74863 0
M  V30 2253 H 202.174 2.09168 -0.369098 0
M  V30 2254 H 204.437 0.942409 -0.102809 0
M  V30 2255 H 204.143 3.5106 0.212081 0
M  V30 2256 H 204.017 3.23462 1.94042 0
M  V30 2257 H 206.404 2.24304 1.9176 0
M  V30 2258 H 206.485 2.55185 0.177225 0
M  V30 2259 H 206.129 5.04042 0.624848 0
M  V30 2260 H 206.059 4.70133 2.37239 0
M  V30 2261 H 208.55 3.5363 1.33244 0
M  V30 2262 H 208.863 7.42845 2.13076 0
M  V30 2263 H 207.208 6.67869 1.92293 0
M  V30 2264 H 210.399 4.40937 1.57137 0
M  V30 2265 H 210.572 6.18415 1.93563 0
M  V30 2266 N 203.978 -0.674533 1.42435 0
M  V30 2267 C 204.908 -1.80009 1.48724 0
M  V30 2268 C 205.889 -1.6659 0.343793 0
M  V30 2269 O 207.074 -1.86007 0.558137 0
M  V30 2270 C 204.204 -3.18306 1.38919 0
M  V30 2271 C 203.158 -3.46461 2.51294 0
M  V30 2272 C 202.484 -4.84335 2.26547 0
M  V30 2273 C 203.784 -3.43328 3.93603 0
M  V30 2274 H 205.478 -1.75004 2.42928 0
M  V30 2275 H 203.024 -0.840533 1.16923 0
M  V30 2276 H 204.977 -3.9678 1.41927 0
M  V30 2277 H 203.701 -3.2399 0.412094 0
M  V30 2278 H 202.36 -2.70348 2.47604 0
M  V30 2279 H 202.008 -4.86669 1.2713 0
M  V30 2280 H 201.708 -5.04136 3.01861 0
M  V30 2281 H 203.232 -5.65094 2.31304 0
M  V30 2282 H 204.646 -4.11772 3.98894 0
M  V30 2283 H 203.043 -3.74664 4.68771 0
M  V30 2284 H 204.113 -2.41897 4.20255 0
M  V30 2285 N 205.456 -1.28612 -0.910864 0
M  V30 2286 C 206.386 -1.15326 -2.03032 0
M  V30 2287 C 207.367 -0.0502924 -1.70026 0
M  V30 2288 O 208.552 -0.227797 -1.92859 0
M  V30 2289 C 205.682 -0.817343 -3.37545 0
M  V30 2290 C 204.636 -1.8754 -3.84724 0
M  V30 2291 C 203.962 -1.39305 -5.16235 0
M  V30 2292 C 205.262 -3.28244 -4.06267 0
M  V30 2293 H 206.956 -2.08975 -2.14406 0
M  V30 2294 H 204.502 -1.00612 -1.03021 0
M  V30 2295 H 206.455 -0.711151 -4.15356 0
M  V30 2296 H 205.179 0.154846 -3.26233 0
M  V30 2297 H 203.838 -1.97079 -3.09121 0
M  V30 2298 H 203.486 -0.409846 -5.01328 0
M  V30 2299 H 203.186 -2.10057 -5.48771 0
M  V30 2300 H 204.71 -1.30014 -5.96598 0
M  V30 2301 H 206.124 -3.21611 -4.74594 0
M  V30 2302 H 204.521 -3.96855 -4.5014 0
M  V30 2303 H 205.591 -3.72048 -3.10979 0
M  V30 2304 N 206.934 1.1197 -1.10907 0
M  V30 2305 C 208.182 1.83225 -0.852819 0
M  V30 2306 C 208.503 1.84769 0.623341 0
M  V30 2307 O 207.773 1.3143 1.45269 0
M  V30 2308 H 206.353 0.67849 -0.312507 0
M  V30 2309 H 209.015 1.3556 -1.40033 0
M  V30 2310 H 208.111 2.87265 -1.22005 0
M  V30 2311 N 208.412 0.89855 1.29475 0
M  V30 2312 C 209.828 0.594483 1.48115 0
M  V30 2313 C 210.028 -0.86431 1.82022 0
M  V30 2314 O 209.084 -1.64457 1.91599 0
M  V30 2315 C 210.397 1.51932 2.59494 0
M  V30 2316 C 211.945 1.5244 2.7337 0
M  V30 2317 C 212.42 2.43548 3.87877 0
M  V30 2318 N 213.911 2.41589 3.95208 0
M  V30 2319 C 214.646 3.08789 4.83153 0
M  V30 2320 N 214.142 3.85265 5.75798 0
M  V30 2321 N 215.935 2.97952 4.76635 0
M  V30 2322 H 208.086 1.84207 1.05742 0
M  V30 2323 H 210.349 0.789251 0.525154 0
M  V30 2324 H 210.055 2.55865 2.41301 0
M  V30 2325 H 209.929 1.23899 3.56271 0
M  V30 2326 H 212.316 0.492518 2.90961 0
M  V30 2327 H 212.397 1.8451 1.77172 0
M  V30 2328 H 212.041 3.46829 3.71041 0
M  V30 2329 H 211.971 2.08788 4.83441 0
M  V30 2330 H 214.462 1.86025 3.28943 0
M  V30 2331 H 214.775 4.33598 6.39697 0
M  V30 2332 H 213.12 3.89371 5.75687 0
M  V30 2333 H 216.311 2.37723 4.03244 0
M  V30 2334 H 216.484 3.50599 5.44962 0
M  V30 2335 N 209.89 -1.43072 0.660911 0
M  V30 2336 C 210.853 -2.29194 -0.0166406 0
M  V30 2337 C 211.853 -1.42609 -0.742912 0
M  V30 2338 O 213.043 -1.64155 -0.583004 0
M  V30 2339 C 210.175 -3.24831 -1.0343 0
M  V30 2340 H 211.368 -2.90596 0.741208 0
M  V30 2341 H 208.921 -1.5048 0.422532 0
M  V30 2342 H 209.656 -2.68339 -1.82111 0
M  V30 2343 H 209.441 -3.88676 -0.517082 0
M  V30 2344 H 210.931 -3.89451 -1.50723 0
M  V30 2345 N 211.368 -0.403325 -1.52352 0
M  V30 2346 C 212.298 0.416205 -2.29761 0
M  V30 2347 C 213.279 1.05123 -1.33728 0
M  V30 2348 O 214.464 1.06134 -1.62632 0
M  V30 2349 C 211.594 1.53624 -3.11475 0
M  V30 2350 C 210.548 1.02653 -4.15507 0
M  V30 2351 C 209.874 2.23971 -4.85532 0
M  V30 2352 C 211.174 0.08463 -5.22231 0
M  V30 2353 H 212.868 -0.229701 -2.98518 0
M  V30 2354 H 210.414 -0.111913 -1.43564 0
M  V30 2355 H 212.367 2.1165 -3.64393 0
M  V30 2356 H 211.091 2.20994 -2.40477 0
M  V30 2357 H 209.75 0.46871 -3.63591 0
M  V30 2358 H 209.398 2.89883 -4.11068 0
M  V30 2359 H 209.098 1.90521 -5.55856 0
M  V30 2360 H 210.622 2.82614 -5.41259 0
M  V30 2361 H 212.036 0.573509 -5.70424 0
M  V30 2362 H 210.433 -0.160783 -5.99885 0
M  V30 2363 H 211.503 -0.86237 -4.7717 0
M  V30 2364 N 212.846 1.57033 -0.133567 0
M  V30 2365 C 214.093 1.95686 0.520877 0
M  V30 2366 C 214.421 1.0177 1.6575 0
M  V30 2367 O 213.676 0.0443195 1.9565 0
M  V30 2368 C 213.975 3.40674 1.08057 0
M  V30 2369 C 213.641 4.50855 0.0637899 0
M  V30 2370 C 212.303 4.80716 -0.215757 0
M  V30 2371 C 214.655 5.17398 -0.62835 0
M  V30 2372 C 211.983 5.74433 -1.19348 0
M  V30 2373 C 214.335 6.12167 -1.5948 0
M  V30 2374 C 212.999 6.40414 -1.88218 0
M  V30 2375 H 212.269 0.716067 0.190602 0
M  V30 2376 H 214.916 1.9026 -0.217556 0
M  V30 2377 H 213.221 3.42865 1.89606 0
M  V30 2378 H 214.918 3.67902 1.59529 0
M  V30 2379 H 211.508 4.27605 0.291855 0
M  V30 2380 H 215.692 4.94472 -0.425562 0
M  V30 2381 H 210.948 5.94616 -1.42272 0
M  V30 2382 H 215.122 6.6281 -2.13671 0
M  V30 2383 H 212.749 7.12838 -2.64133 0
M  V30 2384 N 214.325 -0.140222 1.56975 0
M  V30 2385 C 215.573 -0.850005 1.83356 0
M  V30 2386 C 215.894 -1.81399 0.71551 0
M  V30 2387 O 215.164 -1.94136 -0.262294 0
M  V30 2388 H 213.744 -0.316886 0.676456 0
M  V30 2389 H 216.406 -0.132608 1.94448 0
M  V30 2390 H 215.502 -1.40814 2.78528 0
M  V30 2391 N 215.803 -1.52179 -0.40978 0
M  V30 2392 C 216.75 -1.75475 -1.49924 0
M  V30 2393 C 217.72 -0.597175 -1.54994 0
M  V30 2394 O 218.905 -0.834655 -1.71575 0
M  V30 2395 C 216.045 -1.9107 -2.87378 0
M  V30 2396 C 215.158 -3.18717 -2.91622 0
M  V30 2397 C 214.293 -3.24747 -4.20372 0
M  V30 2398 C 213.332 -4.46598 -4.18588 0
M  V30 2399 N 212.469 -4.50025 -5.38908 0
M  V30 2400 H 217.309 -2.68458 -1.29361 0
M  V30 2401 H 214.846 -1.33024 -0.627934 0
M  V30 2402 H 216.804 -1.98096 -3.6717 0
M  V30 2403 H 215.434 -1.01469 -3.06437 0
M  V30 2404 H 214.486 -3.20866 -2.04326 0
M  V30 2405 H 215.798 -4.08544 -2.86169 0
M  V30 2406 H 214.952 -3.30841 -5.08556 0
M  V30 2407 H 213.691 -2.32857 -4.28519 0
M  V30 2408 H 212.696 -4.40652 -3.28794 0
M  V30 2409 H 213.921 -5.39783 -4.12081 0
M  V30 2410 H 211.867 -3.61017 -5.47725 0
M  V30 2411 H 211.784 -5.33697 -5.35447 0
M  V30 2412 H 213.052 -4.60347 -6.29048 0
M  V30 2413 N 217.281 0.66697 -1.42791 0
M  V30 2414 C 218.692 1.2478 -1.38877 0
M  V30 2415 C 219.043 1.96012 -0.0859426 0
M  V30 2416 O 218.168 2.00463 0.815081 0
M  V30 2417 C 218.763 2.26938 -2.51564 0
M  V30 2418 C 217.322 2.80529 -2.50959 0
M  V30 2419 C 216.469 1.54965 -2.29959 0
M  V30 2420 H 219.42 0.459853 -1.51892 0
M  V30 2421 H 219.441 3.08834 -2.22265 0
M  V30 2422 H 218.953 1.75065 -3.46372 0
M  V30 2423 H 217.054 3.36502 -1.59991 0
M  V30 2424 H 217.167 3.29012 -3.48265 0
M  V30 2425 H 215.531 1.81817 -1.78366 0
M  V30 2426 H 216.314 1.05047 -3.26833 0
M  V30 2427 N 218.759 1.29093 0.90403 0
M  V30 2428 C 219.689 1.16401 2.02418 0
M  V30 2429 C 220.67 0.0593085 1.69997 0
M  V30 2430 O 221.855 0.238021 1.92736 0
M  V30 2431 C 218.985 0.835233 3.37107 0
M  V30 2432 C 217.939 1.89578 3.83724 0
M  V30 2433 C 217.265 1.42041 5.15489 0
M  V30 2434 C 218.565 3.30394 4.04521 0
M  V30 2435 H 220.259 2.10109 2.13295 0
M  V30 2436 H 217.805 1.01157 1.02486 0
M  V30 2437 H 219.758 0.733169 4.14973 0
M  V30 2438 H 218.482 -0.137543 3.2631 0
M  V30 2439 H 217.141 1.98715 3.08071 0
M  V30 2440 H 216.789 0.436426 5.01103 0
M  V30 2441 H 216.489 2.12964 5.4765 0
M  V30 2442 H 218.013 1.33176 5.959 0
M  V30 2443 H 219.427 3.24123 4.72882 0
M  V30 2444 H 217.824 3.99237 4.48029 0
M  V30 2445 H 218.894 3.73692 3.09002 0
M  V30 2446 N 220.237 -1.11381 1.11499 0
M  V30 2447 C 221.462 -1.87475 0.887019 0
M  V30 2448 C 221.887 -1.79639 -0.557796 0
M  V30 2449 O 221.245 -1.15924 -1.39396 0
M  V30 2450 C 221.293 -3.34213 1.35403 0
M  V30 2451 O 220.397 -4.0903 0.526146 0
M  V30 2452 H 219.738 -0.582099 0.319463 0
M  V30 2453 H 222.268 -1.40785 1.48461 0
M  V30 2454 H 222.278 -3.8506 1.34881 0
M  V30 2455 H 220.953 -3.39232 2.40612 0
M  V30 2456 H 219.53 -3.68082 0.597522 0
M  V30 2457 N 221.715 -0.905404 -1.28997 0
M  V30 2458 C 223.126 -0.581953 -1.77398 0
M  V30 2459 C 223.477 0.902552 -1.74208 0
M  V30 2460 O 222.602 1.70584 -1.33154 0
M  V30 2461 C 223.197 -1.04961 -3.22131 0
M  V30 2462 C 221.756 -0.777229 -3.68288 0
M  V30 2463 C 220.903 -1.22109 -2.48967 0
M  V30 2464 H 223.854 -1.08754 -1.15578 0
M  V30 2465 H 223.875 -0.387387 -3.78523 0
M  V30 2466 H 223.387 -2.13008 -3.24421 0
M  V30 2467 H 221.488 0.290383 -3.71467 0
M  V30 2468 H 221.601 -1.37911 -4.58822 0
M  V30 2469 H 219.965 -0.639971 -2.46529 0
M  V30 2470 H 220.748 -2.30972 -2.53982 0
M  V30 2471 N 223.193 1.4272 -0.668489 0
M  V30 2472 C 224.418 2.06484 -0.194758 0
M  V30 2473 C 224.843 1.49862 1.13679 0
M  V30 2474 O 224.201 0.614582 1.70565 0
M  V30 2475 C 224.249 3.60353 -0.133546 0
M  V30 2476 O 223.353 4.02464 0.899806 0
M  V30 2477 H 222.694 0.656137 -0.10188 0
M  V30 2478 H 225.224 1.82964 -0.915722 0
M  V30 2479 H 225.234 4.07976 0.0447041 0
M  V30 2480 H 223.909 4.00938 -1.1055 0
M  V30 2481 H 222.486 3.66402 0.693109 0
M  V30 2482 N 224.671 0.411399 1.52136 0
M  V30 2483 C 225.601 -0.404015 2.29978 0
M  V30 2484 C 226.582 -1.04412 1.34284 0
M  V30 2485 O 227.767 -1.0527 1.63192 0
M  V30 2486 C 224.897 -1.5197 3.12286 0
M  V30 2487 C 223.851 -1.00448 4.16046 0
M  V30 2488 C 223.177 -2.21393 4.86712 0
M  V30 2489 C 224.477 -0.0569336 5.22269 0
M  V30 2490 H 226.171 0.245529 2.98392 0
M  V30 2491 H 223.717 0.119525 1.43503 0
M  V30 2492 H 225.67 -2.09715 3.6551 0
M  V30 2493 H 224.394 -2.19716 2.41646 0
M  V30 2494 H 223.053 -0.449421 3.63835 0
M  V30 2495 H 222.701 -2.87699 4.12599 0
M  V30 2496 H 222.401 -1.87571 5.56858 0
M  V30 2497 H 223.925 -2.7974 5.4275 0
M  V30 2498 H 225.339 -0.54325 5.7072 0
M  V30 2499 H 223.736 0.192594 5.99791 0
M  V30 2500 H 224.806 0.887663 4.76706 0
M  V30 2501 N 226.149 -1.5696 0.141893 0
M  V30 2502 C 227.112 -2.15316 -0.785587 0
M  V30 2503 C 228.112 -1.09366 -1.1788 0
M  V30 2504 O 229.302 -1.35031 -1.10056 0
M  V30 2505 C 226.434 -2.71211 -2.06537 0
M  V30 2506 H 227.627 -2.98608 -0.278041 0
M  V30 2507 H 225.18 -1.5593 -0.107519 0
M  V30 2508 H 225.915 -1.91571 -2.6167 0
M  V30 2509 H 225.7 -3.4872 -1.79268 0
M  V30 2510 H 227.19 -3.16189 -2.72789 0
M  V30 2511 N 227.627 0.131896 -1.57047 0
M  V30 2512 C 228.537 1.1815 -2.02676 0
M  V30 2513 C 229.553 1.46113 -0.944824 0
M  V30 2514 O 230.729 1.57485 -1.25541 0
M  V30 2515 C 227.794 2.49139 -2.41103 0
M  V30 2516 C 226.855 2.28688 -3.63318 0
M  V30 2517 C 226.088 3.53431 -3.99903 0
M  V30 2518 O 226.311 4.60223 -3.36973 0
M  V30 2519 O 225.245 3.45198 -4.93074 0
M  V30 2520 H 229.071 0.824069 -2.92306 0
M  V30 2521 H 226.656 0.341745 -1.45439 0
M  V30 2522 H 228.538 3.26338 -2.66611 0
M  V30 2523 H 227.213 2.84382 -1.54624 0
M  V30 2524 H 226.12 1.4939 -3.42977 0
M  V30 2525 H 227.453 1.98355 -4.50462 0
M  V30 2526 N 229.106 1.52395 0.401703 0
M  V30 2527 C 230.056 1.72649 1.48917 0
M  V30 2528 C 231.04 0.580436 1.50066 0
M  V30 2529 O 232.232 0.83779 1.55917 0
M  V30 2530 C 229.361 1.88729 2.86769 0
M  V30 2531 C 228.447 3.09228 2.90239 0
M  V30 2532 N 228.838 4.31805 2.63396 0
M  V30 2533 C 227.136 3.09214 3.21408 0
M  V30 2534 C 227.837 5.13326 2.73625 0
M  V30 2535 N 226.813 4.48735 3.06819 0
M  V30 2536 H 230.615 2.65058 1.26971 0
M  V30 2537 H 228.129 1.50528 0.609504 0
M  V30 2538 H 230.126 2.01358 3.65049 0
M  V30 2539 H 228.786 0.975252 3.09708 0
M  V30 2540 H 229.797 4.60154 2.37653 0
M  V30 2541 H 226.474 2.27774 3.49893 0
M  V30 2542 H 227.864 6.21003 2.56524 0
M  V30 2543 N 230.584 -0.659388 1.43143 0
M  V30 2544 C 231.547 -1.75432 1.47501 0
M  V30 2545 C 232.547 -1.56707 0.360512 0
M  V30 2546 O 233.737 -1.62717 0.622002 0
M  V30 2547 C 230.869 -3.14239 1.32162 0
M  V30 2548 H 232.062 -1.7295 2.45006 0
M  V30 2549 H 229.615 -0.870469 1.29817 0
M  V30 2550 H 230.35 -3.22336 0.356401 0
M  V30 2551 H 230.135 -3.29235 2.12948 0
M  V30 2552 H 231.625 -3.94094 1.3813 0
M  V30 2553 N 232.062 -1.29571 -0.897171 0
M  V30 2554 C 232.992 -1.17473 -2.01798 0
M  V30 2555 C 233.973 -0.068323 -1.69963 0
M  V30 2556 O 235.158 -0.248239 -1.92607 0
M  V30 2557 C 232.288 -0.853099 -3.36659 0
M  V30 2558 C 231.242 -1.9161 -3.82713 0
M  V30 2559 C 230.568 -1.44773 -5.14728 0
M  V30 2560 C 231.868 -3.32535 -4.02763 0
M  V30 2561 H 233.562 -2.11237 -2.12177 0
M  V30 2562 H 231.108 -1.01699 -1.01948 0
M  V30 2563 H 233.061 -0.755165 -4.14578 0
M  V30 2564 H 231.785 0.120236 -3.26379 0
M  V30 2565 H 230.444 -2.00346 -3.07013 0
M  V30 2566 H 230.092 -0.462995 -5.00865 0
M  V30 2567 H 229.792 -2.15865 -5.46513 0
M  V30 2568 H 231.316 -1.36334 -5.95185 0
M  V30 2569 H 232.73 -3.26626 -4.71156 0
M  V30 2570 H 231.127 -4.01607 -4.45905 0
M  V30 2571 H 232.197 -3.75326 -3.07016 0
M  V30 2572 N 233.54 1.10788 -1.12088 0
M  V30 2573 C 234.487 2.17025 -0.785407 0
M  V30 2574 C 235.457 1.64265 0.246191 0
M  V30 2575 O 236.642 1.90412 0.121584 0
M  V30 2576 C 233.782 3.44249 -0.242177 0
M  V30 2577 C 232.895 4.1098 -1.33115 0
M  V30 2578 C 232.03 5.25911 -0.747741 0
M  V30 2579 C 231.069 5.84538 -1.81609 0
M  V30 2580 N 230.206 6.90853 -1.25167 0
M  V30 2581 H 235.046 2.45066 -1.69548 0
M  V30 2582 H 232.583 1.20297 -0.846582 0
M  V30 2583 H 234.541 4.17101 0.0908026 0
M  V30 2584 H 233.171 3.16571 0.631072 0
M  V30 2585 H 232.223 3.36133 -1.78097 0
M  V30 2586 H 233.535 4.50601 -2.13917 0
M  V30 2587 H 232.689 6.056 -0.365216 0
M  V30 2588 H 231.428 4.87614 0.0915188 0
M  V30 2589 H 230.433 5.03522 -2.20785 0
M  V30 2590 H 231.658 6.249 -2.6585 0
M  V30 2591 H 229.604 6.54562 -0.434174 0
M  V30 2592 H 229.521 7.29166 -1.99633 0
M  V30 2593 H 230.789 7.7433 -0.896259 0
M  V30 2594 N 235.018 0.912232 1.28515 0
M  V30 2595 C 235.981 0.404223 2.25607 0
M  V30 2596 C 236.981 -0.468602 1.53821 0
M  V30 2597 O 238.171 -0.271873 1.72065 0
M  V30 2598 C 235.303 -0.420653 3.38295 0
M  V30 2599 H 236.496 1.26188 2.7206 0
M  V30 2600 H 234.049 0.691495 1.40171 0
M  V30 2601 H 234.784 -1.29777 2.97201 0
M  V30 2602 H 234.569 0.204935 3.91564 0
M  V30 2603 H 236.059 -0.766971 4.10496 0
M  V30 2604 N 236.496 -1.42363 0.676048 0
M  V30 2605 C 237.426 -2.33497 0.0124832 0
M  V30 2606 C 238.407 -1.50748 -0.787981 0
M  V30 2607 O 239.592 -1.79346 -0.744884 0
M  V30 2608 C 236.722 -3.34377 -0.938582 0
M  V30 2609 C 235.676 -4.27289 -0.246622 0
M  V30 2610 C 235.002 -5.18386 -1.31071 0
M  V30 2611 C 236.302 -5.14916 0.875125 0
M  V30 2612 H 237.996 -2.89233 0.773593 0
M  V30 2613 H 235.542 -1.39073 0.37346 0
M  V30 2614 H 237.495 -3.97044 -1.41188 0
M  V30 2615 H 236.219 -2.76947 -1.73113 0
M  V30 2616 H 234.878 -3.66018 0.206456 0
M  V30 2617 H 234.526 -4.57282 -2.09528 0
M  V30 2618 H 234.226 -5.81378 -0.852839 0
M  V30 2619 H 235.75 -5.83929 -1.78492 0
M  V30 2620 H 237.164 -5.71262 0.482983 0
M  V30 2621 H 235.561 -5.86747 1.25887 0
M  V30 2622 H 236.631 -4.53242 1.72335 0
M  V30 2623 N 237.974 -0.419461 -1.51915 0
M  V30 2624 C 239.251 0.211999 -1.94448 0
M  V30 2625 C 239.631 1.61703 -1.35703 0
M  V30 2626 O 238.979 2.22102 -0.536931 0
M  V30 2627 C 239.189 0.207872 -3.4838 0
M  V30 2628 C 240.537 0.422192 -4.22496 0
M  V30 2629 O 241.561 0.286778 -3.55044 0
M  V30 2630 O 240.42 0.690009 -5.42126 0
M  V30 2631 H 237.514 0.139586 -0.815135 0
M  V30 2632 H 240.06 -0.476151 -1.62883 0
M  V30 2633 H 238.832 -0.775102 -3.83546 0
M  V30 2634 H 238.455 0.939688 -3.86336 0
M  V30 2635 N 239.452 1.56882 -0.150215 0
M  V30 2636 C 240.868 1.58263 0.20617 0
M  V30 2637 C 241.068 1.16464 1.64434 0
M  V30 2638 O 240.124 0.866422 2.3717 0
M  V30 2639 C 241.437 3.00649 -0.0555025 0
M  V30 2640 C 242.985 3.12999 0.00795388 0
M  V30 2641 C 243.46 4.5744 -0.226429 0
M  V30 2642 N 244.951 4.62875 -0.173469 0
M  V30 2643 C 245.686 5.72454 -0.329288 0
M  V30 2644 N 245.182 6.90669 -0.543005 0
M  V30 2645 N 246.975 5.61467 -0.266666 0
M  V30 2646 H 239.126 1.82345 -1.08922 0
M  V30 2647 H 241.389 0.844149 -0.431413 0
M  V30 2648 H 241.095 3.3563 -1.05096 0
M  V30 2649 H 240.969 3.71337 0.66246 0
M  V30 2650 H 243.356 2.77857 0.993966 0
M  V30 2651 H 243.437 2.4479 -0.742388 0
M  V30 2652 H 243.081 4.93287 -1.20956 0
M  V30 2653 H 243.011 5.2378 0.544274 0
M  V30 2654 H 245.502 3.77898 -0.0130709 0
M  V30 2655 H 245.815 7.70045 -0.651922 0
M  V30 2656 H 244.16 6.92581 -0.579366 0
M  V30 2657 H 247.351 4.67992 -0.100441 0
M  V30 2658 H 247.524 6.46816 -0.391535 0
M  V30 2659 N 240.93 -0.123565 1.57115 0
M  V30 2660 C 242.179 -0.830704 1.83799 0
M  V30 2661 C 242.492 -1.81259 0.735158 0
M  V30 2662 O 243.698 -2.56558 0.888278 0
M  V30 2663 C 242.154 -1.52802 3.25852 0
M  V30 2664 C 241.762 -0.587356 4.44133 0
M  V30 2665 C 243.506 -2.22056 3.61789 0
M  V30 2666 C 241.413 -1.28764 5.77212 0
M  V30 2667 H 240.343 -0.313967 0.685522 0
M  V30 2668 H 242.994 -0.0834359 1.8331 0
M  V30 2669 H 241.376 -2.32175 3.20797 0
M  V30 2670 H 242.55 0.172829 4.60476 0
M  V30 2671 H 240.865 -0.00201892 4.164 0
M  V30 2672 H 243.462 -2.75131 4.58483 0
M  V30 2673 H 243.805 -2.99644 2.88997 0
M  V30 2674 H 244.338 -1.49576 3.68608 0
M  V30 2675 H 241.077 -0.55314 6.53162 0
M  V30 2676 H 240.597 -2.01995 5.64764 0
M  V30 2677 H 242.276 -1.8221 6.20813 0
M  V30 2678 N 242.408 -1.52605 -0.393616 0
M  V30 2679 C 243.341 -1.71798 -1.50202 0
M  V30 2680 C 244.319 -0.565743 -1.52441 0
M  V30 2681 O 245.503 -0.794987 -1.70916 0
M  V30 2682 C 242.63 -1.7714 -2.88685 0
M  V30 2683 C 241.676 -2.98845 -3.04292 0
M  V30 2684 S 242.509 -4.58909 -2.75976 0
M  V30 2685 C 243.665 -4.6706 -4.1666 0
M  V30 2686 H 243.898 -2.65542 -1.33696 0
M  V30 2687 H 241.431 -1.42839 -0.586195 0
M  V30 2688 H 243.389 -1.80903 -3.68489 0
M  V30 2689 H 242.05 -0.844969 -3.02521 0
M  V30 2690 H 241.243 -2.99111 -4.05646 0
M  V30 2691 H 240.845 -2.9305 -2.32374 0
M  V30 2692 H 243.137 -4.45391 -5.10523 0
M  V30 2693 H 244.08 -5.6905 -4.21412 0
M  V30 2694 H 244.488 -3.95944 -4.02354 0
M  V30 2695 N 243.887 0.651787 -1.4349 0
M  V30 2696 C 244.85 1.74647 -1.48429 0
M  V30 2697 C 245.85 1.56513 -0.368817 0
M  V30 2698 O 247.04 1.62385 -0.630623 0
M  V30 2699 C 244.172 3.13533 -1.33827 0
M  V30 2700 H 245.365 1.71649 -2.4592 0
M  V30 2701 H 242.918 0.863573 -1.30277 0
M  V30 2702 H 243.653 3.22142 -0.37349 0
M  V30 2703 H 243.438 3.28101 -2.14691 0
M  V30 2704 H 244.928 3.93356 -1.40218 0
M  V30 2705 N 245.365 1.30045 0.890287 0
M  V30 2706 C 246.297 1.11786 2.00091 0
M  V30 2707 C 247.31 0.0626307 1.62679 0
M  V30 2708 O 248.499 0.308112 1.75821 0
M  V30 2709 C 245.599 0.681527 3.31977 0
M  V30 2710 C 244.772 1.81735 3.97858 0
M  V30 2711 C 243.831 1.37045 5.08041 0
M  V30 2712 O 242.857 2.07677 5.29961 0
M  V30 2713 N 244.059 0.246525 5.79976 0
M  V30 2714 H 246.824 2.07441 2.16306 0
M  V30 2715 H 244.385 1.2211 1.06305 0
M  V30 2716 H 246.377 0.365675 4.03045 0
M  V30 2717 H 244.947 -0.182828 3.12065 0
M  V30 2718 H 244.167 2.30159 3.20032 0
M  V30 2719 H 245.455 2.57865 4.38615 0
M  V30 2720 H 244.853 -0.34215 5.64664 0
M  V30 2721 H 243.41 -0.00990438 6.51799 0
M  V30 2722 N 246.843 -1.10192 1.12674 0
M  V30 2723 C 248.071 -1.85983 0.906527 0
M  V30 2724 C 248.486 -1.80783 -0.544333 0
M  V30 2725 O 247.843 -1.19834 -1.37645 0
M  V30 2726 C 247.894 -3.34281 1.37618 0
M  V30 2727 O 247.615 -3.39401 2.77017 0
M  V30 2728 C 249.116 -4.26938 1.19325 0
M  V30 2729 H 246.336 -0.587716 0.323775 0
M  V30 2730 H 248.88 -1.39284 1.49734 0
M  V30 2731 H 247.035 -3.78436 0.828539 0
M  V30 2732 H 247.449 -4.31838 2.97684 0
M  V30 2733 H 248.923 -5.29181 1.57071 0
M  V30 2734 H 249.4 -4.38995 0.134097 0
M  V30 2735 H 250.006 -3.8859 1.72852 0
M  V30 2736 N 248.321 -0.919034 -1.28029 0
M  V30 2737 C 249.737 -0.617972 -1.4715 0
M  V30 2738 C 249.937 0.835242 -1.83374 0
M  V30 2739 O 248.993 1.61388 -1.94191 0
M  V30 2740 C 250.306 -1.56041 -2.57044 0
M  V30 2741 C 251.854 -1.56769 -2.7091 0
M  V30 2742 C 252.329 -2.49688 -3.83953 0
M  V30 2743 N 253.82 -2.47845 -3.91314 0
M  V30 2744 C 254.555 -3.16437 -4.78179 0
M  V30 2745 N 254.051 -3.94376 -5.69596 0
M  V30 2746 N 255.844 -3.05498 -4.71834 0
M  V30 2747 H 247.995 -1.85866 -1.02798 0
M  V30 2748 H 250.258 -0.797506 -0.512531 0
M  V30 2749 H 249.964 -2.59671 -2.372 0
M  V30 2750 H 249.838 -1.29551 -3.54255 0
M  V30 2751 H 252.225 -0.538745 -2.90141 0
M  V30 2752 H 252.306 -1.87305 -1.74214 0
M  V30 2753 H 251.95 -3.52688 -3.65477 0
M  V30 2754 H 251.88 -2.16453 -4.80058 0
M  V30 2755 H 254.371 -1.91234 -3.25941 0
M  V30 2756 H 254.684 -4.43721 -6.32718 0
M  V30 2757 H 253.029 -3.98481 -5.69419 0
M  V30 2758 H 256.22 -2.44108 -3.99411 0
M  V30 2759 H 256.393 -3.59225 -5.39316 0
M  V30 2760 N 249.799 1.42003 -0.683588 0
M  V30 2761 C 251.024 2.06265 -0.216647 0
M  V30 2762 C 251.449 1.51059 1.12083 0
M  V30 2763 O 250.807 0.632638 1.69904 0
M  V30 2764 C 250.855 3.60191 -0.171759 0
M  V30 2765 O 249.959 4.03396 0.857069 0
M  V30 2766 H 249.3 0.65502 -0.108834 0
M  V30 2767 H 251.83 1.81982 -0.935077 0
M  V30 2768 H 251.84 4.08 0.0014303 0
M  V30 2769 H 250.515 3.99743 -1.14796 0
M  V30 2770 H 249.092 3.67117 0.654208 0
M  V30 2771 N 251.277 0.427512 1.51691 0
M  V30 2772 C 252.688 -0.0378867 1.86662 0
M  V30 2773 C 253.039 -1.42819 1.34525 0
M  V30 2774 O 252.164 -2.05037 0.692014 0
M  V30 2775 C 252.759 -0.0755266 3.38716 0
M  V30 2776 C 251.318 -0.485309 3.73258 0
M  V30 2777 C 250.465 0.328399 2.75349 0
M  V30 2778 H 253.416 0.64379 1.45055 0
M  V30 2779 H 253.437 -0.887056 3.70016 0
M  V30 2780 H 252.949 0.936487 3.76632 0
M  V30 2781 H 251.05 -1.50329 3.40928 0
M  V30 2782 H 251.163 -0.21693 4.78609 0
M  V30 2783 H 249.527 -0.211905 2.53817 0
M  V30 2784 H 250.31 1.3391 3.16106 0
M  V30 2785 N 252.755 -1.56801 0.158532 0
M  V30 2786 C 253.685 -2.20347 -0.772609 0
M  V30 2787 C 254.666 -1.15518 -1.24859 0
M  V30 2788 O 255.851 -1.43902 -1.30406 0
M  V30 2789 C 252.981 -2.83417 -2.00729 0
M  V30 2790 C 251.935 -3.94174 -1.66765 0
M  V30 2791 C 251.261 -4.44233 -2.97592 0
M  V30 2792 C 252.561 -5.14392 -0.905447 0
M  V30 2793 H 254.255 -2.98413 -0.242959 0
M  V30 2794 H 251.801 -1.43537 -0.115419 0
M  V30 2795 H 253.754 -3.26543 -2.6636 0
M  V30 2796 H 252.478 -2.02701 -2.56086 0
M  V30 2797 H 251.137 -3.51684 -1.03508 0
M  V30 2798 H 250.785 -3.60325 -3.50963 0
M  V30 2799 H 250.485 -5.18945 -2.75626 0
M  V30 2800 H 252.009 -4.90037 -3.64274 0
M  V30 2801 H 253.423 -5.5429 -1.46408 0
M  V30 2802 H 251.82 -5.9494 -0.7853 0
M  V30 2803 H 252.89 -4.84795 0.100668 0
M  V30 2804 N 254.233 0.115231 -1.57178 0
M  V30 2805 C 255.196 1.12526 -1.99676 0
M  V30 2806 C 256.196 1.34095 -0.88742 0
M  V30 2807 O 257.386 1.30548 -1.15337 0
M  V30 2808 C 254.518 2.4789 -2.34015 0
M  V30 2809 H 255.711 0.759912 -2.90113 0
M  V30 2810 H 253.264 0.359648 -1.52106 0
M  V30 2811 H 253.999 2.89339 -1.4647 0
M  V30 2812 H 253.784 2.33588 -3.14927 0
M  V30 2813 H 255.274 3.20575 -2.67622 0
M  V30 2814 N 255.711 1.52812 0.385517 0
M  V30 2815 C 256.641 1.80808 1.47752 0
M  V30 2816 C 257.622 0.660318 1.5676 0
M  V30 2817 O 258.807 0.908246 1.71652 0
M  V30 2818 C 255.937 1.98008 2.85324 0
M  V30 2819 C 254.891 3.13709 2.91154 0
M  V30 2820 C 254.217 3.16169 4.31209 0
M  V30 2821 C 255.517 4.52709 2.60483 0
M  V30 2822 H 257.211 2.72253 1.24573 0
M  V30 2823 H 254.757 1.31003 0.597839 0
M  V30 2824 H 256.71 2.16176 3.61726 0
M  V30 2825 H 255.434 1.03255 3.09848 0
M  V30 2826 H 254.093 2.95329 2.17201 0
M  V30 2827 H 253.741 2.19092 4.52778 0
M  V30 2828 H 253.441 3.93894 4.36029 0
M  V30 2829 H 254.965 3.36496 5.09512 0
M  V30 2830 H 256.379 4.71173 3.26602 0
M  V30 2831 H 254.776 5.32528 2.76648 0
M  V30 2832 H 255.846 4.59186 1.55809 0
M  V30 2833 N 257.189 -0.644168 1.43834 0
M  V30 2834 C 258.119 -1.76814 1.52509 0
M  V30 2835 C 259.1 -1.65823 0.379052 0
M  V30 2836 O 260.285 -1.84781 0.597466 0
M  V30 2837 C 257.415 -3.15288 1.4564 0
M  V30 2838 C 256.369 -3.41053 2.58586 0
M  V30 2839 C 255.695 -4.79421 2.36769 0
M  V30 2840 C 256.995 -3.34902 4.00797 0
M  V30 2841 H 258.689 -1.69812 2.46586 0
M  V30 2842 H 256.235 -0.815542 1.1868 0
M  V30 2843 H 258.188 -3.93681 1.50311 0
M  V30 2844 H 256.912 -3.23043 0.480725 0
M  V30 2845 H 255.571 -2.65035 2.53282 0
M  V30 2846 H 255.219 -4.83863 1.37424 0
M  V30 2847 H 254.919 -4.9762 3.12487 0
M  V30 2848 H 256.443 -5.6006 2.43238 0
M  V30 2849 H 257.857 -4.03218 4.07539 0
M  V30 2850 H 256.254 -3.64637 4.76613 0
M  V30 2851 H 257.324 -2.32928 4.25291 0
M  V30 2852 N 258.668 -1.30515 -0.883378 0
M  V30 2853 C 259.945 -1.10086 -1.6168 0
M  V30 2854 C 260.325 0.349269 -2.08191 0
M  V30 2855 O 259.673 1.34105 -1.85008 0
M  V30 2856 C 259.883 -2.10315 -2.78511 0
M  V30 2857 C 261.231 -2.42119 -3.48803 0
M  V30 2858 O 262.255 -2.08638 -2.88702 0
M  V30 2859 O 261.114 -2.99396 -4.57192 0
M  V30 2860 H 258.208 -0.422907 -0.710689 0
M  V30 2861 H 260.754 -1.41947 -0.930015 0
M  V30 2862 H 259.526 -3.07917 -2.41459 0
M  V30 2863 H 259.149 -1.79282 -3.54886 0
M  V30 2864 N 260.146 1.09593 -1.13257 0
M  V30 2865 C 261.076 2.18214 -0.830946 0
M  V30 2866 C 262.057 1.68812 0.208966 0
M  V30 2867 O 263.242 1.9408 0.0682666 0
M  V30 2868 C 260.372 3.46051 -0.294296 0
M  V30 2869 C 259.326 4.08778 -1.26826 0
M  V30 2870 C 258.652 5.31419 -0.591449 0
M  V30 2871 C 259.952 4.51476 -2.62615 0
M  V30 2872 H 261.646 2.43703 -1.73923 0
M  V30 2873 H 259.192 1.17128 -0.837675 0
M  V30 2874 H 261.145 4.2134 -0.0709606 0
M  V30 2875 H 259.869 3.20079 0.649366 0
M  V30 2876 H 258.528 3.35505 -1.47756 0
M  V30 2877 H 258.176 5.01727 0.357633 0
M  V30 2878 H 257.876 5.74341 -1.24123 0
M  V30 2879 H 259.4 6.09433 -0.377355 0
M  V30 2880 H 260.814 5.17999 -2.45663 0
M  V30 2881 H 259.211 5.05277 -3.23752 0
M  V30 2882 H 260.281 3.63962 -3.20406 0
M  V30 2883 N 261.624 0.925811 1.2754 0
M  V30 2884 C 262.587 0.428129 2.25166 0
M  V30 2885 C 263.587 -0.452261 1.54309 0
M  V30 2886 O 264.777 -0.253608 1.72344 0
M  V30 2887 C 261.909 -0.384749 3.38722 0
M  V30 2888 H 263.102 1.29066 2.70706 0
M  V30 2889 H 260.655 0.706323 1.3943 0
M  V30 2890 H 261.39 -1.26618 2.98561 0
M  V30 2891 H 261.175 0.246454 3.91325 0
M  V30 2892 H 262.665 -0.723389 4.11287 0
M  V30 2893 N 263.102 -1.41638 0.69111 0
M  V30 2894 C 264.065 -2.29178 0.0319786 0
M  V30 2895 C 265.065 -1.44153 -0.712496 0
M  V30 2896 O 266.255 -1.65354 -0.548053 0
M  V30 2897 C 263.387 -3.26952 -0.965161 0
M  V30 2898 H 264.58 -2.88959 0.802681 0
M  V30 2899 H 262.133 -1.4955 0.454356 0
M  V30 2900 H 262.868 -2.72142 -1.76378 0
M  V30 2901 H 262.653 -3.89685 -0.434522 0
M  V30 2902 H 264.143 -3.92561 -1.42428 0
M  V30 2903 N 264.58 -0.43555 -1.51462 0
M  V30 2904 C 265.49 0.383001 -2.31453 0
M  V30 2905 C 266.506 1.02931 -1.4029 0
M  V30 2906 O 267.682 1.02507 -1.73362 0
M  V30 2907 C 264.747 1.47043 -3.13973 0
M  V30 2908 C 263.808 0.844433 -4.20913 0
M  V30 2909 C 263.041 1.88004 -4.9949 0
M  V30 2910 O 263.264 3.10199 -4.78678 0
M  V30 2911 O 262.198 1.47157 -5.83634 0
M  V30 2912 H 266.024 -0.269964 -3.02498 0
M  V30 2913 H 263.609 -0.19813 -1.4808 0
M  V30 2914 H 265.491 2.10113 -3.65281 0
M  V30 2915 H 264.166 2.10751 -2.45695 0
M  V30 2916 H 263.073 0.175729 -3.73687 0
M  V30 2917 H 264.406 0.250869 -4.9156 0
M  V30 2918 N 266.058 1.56714 -0.166846 0
M  V30 2919 C 267.021 2.16539 0.751232 0
M  V30 2920 C 268.021 1.11228 1.16125 0
M  V30 2921 O 269.211 1.36765 1.07894 0
M  V30 2922 C 266.343 2.74462 2.02196 0
M  V30 2923 H 267.536 2.99013 0.230499 0
M  V30 2924 H 265.089 1.56081 0.0826982 0
M  V30 2925 H 265.824 1.95709 2.58589 0
M  V30 2926 H 265.609 3.51527 1.73698 0
M  V30 2927 H 267.099 3.20489 2.67725 0
M  V30 2928 N 267.536 -0.106894 1.57237 0
M  V30 2929 C 268.952 -0.46078 1.52804 0
M  V30 2930 C 269.152 -1.81184 0.881746 0
M  V30 2931 O 268.208 -2.48102 0.469224 0
M  V30 2932 C 269.521 -0.434127 2.9755 0
M  V30 2933 C 271.069 -0.516821 3.08704 0
M  V30 2934 C 271.544 -0.520436 4.55033 0
M  V30 2935 N 273.035 -0.58153 4.59535 0
M  V30 2936 C 273.77 -0.605973 5.70189 0
M  V30 2937 N 273.266 -0.587331 6.90306 0
M  V30 2938 N 275.059 -0.649895 5.5833 0
M  V30 2939 H 267.21 0.778203 1.9763 0
M  V30 2940 H 269.473 0.288403 0.903066 0
M  V30 2941 H 269.179 0.491197 3.48253 0
M  V30 2942 H 269.053 -1.25748 3.55622 0
M  V30 2943 H 271.44 -1.43256 2.57995 0
M  V30 2944 H 271.521 0.334449 2.53604 0
M  V30 2945 H 271.165 0.391313 5.0639 0
M  V30 2946 H 271.095 -1.38876 5.07958 0
M  V30 2947 H 273.586 -0.60161 3.73081 0
M  V30 2948 H 273.899 -0.60894 7.70397 0
M  V30 2949 H 272.244 -0.554564 6.92784 0
M  V30 2950 H 275.435 -0.661907 4.63397 0
M  V30 2951 H 275.608 -0.665476 6.44574 0
M  V30 2952 N 269.014 -1.53014 -0.377408 0
M  V30 2953 C 270.261 -1.68623 -1.12128 0
M  V30 2954 C 270.589 -0.431997 -1.89642 0
M  V30 2955 O 269.844 0.585855 -1.86725 0
M  V30 2956 C 270.143 -2.87982 -2.11663 0
M  V30 2957 C 269.809 -4.24964 -1.50719 0
M  V30 2958 C 268.471 -4.62217 -1.33825 0
M  V30 2959 C 270.823 -5.10199 -1.06519 0
M  V30 2960 C 268.151 -5.82352 -0.712963 0
M  V30 2961 C 270.503 -6.30969 -0.453955 0
M  V30 2962 C 269.167 -6.66944 -0.272411 0
M  V30 2963 H 268.437 -0.617034 -0.410305 0
M  V30 2964 H 271.084 -1.8718 -0.404484 0
M  V30 2965 H 269.389 -2.63889 -2.89603 0
M  V30 2966 H 271.086 -2.97253 -2.6915 0
M  V30 2967 H 267.676 -3.95626 -1.64858 0
M  V30 2968 H 271.86 -4.81978 -1.18368 0
M  V30 2969 H 267.116 -6.08824 -0.560611 0
M  V30 2970 H 271.29 -6.96324 -0.103217 0
M  V30 2971 H 268.917 -7.59898 0.214181 0
M  V30 2972 N 270.492 0.636531 -1.44174 0
M  V30 2973 C 271.908 0.954104 -1.27941 0
M  V30 2974 C 272.108 2.0039 -0.211248 0
M  V30 2975 O 271.164 2.49236 0.404695 0
M  V30 2976 C 272.477 1.4225 -2.64925 0
M  V30 2977 C 274.025 1.53827 -2.72592 0
M  V30 2978 C 274.5 2.04053 -4.10032 0
M  V30 2979 N 275.991 2.11331 -4.12182 0
M  V30 2980 C 276.726 2.51352 -5.15374 0
M  V30 2981 N 276.222 2.90549 -6.2893 0
M  V30 2982 N 278.015 2.51438 -5.02728 0
M  V30 2983 H 270.166 -0.0578386 -2.12321 0
M  V30 2984 H 272.429 0.0367406 -0.947288 0
M  V30 2985 H 272.135 0.725466 -3.44136 0
M  V30 2986 H 272.009 2.39451 -2.9145 0
M  V30 2987 H 274.396 2.22628 -1.93702 0
M  V30 2988 H 274.477 0.550154 -2.49814 0
M  V30 2989 H 274.121 1.35848 -4.89395 0
M  V30 2990 H 274.051 3.03726 -4.30184 0
M  V30 2991 H 276.542 1.83745 -3.30222 0
M  V30 2992 H 276.855 3.19884 -7.03487 0
M  V30 2993 H 275.2 2.88313 -6.32377 0
M  V30 2994 H 278.391 2.20203 -4.13072 0
M  V30 2995 H 278.564 2.82304 -5.83274 0
M  V30 2996 N 271.97 1.30982 0.876444 0
M  V30 2997 C 272.917 1.18085 1.98304 0
M  V30 2998 C 273.887 0.0682263 1.6596 0
M  V30 2999 O 275.072 0.239937 1.89285 0
M  V30 3000 C 272.212 0.887475 3.33493 0
M  V30 3001 C 271.325 2.08281 3.78475 0
M  V30 3002 C 270.46 1.72678 5.0235 0
M  V30 3003 C 269.499 2.88657 5.39762 0
M  V30 3004 N 268.636 2.53292 6.54819 0
M  V30 3005 H 273.476 2.1275 2.08666 0
M  V30 3006 H 271.013 1.05839 1.02159 0
M  V30 3007 H 272.971 0.697961 4.1132 0
M  V30 3008 H 271.601 -0.022315 3.22792 0
M  V30 3009 H 270.653 2.3833 2.96484 0
M  V30 3010 H 271.965 2.95108 4.02135 0
M  V30 3011 H 271.119 1.50151 5.87826 0
M  V30 3012 H 269.858 0.830327 4.8058 0
M  V30 3013 H 268.863 3.1184 4.52809 0
M  V30 3014 H 270.088 3.79002 5.63502 0
M  V30 3015 H 268.034 1.66163 6.34607 0
M  V30 3016 H 267.951 3.3365 6.7839 0
M  V30 3017 H 269.219 2.34143 7.43503 0
M  V30 3018 N 273.449 -1.08991 1.13837 0
M  V30 3019 C 274.726 -1.77863 0.813876 0
M  V30 3020 C 275.106 -1.99375 -0.693746 0
M  V30 3021 O 274.454 -1.59875 -1.63255 0
M  V30 3022 C 274.664 -3.0986 1.60586 0
M  V30 3023 C 276.012 -3.84493 1.8014 0
M  V30 3024 O 277.036 -3.19624 1.57222 0
M  V30 3025 O 275.895 -5.00957 2.18413 0
M  V30 3026 H 272.989 -0.771589 0.297624 0
M  V30 3027 H 275.535 -1.15507 1.24323 0
M  V30 3028 H 274.307 -2.89715 2.63022 0
M  V30 3029 H 273.93 -3.79942 1.17173 0
M  V30 3030 N 274.927 -0.932562 -1.27047 0
M  V30 3031 C 276.343 -0.633544 -1.46487 0
M  V30 3032 C 276.543 0.815746 -1.84249 0
M  V30 3033 O 275.599 1.59319 -1.95892 0
M  V30 3034 C 276.912 -1.58758 -2.55375 0
M  V30 3035 C 278.46 -1.59634 -2.69232 0
M  V30 3036 C 278.935 -2.53747 -3.81283 0
M  V30 3037 N 280.426 -2.51982 -3.88664 0
M  V30 3038 C 281.161 -3.21491 -4.74796 0
M  V30 3039 N 280.657 -4.00395 -5.65381 0
M  V30 3040 N 282.45 -3.10485 -4.68568 0
M  V30 3041 H 274.601 -1.86946 -1.00821 0
M  V30 3042 H 276.864 -0.802897 -0.504044 0
M  V30 3043 H 276.57 -2.62172 -2.34432 0
M  V30 3044 H 276.444 -1.33301 -3.52861 0
M  V30 3045 H 278.831 -0.569488 -2.89553 0
M  V30 3046 H 278.912 -1.89142 -1.72218 0
M  V30 3047 H 278.556 -3.56545 -3.61715 0
M  V30 3048 H 278.486 -2.21532 -4.77735 0
M  V30 3049 H 280.977 -1.94681 -3.23895 0
M  V30 3050 H 281.29 -4.50406 -6.27976 0
M  V30 3051 H 279.635 -4.04498 -5.65161 0
M  V30 3052 H 282.826 -2.48331 -3.96799 0
M  V30 3053 H 282.999 -3.64925 -5.35475 0
M  V30 3054 N 276.405 1.4127 -0.698611 0
M  V30 3055 C 277.653 2.00782 -0.230409 0
M  V30 3056 C 277.974 1.5562 1.17505 0
M  V30 3057 O 277.244 0.78815 1.79346 0
M  V30 3058 H 275.824 0.742464 -0.0821944 0
M  V30 3059 H 278.486 1.72852 -0.90045 0
M  V30 3060 H 277.582 3.11095 -0.25021 0
M  V30 3061 N 277.883 0.443576 1.51229 0
M  V30 3062 C 278.846 -0.353132 2.26463 0
M  V30 3063 C 279.846 -0.944338 1.3015 0
M  V30 3064 O 281.036 -0.817813 1.5381 0
M  V30 3065 C 278.168 -1.50023 3.06114 0
M  V30 3066 H 279.361 0.3063 2.98332 0
M  V30 3067 H 276.914 0.196902 1.55055 0
M  V30 3068 H 277.649 -2.19553 2.38677 0
M  V30 3069 H 277.434 -1.08241 3.76864 0
M  V30 3070 H 278.924 -2.06296 3.63087 0
M  V30 3071 N 279.361 -1.56624 0.175154 0
M  V30 3072 C 280.291 -2.21155 -0.749195 0
M  V30 3073 C 281.272 -1.16836 -1.23626 0
M  V30 3074 O 282.457 -1.45277 -1.28873 0
M  V30 3075 C 279.587 -2.8553 -1.97711 0
M  V30 3076 C 278.541 -3.95921 -1.62575 0
M  V30 3077 C 277.867 -4.47365 -2.92864 0
M  V30 3078 C 279.167 -5.15323 -0.850838 0
M  V30 3079 H 280.861 -2.98653 -0.211295 0
M  V30 3080 H 278.407 -1.43651 -0.100188 0
M  V30 3081 H 280.36 -3.2935 -2.62881 0
M  V30 3082 H 279.084 -2.05406 -2.53921 0
M  V30 3083 H 277.743 -3.52762 -0.997719 0
M  V30 3084 H 277.391 -3.64027 -3.47122 0
M  V30 3085 H 277.091 -5.21839 -2.70106 0
M  V30 3086 H 278.615 -4.93873 -3.59056 0
M  V30 3087 H 280.029 -5.55812 -1.40521 0
M  V30 3088 H 278.426 -5.95739 -0.722154 0
M  V30 3089 H 279.496 -4.84661 0.152082 0
M  V30 3090 N 280.839 0.0985539 -1.57292 0
M  V30 3091 C 282.069 0.815135 -1.8984 0
M  V30 3092 C 282.477 1.7297 -0.766679 0
M  V30 3093 O 281.82 1.81698 0.270483 0
M  V30 3094 C 281.882 1.6842 -3.17608 0
M  V30 3095 C 281.546 0.94182 -4.4719 0
M  V30 3096 C 282.543 0.273212 -5.19182 0
M  V30 3097 C 280.228 0.916927 -4.9386 0
M  V30 3098 C 282.222 -0.410361 -6.36078 0
M  V30 3099 C 279.909 0.229567 -6.10669 0
M  V30 3100 C 280.907 -0.432902 -6.81627 0
M  V30 3101 O 280.595 -1.10925 -7.9621 0
M  V30 3102 H 280.327 0.238501 -0.632529 0
M  V30 3103 H 282.881 0.0812659 -2.05239 0
M  V30 3104 H 281.111 2.46022 -2.98345 0
M  V30 3105 H 282.8 2.27704 -3.36015 0
M  V30 3106 H 283.566 0.283927 -4.84168 0
M  V30 3107 H 279.445 1.42201 -4.3852 0
M  V30 3108 H 282.989 -0.928013 -6.914 0
M  V30 3109 H 278.886 0.216686 -6.45136 0
M  V30 3110 H 279.654 -1.01579 -8.12172 0
M  V30 3111 N 282.317 1.53212 0.369288 0
M  V30 3112 C 283.733 1.42902 0.710712 0
M  V30 3113 C 283.933 0.565135 1.93413 0
M  V30 3114 O 282.989 0.0461484 2.52458 0
M  V30 3115 C 284.302 2.86042 0.927382 0
M  V30 3116 C 285.85 2.9565 1.02762 0
M  V30 3117 C 286.325 4.39843 1.27679 0
M  V30 3118 N 287.816 4.43256 1.34457 0
M  V30 3119 C 288.551 5.51929 1.55439 0
M  V30 3120 N 288.047 6.70655 1.73762 0
M  V30 3121 N 289.84 5.39502 1.57779 0
M  V30 3122 H 281.991 2.07888 -0.435457 0
M  V30 3123 H 284.254 0.938661 -0.132739 0
M  V30 3124 H 283.96 3.51557 0.100287 0
M  V30 3125 H 283.834 3.29472 1.83653 0
M  V30 3126 H 286.221 2.30291 1.84527 0
M  V30 3127 H 286.302 2.5562 0.0959504 0
M  V30 3128 H 285.946 5.05774 0.464175 0
M  V30 3129 H 285.876 4.77443 2.22162 0
M  V30 3130 H 288.367 3.5769 1.21926 0
M  V30 3131 H 288.68 7.49248 1.89335 0
M  V30 3132 H 287.025 6.73648 1.70948 0
M  V30 3133 H 290.216 4.45713 1.43029 0
M  V30 3134 H 290.389 6.2426 1.7379 0
M  V30 3135 N 283.795 -0.628877 1.44509 0
M  V30 3136 C 284.705 -1.7694 1.54044 0
M  V30 3137 C 285.721 -1.68705 0.425987 0
M  V30 3138 O 286.897 -1.89442 0.683656 0
M  V30 3139 C 283.962 -3.13332 1.48405 0
M  V30 3140 C 283.023 -3.33181 2.70719 0
M  V30 3141 C 282.256 -4.63067 2.6534 0
M  V30 3142 O 282.479 -5.44017 1.71469 0
M  V30 3143 O 281.413 -4.85167 3.56226 0
M  V30 3144 H 285.239 -1.71848 2.50403 0
M  V30 3145 H 282.824 -0.790378 1.26781 0
M  V30 3146 H 284.706 -3.94634 1.47791 0
M  V30 3147 H 283.381 -3.1896 0.551898 0
M  V30 3148 H 282.288 -2.51549 2.769 0
M  V30 3149 H 283.621 -3.32416 3.62988 0
M  V30 3150 N 285.273 -1.31445 -0.869486 0
M  V30 3151 C 286.236 -1.19094 -1.9583 0
M  V30 3152 C 287.236 -0.117906 -1.60367 0
M  V30 3153 O 288.426 -0.367208 -1.70286 0
M  V30 3154 C 285.558 -0.828165 -3.30688 0
M  V30 3155 H 286.751 -2.15842 -2.08212 0
M  V30 3156 H 284.304 -1.15063 -1.05784 0
M  V30 3157 H 285.039 0.138142 -3.24006 0
M  V30 3158 H 284.824 -1.6038 -3.578 0
M  V30 3159 H 286.314 -0.765658 -4.10521 0
M  V30 3160 N 286.751 1.08385 -1.14413 0
M  V30 3161 C 287.661 2.18856 -0.844951 0
M  V30 3162 C 288.677 1.73121 0.174668 0
M  V30 3163 O 289.853 2.014 0.00312857 0
M  V30 3164 C 286.918 3.45155 -0.32696 0
M  V30 3165 C 285.979 4.05513 -1.40916 0
M  V30 3166 C 285.212 5.25784 -0.915793 0
M  V30 3167 O 285.435 5.69884 0.242651 0
M  V30 3168 O 284.369 5.77545 -1.69487 0
M  V30 3169 H 288.195 2.46919 -1.76818 0
M  V30 3170 H 285.78 1.17524 -0.922411 0
M  V30 3171 H 287.662 4.21377 -0.0440211 0
M  V30 3172 H 286.337 3.18668 0.568539 0
M  V30 3173 H 285.244 3.30879 -1.74556 0
M  V30 3174 H 286.577 4.3625 -2.27919 0
M  V30 3175 N 288.23 0.939286 1.26551 0
M  V30 3176 C 289.193 0.451987 2.24699 0
M  V30 3177 C 290.193 -0.435869 1.5478 0
M  V30 3178 O 291.383 -0.235314 1.72603 0
M  V30 3179 C 288.515 -0.348801 3.39111 0
M  V30 3180 H 289.708 1.3193 2.69322 0
M  V30 3181 H 287.261 0.721072 1.38673 0
M  V30 3182 H 287.996 -1.23444 2.99887 0
M  V30 3183 H 287.781 0.287945 3.91041 0
M  V30 3184 H 289.271 -0.679726 4.12031 0
M  V30 3185 N 289.708 -1.40897 0.706093 0
M  V30 3186 C 290.638 -2.33418 0.0620085 0
M  V30 3187 C 291.619 -1.52385 -0.755827 0
M  V30 3188 O 292.804 -1.80886 -0.706674 0
M  V30 3189 C 289.934 -3.36293 -0.867445 0
M  V30 3190 C 288.888 -4.27716 -0.155932 0
M  V30 3191 C 288.214 -5.2105 -1.20046 0
M  V30 3192 C 289.514 -5.12944 0.984149 0
M  V30 3193 H 291.208 -2.87527 0.83477 0
M  V30 3194 H 288.754 -1.38249 0.402875 0
M  V30 3195 H 290.707 -3.99949 -1.32735 0
M  V30 3196 H 289.431 -2.80556 -1.67199 0
M  V30 3197 H 288.09 -3.65498 0.284047 0
M  V30 3198 H 287.738 -4.61624 -1.99781 0
M  V30 3199 H 287.438 -5.83056 -0.729328 0
M  V30 3200 H 288.962 -5.87584 -1.66066 0
M  V30 3201 H 290.376 -5.70109 0.604048 0
M  V30 3202 H 288.773 -5.83945 1.38304 0
M  V30 3203 H 289.843 -4.49485 1.81911 0
M  V30 3204 N 291.186 -0.45159 -1.50991 0
M  V30 3205 C 292.435 0.111653 -2.01391 0
M  V30 3206 C 292.748 1.42529 -1.33959 0
M  V30 3207 O 293.954 2.07232 -1.75405 0
M  V30 3208 C 292.41 0.249514 -3.59034 0
M  V30 3209 C 292.018 -1.05453 -4.35412 0
M  V30 3210 C 293.762 0.765762 -4.17536 0
M  V30 3211 C 291.669 -0.881529 -5.84793 0
M  V30 3212 H 290.599 0.0455022 -0.752626 0
M  V30 3213 H 293.25 -0.583524 -1.73975 0
M  V30 3214 H 291.632 1.00803 -3.82955 0
M  V30 3215 H 292.806 -1.82248 -4.23229 0
M  V30 3216 H 291.121 -1.50039 -3.88429 0
M  V30 3217 H 293.718 0.911913 -5.26866 0
M  V30 3218 H 294.061 1.75201 -3.77638 0
M  V30 3219 H 294.594 0.0651744 -3.97747 0
M  V30 3220 H 291.333 -1.84057 -6.29129 0
M  V30 3221 H 290.853 -0.153625 -5.99603 0
M  V30 3222 H 292.532 -0.540363 -6.4474 0
M  V30 3223 N 292.664 1.56529 -0.183458 0
M  V30 3224 C 293.91 1.97537 0.459036 0
M  V30 3225 C 294.243 1.06989 1.62071 0
M  V30 3226 O 293.518 0.11948 1.94133 0
M  V30 3227 C 293.801 3.47874 0.930368 0
M  V30 3228 C 293.654 4.492 -0.232317 0
M  V30 3229 C 294.973 4.01612 1.79989 0
M  V30 3230 H 292.092 0.718204 0.165383 0
M  V30 3231 H 294.734 1.88042 -0.272038 0
M  V30 3232 H 292.884 3.56095 1.55333 0
M  V30 3233 H 294.556 4.53027 -0.86972 0
M  V30 3234 H 292.799 4.24657 -0.885928 0
M  V30 3235 H 293.47 5.51823 0.139796 0
M  V30 3236 H 295.946 3.96097 1.27461 0
M  V30 3237 H 294.822 5.07195 2.09867 0
M  V30 3238 H 295.083 3.46163 2.74998 0
M  V30 3239 N 294.142 -0.090211 1.57342 0
M  V30 3240 C 295.092 -1.11557 1.98844 0
M  V30 3241 C 296.076 -1.35503 0.867624 0
M  V30 3242 O 297.268 -1.36113 1.13148 0
M  V30 3243 C 294.397 -2.43446 2.42051 0
M  V30 3244 C 293.483 -2.22853 3.60828 0
M  V30 3245 N 293.874 -1.72141 4.75606 0
M  V30 3246 C 292.172 -2.53401 3.67021 0
M  V30 3247 C 292.873 -1.65932 5.57531 0
M  V30 3248 N 291.849 -2.11323 5.00843 0
M  V30 3249 H 295.651 -0.716499 2.85032 0
M  V30 3250 H 293.165 -0.297567 1.59651 0
M  V30 3251 H 295.162 -3.17644 2.70014 0
M  V30 3252 H 293.822 -2.84087 1.57241 0
M  V30 3253 H 294.833 -1.41268 4.98261 0
M  V30 3254 H 291.51 -2.97532 2.92884 0
M  V30 3255 H 292.9 -1.27733 6.59647 0
M  V30 3256 N 295.62 -1.53406 -0.361157 0
M  V30 3257 C 297.031 -1.61442 -0.937728 0
M  V30 3258 C 297.382 -0.48461 -1.90121 0
M  V30 3259 O 296.507 0.388312 -2.12888 0
M  V30 3260 C 297.102 -2.92624 -1.70753 0
M  V30 3261 C 295.661 -3.02981 -2.23337 0
M  V30 3262 C 294.808 -2.5677 -1.04712 0
M  V30 3263 H 297.759 -1.58083 -0.139816 0
M  V30 3264 H 297.78 -2.80675 -2.56908 0
M  V30 3265 H 297.292 -3.74834 -1.00604 0
M  V30 3266 H 295.393 -2.25368 -2.96715 0
M  V30 3267 H 295.506 -4.0814 -2.50916 0
M  V30 3268 H 293.87 -2.11752 -1.41539 0
M  V30 3269 H 294.653 -3.41402 -0.360539 0
M  V30 3270 N 297.098 0.621204 -1.44841 0
M  V30 3271 C 298.509 1.20298 -1.42777 0
M  V30 3272 C 298.86 1.95639 -0.148259 0
M  V30 3273 O 297.985 2.02955 0.750892 0
M  V30 3274 C 298.58 2.1882 -2.58657 0
M  V30 3275 C 297.139 2.72403 -2.59756 0
M  V30 3276 C 296.286 1.4757 -2.34773 0
M  V30 3277 H 299.237 0.411297 -1.53278 0
M  V30 3278 H 299.258 3.01607 -2.31977 0
M  V30 3279 H 298.77 1.63957 -3.51766 0
M  V30 3280 H 296.871 3.31242 -1.70615 0
M  V30 3281 H 296.984 3.17765 -3.58556 0
M  V30 3282 H 295.348 1.76051 -1.8406 0
M  V30 3283 H 296.131 0.945954 -3.3001 0
M  V30 3284 N 298.576 1.31904 0.862503 0
M  V30 3285 C 299.506 1.22782 1.98612 0
M  V30 3286 C 300.487 0.113362 1.69722 0
M  V30 3287 O 301.672 0.299218 1.91881 0
M  V30 3288 C 298.802 0.942058 3.34279 0
M  V30 3289 C 297.756 2.0169 3.77499 0
M  V30 3290 C 297.082 1.58369 5.10709 0
M  V30 3291 C 298.382 3.43096 3.93805 0
M  V30 3292 H 300.076 2.16788 2.06502 0
M  V30 3293 H 297.622 1.04366 0.992154 0
M  V30 3294 H 299.575 0.864818 4.1243 0
M  V30 3295 H 298.299 -0.0336603 3.26583 0
M  V30 3296 H 296.958 2.08416 3.01593 0
M  V30 3297 H 296.606 0.595628 4.99461 0
M  V30 3298 H 296.306 2.30279 5.40597 0
M  V30 3299 H 297.83 1.52067 5.91361 0
M  V30 3300 H 299.244 3.39003 4.62331 0
M  V30 3301 H 297.641 4.13288 4.35101 0
M  V30 3302 H 298.711 3.83334 2.96957 0
M  V30 3303 N 300.054 -1.07777 1.14986 0
M  V30 3304 C 301.279 -1.84558 0.946213 0
M  V30 3305 C 301.704 -1.81323 -0.500362 0
M  V30 3306 O 301.062 -1.20301 -1.35637 0
M  V30 3307 C 301.11 -3.29736 1.45968 0
M  V30 3308 O 300.214 -4.07149 0.65601 0
M  V30 3309 H 299.555 -0.571641 0.33782 0
M  V30 3310 H 302.085 -1.35991 1.52865 0
M  V30 3311 H 302.095 -3.80574 1.47063 0
M  V30 3312 H 300.77 -3.31406 2.51283 0
M  V30 3313 H 299.347 -3.65994 0.714322 0
M  V30 3314 N 301.532 -0.945985 -1.26051 0
M  V30 3315 C 302.482 -0.430164 -2.23905 0
M  V30 3316 C 303.466 0.47579 -1.53704 0
M  V30 3317 O 304.658 0.310252 -1.7426 0
M  V30 3318 C 301.787 0.298957 -3.41996 0
M  V30 3319 C 300.873 -0.624566 -4.19476 0
M  V30 3320 N 301.264 -1.75245 -4.74471 0
M  V30 3321 C 299.562 -0.431082 -4.43912 0
M  V30 3322 C 300.263 -2.32834 -5.3307 0
M  V30 3323 N 299.239 -1.61583 -5.1903 0
M  V30 3324 H 303.041 -1.29107 -2.64024 0
M  V30 3325 H 300.555 -0.802428 -1.41191 0
M  V30 3326 H 302.552 0.685565 -4.11225 0
M  V30 3327 H 301.212 1.15657 -3.03403 0
M  V30 3328 H 302.223 -2.13449 -4.71868 0
M  V30 3329 H 298.9 0.384364 -4.15727 0
M  V30 3330 H 300.29 -3.27893 -5.86461 0
M  V30 3331 N 303.011 1.40521 -0.713556 0
M  V30 3332 C 303.941 2.33381 -0.0743864 0
M  V30 3333 C 304.922 1.52784 0.747735 0
M  V30 3334 O 306.107 1.81258 0.697071 0
M  V30 3335 C 303.237 3.36748 0.849598 0
M  V30 3336 C 302.191 4.27793 0.133247 0
M  V30 3337 C 301.517 5.21679 1.17281 0
M  V30 3338 C 302.817 5.12415 -1.01134 0
M  V30 3339 H 304.511 2.87081 -0.850007 0
M  V30 3340 H 302.057 1.38034 -0.410201 0
M  V30 3341 H 304.01 4.00648 1.30612 0
M  V30 3342 H 302.734 2.81439 1.65709 0
M  V30 3343 H 301.393 3.65342 -0.303426 0
M  V30 3344 H 301.041 4.62677 1.9733 0
M  V30 3345 H 300.741 5.83435 0.698397 0
M  V30 3346 H 302.265 5.88456 1.62947 0
M  V30 3347 H 303.679 5.69781 -0.634274 0
M  V30 3348 H 302.076 5.83203 -1.41399 0
M  V30 3349 H 303.146 4.48514 -1.84292 0
M  V30 3350 N 304.489 0.459591 1.5075 0
M  V30 3351 C 305.9 0.00171547 1.867 0
M  V30 3352 C 306.251 -1.39934 1.37525 0
M  V30 3353 O 305.376 -2.03523 0.735349 0
M  V30 3354 C 305.971 -0.00366298 3.388 0
M  V30 3355 C 304.53 -0.406026 3.74204 0
M  V30 3356 C 303.677 0.38673 2.7459 0
M  V30 3357 H 306.628 0.674413 1.43657 0
M  V30 3358 H 306.649 -0.808371 3.71814 0
M  V30 3359 H 306.161 1.01617 3.74561 0
M  V30 3360 H 304.262 -1.43063 3.4404 0
M  V30 3361 H 304.375 -0.115362 4.78961 0
M  V30 3362 H 302.739 -0.158019 2.54209 0
M  V30 3363 H 303.522 1.40585 3.13194 0
M  V30 3364 N 305.967 -1.56429 0.191757 0
M  V30 3365 C 307.383 -1.58754 -0.164137 0
M  V30 3366 C 307.583 -1.20782 -1.61288 0
M  V30 3367 O 306.639 -0.928999 -2.34789 0
M  V30 3368 C 307.952 -3.00396 0.135195 0
M  V30 3369 C 309.5 -3.1291 0.0750351 0
M  V30 3370 C 309.975 -4.56679 0.347632 0
M  V30 3371 N 311.466 -4.62252 0.296131 0
M  V30 3372 C 312.201 -5.71379 0.480948 0
M  V30 3373 N 311.697 -6.88986 0.725933 0
M  V30 3374 N 313.49 -5.60563 0.415435 0
M  V30 3375 H 305.641 -1.79393 1.13718 0
M  V30 3376 H 307.904 -0.832414 0.453643 0
M  V30 3377 H 307.61 -3.32726 1.13958 0
M  V30 3378 H 307.484 -3.72963 -0.563773 0
M  V30 3379 H 309.871 -2.80394 -0.919948 0
M  V30 3380 H 309.952 -2.42736 0.807029 0
M  V30 3381 H 309.596 -4.89907 1.33992 0
M  V30 3382 H 309.526 -5.25039 -0.405212 0
M  V30 3383 H 312.017 -3.7773 0.113259 0
M  V30 3384 H 312.33 -7.68046 0.855857 0
M  V30 3385 H 310.675 -6.90801 0.762788 0
M  V30 3386 H 313.866 -4.67561 0.224486 0
M  V30 3387 H 314.039 -6.45551 0.562889 0
M  V30 3388 N 307.445 0.0818655 -1.57387 0
M  V30 3389 C 308.355 1.11642 -2.06333 0
M  V30 3390 C 309.371 1.43033 -0.99083 0
M  V30 3391 O 310.547 1.53411 -1.30488 0
M  V30 3392 C 307.612 2.41342 -2.48907 0
M  V30 3393 C 306.673 2.17014 -3.7041 0
M  V30 3394 C 305.906 3.4053 -4.10944 0
M  V30 3395 O 306.129 4.4927 -3.51444 0
M  V30 3396 O 305.063 3.29336 -5.03807 0
M  V30 3397 H 308.889 0.730657 -2.9478 0
M  V30 3398 H 306.474 0.295301 -1.46452 0
M  V30 3399 H 308.356 3.17691 -2.76858 0
M  V30 3400 H 307.031 2.79319 -1.63593 0
M  V30 3401 H 305.938 1.38403 -3.47556 0
M  V30 3402 H 307.271 1.83923 -4.56545 0
M  V30 3403 N 308.923 1.53595 0.353017 0
M  V30 3404 C 310.339 1.43648 0.695516 0
M  V30 3405 C 310.539 0.585617 1.92802 0
M  V30 3406 O 309.595 0.0729223 2.52395 0
M  V30 3407 C 310.908 2.8701 0.896991 0
M  V30 3408 C 312.456 2.96723 0.996209 0
M  V30 3409 C 312.931 4.41173 1.23007 0
M  V30 3410 N 314.422 4.44657 1.29749 0
M  V30 3411 C 315.157 5.53547 1.49577 0
M  V30 3412 N 314.653 6.72461 1.66639 0
M  V30 3413 N 316.446 5.41145 1.52048 0
M  V30 3414 H 308.597 2.07415 -0.457481 0
M  V30 3415 H 310.86 0.9372 -0.142687 0
M  V30 3416 H 310.566 3.51644 0.0629938 0
M  V30 3417 H 310.44 3.31401 1.80148 0
M  V30 3418 H 312.827 2.32235 1.82074 0
M  V30 3419 H 312.908 2.55707 0.0688331 0
M  V30 3420 H 312.552 5.06238 0.410505 0
M  V30 3421 H 312.482 4.79772 2.17086 0
M  V30 3422 H 314.973 3.58963 1.18126 0
M  V30 3423 H 315.286 7.51214 1.81378 0
M  V30 3424 H 313.631 6.75423 1.63794 0
M  V30 3425 H 316.822 4.47205 1.38294 0
M  V30 3426 H 316.995 6.26068 1.67159 0
M  V30 3427 N 310.401 -0.613514 1.45168 0
M  V30 3428 C 311.364 -1.7065 1.53007 0
M  V30 3429 C 312.364 -1.5548 0.410184 0
M  V30 3430 O 313.554 -1.60656 0.673455 0
M  V30 3431 C 310.686 -3.09875 1.42093 0
M  V30 3432 H 311.879 -1.65068 2.50385 0
M  V30 3433 H 309.432 -0.828728 1.32521 0
M  V30 3434 H 310.167 -3.21039 0.458769 0
M  V30 3435 H 309.952 -3.22293 2.23315 0
M  V30 3436 H 311.442 -3.895 1.50598 0
M  V30 3437 N 311.879 -1.3236 -0.855495 0
M  V30 3438 C 312.809 -1.23833 -1.97958 0
M  V30 3439 C 313.79 -0.122361 -1.69659 0
M  V30 3440 O 314.975 -0.30939 -1.9172 0
M  V30 3441 C 312.105 -0.959772 -3.33775 0
M  V30 3442 C 311.059 -2.03689 -3.76424 0
M  V30 3443 C 310.385 -1.61075 -5.09862 0
M  V30 3444 C 311.685 -3.4518 -3.9198 0
M  V30 3445 H 313.379 -2.1788 -2.0535 0
M  V30 3446 H 310.925 -1.04891 -0.986605 0
M  V30 3447 H 312.878 -0.886678 -4.11966 0
M  V30 3448 H 311.602 0.0163404 -3.26596 0
M  V30 3449 H 310.261 -2.10012 -3.00484 0
M  V30 3450 H 309.909 -0.622107 -4.99138 0
M  V30 3451 H 309.609 -2.33143 -5.39368 0
M  V30 3452 H 311.133 -1.55201 -5.90546 0
M  V30 3453 H 312.547 -3.4145 -4.60526 0
M  V30 3454 H 310.944 -4.1559 -4.32903 0
M  V30 3455 H 312.014 -3.84903 -2.94919 0
M  V30 3456 N 313.357 1.07166 -1.15556 0
M  V30 3457 C 314.582 1.84053 -0.955988 0
M  V30 3458 C 315.007 1.81586 0.490739 0
M  V30 3459 O 314.365 1.21018 1.34997 0
M  V30 3460 C 314.413 3.28957 -1.47714 0
M  V30 3461 O 313.517 4.06795 -0.677593 0
M  V30 3462 H 312.858 0.569842 -0.340847 0
M  V30 3463 H 315.388 1.35178 -1.53584 0
M  V30 3464 H 315.398 3.79788 -1.4908 0
M  V30 3465 H 314.073 3.30068 -2.53037 0
M  V30 3466 H 312.65 3.6561 -0.733721 0
M  V30 3467 N 314.835 0.952656 1.25548 0
M  V30 3468 C 315.745 0.47782 2.29682 0
M  V30 3469 C 316.761 -0.453859 1.67977 0
M  V30 3470 O 317.937 -0.330587 1.98668 0
M  V30 3471 C 315.002 -0.238655 3.45878 0
M  V30 3472 C 314.063 0.730994 4.23031 0
M  V30 3473 C 313.296 0.0486165 5.33678 0
M  V30 3474 O 313.519 -1.16612 5.58353 0
M  V30 3475 O 312.453 0.733152 5.97418 0
M  V30 3476 H 316.279 1.34312 2.72386 0
M  V30 3477 H 313.864 0.719026 1.30959 0
M  V30 3478 H 315.746 -0.641774 4.16484 0
M  V30 3479 H 314.421 -1.07916 3.05181 0
M  V30 3480 H 313.328 1.18428 3.5486 0
M  V30 3481 H 314.661 1.53946 4.67506 0
M  V30 3482 N 316.313 -1.40141 0.720998 0
M  V30 3483 C 317.276 -2.29058 0.0805834 0
M  V30 3484 C 318.276 -1.45632 -0.681758 0
M  V30 3485 O 319.466 -1.6648 -0.512856 0
M  V30 3486 C 316.598 -3.28925 -0.895593 0
M  V30 3487 H 317.791 -2.87191 0.863793 0
M  V30 3488 H 315.344 -1.48553 0.485975 0
M  V30 3489 H 316.079 -2.75822 -1.70566 0
M  V30 3490 H 315.864 -3.90519 -0.351766 0
M  V30 3491 H 317.354 -3.95494 -1.34069 0
M  V30 3492 N 317.792 -0.46758 -1.50504 0
M  V30 3493 C 319.038 0.0887532 -2.02606 0
M  V30 3494 C 319.371 1.39686 -1.34913 0
M  V30 3495 O 318.646 1.88644 -0.473694 0
M  V30 3496 C 318.929 0.276206 -3.59039 0
M  V30 3497 C 318.782 -1.05267 -4.37309 0
M  V30 3498 C 320.101 1.03235 -4.27821 0
M  V30 3499 H 317.22 0.0307814 -0.736357 0
M  V30 3500 H 319.862 -0.612485 -1.79857 0
M  V30 3501 H 318.012 0.8735 -3.78553 0
M  V30 3502 H 319.684 -1.68628 -4.29374 0
M  V30 3503 H 317.927 -1.65015 -4.01189 0
M  V30 3504 H 318.598 -0.875197 -5.45018 0
M  V30 3505 H 321.074 0.526111 -4.12761 0
M  V30 3506 H 319.95 1.1323 -5.37094 0
M  V30 3507 H 320.211 2.06806 -3.90748 0
M  V30 3508 N 319.27 1.56325 -0.20005 0
M  V30 3509 C 320.498 2.02105 0.442874 0
M  V30 3510 C 320.913 1.08014 1.5485 0
M  V30 3511 O 320.27 0.0858797 1.82298 0
M  V30 3512 C 320.321 3.47549 0.994583 0
M  V30 3513 O 320.042 4.38049 -0.0669322 0
M  V30 3514 C 321.543 4.0887 1.7129 0
M  V30 3515 H 318.763 0.661807 0.110691 0
M  V30 3516 H 321.307 2.02134 -0.310207 0
M  V30 3517 H 319.462 3.48204 1.69803 0
M  V30 3518 H 319.876 5.23368 0.344462 0
M  V30 3519 H 321.35 5.12475 2.05118 0
M  V30 3520 H 321.827 3.52615 2.61838 0
M  V30 3521 H 322.433 4.12002 1.05518 0
M  V30 3522 N 320.748 -0.0735177 1.57428 0
M  V30 3523 C 321.678 -1.0879 2.06608 0
M  V30 3524 C 322.659 -1.40473 0.959237 0
M  V30 3525 O 323.844 -1.5013 1.23185 0
M  V30 3526 C 320.974 -2.40183 2.50857 0
M  V30 3527 C 319.928 -2.22858 3.65402 0
M  V30 3528 C 319.254 -3.59619 3.957 0
M  V30 3529 C 320.554 -1.65123 4.95511 0
M  V30 3530 H 322.248 -0.678673 2.91607 0
M  V30 3531 H 319.794 -0.325013 1.40284 0
M  V30 3532 H 321.747 -3.11437 2.83874 0
M  V30 3533 H 320.471 -2.83083 1.62885 0
M  V30 3534 H 319.13 -1.54045 3.32664 0
M  V30 3535 H 318.778 -4.00086 3.04861 0
M  V30 3536 H 318.478 -3.48866 4.72828 0
M  V30 3537 H 320.002 -4.32306 4.31212 0
M  V30 3538 H 321.416 -2.26241 5.26771 0
M  V30 3539 H 319.813 -1.65071 5.7695 0
M  V30 3540 H 320.883 -0.612559 4.81015 0
M  V30 3541 N 322.226 -1.5378 -0.344866 0
M  V30 3542 C 323.156 -1.84662 -1.42906 0
M  V30 3543 C 324.137 -0.701648 -1.54955 0
M  V30 3544 O 325.322 -0.953438 -1.69184 0
M  V30 3545 C 322.452 -2.05503 -2.79974 0
M  V30 3546 C 321.406 -3.21318 -2.82734 0
M  V30 3547 C 320.732 -3.2749 -4.22675 0
M  V30 3548 C 322.032 -4.59456 -2.48389 0
M  V30 3549 H 323.726 -2.75461 -1.17311 0
M  V30 3550 H 321.272 -1.32542 -0.562896 0
M  V30 3551 H 323.225 -2.25691 -3.55867 0
M  V30 3552 H 321.949 -1.11434 -3.07002 0
M  V30 3553 H 320.608 -3.00984 -2.09294 0
M  V30 3554 H 320.256 -2.31019 -4.4681 0
M  V30 3555 H 319.956 -4.05316 -4.25433 0
M  V30 3556 H 321.48 -3.49887 -5.00412 0
M  V30 3557 H 322.894 -4.79667 -3.13995 0
M  V30 3558 H 321.291 -5.39675 -2.62432 0
M  V30 3559 H 322.361 -4.63155 -1.4358 0
M  V30 3560 N 323.704 0.605807 -1.45491 0
M  V30 3561 C 324.95 1.36679 -1.49823 0
M  V30 3562 C 325.283 1.93693 -0.140175 0
M  V30 3563 O 324.558 1.75158 0.845581 0
M  V30 3564 C 324.841 2.51337 -2.57879 0
M  V30 3565 C 324.694 1.99508 -4.03134 0
M  V30 3566 C 326.013 3.53463 -2.62205 0
M  V30 3567 H 323.132 0.495617 -0.545466 0
M  V30 3568 H 325.774 0.682732 -1.7731 0
M  V30 3569 H 323.924 3.09691 -2.34571 0
M  V30 3570 H 325.596 1.45789 -4.37656 0
M  V30 3571 H 323.839 1.30496 -4.13707 0
M  V30 3572 H 324.51 2.82169 -4.74431 0
M  V30 3573 H 326.986 3.04953 -2.83095 0
M  V30 3574 H 325.862 4.31178 -3.39672 0
M  V30 3575 H 326.123 4.09197 -1.67363 0
M  V30 3576 N 325.182 1.32811 0.848464 0
M  V30 3577 C 326.145 1.22194 1.9391 0
M  V30 3578 C 327.145 0.143404 1.60159 0
M  V30 3579 O 328.335 0.394253 1.6968 0
M  V30 3580 C 325.467 0.88067 3.29328 0
M  V30 3581 H 326.66 2.19127 2.04752 0
M  V30 3582 H 324.213 1.16731 1.0394 0
M  V30 3583 H 324.948 -0.0865776 3.24184 0
M  V30 3584 H 324.733 1.66052 3.55203 0
M  V30 3585 H 326.223 0.830871 4.09251 0
M  V30 3586 N 326.66 -1.06551 1.16123 0
M  V30 3587 C 327.908 -1.78947 0.939267 0
M  V30 3588 C 328.229 -1.87532 -0.534476 0
M  V30 3589 O 327.499 -1.38211 -1.38833 0
M  V30 3590 H 326.079 -0.662807 0.344523 0
M  V30 3591 H 328.741 -1.28725 1.46342 0
M  V30 3592 H 327.837 -2.81117 1.35572 0
M  V30 3593 N 328.138 -0.959301 -1.25041 0
M  V30 3594 C 329.088 -0.453888 -2.23436 0
M  V30 3595 C 330.072 0.459461 -1.542 0
M  V30 3596 O 331.264 0.291752 -1.74579 0
M  V30 3597 C 328.393 0.262667 -3.42294 0
M  V30 3598 C 327.479 -0.669022 -4.1879 0
M  V30 3599 N 327.87 -1.80267 -4.72586 0
M  V30 3600 C 326.168 -0.47814 -4.4343 0
M  V30 3601 C 326.869 -2.38475 -5.3057 0
M  V30 3602 N 325.845 -1.67078 -5.17287 0
M  V30 3603 H 329.647 -1.319 -2.6264 0
M  V30 3604 H 327.161 -0.817358 -1.40332 0
M  V30 3605 H 329.158 0.641911 -4.11929 0
M  V30 3606 H 327.818 1.12432 -3.04613 0
M  V30 3607 H 328.829 -2.18442 -4.69578 0
M  V30 3608 H 325.506 0.340249 -4.16111 0
M  V30 3609 H 326.896 -3.34094 -5.8295 0
M  V30 3610 N 329.616 1.39756 -0.72842 0
M  V30 3611 C 330.526 2.34444 -0.0855374 0
M  V30 3612 C 331.542 1.57976 0.729356 0
M  V30 3613 O 332.718 1.90301 0.659346 0
M  V30 3614 C 329.783 3.36965 0.815798 0
M  V30 3615 C 328.844 4.29299 -0.0105996 0
M  V30 3616 C 328.077 5.26923 0.84781 0
M  V30 3617 O 328.3 5.30859 2.08673 0
M  V30 3618 O 327.234 6.01249 0.279969 0
M  V30 3619 H 331.06 2.91065 -0.866892 0
M  V30 3620 H 328.645 1.4117 -0.48902 0
M  V30 3621 H 330.527 3.99804 1.33171 0
M  V30 3622 H 329.202 2.82739 1.57608 0
M  V30 3623 H 328.109 3.69703 -0.571877 0
M  V30 3624 H 329.442 4.86712 -0.73295 0
M  V30 3625 N 331.094 0.475555 1.50254 0
M  V30 3626 C 332.322 -0.0754493 2.06762 0
M  V30 3627 C 332.737 -1.33111 1.33891 0
M  V30 3628 O 332.094 -1.77846 0.40952 0
M  V30 3629 C 332.145 -0.359008 3.59713 0
M  V30 3630 O 331.866 0.846851 4.29837 0
M  V30 3631 C 333.367 -0.956484 4.32858 0
M  V30 3632 H 330.587 0.00907525 0.670939 0
M  V30 3633 H 333.131 0.665618 1.93364 0
M  V30 3634 H 331.286 -1.05001 3.72899 0
M  V30 3635 H 331.7 0.594162 5.21124 0
M  V30 3636 H 333.174 -1.10463 5.40834 0
M  V30 3637 H 333.651 -1.94775 3.93649 0
M  V30 3638 H 334.257 -0.303723 4.24214 0
M  V30 3639 N 332.573 -1.56217 0.208337 0
M  V30 3640 C 333.819 -1.98242 -0.427552 0
M  V30 3641 C 334.152 -1.09554 -1.60348 0
M  V30 3642 O 333.427 -0.15035 -1.93918 0
M  V30 3643 C 333.71 -3.4931 -0.874907 0
M  V30 3644 C 333.563 -4.48773 0.303751 0
M  V30 3645 C 334.882 -4.04424 -1.73577 0
M  V30 3646 H 332.001 -0.720744 -0.153936 0
M  V30 3647 H 334.643 -1.87586 0.30192 0
M  V30 3648 H 332.793 -3.58522 -1.49648 0
M  V30 3649 H 334.465 -4.51586 0.941682 0
M  V30 3650 H 332.708 -4.23194 0.953375 0
M  V30 3651 H 333.379 -5.51976 -0.0519883 0
M  V30 3652 H 335.855 -3.98075 -1.21143 0
M  V30 3653 H 334.731 -5.1047 -2.01771 0
M  V30 3654 H 334.992 -3.50494 -2.69456 0
M  V30 3655 N 334.051 0.0651679 -1.57465 0
M  V30 3656 C 335.014 1.06117 -2.03155 0
M  V30 3657 C 336.014 1.31204 -0.929632 0
M  V30 3658 O 337.204 1.26813 -1.19432 0
M  V30 3659 C 334.336 2.4032 -2.41783 0
M  V30 3660 H 335.529 0.667231 -2.92383 0
M  V30 3661 H 333.082 0.311075 -1.53173 0
M  V30 3662 H 333.817 2.84532 -1.55601 0
M  V30 3663 H 333.602 2.23451 -3.22199 0
M  V30 3664 H 335.092 3.11898 -2.77685 0
M  V30 3665 N 335.529 1.53961 0.336706 0
M  V30 3666 C 336.754 1.75797 1.10046 0
M  V30 3667 C 337.179 0.498985 1.81361 0
M  V30 3668 O 336.537 -0.548769 1.72795 0
M  V30 3669 C 336.585 2.94257 2.08436 0
M  V30 3670 O 335.689 2.64883 3.16087 0
M  V30 3671 H 335.03 0.582936 0.317934 0
M  V30 3672 H 337.56 2.00945 0.38501 0
M  V30 3673 H 337.57 3.21237 2.51537 0
M  V30 3674 H 336.245 3.85564 1.55927 0
M  V30 3675 H 334.822 2.48812 2.77753 0
M  V30 3676 N 337.007 -0.598083 1.45811 0
M  V30 3677 C 337.97 -1.69018 1.54808 0
M  V30 3678 C 338.97 -1.55037 0.426652 0
M  V30 3679 O 340.16 -1.59932 0.690456 0
M  V30 3680 C 337.292 -3.0835 1.45371 0
M  V30 3681 H 338.485 -1.62403 2.52121 0
M  V30 3682 H 336.038 -0.814626 1.33392 0
M  V30 3683 H 336.773 -3.20534 0.492793 0
M  V30 3684 H 336.558 -3.19907 2.26721 0
M  V30 3685 H 338.048 -3.8788 1.54721 0
M  V30 3686 N 338.485 -1.33259 -0.841409 0
M  V30 3687 C 339.415 -1.25926 -1.96634 0
M  V30 3688 C 340.396 -0.140349 -1.6952 0
M  V30 3689 O 341.581 -0.329707 -1.91381 0
M  V30 3690 C 338.711 -0.99512 -3.32738 0
M  V30 3691 C 337.665 -2.0767 -3.74242 0
M  V30 3692 C 336.991 -1.66474 -5.08125 0
M  V30 3693 C 338.291 -3.49318 -3.88297 0
M  V30 3694 H 339.985 -2.20046 -2.03027 0
M  V30 3695 H 337.531 -1.05931 -0.975425 0
M  V30 3696 H 339.484 -0.930323 -4.11002 0
M  V30 3697 H 338.208 -0.0183004 -3.26595 0
M  V30 3698 H 336.867 -2.13187 -2.98239 0
M  V30 3699 H 336.515 -0.675012 -4.9845 0
M  V30 3700 H 336.215 -2.3885 -5.36865 0
M  V30 3701 H 337.739 -1.61455 -5.88867 0
M  V30 3702 H 339.153 -3.46316 -4.56879 0
M  V30 3703 H 337.55 -4.20158 -4.28471 0
M  V30 3704 H 338.62 -3.8801 -2.9082 0
M  V30 3705 N 339.963 1.05934 -1.16686 0
M  V30 3706 C 341.191 1.8249 -0.974929 0
M  V30 3707 C 341.606 1.82679 0.476861 0
M  V30 3708 O 340.963 1.2486 1.33103 0
M  V30 3709 C 341.014 3.28943 -1.49929 0
M  V30 3710 O 340.735 3.28886 -2.89423 0
M  V30 3711 C 342.236 4.22215 -1.35089 0
M  V30 3712 H 339.456 0.575295 -0.345365 0
M  V30 3713 H 342 1.33631 -1.548 0
M  V30 3714 H 340.155 3.751 -0.968423 0
M  V30 3715 H 340.569 4.20493 -3.13506 0
M  V30 3716 H 342.043 5.22987 -1.76603 0
M  V30 3717 H 342.52 4.38195 -0.296935 0
M  V30 3718 H 343.126 3.81907 -1.87155 0
M  V30 3719 N 341.441 0.965919 1.2453 0
M  V30 3720 C 342.687 0.637349 1.93156 0
M  V30 3721 C 343.042 -0.818261 1.74133 0
M  V30 3722 O 342.335 -1.58079 1.08266 0
M  V30 3723 C 342.529 0.945428 3.44669 0
M  V30 3724 C 342.358 2.42944 3.78429 0
M  V30 3725 C 341.128 3.08895 3.9989 0
M  V30 3726 C 343.326 3.40941 3.8505 0
M  V30 3727 N 341.308 4.47052 4.20735 0
M  V30 3728 C 342.679 4.64448 4.10717 0
M  V30 3729 C 344.734 3.35624 3.67779 0
M  V30 3730 C 343.437 5.83292 4.20907 0
M  V30 3731 C 345.463 4.53818 3.79214 0
M  V30 3732 C 344.825 5.76114 4.05304 0
M  V30 3733 H 340.924 0.284034 0.728594 0
M  V30 3734 H 343.508 1.24041 1.50073 0
M  V30 3735 H 341.679 0.371193 3.86622 0
M  V30 3736 H 343.411 0.575613 4.00586 0
M  V30 3737 H 340.166 2.59432 3.96222 0
M  V30 3738 H 340.59 5.18634 4.35141 0
M  V30 3739 H 345.232 2.4211 3.46616 0
M  V30 3740 H 342.95 6.77236 4.40883 0
M  V30 3741 H 346.536 4.51263 3.67224 0
M  V30 3742 H 345.416 6.66045 4.13949 0
M  V30 3743 N 342.919 -1.39368 0.735821 0
M  V30 3744 C 344.144 -2.05319 0.293052 0
M  V30 3745 C 344.569 -1.55115 -1.064 0
M  V30 3746 O 343.927 -0.695261 -1.67439 0
M  V30 3747 C 343.975 -3.59305 0.305323 0
M  V30 3748 O 343.079 -4.06299 -0.706761 0
M  V30 3749 H 342.42 -0.650529 0.13307 0
M  V30 3750 H 344.95 -1.78386 1.00197 0
M  V30 3751 H 344.96 -4.07724 0.149997 0
M  V30 3752 H 343.635 -3.95207 1.29553 0
M  V30 3753 H 342.212 -3.69292 -0.517504 0
M  V30 3754 N 344.397 -0.483516 -1.5 0
M  V30 3755 C 345.644 0.0671597 -2.02389 0
M  V30 3756 C 345.972 1.38597 -1.36459 0
M  V30 3757 O 345.227 1.89634 -0.483458 0
M  V30 3758 C 345.526 0.286226 -3.56252 0
M  V30 3759 C 345.192 -0.952416 -4.40726 0
M  V30 3760 C 343.854 -1.29199 -4.63531 0
M  V30 3761 C 346.206 -1.77655 -4.89988 0
M  V30 3762 C 343.534 -2.45553 -5.32842 0
M  V30 3763 C 345.886 -2.93147 -5.60578 0
M  V30 3764 C 344.55 -3.27505 -5.81633 0
M  V30 3765 H 343.82 0.0245755 -0.740592 0
M  V30 3766 H 346.467 -0.640124 -1.80485 0
M  V30 3767 H 344.772 1.07587 -3.76739 0
M  V30 3768 H 346.469 0.726473 -3.94365 0
M  V30 3769 H 343.059 -0.677881 -4.23205 0
M  V30 3770 H 347.243 -1.52737 -4.72213 0
M  V30 3771 H 342.499 -2.72431 -5.47349 0
M  V30 3772 H 346.673 -3.57344 -5.97727 0
M  V30 3773 H 344.3 -4.1777 -6.35116 0
M  V30 3774 N 345.875 1.56104 -0.216619 0
M  V30 3775 C 346.805 2.23063 0.690296 0
M  V30 3776 C 347.786 1.20072 1.20485 0
M  V30 3777 O 348.971 1.48643 1.24976 0
M  V30 3778 C 346.101 2.90672 1.90072 0
M  V30 3779 C 345.055 4.00092 1.5202 0
M  V30 3780 C 344.381 4.54972 2.80899 0
M  V30 3781 C 345.681 5.17398 0.71391 0
M  V30 3782 H 347.375 2.99109 0.132038 0
M  V30 3783 H 344.921 1.43866 0.0620664 0
M  V30 3784 H 346.874 3.36204 2.54057 0
M  V30 3785 H 345.598 2.12066 2.48386 0
M  V30 3786 H 344.257 3.55283 0.903839 0
M  V30 3787 H 343.905 3.73102 3.37348 0
M  V30 3788 H 343.605 5.28817 2.56176 0
M  V30 3789 H 345.129 5.0322 3.45836 0
M  V30 3790 H 346.543 5.59342 1.25735 0
M  V30 3791 H 344.94 5.97444 0.563951 0
M  V30 3792 H 346.01 4.84088 -0.280527 0
M  V30 3793 N 347.353 -0.0568162 1.57498 0
M  V30 3794 C 348.283 -1.06593 2.0775 0
M  V30 3795 C 349.264 -1.39448 0.974082 0
M  V30 3796 O 350.449 -1.48815 1.24771 0
M  V30 3797 C 347.579 -2.37509 2.5339 0
M  V30 3798 C 346.533 -2.1897 3.67745 0
M  V30 3799 C 345.859 -3.55402 3.99492 0
M  V30 3800 C 347.159 -1.59859 4.97235 0
M  V30 3801 H 348.853 -0.647706 2.9231 0
M  V30 3802 H 346.399 -0.310116 1.40621 0
M  V30 3803 H 348.352 -3.08409 2.87162 0
M  V30 3804 H 347.076 -2.8134 1.65878 0
M  V30 3805 H 345.735 -1.50508 3.3428 0
M  V30 3806 H 345.383 -3.9683 3.09088 0
M  V30 3807 H 345.083 -3.43831 4.76502 0
M  V30 3808 H 346.607 -4.27708 4.35773 0
M  V30 3809 H 348.021 -2.20642 5.29141 0
M  V30 3810 H 346.418 -1.58942 5.78669 0
M  V30 3811 H 347.488 -0.561506 4.81638 0
M  V30 3812 N 348.832 -1.54138 -0.328536 0
M  V30 3813 C 349.762 -1.86167 -1.40939 0
M  V30 3814 C 350.743 -0.718044 -1.54202 0
M  V30 3815 O 351.928 -0.971328 -1.68163 0
M  V30 3816 C 349.058 -2.08461 -2.77779 0
M  V30 3817 C 348.012 -3.24299 -2.7931 0
M  V30 3818 C 347.338 -3.31955 -4.19178 0
M  V30 3819 C 348.638 -4.62065 -2.43502 0
M  V30 3820 H 350.332 -2.76689 -1.14383 0
M  V30 3821 H 347.878 -1.33132 -0.548806 0
M  V30 3822 H 349.831 -2.29453 -3.53454 0
M  V30 3823 H 348.555 -1.14684 -3.05802 0
M  V30 3824 H 347.214 -3.03187 -2.0609 0
M  V30 3825 H 346.862 -2.35745 -4.44335 0
M  V30 3826 H 346.562 -4.09805 -4.2111 0
M  V30 3827 H 348.086 -3.55175 -4.96672 0
M  V30 3828 H 349.5 -4.8297 -3.08889 0
M  V30 3829 H 347.897 -5.42429 -2.56693 0
M  V30 3830 H 348.967 -4.64652 -1.38659 0
M  V30 3831 N 350.31 0.590341 -1.46126 0
M  V30 3832 C 351.535 1.37991 -1.54833 0
M  V30 3833 C 351.96 1.87163 -0.187506 0
M  V30 3834 O 351.318 1.61133 0.831008 0
M  V30 3835 C 351.366 2.54867 -2.55098 0
M  V30 3836 O 350.47 3.56061 -2.08073 0
M  V30 3837 H 349.811 0.411265 -0.521303 0
M  V30 3838 H 352.341 0.716819 -1.91632 0
M  V30 3839 H 352.351 3.01886 -2.74461 0
M  V30 3840 H 351.026 2.18429 -3.53923 0
M  V30 3841 H 349.603 3.15574 -1.98664 0
M  V30 3842 N 351.788 1.33704 0.83433 0
M  V30 3843 C 352.738 1.20899 1.93306 0
M  V30 3844 C 353.722 0.110783 1.60518 0
M  V30 3845 O 354.914 0.339331 1.73717 0
M  V30 3846 C 352.043 0.955018 3.29749 0
M  V30 3847 C 351.129 2.09587 3.68692 0
M  V30 3848 N 351.52 3.34621 3.79292 0
M  V30 3849 C 349.818 2.00358 3.98463 0
M  V30 3850 C 350.519 4.09472 4.13167 0
M  V30 3851 N 349.495 3.37954 4.25779 0
M  V30 3852 H 353.297 2.15665 1.99664 0
M  V30 3853 H 350.811 1.25777 1.02732 0
M  V30 3854 H 352.808 0.844208 4.08263 0
M  V30 3855 H 351.468 0.0159317 3.24696 0
M  V30 3856 H 352.479 3.69313 3.63082 0
M  V30 3857 H 349.156 1.14137 4.01596 0
M  V30 3858 H 350.546 5.17391 4.28668 0
M  V30 3859 N 353.266 -1.05314 1.17247 0
M  V30 3860 C 354.682 -1.30452 0.919473 0
M  V30 3861 C 354.882 -1.9703 -0.42209 0
M  V30 3862 O 353.938 -2.24311 -1.15935 0
M  V30 3863 C 355.251 -2.17551 2.07586 0
M  V30 3864 C 356.799 -2.30937 2.11275 0
M  V30 3865 C 357.274 -3.21396 3.26296 0
M  V30 3866 N 358.765 -3.28981 3.26076 0
M  V30 3867 C 359.5 -3.99095 4.11716 0
M  V30 3868 N 358.996 -4.71648 5.07465 0
M  V30 3869 N 360.789 -3.95247 3.9967 0
M  V30 3870 H 352.94 -0.604988 2.03602 0
M  V30 3871 H 355.203 -0.329368 0.888944 0
M  V30 3872 H 354.909 -1.75921 3.0454 0
M  V30 3873 H 354.783 -3.18182 2.02584 0
M  V30 3874 H 357.17 -2.71809 1.14907 0
M  V30 3875 H 357.251 -1.2994 2.20339 0
M  V30 3876 H 356.895 -2.81238 4.22927 0
M  V30 3877 H 356.825 -4.22395 3.14467 0
M  V30 3878 H 359.316 -2.77286 2.5675 0
M  V30 3879 H 359.629 -5.22705 5.6921 0
M  V30 3880 H 357.974 -4.70594 5.11435 0
M  V30 3881 H 361.165 -3.37691 3.24164 0
M  V30 3882 H 361.338 -4.4962 4.66632 0
M  V30 3883 N 354.744 -0.972509 -1.24016 0
M  V30 3884 C 356.155 -0.67517 -1.74064 0
M  V30 3885 C 356.506 0.808939 -1.78747 0
M  V30 3886 O 355.631 1.63286 -1.42009 0
M  V30 3887 C 356.226 -1.21889 -3.16115 0
M  V30 3888 C 354.785 -0.971358 -3.6365 0
M  V30 3889 C 353.932 -1.35134 -2.42145 0
M  V30 3890 H 356.883 -1.14727 -1.09651 0
M  V30 3891 H 356.904 -0.587489 -3.75937 0
M  V30 3892 H 356.416 -2.29906 -3.12674 0
M  V30 3893 H 354.517 0.0930686 -3.72484 0
M  V30 3894 H 354.63 -1.62039 -4.50866 0
M  V30 3895 H 352.994 -0.769751 -2.4279 0
M  V30 3896 H 353.777 -2.4411 -2.41381 0
M  V30 3897 N 356.222 1.38976 -0.743202 0
M  V30 3898 C 357.499 1.94351 -0.220705 0
M  V30 3899 C 357.879 1.67935 1.2791 0
M  V30 3900 O 357.227 1.01211 2.04862 0
M  V30 3901 C 357.437 3.44426 -0.563171 0
M  V30 3902 C 358.785 4.2144 -0.517046 0
M  V30 3903 O 359.809 3.52661 -0.500846 0
M  V30 3904 O 358.668 5.44032 -0.518806 0
M  V30 3905 H 355.762 0.825879 -0.043047 0
M  V30 3906 H 358.308 1.48429 -0.822618 0
M  V30 3907 H 357.08 3.5712 -1.59941 0
M  V30 3908 H 356.703 3.97543 0.0672883 0
M  V30 3909 N 357.7 0.491464 1.49741 0
M  V30 3910 C 358.946 -0.0485431 2.03342 0
M  V30 3911 C 359.301 -1.35566 1.36527 0
M  V30 3912 O 358.594 -1.85262 0.488729 0
M  V30 3913 C 358.788 -0.267329 3.56399 0
M  V30 3914 C 358.617 1.01703 4.38049 0
M  V30 3915 C 357.387 1.56614 4.80417 0
M  V30 3916 C 359.585 1.91782 4.77204 0
M  V30 3917 N 357.567 2.7974 5.4646 0
M  V30 3918 C 358.938 2.99489 5.42868 0
M  V30 3919 C 360.993 1.92575 4.5915 0
M  V30 3920 C 359.696 4.08005 5.92389 0
M  V30 3921 C 361.722 3.0006 5.09626 0
M  V30 3922 C 361.084 4.06485 5.75282 0
M  V30 3923 H 357.183 0.0227779 0.781668 0
M  V30 3924 H 359.767 0.664204 1.8302 0
M  V30 3925 H 357.938 -0.949126 3.76625 0
M  V30 3926 H 359.67 -0.803492 3.96644 0
M  V30 3927 H 356.425 1.11256 4.60347 0
M  V30 3928 H 356.849 3.42323 5.84075 0
M  V30 3929 H 361.491 1.11605 4.07804 0
M  V30 3930 H 359.209 4.89779 6.42761 0
M  V30 3931 H 362.795 3.01681 4.97473 0
M  V30 3932 H 361.675 4.88287 6.13633 0
M  V30 3933 N 359.178 -1.55987 0.224894 0
M  V30 3934 C 360.11 -2.17722 -0.716224 0
M  V30 3935 C 361.123 -1.14723 -1.15509 0
M  V30 3936 O 362.312 -1.41688 -1.08567 0
M  V30 3937 C 359.412 -2.74873 -1.98238 0
M  V30 3938 C 358.585 -4.03074 -1.69853 0
M  V30 3939 C 357.644 -4.44757 -2.81208 0
M  V30 3940 O 356.67 -5.11587 -2.49534 0
M  V30 3941 N 357.872 -4.10716 -4.10235 0
M  V30 3942 H 360.637 -2.99109 -0.188123 0
M  V30 3943 H 358.198 -1.6184 0.0440123 0
M  V30 3944 H 360.19 -2.99727 -2.7193 0
M  V30 3945 H 358.76 -1.9777 -2.42086 0
M  V30 3946 H 357.98 -3.86041 -0.797875 0
M  V30 3947 H 359.268 -4.86701 -1.48324 0
M  V30 3948 H 358.666 -3.57019 -4.38809 0
M  V30 3949 H 357.223 -4.40455 -4.80461 0
M  V30 3950 N 360.656 0.0484629 -1.57525 0
M  V30 3951 C 361.603 1.05504 -2.05275 0
M  V30 3952 C 362.573 1.37084 -0.937927 0
M  V30 3953 O 363.758 1.47754 -1.2072 0
M  V30 3954 C 360.898 2.35676 -2.52093 0
M  V30 3955 C 360.011 2.10423 -3.77288 0
M  V30 3956 C 359.146 3.34327 -4.12794 0
M  V30 3957 C 358.185 3.04542 -5.30962 0
M  V30 3958 N 357.322 4.20841 -5.61994 0
M  V30 3959 H 362.162 0.640885 -2.91027 0
M  V30 3960 H 359.699 0.304854 -1.43906 0
M  V30 3961 H 361.657 3.11709 -2.77297 0
M  V30 3962 H 360.287 2.7485 -1.69285 0
M  V30 3963 H 359.339 1.24976 -3.59284 0
M  V30 3964 H 360.651 1.84438 -4.63448 0
M  V30 3965 H 359.805 4.1874 -4.39024 0
M  V30 3966 H 358.544 3.63408 -3.25247 0
M  V30 3967 H 357.549 2.18528 -5.04505 0
M  V30 3968 H 358.774 2.76758 -6.20146 0
M  V30 3969 H 356.72 4.4991 -4.77406 0
M  V30 3970 H 356.637 3.98212 -6.42622 0
M  V30 3971 H 357.905 5.06184 -5.92789 0
M  V30 3972 N 362.134 1.5431 0.320358 0
M  V30 3973 C 363.55 1.45091 0.664889 0
M  V30 3974 C 363.75 0.626382 1.91517 0
M  V30 3975 O 362.806 0.126443 2.52183 0
M  V30 3976 C 364.119 2.88848 0.83591 0
M  V30 3977 C 365.667 2.9877 0.933046 0
M  V30 3978 C 366.142 4.43683 1.13621 0
M  V30 3979 N 367.633 4.47309 1.20287 0
M  V30 3980 C 368.368 5.56595 1.37801 0
M  V30 3981 N 367.864 6.75844 1.52338 0
M  V30 3982 N 369.657 5.44248 1.40535 0
M  V30 3983 H 361.808 2.06398 -0.501374 0
M  V30 3984 H 364.071 0.933963 -0.162534 0
M  V30 3985 H 363.777 3.51698 -0.0116092 0
M  V30 3986 H 363.651 3.35148 1.73078 0
M  V30 3987 H 366.038 2.36045 1.77107 0
M  V30 3988 H 366.119 2.55796 0.0145782 0
M  V30 3989 H 365.763 5.06995 0.303032 0
M  V30 3990 H 365.693 4.84269 2.0686 0
M  V30 3991 H 368.184 3.61388 1.10485 0
M  V30 3992 H 368.497 7.54892 1.65403 0
M  V30 3993 H 366.842 6.78746 1.4943 0
M  V30 3994 H 370.033 4.50038 1.28777 0
M  V30 3995 H 370.206 6.29473 1.53842 0
M  V30 3996 N 363.613 -0.582584 1.46437 0
M  V30 3997 C 364.859 -1.34278 1.51978 0
M  V30 3998 C 365.192 -1.93446 0.170973 0
M  V30 3999 O 364.467 -1.76481 -0.817608 0
M  V30 4000 C 364.75 -2.47203 2.61845 0
M  V30 4001 C 364.603 -1.93069 4.06257 0
M  V30 4002 C 365.922 -3.49247 2.67795 0
M  V30 4003 H 363.041 -0.486876 0.553282 0
M  V30 4004 H 365.683 -0.654437 1.78374 0
M  V30 4005 H 363.833 -3.0592 2.39469 0
M  V30 4006 H 365.505 -1.38808 4.3992 0
M  V30 4007 H 363.748 -1.23898 4.1573 0
M  V30 4008 H 364.419 -2.74586 4.7886 0
M  V30 4009 H 366.895 -3.00411 2.8791 0
M  V30 4010 H 365.771 -4.25719 3.46489 0
M  V30 4011 H 366.032 -4.06482 1.73852 0
M  V30 4012 N 365.091 -1.34144 -0.827227 0
M  V30 4013 C 366.054 -1.25264 -1.91942 0
M  V30 4014 C 367.054 -0.168866 -1.59911 0
M  V30 4015 O 368.244 -0.421198 -1.69031 0
M  V30 4016 C 365.376 -0.932952 -3.27885 0
M  V30 4017 H 366.569 -2.22357 -2.0124 0
M  V30 4018 H 364.122 -1.1837 -1.0207 0
M  V30 4019 H 364.857 0.0349917 -3.24281 0
M  V30 4020 H 364.642 -1.71682 -3.52516 0
M  V30 4021 H 366.132 -0.895874 -4.07877 0
M  V30 4022 N 366.569 1.04691 -1.17803 0
M  V30 4023 C 367.479 2.16057 -0.914151 0
M  V30 4024 C 368.495 1.73589 0.119503 0
M  V30 4025 O 369.671 2.01308 -0.0609468 0
M  V30 4026 C 366.736 3.4394 -0.436603 0
M  V30 4027 C 365.797 4.00825 -1.53746 0
M  V30 4028 C 365.03 5.22604 -1.0826 0
M  V30 4029 O 365.253 5.70367 0.0612244 0
M  V30 4030 O 364.187 5.7186 -1.87775 0
M  V30 4031 H 368.013 2.41169 -1.84584 0
M  V30 4032 H 365.598 1.1453 -0.959334 0
M  V30 4033 H 367.48 4.21024 -0.178057 0
M  V30 4034 H 366.155 3.20316 0.466869 0
M  V30 4035 H 365.062 3.25158 -1.84995 0
M  V30 4036 H 366.395 4.28778 -2.41683 0
M  V30 4037 N 368.047 0.979072 1.23499 0
M  V30 4038 C 369.272 0.664845 1.96455 0
M  V30 4039 C 369.697 -0.761287 1.72006 0
M  V30 4040 O 369.055 -1.51837 0.990713 0
M  V30 4041 C 369.103 0.959479 3.47601 0
M  V30 4042 O 368.207 0.0508168 4.12369 0
M  V30 4043 H 367.548 0.250185 0.615064 0
M  V30 4044 H 370.078 1.31231 1.5697 0
M  V30 4045 H 370.088 0.895642 3.98048 0
M  V30 4046 H 368.763 1.99876 3.64723 0
M  V30 4047 H 367.34 0.16895 3.72517 0
M  V30 4048 N 369.525 -1.3858 0.750561 0
M  V30 4049 C 370.435 -2.34278 0.122825 0
M  V30 4050 C 371.451 -1.59116 -0.704131 0
M  V30 4051 O 372.627 -1.91326 -0.628987 0
M  V30 4052 C 369.692 -3.38221 -0.762086 0
M  V30 4053 C 368.753 -4.29227 0.078896 0
M  V30 4054 C 367.986 -5.28205 -0.763874 0
M  V30 4055 O 368.209 -5.34112 -2.00201 0
M  V30 4056 O 367.143 -6.01618 -0.18428 0
M  V30 4057 H 370.969 -2.89649 0.913088 0
M  V30 4058 H 368.554 -1.40374 0.511417 0
M  V30 4059 H 370.436 -4.01872 -1.26793 0
M  V30 4060 H 369.111 -2.85211 -1.5309 0
M  V30 4061 H 368.018 -3.68747 0.630621 0
M  V30 4062 H 369.351 -4.85484 0.810289 0
M  V30 4063 N 371.003 -0.499398 -1.49478 0
M  V30 4064 C 371.913 0.284489 -2.32869 0
M  V30 4065 C 372.929 0.968885 -1.44529 0
M  V30 4066 O 374.105 0.95062 -1.77553 0
M  V30 4067 C 371.17 1.33594 -3.19928 0
M  V30 4068 C 370.231 0.665149 -4.24116 0
M  V30 4069 C 369.464 1.6665 -5.07014 0
M  V30 4070 O 369.687 2.89618 -4.91404 0
M  V30 4071 O 368.621 1.22271 -5.8935 0
M  V30 4072 H 372.447 -0.39802 -3.01081 0
M  V30 4073 H 370.032 -0.260758 -1.47107 0
M  V30 4074 H 371.914 1.94431 -3.73864 0
M  V30 4075 H 370.589 2.0014 -2.54412 0
M  V30 4076 H 369.496 0.0170769 -3.74096 0
M  V30 4077 H 370.829 0.0421555 -4.92182 0
M  V30 4078 N 372.481 1.55866 -0.233164 0
M  V30 4079 C 373.444 2.1953 0.658715 0
M  V30 4080 C 374.444 1.16053 1.11303 0
M  V30 4081 O 375.634 1.41218 1.01996 0
M  V30 4082 C 372.766 2.82791 1.90373 0
M  V30 4083 H 373.959 2.99721 0.10347 0
M  V30 4084 H 371.512 1.56291 0.0164245 0
M  V30 4085 H 372.247 2.06501 2.50056 0
M  V30 4086 H 372.032 3.58578 1.58632 0
M  V30 4087 H 373.522 3.31556 2.53891 0
M  V30 4088 N 373.959 -0.0401083 1.57549 0
M  V30 4089 C 374.922 -1.02871 2.04817 0
M  V30 4090 C 375.922 -1.29708 0.950388 0
M  V30 4091 O 377.112 -1.24897 1.21435 0
M  V30 4092 C 374.244 -2.36443 2.45576 0
M  V30 4093 H 375.437 -0.620631 2.93408 0
M  V30 4094 H 372.99 -0.286667 1.53649 0
M  V30 4095 H 373.725 -2.82021 1.60108 0
M  V30 4096 H 373.51 -2.18296 3.25713 0
M  V30 4097 H 375 -3.07441 2.82612 0
M  V30 4098 N 375.437 -1.54477 -0.31217 0
M  V30 4099 C 376.367 -1.87652 -1.38957 0
M  V30 4100 C 377.348 -0.734358 -1.53431 0
M  V30 4101 O 378.533 -0.98911 -1.67123 0
M  V30 4102 C 375.663 -2.11396 -2.75552 0
M  V30 4103 C 374.617 -3.27243 -2.75855 0
M  V30 4104 C 373.943 -3.36382 -4.15633 0
M  V30 4105 C 375.243 -4.64622 -2.38587 0
M  V30 4106 H 376.937 -2.77887 -1.11442 0
M  V30 4107 H 374.483 -1.33707 -0.534655 0
M  V30 4108 H 376.436 -2.33189 -3.51 0
M  V30 4109 H 375.16 -1.17921 -3.04569 0
M  V30 4110 H 373.819 -3.05356 -2.02863 0
M  V30 4111 H 373.467 -2.40445 -4.41809 0
M  V30 4112 H 373.167 -4.14249 -4.1674 0
M  V30 4113 H 374.691 -3.60422 -4.92877 0
M  V30 4114 H 376.105 -4.86219 -3.03749 0
M  V30 4115 H 374.502 -5.45121 -2.50925 0
M  V30 4116 H 375.572 -4.66097 -1.33723 0
M  V30 4117 N 376.915 0.57481 -1.46744 0
M  V30 4118 C 377.878 1.66533 -1.57478 0
M  V30 4119 C 378.878 1.54338 -0.451263 0
M  V30 4120 O 380.068 1.58814 -0.715813 0
M  V30 4121 C 377.2 3.05999 -1.50259 0
M  V30 4122 H 378.393 1.58372 -2.54673 0
M  V30 4123 H 375.946 0.793301 -1.34672 0
M  V30 4124 H 376.681 3.19709 -0.543725 0
M  V30 4125 H 376.466 3.16259 -2.31781 0
M  V30 4126 H 377.956 3.8537 -1.60872 0
M  V30 4127 N 378.394 1.34581 0.820102 0
M  V30 4128 C 379.357 1.2628 1.91275 0
M  V30 4129 C 380.357 0.177344 1.59819 0
M  V30 4130 O 381.547 0.430156 1.68806 0
M  V30 4131 C 378.679 0.950327 3.27386 0
M  V30 4132 H 379.872 2.23421 2.00057 0
M  V30 4133 H 377.425 1.1891 1.0144 0
M  V30 4134 H 378.16 -0.0177938 3.24295 0
M  V30 4135 H 377.945 1.73549 3.51601 0
M  V30 4136 H 379.435 0.917492 4.07396 0
M  V30 4137 N 379.872 -1.04064 1.18357 0
M  V30 4138 C 381.119 -1.77265 0.978947 0
M  V30 4139 C 381.447 -1.88189 -0.491428 0
M  V30 4140 O 380.702 -1.38653 -1.38108 0
M  V30 4141 C 381.001 -3.20634 1.57888 0
M  V30 4142 C 380.667 -3.29743 3.07539 0
M  V30 4143 C 379.329 -3.31937 3.48384 0
M  V30 4144 C 381.681 -3.29841 4.03552 0
M  V30 4145 C 379.009 -3.3187 4.83818 0
M  V30 4146 C 381.361 -3.31313 5.38901 0
M  V30 4147 C 380.025 -3.31799 5.79194 0
M  V30 4148 H 379.295 -0.648659 0.358222 0
M  V30 4149 H 381.942 -1.22225 1.47422 0
M  V30 4150 H 380.247 -3.78675 1.00561 0
M  V30 4151 H 381.944 -3.75917 1.39598 0
M  V30 4152 H 378.534 -3.28757 2.74986 0
M  V30 4153 H 382.718 -3.27337 3.73047 0
M  V30 4154 H 377.974 -3.30562 5.14333 0
M  V30 4155 H 382.148 -3.30338 6.13066 0
M  V30 4156 H 379.775 -3.315 6.84114 0
M  V30 4157 N 381.35 -0.985608 -1.22978 0
M  V30 4158 C 382.282 -0.488154 -2.23941 0
M  V30 4159 C 383.295 0.41282 -1.57479 0
M  V30 4160 O 384.484 0.216121 -1.77187 0
M  V30 4161 C 381.584 0.312611 -3.37455 0
M  V30 4162 C 380.757 -0.582741 -4.33501 0
M  V30 4163 C 379.816 0.165064 -5.25941 0
M  V30 4164 O 378.842 -0.447077 -5.67442 0
M  V30 4165 N 380.044 1.44953 -5.62111 0
M  V30 4166 H 382.809 -1.3563 -2.67254 0
M  V30 4167 H 380.37 -0.859477 -1.37203 0
M  V30 4168 H 382.362 0.821357 -3.96277 0
M  V30 4169 H 380.932 1.0818 -2.93285 0
M  V30 4170 H 380.152 -1.27225 -3.73105 0
M  V30 4171 H 381.44 -1.19275 -4.94622 0
M  V30 4172 H 380.838 1.9683 -5.30353 0
M  V30 4173 H 379.395 1.90361 -6.23383 0
M  V30 4174 N 382.828 1.3818 -0.7579 0
M  V30 4175 C 383.738 2.3421 -0.135247 0
M  V30 4176 C 384.754 1.59487 0.695683 0
M  V30 4177 O 385.93 1.91657 0.618832 0
M  V30 4178 C 382.995 3.3862 0.744139 0
M  V30 4179 C 382.056 4.2918 -0.101658 0
M  V30 4180 C 381.289 5.28603 0.735851 0
M  V30 4181 O 381.512 5.35166 1.97366 0
M  V30 4182 O 380.446 6.01707 0.152372 0
M  V30 4183 H 384.272 2.8916 -0.928436 0
M  V30 4184 H 381.857 1.40101 -0.518855 0
M  V30 4185 H 383.739 4.02539 1.2466 0
M  V30 4186 H 382.414 2.86019 1.51575 0
M  V30 4187 H 381.321 3.68407 -0.650167 0
M  V30 4188 H 382.654 4.85048 -0.836024 0
M  V30 4189 N 384.306 0.507319 1.49211 0
M  V30 4190 C 385.269 -0.256763 2.27757 0
M  V30 4191 C 386.269 -0.888287 1.34038 0
M  V30 4192 O 387.459 -0.751841 1.5714 0
M  V30 4193 C 384.591 -1.36905 3.12202 0
M  V30 4194 H 385.784 0.432557 2.96764 0
M  V30 4195 H 383.337 0.262488 1.5408 0
M  V30 4196 H 384.072 -2.09233 2.47775 0
M  V30 4197 H 383.857 -0.921599 3.81115 0
M  V30 4198 H 385.347 -1.9071 3.7151 0
M  V30 4199 N 385.784 -1.5574 0.241426 0
M  V30 4200 C 386.714 -2.24133 -0.654722 0
M  V30 4201 C 387.695 -1.21974 -1.1856 0
M  V30 4202 O 388.88 -1.50612 -1.22595 0
M  V30 4203 C 386.01 -2.93659 -1.85423 0
M  V30 4204 C 384.964 -4.0246 -1.45636 0
M  V30 4205 C 384.29 -4.59383 -2.73626 0
M  V30 4206 C 385.59 -5.18468 -0.631506 0
M  V30 4207 H 387.284 -2.99281 -0.0844353 0
M  V30 4208 H 384.83 -1.43947 -0.0391707 0
M  V30 4209 H 386.783 -3.40203 -2.48676 0
M  V30 4210 H 385.507 -2.15991 -2.44981 0
M  V30 4211 H 384.166 -3.56676 -0.847202 0
M  V30 4212 H 383.814 -3.78422 -3.3137 0
M  V30 4213 H 383.514 -5.32826 -2.4773 0
M  V30 4214 H 385.038 -5.08658 -3.37786 0
M  V30 4215 H 386.452 -5.61272 -1.1682 0
M  V30 4216 H 384.849 -5.98266 -0.468831 0
M  V30 4217 H 385.919 -4.8358 0.357506 0
M  V30 4218 N 387.262 0.0317525 -1.57568 0
M  V30 4219 C 388.678 0.38735 -1.54828 0
M  V30 4220 C 388.878 1.7677 -0.967187 0
M  V30 4221 O 387.934 2.45581 -0.587063 0
M  V30 4222 C 389.247 0.291667 -2.99282 0
M  V30 4223 C 390.795 0.368946 -3.10818 0
M  V30 4224 C 391.27 0.302741 -4.56998 0
M  V30 4225 N 392.761 0.361617 -4.61786 0
M  V30 4226 C 393.496 0.333238 -5.72431 0
M  V30 4227 N 392.992 0.257308 -6.92322 0
M  V30 4228 N 394.785 0.382769 -5.60795 0
M  V30 4229 H 386.936 -0.871609 -1.93692 0
M  V30 4230 H 389.199 -0.331161 -0.888277 0
M  V30 4231 H 388.905 -0.656794 -3.45513 0
M  V30 4232 H 388.779 1.08638 -3.61217 0
M  V30 4233 H 391.166 1.30784 -2.64536 0
M  V30 4234 H 391.247 -0.455066 -2.5172 0
M  V30 4235 H 390.891 -0.632473 -5.03947 0
M  V30 4236 H 390.821 1.14482 -5.14005 0
M  V30 4237 H 393.312 0.422923 -3.75526 0
M  V30 4238 H 393.625 0.24068 -7.72425 0
M  V30 4239 H 391.97 0.223396 -6.94641 0
M  V30 4240 H 395.161 0.44006 -4.66027 0
M  V30 4241 H 395.334 0.357184 -6.47015 0
M  V30 4242 N 388.74 1.54641 0.303973 0
M  V30 4243 C 389.67 1.88386 1.3796 0
M  V30 4244 C 390.651 0.742485 1.5304 0
M  V30 4245 O 391.836 0.997959 1.66597 0
M  V30 4246 C 388.966 2.12854 2.74427 0
M  V30 4247 C 387.92 3.28702 2.74115 0
M  V30 4248 C 387.246 3.38582 4.13844 0
M  V30 4249 C 388.546 4.65881 2.3612 0
M  V30 4250 H 390.24 2.78474 1.09966 0
M  V30 4251 H 387.786 1.33988 0.527556 0
M  V30 4252 H 389.739 2.35047 3.49758 0
M  V30 4253 H 388.463 1.19535 3.03939 0
M  V30 4254 H 387.122 3.06428 2.0124 0
M  V30 4255 H 386.77 2.42784 4.40528 0
M  V30 4256 H 386.47 4.16453 4.14537 0
M  V30 4257 H 387.994 3.63031 4.90959 0
M  V30 4258 H 389.408 4.87823 3.01167 0
M  V30 4259 H 387.805 5.46444 2.48031 0
M  V30 4260 H 388.875 4.66799 1.3125 0
M  V30 4261 N 390.218 -0.567019 1.47046 0
M  V30 4262 C 391.448 -1.34831 1.56538 0
M  V30 4263 C 391.856 -1.8802 0.21101 0
M  V30 4264 O 391.199 -1.65152 -0.804387 0
M  V30 4265 C 391.261 -2.56139 2.52256 0
M  V30 4266 C 390.925 -2.24307 3.98165 0
M  V30 4267 C 391.922 -1.82192 4.86931 0
M  V30 4268 C 389.607 -2.35968 4.43423 0
M  V30 4269 C 391.601 -1.52153 6.18973 0
M  V30 4270 C 389.288 -2.05542 5.75496 0
M  V30 4271 C 390.286 -1.63701 6.63092 0
M  V30 4272 O 389.974 -1.33657 7.92711 0
M  V30 4273 H 389.706 -0.417683 0.531523 0
M  V30 4274 H 392.26 -0.694726 1.93294 0
M  V30 4275 H 390.49 -3.24356 2.10548 0
M  V30 4276 H 392.179 -3.18214 2.51982 0
M  V30 4277 H 392.945 -1.72684 4.53217 0
M  V30 4278 H 388.824 -2.67495 3.75456 0
M  V30 4279 H 392.368 -1.19421 6.87302 0
M  V30 4280 H 388.265 -2.14679 6.08755 0
M  V30 4281 H 389.033 -1.4737 8.05124 0
M  V30 4282 N 391.696 -1.35014 -0.812953 0
M  V30 4283 C 393.107 -1.25035 -1.38648 0
M  V30 4284 C 393.458 0.119967 -1.95833 0
M  V30 4285 O 392.583 1.02069 -1.90816 0
M  V30 4286 C 393.178 -2.26394 -2.52054 0
M  V30 4287 C 391.737 -2.20175 -3.05287 0
M  V30 4288 C 390.884 -2.12451 -1.78213 0
M  V30 4289 H 393.835 -1.46235 -0.616516 0
M  V30 4290 H 393.856 -1.88672 -3.30429 0
M  V30 4291 H 393.368 -3.26116 -2.10404 0
M  V30 4292 H 391.469 -1.23841 -3.51417 0
M  V30 4293 H 391.582 -3.11863 -3.63701 0
M  V30 4294 H 389.946 -1.58328 -1.9951 0
M  V30 4295 H 390.729 -3.14024 -1.38723 0
M  V30 4296 N 393.175 1.03435 -1.18907 0
M  V30 4297 C 394.586 1.58195 -0.991523 0
M  V30 4298 C 394.937 1.90801 0.457081 0
M  V30 4299 O 394.062 1.70272 1.33553 0
M  V30 4300 C 394.657 2.87432 -1.79355 0
M  V30 4301 C 393.216 3.38785 -1.64017 0
M  V30 4302 C 392.363 2.12292 -1.78402 0
M  V30 4303 H 395.314 0.860299 -1.33359 0
M  V30 4304 H 395.335 3.58096 -1.28638 0
M  V30 4305 H 394.847 2.63669 -2.84781 0
M  V30 4306 H 392.948 3.67547 -0.611536 0
M  V30 4307 H 393.061 4.12186 -2.44212 0
M  V30 4308 H 391.425 2.23901 -1.2141 0
M  V30 4309 H 392.208 1.90977 -2.85277 0
M  V30 4310 N 394.653 0.992116 1.22453 0
M  V30 4311 C 395.616 0.546883 2.2258 0
M  V30 4312 C 396.616 -0.369829 1.56489 0
M  V30 4313 O 397.806 -0.161896 1.73446 0
M  V30 4314 C 394.938 -0.204659 3.40285 0
M  V30 4315 H 396.131 1.43234 2.63484 0
M  V30 4316 H 393.684 0.779239 1.3549 0
M  V30 4317 H 394.419 -1.10614 3.04853 0
M  V30 4318 H 394.204 0.45354 3.89468 0
M  V30 4319 H 395.694 -0.504358 4.14543 0
M  V30 4320 N 396.131 -1.37776 0.765217 0
M  V30 4321 C 397.377 -2.00604 0.336066 0
M  V30 4322 C 397.732 -1.59657 -1.07366 0
M  V30 4323 O 397.025 -0.829565 -1.7271 0
M  V30 4324 C 397.219 -3.5504 0.410053 0
M  V30 4325 C 397.048 -4.10985 1.82542 0
M  V30 4326 C 395.818 -4.42229 2.44461 0
M  V30 4327 C 398.016 -4.32438 2.78392 0
M  V30 4328 N 395.998 -4.8385 3.77839 0
M  V30 4329 C 397.369 -4.76596 3.96556 0
M  V30 4330 C 399.424 -4.14559 2.75764 0
M  V30 4331 C 398.127 -5.04748 5.12466 0
M  V30 4332 C 400.153 -4.43843 3.90842 0
M  V30 4333 C 399.515 -4.88235 5.07746 0
M  V30 4334 H 395.614 -0.763325 0.169881 0
M  V30 4335 H 398.198 -1.67197 0.997656 0
M  V30 4336 H 396.369 -3.87769 -0.221325 0
M  V30 4337 H 398.101 -4.0468 -0.0405285 0
M  V30 4338 H 394.856 -4.31079 1.96131 0
M  V30 4339 H 395.28 -5.08979 4.46396 0
M  V30 4340 H 399.922 -3.79415 1.86558 0
M  V30 4341 H 397.64 -5.38783 6.02277 0
M  V30 4342 H 401.226 -4.31603 3.90141 0
M  V30 4343 H 400.106 -5.10461 5.95315 0
M  V30 4344 N 397.609 -0.515225 -1.4894 0
M  V30 4345 C 398.858 0.0261361 -2.01683 0
M  V30 4346 C 399.171 1.36719 -1.39883 0
M  V30 4347 O 400.377 1.99606 -1.84037 0
M  V30 4348 C 398.833 0.0970111 -3.59769 0
M  V30 4349 C 398.441 -1.23825 -4.30548 0
M  V30 4350 C 400.185 0.587981 -4.20408 0
M  V30 4351 C 398.092 -1.12877 -5.80528 0
M  V30 4352 H 397.022 0.0135398 -0.753878 0
M  V30 4353 H 399.673 -0.656787 -1.71343 0
M  V30 4354 H 398.055 0.844694 -3.86886 0
M  V30 4355 H 399.229 -2.00034 -4.15118 0
M  V30 4356 H 397.544 -1.66379 -3.81716 0
M  V30 4357 H 400.141 0.68763 -5.3026 0
M  V30 4358 H 400.484 1.59026 -3.84729 0
M  V30 4359 H 401.017 -0.103582 -3.97665 0
M  V30 4360 H 397.756 -2.10575 -6.20756 0
M  V30 4361 H 397.276 -0.407799 -5.98412 0
M  V30 4362 H 398.955 -0.813332 -6.41868 0
M  V30 4363 N 399.087 1.5561 -0.249682 0
M  V30 4364 C 400.017 2.24477 0.642826 0
M  V30 4365 C 400.998 1.22601 1.17911 0
M  V30 4366 O 402.183 1.5126 1.21795 0
M  V30 4367 C 399.313 2.94638 1.83863 0
M  V30 4368 C 398.267 4.03227 1.435 0
M  V30 4369 C 397.593 4.60828 2.71186 0
M  V30 4370 C 398.893 5.18796 0.604002 0
M  V30 4371 H 400.587 2.99321 0.0685625 0
M  V30 4372 H 398.133 1.43965 0.0315363 0
M  V30 4373 H 400.086 3.41517 2.46868 0
M  V30 4374 H 398.81 2.17287 2.43832 0
M  V30 4375 H 397.469 3.57121 0.828275 0
M  V30 4376 H 397.117 3.80174 3.29358 0
M  V30 4377 H 396.817 5.34132 2.44901 0
M  V30 4378 H 398.341 5.10442 3.35084 0
M  V30 4379 H 399.755 5.61883 1.13842 0
M  V30 4380 H 398.152 5.98506 0.437097 0
M  V30 4381 H 399.222 4.83384 -0.383147 0
M  V30 4382 N 400.565 -0.0233959 1.57583 0
M  V30 4383 C 401.793 -0.724682 1.93794 0
M  V30 4384 C 402.208 -1.68588 0.849912 0
M  V30 4385 O 401.565 -1.81676 -0.173204 0
M  V30 4386 C 401.616 -1.47684 3.29957 0
M  V30 4387 O 401.337 -0.554222 4.3458 0
M  V30 4388 C 402.838 -2.27477 3.80485 0
M  V30 4389 H 400.058 -0.203317 0.639455 0
M  V30 4390 H 402.602 0.0207653 2.04489 0
M  V30 4391 H 400.757 -2.17412 3.20641 0
M  V30 4392 H 401.171 -1.08232 5.13212 0
M  V30 4393 H 402.645 -2.7564 4.78254 0
M  V30 4394 H 403.122 -3.09144 3.11972 0
M  V30 4395 H 403.728 -1.62813 3.92902 0
M  V30 4396 N 402.043 -1.548 -0.295768 0
M  V30 4397 C 403.459 -1.4613 -0.641722 0
M  V30 4398 C 403.659 -0.656771 -1.90496 0
M  V30 4399 O 402.715 -0.166547 -2.5195 0
M  V30 4400 C 404.028 -2.90141 -0.789852 0
M  V30 4401 C 405.576 -3.00216 -0.885396 0
M  V30 4402 C 406.051 -4.45434 -1.06548 0
M  V30 4403 N 407.542 -4.49166 -1.13156 0
M  V30 4404 C 408.277 -5.58717 -1.28929 0
M  V30 4405 N 407.773 -6.78182 -1.41567 0
M  V30 4406 N 409.566 -5.46415 -1.31859 0
M  V30 4407 H 401.717 -2.05574 0.534147 0
M  V30 4408 H 403.98 -0.931259 0.177372 0
M  V30 4409 H 403.686 -3.51635 0.0675598 0
M  V30 4410 H 403.56 -3.37859 -1.67724 0
M  V30 4411 H 405.947 -2.38833 -1.73329 0
M  V30 4412 H 406.028 -2.55787 0.0261185 0
M  V30 4413 H 405.672 -5.07413 -0.222335 0
M  V30 4414 H 405.602 -4.87499 -1.9913 0
M  V30 4415 H 408.093 -3.631 -1.04721 0
M  V30 4416 H 408.406 -7.57428 -1.53372 0
M  V30 4417 H 406.751 -6.81037 -1.38613 0
M  V30 4418 H 409.942 -4.5203 -1.21601 0
M  V30 4419 H 410.115 -6.31841 -1.43808 0
M  V30 4420 N 403.521 0.559213 -1.47345 0
M  V30 4421 C 404.937 0.884943 -1.32819 0
M  V30 4422 C 405.137 1.98988 -0.317173 0
M  V30 4423 O 404.193 2.51031 0.272011 0
M  V30 4424 C 405.506 1.28007 -2.72093 0
M  V30 4425 C 407.054 1.39161 -2.80363 0
M  V30 4426 C 407.529 1.82031 -4.20272 0
M  V30 4427 N 409.02 1.89185 -4.22804 0
M  V30 4428 C 409.755 2.2368 -5.27973 0
M  V30 4429 N 409.251 2.56802 -6.43447 0
M  V30 4430 N 411.044 2.24436 -5.15349 0
M  V30 4431 H 403.195 -0.170304 -2.11716 0
M  V30 4432 H 405.458 -0.0135247 -0.947904 0
M  V30 4433 H 405.164 0.542027 -3.47498 0
M  V30 4434 H 405.038 2.23665 -3.03733 0
M  V30 4435 H 407.425 2.12048 -2.05231 0
M  V30 4436 H 407.506 0.41696 -2.52379 0
M  V30 4437 H 407.15 1.09715 -4.95908 0
M  V30 4438 H 407.08 2.80495 -4.45679 0
M  V30 4439 H 409.571 1.65982 -3.39497 0
M  V30 4440 H 409.884 2.82144 -7.19454 0
M  V30 4441 H 408.229 2.54387 -6.46771 0
M  V30 4442 H 411.42 1.97998 -4.24163 0
M  V30 4443 H 411.593 2.50989 -5.97418 0
M  V30 4444 N 404.999 1.35443 0.805782 0
M  V30 4445 C 405.929 1.31095 1.93226 0
M  V30 4446 C 406.91 0.185244 1.69088 0
M  V30 4447 O 408.095 0.380332 1.90439 0
M  V30 4448 C 405.225 1.08299 3.29983 0
M  V30 4449 C 404.179 2.17519 3.68605 0
M  V30 4450 C 403.505 1.79887 5.03532 0
M  V30 4451 C 404.805 3.5949 3.78898 0
M  V30 4452 H 406.499 2.25352 1.97122 0
M  V30 4453 H 404.045 1.0848 0.946996 0
M  V30 4454 H 405.998 1.03897 4.08391 0
M  V30 4455 H 404.722 0.104885 3.26432 0
M  V30 4456 H 403.381 2.2102 2.92482 0
M  V30 4457 H 403.029 0.80693 4.96485 0
M  V30 4458 H 402.729 2.53001 5.30344 0
M  V30 4459 H 404.253 1.77011 5.84379 0
M  V30 4460 H 405.667 3.58307 4.47536 0
M  V30 4461 H 404.064 4.31371 4.1718 0
M  V30 4462 H 405.134 3.95584 2.80431 0
M  V30 4463 N 406.477 -1.02803 1.19454 0
M  V30 4464 C 407.387 -2.14575 0.948408 0
M  V30 4465 C 408.403 -1.73757 -0.091871 0
M  V30 4466 O 409.579 -2.01185 0.0929654 0
M  V30 4467 C 406.644 -3.43202 0.491265 0
M  V30 4468 C 405.705 -3.98328 1.60103 0
M  V30 4469 C 404.938 -5.20816 1.16561 0
M  V30 4470 O 405.161 -5.70392 0.0295238 0
M  V30 4471 O 404.095 -5.68801 1.96849 0
M  V30 4472 H 407.921 -2.38202 1.88397 0
M  V30 4473 H 405.506 -1.12989 0.977433 0
M  V30 4474 H 407.388 -4.20687 0.245015 0
M  V30 4475 H 406.063 -3.21018 -0.415851 0
M  V30 4476 H 404.97 -3.22174 1.90144 0
M  V30 4477 H 406.303 -4.24879 2.48473 0
M  V30 4478 N 407.956 -0.998596 -1.21925 0
M  V30 4479 C 409.372 -0.710303 -1.42923 0
M  V30 4480 C 409.572 0.716933 -1.88314 0
M  V30 4481 O 408.628 1.48712 -2.04062 0
M  V30 4482 C 409.941 -1.72072 -2.466 0
M  V30 4483 C 411.489 -1.73681 -2.60392 0
M  V30 4484 C 411.964 -2.73601 -3.67296 0
M  V30 4485 N 413.455 -2.7223 -3.7476 0
M  V30 4486 C 414.19 -3.46206 -4.57087 0
M  V30 4487 N 413.686 -4.29802 -5.43362 0
M  V30 4488 N 415.479 -3.34886 -4.51451 0
M  V30 4489 H 407.63 -1.92028 -0.9077 0
M  V30 4490 H 409.893 -0.828487 -0.460775 0
M  V30 4491 H 409.599 -2.74231 -2.20206 0
M  V30 4492 H 409.473 -1.51818 -3.45299 0
M  V30 4493 H 411.86 -0.722173 -2.86127 0
M  V30 4494 H 411.941 -1.98005 -1.61949 0
M  V30 4495 H 411.585 -3.75217 -3.42307 0
M  V30 4496 H 411.515 -2.46545 -4.65321 0
M  V30 4497 H 414.006 -2.11576 -3.1312 0
M  V30 4498 H 414.319 -4.83061 -6.03218 0
M  V30 4499 H 412.664 -4.33887 -5.42925 0
M  V30 4500 H 415.855 -2.69015 -3.83078 0
M  V30 4501 H 416.028 -3.92796 -5.15379 0
M  V30 4502 N 409.434 1.37368 -0.772513 0
M  V30 4503 C 410.845 1.8231 -0.402493 0
M  V30 4504 C 411.196 1.6436 1.07146 0
M  V30 4505 O 410.321 1.15514 1.82991 0
M  V30 4506 C 410.916 3.30979 -0.723776 0
M  V30 4507 C 409.475 3.74195 -0.406802 0
M  V30 4508 C 408.622 2.59885 -0.967218 0
M  V30 4509 H 411.573 1.25829 -0.967099 0
M  V30 4510 H 411.594 3.80499 -0.00870832 0
M  V30 4511 H 411.106 3.44011 -1.7966 0
M  V30 4512 H 409.207 3.66732 0.658673 0
M  V30 4513 H 409.32 4.7027 -0.915588 0
M  V30 4514 H 407.684 2.51674 -0.391416 0
M  V30 4515 H 408.467 2.7571 -2.04546 0
M  V30 4516 N 410.912 0.523116 1.48665 0
M  V30 4517 C 411.842 -0.23231 2.32342 0
M  V30 4518 C 412.823 -0.941637 1.41659 0
M  V30 4519 O 414.008 -0.928751 1.70552 0
M  V30 4520 C 411.138 -1.28387 3.22698 0
M  V30 4521 C 410.092 -0.693098 4.22351 0
M  V30 4522 C 409.418 -1.8468 5.01794 0
M  V30 4523 C 410.718 0.33063 5.21252 0
M  V30 4524 H 412.412 0.466192 2.95748 0
M  V30 4525 H 409.958 0.225643 1.42221 0
M  V30 4526 H 411.911 -1.82024 3.80059 0
M  V30 4527 H 410.635 -2.01186 2.57278 0
M  V30 4528 H 409.294 -0.178299 3.66166 0
M  V30 4529 H 408.942 -2.56301 4.32804 0
M  V30 4530 H 408.642 -1.45747 5.69238 0
M  V30 4531 H 410.166 -2.38709 5.62006 0
M  V30 4532 H 411.58 -0.118407 5.73178 0
M  V30 4533 H 409.977 0.636974 5.9671 0
M  V30 4534 H 411.047 1.23883 4.68808 0
M  V30 4535 N 412.39 -1.55475 0.257931 0
M  V30 4536 C 413.32 -2.24815 -0.630912 0
M  V30 4537 C 414.301 -1.23224 -1.17259 0
M  V30 4538 O 415.486 -1.51904 -1.20991 0
M  V30 4539 C 412.616 -2.95609 -1.82298 0
M  V30 4540 C 411.57 -4.03982 -1.41359 0
M  V30 4541 C 410.896 -4.6226 -2.68738 0
M  V30 4542 C 412.196 -5.19109 -0.57648 0
M  V30 4543 H 413.89 -2.99354 -0.0526878 0
M  V30 4544 H 411.436 -1.4398 -0.023901 0
M  V30 4545 H 413.389 -3.42822 -2.45054 0
M  V30 4546 H 412.113 -2.18577 -2.42676 0
M  V30 4547 H 410.772 -3.57555 -0.809324 0
M  V30 4548 H 410.42 -3.81915 -3.27338 0
M  V30 4549 H 410.12 -5.35424 -2.42065 0
M  V30 4550 H 411.644 -5.12212 -3.32372 0
M  V30 4551 H 413.058 -5.62479 -1.10861 0
M  V30 4552 H 411.455 -5.98729 -0.405351 0
M  V30 4553 H 412.525 -4.83174 0.408776 0
M  V30 4554 N 413.868 0.0150385 -1.57593 0
M  V30 4555 C 414.798 1.01047 -2.10503 0
M  V30 4556 C 415.779 1.36816 -1.01071 0
M  V30 4557 O 416.964 1.45455 -1.28672 0
M  V30 4558 C 414.094 2.30708 -2.59598 0
M  V30 4559 C 413.048 2.09142 -3.73421 0
M  V30 4560 C 412.374 3.44685 -4.08774 0
M  V30 4561 C 413.674 1.46619 -5.01298 0
M  V30 4562 H 415.368 0.569978 -2.93925 0
M  V30 4563 H 412.914 0.272724 -1.41394 0
M  V30 4564 H 414.867 3.00687 -2.95238 0
M  V30 4565 H 413.591 2.76843 -1.73279 0
M  V30 4566 H 412.25 1.41592 -3.38153 0
M  V30 4567 H 411.898 3.88495 -3.195 0
M  V30 4568 H 411.598 3.31077 -4.8545 0
M  V30 4569 H 413.122 4.16004 -4.4696 0
M  V30 4570 H 414.536 2.06535 -5.34805 0
M  V30 4571 H 412.933 1.43544 -5.82679 0
M  V30 4572 H 414.003 0.433611 -4.82957 0
M  V30 4573 N 415.346 1.54954 0.287554 0
M  V30 4574 C 416.594 1.74528 1.01904 0
M  V30 4575 C 416.915 0.541349 1.87335 0
M  V30 4576 O 416.185 -0.444108 1.908 0
M  V30 4577 H 414.765 0.643576 0.379235 0
M  V30 4578 H 417.427 1.92333 0.315294 0
M  V30 4579 H 416.523 2.64015 1.6644 0
M  V30 4580 N 416.824 -0.551391 1.4764 0
M  V30 4581 C 417.734 -1.68525 1.63207 0
M  V30 4582 C 418.75 -1.6621 0.514815 0
M  V30 4583 O 419.926 -1.85551 0.783113 0
M  V30 4584 C 416.991 -3.05025 1.64805 0
M  V30 4585 C 416.052 -3.18362 2.88 0
M  V30 4586 C 415.285 -4.4835 2.89513 0
M  V30 4587 O 415.508 -5.34163 2.00065 0
M  V30 4588 O 414.442 -4.65602 3.81443 0
M  V30 4589 H 418.268 -1.58333 2.59161 0
M  V30 4590 H 415.853 -0.722063 1.30792 0
M  V30 4591 H 417.735 -3.86245 1.68502 0
M  V30 4592 H 416.41 -3.15587 0.720197 0
M  V30 4593 H 415.317 -2.36518 2.89845 0
M  V30 4594 H 416.65 -3.12707 3.80099 0
M  V30 4595 N 418.302 -1.35869 -0.798587 0
M  V30 4596 C 419.579 -1.20145 -1.54352 0
M  V30 4597 C 419.959 0.216161 -2.0999 0
M  V30 4598 O 419.307 1.22068 -1.93162 0
M  V30 4599 C 419.517 -2.27602 -2.64572 0
M  V30 4600 C 420.865 -2.63811 -3.32699 0
M  V30 4601 O 421.889 -2.26576 -2.74849 0
M  V30 4602 O 420.748 -3.27866 -4.37226 0
M  V30 4603 H 417.842 -0.467248 -0.682355 0
M  V30 4604 H 420.388 -1.47574 -0.837859 0
M  V30 4605 H 419.16 -3.2265 -2.21388 0
M  V30 4606 H 418.783 -2.01488 -3.42766 0
M  V30 4607 N 419.78 1.02168 -1.19998 0
M  V30 4608 C 421.196 1.27969 -0.953737 0
M  V30 4609 C 421.396 1.98079 0.369703 0
M  V30 4610 O 420.452 2.27306 1.09947 0
M  V30 4611 C 421.765 2.11971 -2.13281 0
M  V30 4612 C 423.313 2.25255 -2.17323 0
M  V30 4613 C 423.788 3.12632 -3.34702 0
M  V30 4614 N 425.279 3.2022 -3.34684 0
M  V30 4615 C 426.014 3.88039 -4.22153 0
M  V30 4616 N 425.51 4.58027 -5.19791 0
M  V30 4617 N 427.303 3.84511 -4.10009 0
M  V30 4618 H 419.454 0.550794 -2.05134 0
M  V30 4619 H 421.717 0.305683 -0.897364 0
M  V30 4620 H 421.423 1.67785 -3.09097 0
M  V30 4621 H 421.297 3.12699 -2.10949 0
M  V30 4622 H 423.684 2.68667 -1.22073 0
M  V30 4623 H 423.765 1.24053 -2.23706 0
M  V30 4624 H 423.409 2.69926 -4.30235 0
M  V30 4625 H 423.339 4.13909 -3.25556 0
M  V30 4626 H 425.83 2.70382 -2.64012 0
M  V30 4627 H 426.143 5.07429 -5.82868 0
M  V30 4628 H 424.488 4.56869 -5.23733 0
M  V30 4629 H 427.679 3.28978 -3.33003 0
M  V30 4630 H 427.852 4.3709 -4.78389 0
M  V30 4631 N 421.258 1.00505 1.21394 0
M  V30 4632 C 422.188 0.585684 2.26035 0
M  V30 4633 C 423.169 -0.393525 1.65485 0
M  V30 4634 O 424.354 -0.281497 1.92149 0
M  V30 4635 C 421.484 -0.0884283 3.47187 0
M  V30 4636 C 420.438 0.810567 4.20254 0
M  V30 4637 C 419.764 0.00286382 5.347 0
M  V30 4638 C 421.064 2.1132 4.77641 0
M  V30 4639 H 422.758 1.46039 2.61368 0
M  V30 4640 H 420.304 0.703648 1.25638 0
M  V30 4641 H 422.257 -0.393286 4.19561 0
M  V30 4642 H 420.981 -0.997766 3.10986 0
M  V30 4643 H 419.64 1.09925 3.49731 0
M  V30 4644 H 419.288 -0.907765 4.94741 0
M  V30 4645 H 418.988 0.601444 5.84514 0
M  V30 4646 H 420.512 -0.295808 6.09883 0
M  V30 4647 H 421.926 1.87148 5.41893 0
M  V30 4648 H 420.323 2.66164 5.37845 0
M  V30 4649 H 421.393 2.78393 3.9702 0
M  V30 4650 N 422.737 -1.36956 0.779787 0
M  V30 4651 C 424.148 -1.82094 0.412156 0
M  V30 4652 C 424.499 -1.64926 -1.06273 0
M  V30 4653 O 423.624 -1.16483 -1.82375 0
M  V30 4654 C 424.219 -3.3059 0.741319 0
M  V30 4655 C 422.778 -3.73974 0.426641 0
M  V30 4656 C 421.925 -2.59368 0.980987 0
M  V30 4657 H 424.876 -1.25314 0.973758 0
M  V30 4658 H 424.897 -3.80489 0.028887 0
M  V30 4659 H 424.409 -3.43054 1.81482 0
M  V30 4660 H 422.51 -3.67076 -0.639215 0
M  V30 4661 H 422.623 -4.69778 0.940515 0
M  V30 4662 H 420.987 -2.51463 0.404757 0
M  V30 4663 H 421.77 -2.74621 2.06005 0
M  V30 4664 N 424.215 -0.530993 -1.48385 0
M  V30 4665 C 425.626 -0.0907905 -1.86479 0
M  V30 4666 C 425.977 1.33213 -1.44044 0
M  V30 4667 O 425.102 1.99783 -0.831615 0
M  V30 4668 C 425.697 -0.157987 -3.38431 0
M  V30 4669 C 424.256 0.227026 -3.75715 0
M  V30 4670 C 423.403 -0.5173 -2.72432 0
M  V30 4671 H 426.354 -0.742186 -1.40276 0
M  V30 4672 H 426.375 0.630053 -3.75247 0
M  V30 4673 H 425.887 -1.19372 -3.69286 0
M  V30 4674 H 423.988 1.26486 -3.50474 0
M  V30 4675 H 424.101 -0.113288 -4.78966 0
M  V30 4676 H 422.465 0.0365527 -2.54674 0
M  V30 4677 H 423.248 -1.55368 -3.0613 0
M  V30 4678 N 425.693 1.55336 -0.266172 0
M  V30 4679 C 426.941 1.99003 0.35246 0
M  V30 4680 C 427.262 1.15591 1.57047 0
M  V30 4681 O 426.532 0.243268 1.94384 0
M  V30 4682 H 425.112 0.735025 0.133217 0
M  V30 4683 H 427.774 1.91367 -0.369434 0
M  V30 4684 H 426.87 3.05289 0.648453 0
M  V30 4685 N 427.171 -0.0066808 1.57599 0
M  V30 4686 C 428.399 -0.704087 1.94551 0
M  V30 4687 C 428.814 -1.67677 0.867746 0
M  V30 4688 O 428.171 -1.8185 -0.153925 0
M  V30 4689 C 428.222 -1.44177 3.31505 0
M  V30 4690 O 427.943 -0.508097 4.35144 0
M  V30 4691 C 429.444 -2.23429 3.82876 0
M  V30 4692 H 426.664 -0.196523 0.641576 0
M  V30 4693 H 429.208 0.042453 2.04456 0
M  V30 4694 H 427.363 -2.13999 3.22929 0
M  V30 4695 H 427.777 -1.02782 5.14331 0
M  V30 4696 H 429.251 -2.70552 4.8115 0
M  V30 4697 H 429.728 -3.05818 3.15233 0
M  V30 4698 H 430.334 -1.58636 3.94607 0
M  V30 4699 N 428.649 -1.55105 -0.279332 0
M  V30 4700 C 429.877 -1.7943 -1.03017 0
M  V30 4701 C 430.292 -0.564456 -1.80165 0
M  V30 4702 O 429.649 0.466326 -1.76442 0
M  V30 4703 C 429.7 -3.0155 -1.99374 0
M  V30 4704 O 429.421 -4.19784 -1.25352 0
M  V30 4705 C 430.922 -3.3843 -2.86321 0
M  V30 4706 H 428.142 -0.597882 -0.304594 0
M  V30 4707 H 430.686 -2.02105 -0.312035 0
M  V30 4708 H 428.841 -2.81019 -2.66659 0
M  V30 4709 H 429.255 -4.88781 -1.90246 0
M  V30 4710 H 430.729 -4.27066 -3.49741 0
M  V30 4711 H 431.206 -2.57549 -3.5576 0
M  V30 4712 H 431.812 -3.61197 -2.24536 0
M  V30 4713 N 430.127 0.543554 -1.4793 0
M  V30 4714 C 431.057 1.65888 -1.64327 0
M  V30 4715 C 432.038 1.62818 -0.492383 0
M  V30 4716 O 433.223 1.80226 -0.723338 0
M  V30 4717 C 430.353 3.04506 -1.67013 0
M  V30 4718 C 429.307 3.2243 -2.81466 0
M  V30 4719 C 428.633 4.61972 -2.69233 0
M  V30 4720 C 429.933 3.06496 -4.22915 0
M  V30 4721 H 431.627 1.52421 -2.57698 0
M  V30 4722 H 429.173 0.731849 -1.24016 0
M  V30 4723 H 431.126 3.82391 -1.77074 0
M  V30 4724 H 429.85 3.18964 -0.70212 0
M  V30 4725 H 428.509 2.46957 -2.70938 0
M  V30 4726 H 428.157 4.73247 -1.7043 0
M  V30 4727 H 427.857 4.74911 -3.46025 0
M  V30 4728 H 429.381 5.41974 -2.81242 0
M  V30 4729 H 430.795 3.74186 -4.34348 0
M  V30 4730 H 429.192 3.30938 -5.006 0
M  V30 4731 H 430.262 2.03077 -4.40327 0
M  V30 4732 N 431.605 1.3629 0.791371 0
M  V30 4733 C 432.851 1.30605 1.55146 0
M  V30 4734 C 433.184 -0.115042 1.93859 0
M  V30 4735 O 432.459 -1.06798 1.62556 0
M  V30 4736 C 432.742 2.22692 2.82985 0
M  V30 4737 C 432.595 3.73489 2.50651 0
M  V30 4738 C 433.914 2.13588 3.84796 0
M  V30 4739 H 431.033 0.475761 0.562868 0
M  V30 4740 H 433.675 1.66825 0.909358 0
M  V30 4741 H 431.825 1.91933 3.37778 0
M  V30 4742 H 433.497 4.14758 2.01924 0
M  V30 4743 H 431.74 3.93021 1.83622 0
M  V30 4744 H 432.411 4.3333 3.41949 0
M  V30 4745 H 434.887 2.40659 3.39445 0
M  V30 4746 H 433.763 2.80195 4.71998 0
M  V30 4747 H 434.024 1.12256 4.27611 0
M  V30 4748 N 433.083 -1.0153 1.20538 0
M  V30 4749 C 434.013 -2.11972 0.979295 0
M  V30 4750 C 434.994 -1.6985 -0.0921787 0
M  V30 4751 O 436.179 -1.94089 0.0655932 0
M  V30 4752 C 433.309 -3.43201 0.531984 0
M  V30 4753 C 432.263 -3.9907 1.54685 0
M  V30 4754 C 431.589 -5.26082 0.956127 0
M  V30 4755 C 432.889 -4.32313 2.93092 0
M  V30 4756 H 434.583 -2.31143 1.90298 0
M  V30 4757 H 432.129 -1.11079 0.916372 0
M  V30 4758 H 434.082 -4.1985 0.361044 0
M  V30 4759 H 432.806 -3.23792 -0.427327 0
M  V30 4760 H 431.465 -3.2453 1.70517 0
M  V30 4761 H 431.113 -5.02999 -0.0111538 0
M  V30 4762 H 430.813 -5.64426 1.63393 0
M  V30 4763 H 432.337 -6.05386 0.796284 0
M  V30 4764 H 433.751 -4.99845 2.80763 0
M  V30 4765 H 432.148 -4.81774 3.57791 0
M  V30 4766 H 433.218 -3.41025 3.44717 0
M  V30 4767 N 434.561 -1.01147 -1.20859 0
M  V30 4768 C 435.786 -0.716698 -1.94623 0
M  V30 4769 C 436.211 0.715415 -1.73964 0
M  V30 4770 O 435.569 1.49157 -1.03062 0
M  V30 4771 C 435.617 -1.0513 -3.44935 0
M  V30 4772 O 434.721 -0.160131 -4.12089 0
M  V30 4773 H 434.062 -0.266404 -0.608214 0
M  V30 4774 H 436.592 -1.35346 -1.53436 0
M  V30 4775 H 436.602 -1.00086 -3.95533 0
M  V30 4776 H 435.277 -2.09475 -3.59295 0
M  V30 4777 H 433.854 -0.267657 -3.71938 0
M  V30 4778 N 436.039 1.36541 -0.78704 0
M  V30 4779 C 437.45 1.81873 -0.421807 0
M  V30 4780 C 437.801 1.65487 1.05397 0
M  V30 4781 O 436.926 1.17448 1.81755 0
M  V30 4782 C 437.521 3.30192 -0.758841 0
M  V30 4783 C 436.08 3.73743 -0.446468 0
M  V30 4784 C 435.227 2.58844 -0.994728 0
M  V30 4785 H 438.178 1.24796 -0.98039 0
M  V30 4786 H 438.199 3.80468 -0.0490648 0
M  V30 4787 H 437.711 3.42087 -1.83299 0
M  V30 4788 H 435.812 3.6741 0.619739 0
M  V30 4789 H 435.925 4.69272 -0.965415 0
M  V30 4790 H 434.289 2.51245 -0.418087 0
M  V30 4791 H 435.072 2.73525 -2.07458 0
M  V30 4792 N 437.518 0.538854 1.48102 0
M  V30 4793 C 438.748 0.0122958 2.06596 0
M  V30 4794 C 439.156 -1.27861 1.39457 0
M  V30 4795 O 438.499 -1.77348 0.478907 0
M  V30 4796 C 438.561 -0.273131 3.58461 0
M  V30 4797 C 438.225 0.92561 4.47528 0
M  V30 4798 C 439.222 1.82637 4.86765 0
M  V30 4799 C 436.907 1.13511 4.89306 0
M  V30 4800 C 438.901 2.92047 5.66558 0
M  V30 4801 C 436.588 2.23233 5.68868 0
M  V30 4802 C 437.586 3.12333 6.07402 0
M  V30 4803 O 437.274 4.20155 6.85365 0
M  V30 4804 H 437.006 0.0344283 0.675123 0
M  V30 4805 H 439.56 0.746494 1.91355 0
M  V30 4806 H 437.79 -1.06141 3.71848 0
M  V30 4807 H 439.479 -0.742842 3.99045 0
M  V30 4808 H 440.245 1.67649 4.55103 0
M  V30 4809 H 436.124 0.450835 4.5879 0
M  V30 4810 H 439.668 3.6162 5.96554 0
M  V30 4811 H 435.565 2.38201 5.99942 0
M  V30 4812 H 436.333 4.17975 7.03732 0
M  V30 4813 N 438.996 -1.55193 0.274407 0
M  V30 4814 C 440.242 -1.99877 -0.343086 0
M  V30 4815 C 440.575 -1.16256 -1.55558 0
M  V30 4816 O 439.85 -0.232462 -1.93106 0
M  V30 4817 C 440.133 -3.52706 -0.725965 0
M  V30 4818 C 439.986 -4.47081 0.493818 0
M  V30 4819 C 441.305 -4.11422 -1.56268 0
M  V30 4820 H 438.424 -0.726625 -0.123229 0
M  V30 4821 H 441.066 -1.86136 0.38121 0
M  V30 4822 H 439.216 -3.64546 -1.34307 0
M  V30 4823 H 440.888 -4.47186 1.13237 0
M  V30 4824 H 439.131 -4.1877 1.13201 0
M  V30 4825 H 439.802 -5.51699 0.18217 0
M  V30 4826 H 442.278 -4.02855 -1.04151 0
M  V30 4827 H 441.154 -5.18568 -1.79939 0
M  V30 4828 H 441.415 -3.61607 -2.54348 0
M  V30 4829 N 440.474 -0.00167713 -1.576 0
M  V30 4830 C 441.702 0.693759 -1.94922 0
M  V30 4831 C 442.117 1.67215 -0.876626 0
M  V30 4832 O 441.474 1.81929 0.144279 0
M  V30 4833 C 441.525 1.42416 -3.32265 0
M  V30 4834 O 441.246 0.485014 -4.35407 0
M  V30 4835 C 442.747 2.21395 -3.84056 0
M  V30 4836 H 439.967 0.193118 -0.642609 0
M  V30 4837 H 442.511 -0.0532952 -2.04431 0
M  V30 4838 H 440.666 2.12284 -3.24059 0
M  V30 4839 H 441.08 1.00053 -5.14868 0
M  V30 4840 H 442.554 2.67996 -4.82578 0
M  V30 4841 H 443.031 3.04142 -3.16851 0
M  V30 4842 H 443.637 1.56542 -3.95443 0
M  V30 4843 N 441.952 1.55251 0.271103 0
M  V30 4844 C 442.884 1.84675 1.35749 0
M  V30 4845 C 443.897 0.731366 1.45447 0
M  V30 4846 O 445.086 1.00924 1.4723 0
M  V30 4847 C 442.186 1.99638 2.73857 0
M  V30 4848 C 441.359 3.30312 2.86727 0
M  V30 4849 C 440.418 3.35318 4.05522 0
M  V30 4850 O 439.444 4.08682 3.96191 0
M  V30 4851 N 440.646 2.62857 5.17577 0
M  V30 4852 H 443.411 2.78445 1.10853 0
M  V30 4853 H 440.972 1.55191 0.461218 0
M  V30 4854 H 442.964 2.00355 3.51625 0
M  V30 4855 H 441.534 1.12725 2.91568 0
M  V30 4856 H 440.754 3.42118 1.95829 0
M  V30 4857 H 442.042 4.16488 2.92258 0
M  V30 4858 H 441.44 2.02939 5.28046 0
M  V30 4859 H 439.997 2.69295 5.93568 0
M  V30 4860 N 443.43 -0.535701 1.48216 0
M  V30 4861 C 444.846 -0.863701 1.3421 0
M  V30 4862 C 445.046 -1.98458 0.34879 0
M  V30 4863 O 444.102 -2.51432 -0.23204 0
M  V30 4864 C 445.415 -1.23662 2.74095 0
M  V30 4865 C 446.963 -1.34683 2.82541 0
M  V30 4866 C 447.438 -1.75322 4.23115 0
M  V30 4867 N 448.929 -1.82434 4.2576 0
M  V30 4868 C 449.664 -2.15252 5.31464 0
M  V30 4869 N 449.16 -2.46533 6.47452 0
M  V30 4870 N 450.953 -2.16209 5.18855 0
M  V30 4871 H 443.104 0.203965 2.11418 0
M  V30 4872 H 445.367 0.0286033 0.947568 0
M  V30 4873 H 445.073 -0.486674 3.48316 0
M  V30 4874 H 444.947 -2.18805 3.07253 0
M  V30 4875 H 447.334 -2.08756 2.08579 0
M  V30 4876 H 447.415 -0.376756 2.5301 0
M  V30 4877 H 447.059 -1.01812 4.97591 0
M  V30 4878 H 446.989 -2.7337 4.50085 0
M  V30 4879 H 449.48 -1.6056 3.42095 0
M  V30 4880 H 449.793 -2.70662 7.23852 0
M  V30 4881 H 448.138 -2.44065 6.50736 0
M  V30 4882 H 451.329 -1.91224 4.2726 0
M  V30 4883 H 451.502 -2.41453 6.01335 0
M  V30 4884 N 444.908 -1.36708 -0.784132 0
M  V30 4885 C 445.838 -1.34153 -1.91116 0
M  V30 4886 C 446.819 -0.212121 -1.68772 0
M  V30 4887 O 448.004 -0.410581 -1.8981 0
M  V30 4888 C 445.134 -1.13535 -3.28218 0
M  V30 4889 C 444.088 -2.23356 -3.65097 0
M  V30 4890 C 443.414 -1.87875 -5.00607 0
M  V30 4891 C 444.714 -3.65473 -3.73131 0
M  V30 4892 H 446.408 -2.28459 -1.93512 0
M  V30 4893 H 443.954 -1.09973 -0.929618 0
M  V30 4894 H 445.907 -1.10381 -4.06687 0
M  V30 4895 H 444.631 -0.156804 -3.26223 0
M  V30 4896 H 443.29 -2.25645 -2.88929 0
M  V30 4897 H 442.938 -0.885814 -4.95139 0
M  V30 4898 H 442.638 -2.61406 -5.26252 0
M  V30 4899 H 444.162 -1.86286 -5.81489 0
M  V30 4900 H 445.576 -3.65382 -4.41779 0
M  V30 4901 H 443.973 -4.37953 -4.10265 0
M  V30 4902 H 445.043 -3.99995 -2.74102 0
M  V30 4903 N 446.386 1.0089 -1.21074 0
M  V30 4904 C 447.336 2.0799 -0.934034 0
M  V30 4905 C 448.32 1.60529 0.10919 0
M  V30 4906 O 449.512 1.76722 -0.0992198 0
M  V30 4907 C 446.641 3.39693 -0.496334 0
M  V30 4908 C 445.727 3.93833 -1.57341 0
M  V30 4909 N 446.118 4.21388 -2.7976 0
M  V30 4910 C 444.416 4.22067 -1.44137 0
M  V30 4911 C 445.117 4.65156 -3.49292 0
M  V30 4912 N 444.093 4.67895 -2.76722 0
M  V30 4913 H 447.895 2.27213 -1.86417 0
M  V30 4914 H 445.409 1.18927 -1.10589 0
M  V30 4915 H 447.406 4.15962 -0.279471 0
M  V30 4916 H 446.066 3.21879 0.427084 0
M  V30 4917 H 447.077 4.10061 -3.1634 0
M  V30 4918 H 443.754 4.1341 -0.582947 0
M  V30 4919 H 445.144 4.95231 -4.54088 0
M  V30 4920 N 447.864 1.01787 1.20321 0
M  V30 4921 C 449.111 0.707936 1.89722 0
M  V30 4922 C 449.439 -0.762535 1.78929 0
M  V30 4923 O 448.694 -1.56977 1.16861 0
M  V30 4924 C 448.993 1.09076 3.40349 0
M  V30 4925 C 448.659 2.55765 3.71342 0
M  V30 4926 C 447.321 2.95845 3.79511 0
M  V30 4927 C 449.673 3.50723 3.85542 0
M  V30 4928 C 447.001 4.2982 3.99339 0
M  V30 4929 C 449.353 4.84387 4.06881 0
M  V30 4930 C 448.017 5.24172 4.1328 0
M  V30 4931 H 447.287 0.259052 0.694243 0
M  V30 4932 H 449.934 1.27868 1.42555 0
M  V30 4933 H 448.239 0.438453 3.89339 0
M  V30 4934 H 449.936 0.828636 3.92345 0
M  V30 4935 H 446.526 2.2371 3.65584 0
M  V30 4936 H 450.71 3.20916 3.78585 0
M  V30 4937 H 445.966 4.60196 4.02529 0
M  V30 4938 H 450.14 5.57891 4.1681 0
M  V30 4939 H 447.767 6.27997 4.28396 0
M  V30 4940 N 449.342 -1.36122 0.79427 0
M  V30 4941 C 450.753 -1.81646 0.431446 0
M  V30 4942 C 451.104 -1.66043 -1.04518 0
M  V30 4943 O 450.229 -1.1841 -1.8113 0
M  V30 4944 C 450.824 -3.29785 0.776341 0
M  V30 4945 C 449.383 -3.73501 0.466282 0
M  V30 4946 C 448.53 -2.58313 1.00844 0
M  V30 4947 H 451.481 -1.24274 0.986995 0
M  V30 4948 H 451.502 -3.80437 0.0692413 0
M  V30 4949 H 451.014 -3.4111 1.8511 0
M  V30 4950 H 449.115 -3.67733 -0.600245 0
M  V30 4951 H 449.228 -4.68754 0.990288 0
M  V30 4952 H 447.592 -2.5102 0.431406 0
M  V30 4953 H 448.375 -2.72421 2.08906 0
M  V30 4954 N 450.82 -0.546701 -1.47814 0
M  V30 4955 C 452.097 0.0464413 -1.95545 0
M  V30 4956 C 452.477 1.4962 -1.48919 0
M  V30 4957 O 451.825 2.16752 -0.723232 0
M  V30 4958 C 452.035 -0.0881298 -3.48889 0
M  V30 4959 C 453.383 0.0626059 -4.24554 0
M  V30 4960 O 454.407 -0.0151555 -3.56197 0
M  V30 4961 O 453.266 0.228071 -5.46024 0
M  V30 4962 H 450.36 0.0700004 -0.824032 0
M  V30 4963 H 452.906 -0.612482 -1.58262 0
M  V30 4964 H 451.678 -1.09737 -3.75597 0
M  V30 4965 H 451.301 0.608886 -3.9291 0
M  V30 4966 N 452.299 1.55045 -0.282633 0
M  V30 4967 C 453.547 1.99365 0.331334 0
M  V30 4968 C 453.868 1.1725 1.55812 0
M  V30 4969 O 453.138 0.263871 1.94115 0
M  V30 4970 H 451.718 0.736397 0.125414 0
M  V30 4971 H 454.38 1.90964 -0.389711 0
M  V30 4972 H 453.476 3.0596 0.616036 0
M  V30 4973 N 453.777 0.010035 1.57597 0
M  V30 4974 C 454.687 -0.994226 2.12491 0
M  V30 4975 C 455.703 -1.37013 1.07254 0
M  V30 4976 O 456.879 -1.45542 1.3921 0
M  V30 4977 C 453.944 -2.2642 2.62555 0
M  V30 4978 C 453.005 -1.95049 3.82432 0
M  V30 4979 C 452.238 -3.15991 4.30099 0
M  V30 4980 O 452.461 -4.28015 3.7704 0
M  V30 4981 O 451.395 -2.99403 5.22151 0
M  V30 4982 H 455.221 -0.557549 2.98538 0
M  V30 4983 H 452.806 -0.209413 1.47925 0
M  V30 4984 H 454.688 -3.01009 2.9491 0
M  V30 4985 H 453.363 -2.69306 1.796 0
M  V30 4986 H 452.27 -1.17904 3.55034 0
M  V30 4987 H 453.603 -1.56992 4.66491 0
M  V30 4988 N 455.255 -1.55392 -0.262866 0
M  V30 4989 C 456.218 -1.88181 -1.30846 0
M  V30 4990 C 457.218 -0.757079 -1.41862 0
M  V30 4991 O 458.408 -1.02519 -1.40838 0
M  V30 4992 C 455.54 -2.09609 -2.68844 0
M  V30 4993 H 456.733 -2.81659 -1.02997 0
M  V30 4994 H 454.286 -1.48039 -0.501414 0
M  V30 4995 H 455.021 -1.18547 -3.01856 0
M  V30 4996 H 454.806 -2.91508 -2.62231 0
M  V30 4997 H 456.296 -2.36215 -3.44372 0
M  V30 4998 N 456.733 0.527833 -1.48498 0
M  V30 4999 C 457.98 1.28354 -1.56625 0
M  V30 5000 C 458.308 1.93 -0.241096 0
M  V30 5001 O 457.563 1.79967 0.768798 0
M  V30 5002 C 457.862 2.39275 -2.65485 0
M  V30 5003 C 457.528 1.92268 -4.07853 0
M  V30 5004 C 456.19 1.79166 -4.46602 0
M  V30 5005 C 458.542 1.56771 -4.97064 0
M  V30 5006 C 455.87 1.28905 -5.72364 0
M  V30 5007 C 458.222 1.07972 -6.23318 0
M  V30 5008 C 456.886 0.934887 -6.60921 0
M  V30 5009 H 456.156 0.469682 -0.573131 0
M  V30 5010 H 458.803 0.588781 -1.82224 0
M  V30 5011 H 457.108 3.1443 -2.33754 0
M  V30 5012 H 458.805 2.974 -2.68988 0
M  V30 5013 H 455.395 2.03417 -3.77252 0
M  V30 5014 H 459.579 1.65753 -4.67803 0
M  V30 5015 H 454.835 1.16381 -6.00221 0
M  V30 5016 H 459.009 0.795775 -6.91838 0
M  V30 5017 H 456.636 0.543231 -7.58257 0
M  V30 5018 N 458.211 1.37122 0.776871 0
M  V30 5019 C 459.627 1.1781 1.07671 0
M  V30 5020 C 459.827 0.0107454 2.01497 0
M  V30 5021 O 458.883 -0.650756 2.4397 0
M  V30 5022 C 460.196 2.49451 1.67913 0
M  V30 5023 C 461.744 2.55927 1.80195 0
M  V30 5024 C 462.219 3.87686 2.43851 0
M  V30 5025 N 463.71 3.891 2.51307 0
M  V30 5026 C 464.445 4.87797 3.014 0
M  V30 5027 N 463.941 5.96888 3.51705 0
M  V30 5028 N 465.734 4.75205 3.00227 0
M  V30 5029 H 457.885 2.11843 0.153778 0
M  V30 5030 H 460.148 0.938927 0.130844 0
M  V30 5031 H 459.854 3.35207 1.06439 0
M  V30 5032 H 459.728 2.66169 2.67271 0
M  V30 5033 H 462.115 1.70582 2.40803 0
M  V30 5034 H 462.196 2.43097 0.796069 0
M  V30 5035 H 461.84 4.73444 1.83884 0
M  V30 5036 H 461.77 3.97817 3.45035 0
M  V30 5037 H 464.261 3.10293 2.157 0
M  V30 5038 H 464.574 6.68155 3.88316 0
M  V30 5039 H 462.919 6.0054 3.49824 0
M  V30 5040 H 466.11 3.89103 2.60224 0
M  V30 5041 H 466.283 5.52279 3.38957 0
M  V30 5042 N 459.689 -1.00246 1.21608 0
M  V30 5043 C 461.1 -1.55511 1.03312 0
M  V30 5044 C 461.451 -1.91946 -0.406332 0
M  V30 5045 O 460.576 -1.73753 -1.28992 0
M  V30 5046 C 461.171 -2.82576 1.86913 0
M  V30 5047 C 459.73 -3.34318 1.72941 0
M  V30 5048 C 458.877 -2.07487 1.83968 0
M  V30 5049 H 461.828 -0.824638 1.35593 0
M  V30 5050 H 461.849 -3.54559 1.38087 0
M  V30 5051 H 461.361 -2.56026 2.91672 0
M  V30 5052 H 459.462 -3.65797 0.70877 0
M  V30 5053 H 459.575 -4.05566 2.55055 0
M  V30 5054 H 457.939 -2.20603 1.27304 0
M  V30 5055 H 458.722 -1.83346 2.9024 0
M  V30 5056 N 461.167 -1.02423 -1.1978 0
M  V30 5057 C 462.077 -0.610919 -2.26506 0
M  V30 5058 C 463.093 0.355152 -1.70337 0
M  V30 5059 O 464.269 0.214195 -2.00258 0
M  V30 5060 C 461.334 0.0365921 -3.46681 0
M  V30 5061 C 460.395 -0.976389 -4.18049 0
M  V30 5062 C 459.628 -0.359683 -5.32487 0
M  V30 5063 O 459.851 0.838601 -5.64202 0
M  V30 5064 O 458.785 -1.08022 -5.92127 0
M  V30 5065 H 462.611 -1.49965 -2.64091 0
M  V30 5066 H 460.196 -0.794156 -1.26545 0
M  V30 5067 H 462.078 0.39786 -4.19518 0
M  V30 5068 H 460.753 0.899398 -3.10954 0
M  V30 5069 H 459.66 -1.38916 -3.47352 0
M  V30 5070 H 460.993 -1.80941 -4.57735 0
M  V30 5071 N 462.645 1.35699 -0.801477 0
M  V30 5072 C 464.061 1.52065 -0.484596 0
M  V30 5073 C 464.261 1.75215 0.995084 0
M  V30 5074 O 463.317 1.79061 1.78026 0
M  V30 5075 C 464.63 2.69908 -1.32552 0
M  V30 5076 C 466.178 2.83784 -1.32044 0
M  V30 5077 C 466.653 4.04646 -2.14536 0
M  V30 5078 N 468.144 4.11814 -2.12046 0
M  V30 5079 C 468.879 5.04437 -2.72636 0
M  V30 5080 N 468.375 6.02426 -3.42133 0
M  V30 5081 N 470.168 4.97144 -2.62305 0
M  V30 5082 H 462.319 1.18928 -1.75983 0
M  V30 5083 H 464.582 0.581455 -0.748741 0
M  V30 5084 H 464.288 2.59363 -2.37537 0
M  V30 5085 H 464.162 3.64376 -0.975181 0
M  V30 5086 H 466.549 2.93783 -0.27846 0
M  V30 5087 H 466.63 1.90188 -1.71062 0
M  V30 5088 H 466.274 3.95407 -3.18772 0
M  V30 5089 H 466.204 4.97413 -1.72882 0
M  V30 5090 H 468.695 3.41664 -1.61476 0
M  V30 5091 H 469.008 6.69688 -3.85666 0
M  V30 5092 H 467.353 6.02615 -3.46237 0
M  V30 5093 H 470.544 4.19546 -2.07603 0
M  V30 5094 H 470.717 5.69138 -3.09815 0
M  V30 5095 N 464.123 0.554532 1.47522 0
M  V30 5096 C 465.37 0.029479 2.02479 0
M  V30 5097 C 465.698 -1.31929 1.42916 0
M  V30 5098 O 464.953 -1.87112 0.573385 0
M  V30 5099 C 465.252 -0.115927 3.57212 0
M  V30 5100 C 464.918 1.16161 4.3568 0
M  V30 5101 C 463.58 1.51168 4.56839 0
M  V30 5102 C 465.932 2.0083 4.80954 0
M  V30 5103 C 463.26 2.70696 5.2052 0
M  V30 5104 C 465.612 3.19559 5.45953 0
M  V30 5105 C 464.276 3.54882 5.65345 0
M  V30 5106 H 463.546 0.0107871 0.740921 0
M  V30 5107 H 466.193 0.725506 1.77225 0
M  V30 5108 H 464.498 -0.894902 3.81443 0
M  V30 5109 H 466.195 -0.53749 3.97381 0
M  V30 5110 H 462.785 0.879026 4.19489 0
M  V30 5111 H 466.969 1.75093 4.64388 0
M  V30 5112 H 462.225 2.98236 5.33728 0
M  V30 5113 H 466.399 3.85456 5.79997 0
M  V30 5114 H 464.026 4.47596 6.1446 0
M  V30 5115 N 465.601 -1.54893 0.290851 0
M  V30 5116 C 466.531 -2.26103 -0.583084 0
M  V30 5117 C 467.512 -1.25684 -1.14619 0
M  V30 5118 O 468.697 -1.54436 -1.17741 0
M  V30 5119 C 465.827 -2.99409 -1.75987 0
M  V30 5120 C 464.781 -4.0689 -1.32758 0
M  V30 5121 C 464.107 -4.67856 -2.58872 0
M  V30 5122 C 465.407 -5.20215 -0.46624 0
M  V30 5123 H 467.101 -2.99398 0.0108214 0
M  V30 5124 H 464.647 -1.43998 0.00664468 0
M  V30 5125 H 466.6 -3.47943 -2.37727 0
M  V30 5126 H 465.324 -2.23675 -2.37985 0
M  V30 5127 H 463.983 -3.59191 -0.733299 0
M  V30 5128 H 463.631 -3.88772 -3.19163 0
M  V30 5129 H 463.331 -5.40438 -2.30653 0
M  V30 5130 H 464.855 -5.19147 -3.21433 0
M  V30 5131 H 466.269 -5.64704 -0.989047 0
M  V30 5132 H 464.666 -5.99455 -0.27826 0
M  V30 5133 H 465.736 -4.82198 0.511173 0
M  V30 5134 N 467.08 -0.0183926 -1.57589 0
M  V30 5135 C 467.99 0.982943 -2.13015 0
M  V30 5136 C 469.006 1.36443 -1.07979 0
M  V30 5137 O 470.182 1.44802 -1.3998 0
M  V30 5138 C 467.247 2.25024 -2.63752 0
M  V30 5139 C 466.308 1.93018 -3.83461 0
M  V30 5140 C 465.541 3.13706 -4.31769 0
M  V30 5141 O 465.764 4.2601 -3.79305 0
M  V30 5142 O 464.698 2.96629 -5.23732 0
M  V30 5143 H 468.524 0.541709 -2.9883 0
M  V30 5144 H 466.109 0.201565 -1.48034 0
M  V30 5145 H 467.991 2.99441 -2.96502 0
M  V30 5146 H 466.666 2.68349 -1.81026 0
M  V30 5147 H 465.573 1.16019 -3.55655 0
M  V30 5148 H 466.906 1.54516 -4.67317 0
M  V30 5149 N 468.558 1.5553 0.254621 0
M  V30 5150 C 469.468 1.92789 1.33677 0
M  V30 5151 C 470.484 0.827356 1.53071 0
M  V30 5152 O 471.66 1.12807 1.66843 0
M  V30 5153 C 468.725 2.20827 2.67275 0
M  V30 5154 C 467.786 3.4427 2.5647 0
M  V30 5155 C 467.019 3.70961 3.83697 0
M  V30 5156 O 467.242 2.99852 4.85227 0
M  V30 5157 O 466.176 4.64491 3.82794 0
M  V30 5158 H 470.002 2.84945 1.05071 0
M  V30 5159 H 467.587 1.42312 0.454723 0
M  V30 5160 H 469.469 2.40204 3.46237 0
M  V30 5161 H 468.144 1.31851 2.9563 0
M  V30 5162 H 467.051 3.30209 1.75821 0
M  V30 5163 H 468.384 4.33524 2.33062 0
M  V30 5164 N 470.036 -0.519951 1.48776 0
M  V30 5165 C 471.452 -0.849418 1.35119 0
M  V30 5166 C 471.652 -1.98077 0.36982 0
M  V30 5167 O 470.708 -2.51664 -0.205359 0
M  V30 5168 C 472.021 -1.20748 2.75391 0
M  V30 5169 C 473.569 -1.31679 2.83954 0
M  V30 5170 C 474.044 -1.70824 4.24951 0
M  V30 5171 N 475.535 -1.77908 4.27672 0
M  V30 5172 C 476.27 -2.09603 5.33717 0
M  V30 5173 N 475.766 -2.39652 6.5003 0
M  V30 5174 N 477.559 -2.10694 5.21119 0
M  V30 5175 H 469.71 0.226377 2.1119 0
M  V30 5176 H 471.973 0.0386519 0.947212 0
M  V30 5177 H 471.679 -0.449703 3.48813 0
M  V30 5178 H 471.553 -2.15534 3.09556 0
M  V30 5179 H 473.94 -2.06532 2.10781 0
M  V30 5180 H 474.021 -0.3499 2.53396 0
M  V30 5181 H 473.665 -0.965282 4.98643 0
M  V30 5182 H 473.595 -2.6858 4.52959 0
M  V30 5183 H 476.086 -1.56923 3.43779 0
M  V30 5184 H 476.399 -2.6297 7.26682 0
M  V30 5185 H 474.744 -2.37149 6.53288 0
M  V30 5186 H 477.935 -1.86682 4.29264 0
M  V30 5187 H 478.108 -2.35062 6.03863 0
M  V30 5188 N 471.514 -1.37532 -0.769588 0
M  V30 5189 C 472.762 -1.32597 -1.5252 0
M  V30 5190 C 473.083 0.0884294 -1.94799 0
M  V30 5191 O 472.353 1.03289 -1.66458 0
M  V30 5192 H 470.933 -0.487846 -0.565699 0
M  V30 5193 H 473.595 -1.72044 -0.915806 0
M  V30 5194 H 472.691 -1.96643 -2.42359 0
M  V30 5195 N 472.992 0.995999 -1.22138 0
M  V30 5196 C 474.22 1.77066 -1.07029 0
M  V30 5197 C 474.635 1.8495 0.379357 0
M  V30 5198 O 473.992 1.3174 1.26297 0
M  V30 5199 C 474.043 3.20533 -1.67155 0
M  V30 5200 O 473.764 3.13082 -3.06449 0
M  V30 5201 C 475.265 4.14461 -1.5728 0
M  V30 5202 H 472.485 0.556179 -0.375374 0
M  V30 5203 H 475.029 1.25238 -1.61666 0
M  V30 5204 H 473.184 3.6944 -1.16589 0
M  V30 5205 H 473.598 4.03283 -3.35355 0
M  V30 5206 H 475.072 5.1289 -2.04078 0
M  V30 5207 H 475.549 4.36005 -0.528795 0
M  V30 5208 H 476.155 3.71449 -2.07136 0
M  V30 5209 N 474.47 1.03057 1.19235 0
M  V30 5210 C 475.881 0.757449 1.70645 0
M  V30 5211 C 476.232 -0.722735 1.82403 0
M  V30 5212 O 475.357 -1.56325 1.49638 0
M  V30 5213 C 475.952 1.36833 3.09939 0
M  V30 5214 C 474.511 1.14375 3.58602 0
M  V30 5215 C 473.658 1.46533 2.35422 0
M  V30 5216 H 476.609 1.19828 1.04052 0
M  V30 5217 H 476.63 0.766184 3.72706 0
M  V30 5218 H 476.142 2.44562 3.01349 0
M  V30 5219 H 474.243 0.0847542 3.72504 0
M  V30 5220 H 474.356 1.83366 4.42622 0
M  V30 5221 H 472.72 0.884712 2.38841 0
M  V30 5222 H 473.503 2.55349 2.2946 0
M  V30 5223 N 475.948 -1.35272 0.808662 0
M  V30 5224 C 477.173 -2.03477 0.401475 0
M  V30 5225 C 477.598 -1.60537 -0.980279 0
M  V30 5226 O 476.956 -0.78304 -1.63518 0
M  V30 5227 C 477.004 -3.57181 0.495354 0
M  V30 5228 O 476.108 -4.09474 -0.490397 0
M  V30 5229 H 475.449 -0.642561 0.167366 0
M  V30 5230 H 477.979 -1.72824 1.09512 0
M  V30 5231 H 477.989 -4.06356 0.365912 0
M  V30 5232 H 476.664 -3.87784 1.5032 0
M  V30 5233 H 475.241 -3.71516 -0.321023 0
M  V30 5234 N 477.426 -0.562348 -1.47226 0
M  V30 5235 C 478.674 -0.0401371 -2.0206 0
M  V30 5236 C 478.995 1.3165 -1.43852 0
M  V30 5237 O 478.265 1.85976 -0.615599 0
M  V30 5238 H 476.845 -0.0118479 -0.746906 0
M  V30 5239 H 479.507 -0.73352 -1.8057 0
M  V30 5240 H 478.603 0.0441254 -3.12069 0
M  V30 5241 N 478.904 1.54736 -0.299062 0
M  V30 5242 C 480.32 1.59507 0.0543849 0
M  V30 5243 C 480.52 1.31606 1.52585 0
M  V30 5244 O 479.576 1.08853 2.27832 0
M  V30 5245 C 480.889 2.98751 -0.34181 0
M  V30 5246 C 482.437 3.1165 -0.290414 0
M  V30 5247 C 482.912 4.53199 -0.661402 0
M  V30 5248 N 484.403 4.59114 -0.613863 0
M  V30 5249 C 485.138 5.66709 -0.873417 0
M  V30 5250 N 484.634 6.82349 -1.19884 0
M  V30 5251 N 486.427 5.56369 -0.800608 0
M  V30 5252 H 478.578 1.71133 -1.25806 0
M  V30 5253 H 480.841 0.799186 -0.509908 0
M  V30 5254 H 480.547 3.24085 -1.36608 0
M  V30 5255 H 480.421 3.75961 0.305508 0
M  V30 5256 H 482.808 2.86066 0.724605 0
M  V30 5257 H 482.889 2.366 -0.972327 0
M  V30 5258 H 482.533 4.79513 -1.67422 0
M  V30 5259 H 482.463 5.26583 0.0425612 0
M  V30 5260 H 484.954 3.76053 -0.3732 0
M  V30 5261 H 485.267 7.60326 -1.38291 0
M  V30 5262 H 483.612 6.83906 -1.23685 0
M  V30 5263 H 486.803 4.64904 -0.546045 0
M  V30 5264 H 486.976 6.40139 -1.00626 0
M  V30 5265 N 480.382 0.0267497 1.57577 0
M  V30 5266 C 481.612 -0.6617 1.95717 0
M  V30 5267 C 482.02 -1.66331 0.901706 0
M  V30 5268 O 481.363 -1.83273 -0.125241 0
M  V30 5269 C 481.425 -1.42649 3.29987 0
M  V30 5270 C 481.089 -0.583482 4.5326 0
M  V30 5271 C 482.086 0.140221 5.19711 0
M  V30 5272 C 479.771 -0.521581 4.99585 0
M  V30 5273 C 481.765 0.914523 6.30805 0
M  V30 5274 C 479.452 0.256428 6.10562 0
M  V30 5275 C 480.45 0.973189 6.76031 0
M  V30 5276 O 480.138 1.73845 7.84878 0
M  V30 5277 H 479.87 -0.187483 0.649481 0
M  V30 5278 H 482.424 0.0820847 2.05236 0
M  V30 5279 H 480.654 -2.21536 3.16952 0
M  V30 5280 H 482.343 -2.00282 3.53047 0
M  V30 5281 H 483.109 0.101716 4.84893 0
M  V30 5282 H 478.988 -1.06904 4.48433 0
M  V30 5283 H 482.532 1.4745 6.81839 0
M  V30 5284 H 478.429 0.296657 6.44818 0
M  V30 5285 H 479.197 1.65797 8.01532 0
M  V30 5286 N 481.861 -1.55662 -0.24637 0
M  V30 5287 C 483.108 -1.77519 -0.974335 0
M  V30 5288 C 483.436 -0.591165 -1.85298 0
M  V30 5289 O 482.691 0.425497 -1.91018 0
M  V30 5290 C 482.99 -3.04885 -1.86494 0
M  V30 5291 C 482.656 -4.36209 -1.14161 0
M  V30 5292 C 481.318 -4.71896 -0.941701 0
M  V30 5293 C 483.67 -5.17391 -0.628957 0
M  V30 5294 C 480.998 -5.86299 -0.216852 0
M  V30 5295 C 483.35 -6.32546 0.0824273 0
M  V30 5296 C 482.014 -6.66853 0.293807 0
M  V30 5297 H 481.284 -0.649588 -0.356535 0
M  V30 5298 H 483.931 -1.89934 -0.244394 0
M  V30 5299 H 482.236 -2.87484 -2.66196 0
M  V30 5300 H 483.933 -3.18994 -2.42989 0
M  V30 5301 H 480.523 -4.08174 -1.30736 0
M  V30 5302 H 484.707 -4.90276 -0.770943 0
M  V30 5303 H 479.963 -6.11385 -0.0426124 0
M  V30 5304 H 484.137 -6.94693 0.487292 0
M  V30 5305 H 481.764 -7.55349 0.857428 0
M  V30 5306 N 483.339 0.512053 -1.4905 0
M  V30 5307 C 484.75 1.09376 -1.51307 0
M  V30 5308 C 485.101 1.94 -0.292971 0
M  V30 5309 O 484.226 2.07965 0.598277 0
M  V30 5310 C 484.821 1.99031 -2.74176 0
M  V30 5311 C 483.38 2.52385 -2.79247 0
M  V30 5312 C 482.527 1.29749 -2.45073 0
M  V30 5313 H 485.478 0.296467 -1.55906 0
M  V30 5314 H 485.499 2.83569 -2.53711 0
M  V30 5315 H 485.011 1.37412 -3.62959 0
M  V30 5316 H 483.112 3.17673 -1.94716 0
M  V30 5317 H 483.225 2.90293 -3.81139 0
M  V30 5318 H 481.589 1.61912 -1.96612 0
M  V30 5319 H 482.372 0.698555 -3.36118 0
M  V30 5320 N 484.817 1.37938 0.762283 0
M  V30 5321 C 486.064 1.33668 1.52115 0
M  V30 5322 C 486.392 -0.0759538 1.94352 0
M  V30 5323 O 485.647 -1.05121 1.6507 0
M  V30 5324 C 485.946 2.23042 2.79261 0
M  V30 5325 C 485.612 3.71159 2.56031 0
M  V30 5326 C 484.274 4.11523 2.49404 0
M  V30 5327 C 486.626 4.64955 2.35513 0
M  V30 5328 C 483.954 5.43784 2.20263 0
M  V30 5329 C 486.306 5.97464 2.07894 0
M  V30 5330 C 484.97 6.36922 1.99718 0
M  V30 5331 H 484.24 0.489127 0.556629 0
M  V30 5332 H 486.887 1.70224 0.877262 0
M  V30 5333 H 485.192 1.79512 3.48256 0
M  V30 5334 H 486.889 2.17047 3.37182 0
M  V30 5335 H 483.479 3.39153 2.62056 0
M  V30 5336 H 487.663 4.34623 2.39617 0
M  V30 5337 H 482.919 5.73307 2.12435 0
M  V30 5338 H 487.093 6.6969 1.91019 0
M  V30 5339 H 484.72 7.39331 1.76902 0
M  V30 5340 N 486.295 -0.989507 1.22664 0
M  V30 5341 C 487.543 -1.72612 1.05117 0
M  V30 5342 C 487.864 -1.90552 -0.414131 0
M  V30 5343 O 487.134 -1.4676 -1.29762 0
M  V30 5344 H 485.714 -0.639555 0.385977 0
M  V30 5345 H 488.376 -1.19158 1.54232 0
M  V30 5346 H 487.472 -2.71926 1.53175 0
M  V30 5347 N 487.773 -1.03688 -1.18687 0
M  V30 5348 C 488.703 -0.645407 -2.24403 0
M  V30 5349 C 489.684 0.349511 -1.66471 0
M  V30 5350 O 490.869 0.230453 -1.92828 0
M  V30 5351 C 487.999 -0.00365337 -3.473 0
M  V30 5352 C 486.953 -0.921705 -4.17958 0
M  V30 5353 C 486.279 -0.144629 -5.34504 0
M  V30 5354 C 487.579 -2.23909 -4.71871 0
M  V30 5355 H 489.273 -1.52917 -2.57404 0
M  V30 5356 H 486.819 -0.736711 -1.23728 0
M  V30 5357 H 488.772 0.281908 -4.20456 0
M  V30 5358 H 487.496 0.914963 -3.13522 0
M  V30 5359 H 486.155 -1.19159 -3.46694 0
M  V30 5360 H 485.803 0.776274 -4.96974 0
M  V30 5361 H 485.503 -0.756206 -5.82714 0
M  V30 5362 H 487.027 0.134004 -6.10453 0
M  V30 5363 H 488.441 -2.0145 -5.36741 0
M  V30 5364 H 486.838 -2.8033 -5.30599 0
M  V30 5365 H 487.908 -2.88822 -3.895 0
M  V30 5366 N 489.251 1.34841 -0.815825 0
M  V30 5367 C 490.499 1.98107 -0.399744 0
M  V30 5368 C 490.82 1.65019 1.03894 0
M  V30 5369 O 490.09 0.937311 1.72021 0
M  V30 5370 H 488.67 0.732827 -0.144823 0
M  V30 5371 H 491.332 1.64599 -1.0437 0
M  V30 5372 H 490.428 3.07856 -0.512965 0
M  V30 5373 N 490.729 0.570148 1.46925 0
M  V30 5374 C 491.661 -0.207909 2.28255 0
M  V30 5375 C 492.674 -0.867301 1.37774 0
M  V30 5376 O 493.863 -0.738976 1.62485 0
M  V30 5377 C 490.963 -1.31298 3.12433 0
M  V30 5378 C 490.136 -0.747915 4.30958 0
M  V30 5379 C 489.195 -1.7391 4.9663 0
M  V30 5380 O 488.221 -1.2801 5.54619 0
M  V30 5381 N 489.423 -3.07288 4.92498 0
M  V30 5382 H 492.188 0.489794 2.95671 0
M  V30 5383 H 489.749 0.407076 1.56699 0
M  V30 5384 H 491.741 -1.97507 3.53232 0
M  V30 5385 H 490.311 -1.91373 2.47175 0
M  V30 5386 H 489.531 0.0913066 3.94094 0
M  V30 5387 H 490.819 -0.349958 5.07595 0
M  V30 5388 H 490.217 -3.47213 4.46609 0
M  V30 5389 H 488.774 -3.69021 5.37277 0
M  V30 5390 N 492.207 -1.54576 0.307264 0
M  V30 5391 C 493.623 -1.59534 -0.0459251 0
M  V30 5392 C 493.823 -1.32414 -1.51884 0
M  V30 5393 O 492.879 -1.1006 -2.27251 0
M  V30 5394 C 494.192 -2.98566 0.357649 0
M  V30 5395 C 495.74 -3.11491 0.306937 0
M  V30 5396 C 496.215 -4.52842 0.685427 0
M  V30 5397 N 497.706 -4.58782 0.638203 0
M  V30 5398 C 498.441 -5.66238 0.903458 0
M  V30 5399 N 497.937 -6.81703 1.23501 0
M  V30 5400 N 499.73 -5.55937 0.830102 0
M  V30 5401 H 491.881 -1.70464 1.26712 0
M  V30 5402 H 494.144 -0.79647 0.514139 0
M  V30 5403 H 493.85 -3.23356 1.38325 0
M  V30 5404 H 493.724 -3.76117 -0.285565 0
M  V30 5405 H 496.111 -2.86446 -0.709424 0
M  V30 5406 H 496.192 -2.36081 0.984861 0
M  V30 5407 H 495.836 -4.78618 1.69963 0
M  V30 5408 H 495.766 -5.26598 -0.0146346 0
M  V30 5409 H 498.257 -3.75849 0.393138 0
M  V30 5410 H 498.57 -7.59582 1.42322 0
M  V30 5411 H 496.915 -6.8324 1.27311 0
M  V30 5412 H 500.106 -4.64608 0.570693 0
M  V30 5413 H 500.279 -6.39597 1.04019 0
M  V30 5414 N 493.685 -0.035106 -1.57561 0
M  V30 5415 C 494.615 0.942993 -2.13612 0
M  V30 5416 C 495.596 1.33531 -1.05373 0
M  V30 5417 O 496.781 1.41287 -1.33235 0
M  V30 5418 C 493.911 2.22332 -2.66807 0
M  V30 5419 C 492.865 1.97156 -3.79886 0
M  V30 5420 C 492.191 3.31506 -4.19533 0
M  V30 5421 C 493.491 1.30596 -5.05709 0
M  V30 5422 H 495.185 0.476179 -2.95589 0
M  V30 5423 H 492.731 0.227602 -1.4219 0
M  V30 5424 H 494.684 2.91142 -3.04654 0
M  V30 5425 H 493.408 2.7119 -1.81999 0
M  V30 5426 H 492.067 1.30763 -3.42486 0
M  V30 5427 H 491.715 3.78134 -3.31698 0
M  V30 5428 H 491.415 3.15465 -4.95738 0
M  V30 5429 H 492.939 4.01574 -4.59968 0
M  V30 5430 H 494.353 1.89416 -5.41105 0
M  V30 5431 H 492.75 1.24934 -5.86951 0
M  V30 5432 H 493.82 0.279742 -4.84092 0
M  V30 5433 N 495.163 1.55791 0.238111 0
M  V30 5434 C 496.403 1.79801 0.972163 0
M  V30 5435 C 496.767 0.606027 1.82185 0
M  V30 5436 O 497.968 0.725079 2.58836 0
M  V30 5437 C 496.239 3.08608 1.80266 0
M  V30 5438 S 497.798 3.53872 2.59461 0
M  V30 5439 H 494.616 0.631418 0.326852 0
M  V30 5440 H 497.218 1.94031 0.239212 0
M  V30 5441 H 495.922 3.93419 1.1683 0
M  V30 5442 H 495.453 2.9714 2.57821 0
M  V30 5443 H 497.468 3.15899 3.82651 0
M  V30 5444 N 496.642 -0.504142 1.49319 0
M  V30 5445 C 497.572 -1.61473 1.68667 0
M  V30 5446 C 498.553 -1.61455 0.535378 0
M  V30 5447 O 499.738 -1.78245 0.770868 0
M  V30 5448 C 496.868 -2.99971 1.75028 0
M  V30 5449 C 495.822 -3.14854 2.89916 0
M  V30 5450 C 495.148 -4.54671 2.81387 0
M  V30 5451 C 496.448 -2.95176 4.30893 0
M  V30 5452 H 498.142 -1.45535 2.61648 0
M  V30 5453 H 495.688 -0.698711 1.25913 0
M  V30 5454 H 497.641 -3.77562 1.8715 0
M  V30 5455 H 496.365 -3.1699 0.786441 0
M  V30 5456 H 495.024 -2.39687 2.77391 0
M  V30 5457 H 494.672 -4.68562 1.82917 0
M  V30 5458 H 494.372 -4.6557 3.58494 0
M  V30 5459 H 495.896 -5.34327 2.95512 0
M  V30 5460 H 497.31 -3.62538 4.44116 0
M  V30 5461 H 495.707 -3.17549 5.09198 0
M  V30 5462 H 496.777 -1.91332 4.45556 0
M  V30 5463 N 498.12 -1.38341 -0.754957 0
M  V30 5464 C 499.368 -1.34208 -1.51105 0
M  V30 5465 C 499.689 0.0677634 -1.94882 0
M  V30 5466 O 498.959 1.01517 -1.67544 0
M  V30 5467 H 497.539 -0.493819 -0.560493 0
M  V30 5468 H 500.201 -1.73005 -0.897507 0
M  V30 5469 H 499.297 -1.99203 -2.4026 0
M  V30 5470 N 499.598 0.982988 -1.23187 0
M  V30 5471 C 501.014 1.2487 -0.993967 0
M  V30 5472 C 501.214 1.99155 0.306498 0
M  V30 5473 O 500.27 2.30688 1.0266 0
M  V30 5474 C 501.583 2.05078 -2.19917 0
M  V30 5475 C 503.131 2.18227 -2.2438 0
M  V30 5476 C 503.606 3.01825 -3.44479 0
M  V30 5477 N 505.097 3.09411 -3.44702 0
M  V30 5478 C 505.832 3.74412 -4.34285 0
M  V30 5479 N 505.328 4.41259 -5.341 0
M  V30 5480 N 507.121 3.71273 -4.22035 0
M  V30 5481 H 499.272 0.485253 -2.06783 0
M  V30 5482 H 501.535 0.276979 -0.906635 0
M  V30 5483 H 501.241 1.57867 -3.14279 0
M  V30 5484 H 501.115 3.05829 -2.2079 0
M  V30 5485 H 503.502 2.64648 -1.30559 0
M  V30 5486 H 503.583 1.16873 -2.2754 0
M  V30 5487 H 503.227 2.56102 -4.38605 0
M  V30 5488 H 503.157 4.03342 -3.38559 0
M  V30 5489 H 505.648 2.61845 -2.7248 0
M  V30 5490 H 505.961 4.88629 -5.98717 0
M  V30 5491 H 504.306 4.39975 -5.38002 0
M  V30 5492 H 507.497 3.18217 -3.43301 0
M  V30 5493 H 507.67 4.21649 -4.92053 0
M  V30 5494 N 501.076 1.04316 1.18135 0
M  V30 5495 C 502.353 0.662166 1.84051 0
M  V30 5496 C 502.733 -0.858169 1.9287 0
M  V30 5497 O 502.081 -1.76062 1.45652 0
M  V30 5498 C 502.291 1.3409 3.22212 0
M  V30 5499 C 503.639 1.4733 3.9822 0
M  V30 5500 O 504.663 1.29921 3.31661 0
M  V30 5501 O 503.522 1.75722 5.17479 0
M  V30 5502 H 500.616 0.232005 0.79379 0
M  V30 5503 H 503.162 1.1422 1.25506 0
M  V30 5504 H 501.934 2.37853 3.10711 0
M  V30 5505 H 501.557 0.849649 3.88416 0
M  V30 5506 N 502.554 -1.34406 0.822964 0
M  V30 5507 C 503.801 -1.98284 0.411057 0
M  V30 5508 C 504.129 -1.65245 -1.02588 0
M  V30 5509 O 503.384 -0.91619 -1.72929 0
M  V30 5510 C 503.683 -3.52981 0.560268 0
M  V30 5511 C 503.349 -4.05931 1.96293 0
M  V30 5512 C 502.011 -4.20103 2.34664 0
M  V30 5513 C 504.363 -4.34412 2.87985 0
M  V30 5514 C 501.691 -4.60082 3.64062 0
M  V30 5515 C 504.043 -4.75838 4.16847 0
M  V30 5516 C 502.707 -4.88215 4.55195 0
M  V30 5517 H 501.977 -0.725573 0.150416 0
M  V30 5518 H 504.624 -1.60349 1.04692 0
M  V30 5519 H 502.929 -3.91477 -0.158982 0
M  V30 5520 H 504.626 -4.00385 0.222087 0
M  V30 5521 H 501.216 -3.95363 1.65487 0
M  V30 5522 H 505.4 -4.23001 2.59584 0
M  V30 5523 H 500.656 -4.67856 3.93599 0
M  V30 5524 H 504.83 -4.96834 4.87984 0
M  V30 5525 H 502.457 -5.18952 5.55512 0
M  V30 5526 N 504.032 -0.577932 -1.46621 0
M  V30 5527 C 504.995 0.147805 -2.28723 0
M  V30 5528 C 505.995 0.823325 -1.38123 0
M  V30 5529 O 507.185 0.676011 -1.60548 0
M  V30 5530 C 504.317 1.21853 -3.18378 0
M  V30 5531 H 505.51 -0.573654 -2.94362 0
M  V30 5532 H 503.063 -0.335703 -1.52652 0
M  V30 5533 H 503.798 1.97173 -2.57475 0
M  V30 5534 H 503.583 0.738714 -3.85078 0
M  V30 5535 H 505.073 1.72768 -3.80186 0
M  V30 5536 N 505.51 1.54411 -0.315457 0
M  V30 5537 C 506.44 2.27002 0.547039 0
M  V30 5538 C 507.421 1.27492 1.12605 0
M  V30 5539 O 508.606 1.5629 1.15269 0
M  V30 5540 C 505.736 3.02171 1.71201 0
M  V30 5541 C 504.69 4.0895 1.26268 0
M  V30 5542 C 504.016 4.71915 2.51396 0
M  V30 5543 C 505.316 5.20891 0.383419 0
M  V30 5544 H 507.01 2.99343 -0.0584517 0
M  V30 5545 H 504.556 1.4397 -0.0295527 0
M  V30 5546 H 506.509 3.51681 2.32161 0
M  V30 5547 H 505.233 2.27433 2.34397 0
M  V30 5548 H 503.892 3.60312 0.676062 0
M  V30 5549 H 503.54 3.93801 3.12937 0
M  V30 5550 H 503.24 5.44039 2.22026 0
M  V30 5551 H 504.764 5.24195 3.13133 0
M  V30 5552 H 506.178 5.66206 0.899082 0
M  V30 5553 H 504.575 5.99821 0.182857 0
M  V30 5554 H 505.645 4.81324 -0.587821 0
M  V30 5555 N 506.988 0.0434614 1.5754 0
M  V30 5556 C 507.918 -0.931651 2.14109 0
M  V30 5557 C 508.899 -1.32971 1.06079 0
M  V30 5558 O 510.084 -1.40579 1.33982 0
M  V30 5559 C 507.214 -2.20914 2.67982 0
M  V30 5560 C 506.168 -1.95139 3.80926 0
M  V30 5561 C 505.494 -3.29276 4.21285 0
M  V30 5562 C 506.794 -1.27913 5.06395 0
M  V30 5563 H 508.488 -0.460497 2.95837 0
M  V30 5564 H 506.034 -0.220058 1.42309 0
M  V30 5565 H 507.987 -2.89522 3.06194 0
M  V30 5566 H 506.711 -2.70221 1.83434 0
M  V30 5567 H 505.37 -1.28945 3.43175 0
M  V30 5568 H 505.018 -3.76369 3.33699 0
M  V30 5569 H 504.718 -3.12831 4.97404 0
M  V30 5570 H 506.242 -3.99129 4.62091 0
M  V30 5571 H 507.656 -1.86544 5.42102 0
M  V30 5572 H 506.053 -1.2182 5.87605 0
M  V30 5573 H 507.123 -0.254066 4.84234 0
M  V30 5574 N 508.466 -1.55915 -0.229846 0
M  V30 5575 C 509.376 -1.94891 -1.30593 0
M  V30 5576 C 510.392 -0.851604 -1.51736 0
M  V30 5577 O 511.568 -1.15447 -1.65027 0
M  V30 5578 C 508.633 -2.25052 -2.63728 0
M  V30 5579 C 507.694 -3.48306 -2.5096 0
M  V30 5580 C 506.927 -3.77019 -3.77747 0
M  V30 5581 O 507.15 -3.07534 -4.80395 0
M  V30 5582 O 506.084 -4.70523 -3.75356 0
M  V30 5583 H 509.91 -2.86581 -1.00525 0
M  V30 5584 H 507.495 -1.43017 -0.432025 0
M  V30 5585 H 509.377 -2.45682 -3.42372 0
M  V30 5586 H 508.052 -1.36538 -2.93495 0
M  V30 5587 H 506.959 -3.32964 -1.70546 0
M  V30 5588 H 508.292 -4.37177 -2.26136 0
M  V30 5589 N 509.944 0.496216 -1.49584 0
M  V30 5590 C 511.192 1.24756 -1.58998 0
M  V30 5591 C 511.513 1.92968 -0.280775 0
M  V30 5592 O 510.783 1.82959 0.700198 0
M  V30 5593 H 509.363 0.463471 -0.585836 0
M  V30 5594 H 512.025 0.574678 -1.86235 0
M  V30 5595 H 511.121 2.00895 -2.38847 0
M  V30 5596 N 511.423 1.38739 0.74761 0
M  V30 5597 C 512.834 1.31507 1.32524 0
M  V30 5598 C 513.185 -0.0263963 1.96182 0
M  V30 5599 O 512.31 -0.92849 1.95469 0
M  V30 5600 C 512.905 2.38162 2.40966 0
M  V30 5601 C 511.464 2.34489 2.94434 0
M  V30 5602 C 510.611 2.20712 1.67873 0
M  V30 5603 H 513.562 1.4901 0.546043 0
M  V30 5604 H 513.583 2.04222 3.21051 0
M  V30 5605 H 513.095 3.35783 1.94605 0
M  V30 5606 H 511.196 1.40467 3.45108 0
M  V30 5607 H 511.309 3.28861 3.48407 0
M  V30 5608 H 509.673 1.67667 1.91729 0
M  V30 5609 H 510.456 3.20285 1.23582 0
M  V30 5610 N 512.901 -0.976442 1.23707 0
M  V30 5611 C 514.15 -1.71254 1.06559 0
M  V30 5612 C 514.463 -1.91528 -0.397024 0
M  V30 5613 O 515.669 -2.62625 -0.688518 0
M  V30 5614 C 514.125 -3.08207 1.8584 0
M  V30 5615 C 513.733 -2.95806 3.36456 0
M  V30 5616 C 515.477 -3.85749 1.77194 0
M  V30 5617 C 513.384 -4.28015 4.08114 0
M  V30 5618 H 512.314 -0.642171 0.395136 0
M  V30 5619 H 514.965 -1.08877 1.4771 0
M  V30 5620 H 513.347 -3.71363 1.37498 0
M  V30 5621 H 514.521 -2.41716 3.92314 0
M  V30 5622 H 512.836 -2.31736 3.45959 0
M  V30 5623 H 515.433 -4.83633 2.28041 0
M  V30 5624 H 515.776 -4.09752 0.735477 0
M  V30 5625 H 516.309 -3.29303 2.23169 0
M  V30 5626 H 513.048 -4.09208 5.12083 0
M  V30 5627 H 512.568 -4.81955 3.57043 0
M  V30 5628 H 514.247 -4.96681 4.14629 0
M  V30 5629 N 514.379 -1.04941 -1.1758 0
M  V30 5630 C 515.625 -0.759112 -1.88057 0
M  V30 5631 C 515.958 0.711918 -1.8068 0
M  V30 5632 O 515.233 1.52035 -1.21308 0
M  V30 5633 C 515.516 -1.237 -3.38187 0
M  V30 5634 C 515.369 -2.77078 -3.54327 0
M  V30 5635 C 516.688 -0.834014 -4.32125 0
M  V30 5636 H 513.807 -0.277237 -0.682868 0
M  V30 5637 H 516.449 -1.30296 -1.38286 0
M  V30 5638 H 514.599 -0.774337 -3.80705 0
M  V30 5639 H 516.271 -3.31449 -3.20842 0
M  V30 5640 H 514.514 -3.16477 -2.96689 0
M  V30 5641 H 515.185 -3.05577 -4.59703 0
M  V30 5642 H 517.661 -1.23228 -3.97434 0
M  V30 5643 H 516.537 -1.19603 -5.35711 0
M  V30 5644 H 516.798 0.262195 -4.41322 0
M  V30 5645 N 515.857 1.33968 -0.830081 0
M  V30 5646 C 516.787 2.31911 -0.271911 0
M  V30 5647 C 517.768 1.58571 0.61556 0
M  V30 5648 O 518.953 1.86514 0.540946 0
M  V30 5649 C 516.083 3.42737 0.561146 0
M  V30 5650 C 515.037 4.27383 -0.229789 0
M  V30 5651 C 514.363 5.29742 0.726463 0
M  V30 5652 C 515.663 5.02 -1.44197 0
M  V30 5653 H 517.357 2.78844 -1.09025 0
M  V30 5654 H 514.903 1.34061 -0.52571 0
M  V30 5655 H 516.856 4.10276 0.961867 0
M  V30 5656 H 515.58 2.94471 1.41261 0
M  V30 5657 H 514.239 3.61456 -0.611964 0
M  V30 5658 H 513.887 4.77736 1.57408 0
M  V30 5659 H 513.587 5.87255 0.20142 0
M  V30 5660 H 515.111 6.00149 1.12489 0
M  V30 5661 H 516.525 5.62355 -1.11488 0
M  V30 5662 H 514.922 5.69122 -1.90317 0
M  V30 5663 H 515.992 4.31281 -2.2164 0
M  V30 5664 N 517.335 0.585699 1.46312 0
M  V30 5665 C 518.751 0.247607 1.57668 0
M  V30 5666 C 518.951 -1.25007 1.58037 0
M  V30 5667 O 518.007 -2.03196 1.49893 0
M  V30 5668 C 519.32 0.899456 2.86933 0
M  V30 5669 C 520.868 0.873326 3.00569 0
M  V30 5670 C 521.343 1.50477 4.32574 0
M  V30 5671 N 522.834 1.46925 4.3928 0
M  V30 5672 C 523.569 1.92719 5.40044 0
M  V30 5673 N 523.065 2.46499 6.47464 0
M  V30 5674 N 524.858 1.83617 5.31264 0
M  V30 5675 H 517.009 1.55841 1.44317 0
M  V30 5676 H 519.272 0.651564 0.688599 0
M  V30 5677 H 518.978 1.95313 2.92482 0
M  V30 5678 H 518.852 0.409476 3.74971 0
M  V30 5679 H 521.239 -0.171736 2.946 0
M  V30 5680 H 521.32 1.40136 2.13999 0
M  V30 5681 H 520.964 2.54905 4.39302 0
M  V30 5682 H 520.894 0.951944 5.17924 0
M  V30 5683 H 523.385 1.07616 3.62253 0
M  V30 5684 H 523.698 2.79291 7.20567 0
M  V30 5685 H 522.043 2.50526 6.48276 0
M  V30 5686 H 525.234 1.41358 4.46246 0
M  V30 5687 H 525.407 2.19622 6.09648 0
M  V30 5688 N 518.813 -1.54241 0.323641 0
M  V30 5689 C 519.776 -2.22997 -0.529602 0
M  V30 5690 C 520.776 -1.22345 -1.04347 0
M  V30 5691 O 521.966 -1.46924 -0.935889 0
M  V30 5692 C 519.098 -2.93409 -1.73562 0
M  V30 5693 H 520.291 -2.99815 0.0714518 0
M  V30 5694 H 517.844 -1.56121 0.0747258 0
M  V30 5695 H 518.579 -2.20729 -2.37591 0
M  V30 5696 H 518.364 -3.67217 -1.37456 0
M  V30 5697 H 519.854 -3.45794 -2.34128 0
M  V30 5698 N 520.291 -0.0518155 -1.57515 0
M  V30 5699 C 521.538 0.621823 -1.92716 0
M  V30 5700 C 521.866 1.70813 -0.930229 0
M  V30 5701 O 521.121 1.95616 0.0573708 0
M  V30 5702 C 521.42 1.25607 -3.34601 0
M  V30 5703 C 521.086 0.297901 -4.49915 0
M  V30 5704 C 519.748 0.034243 -4.81188 0
M  V30 5705 C 522.1 -0.358738 -5.19964 0
M  V30 5706 C 519.428 -0.893479 -5.79857 0
M  V30 5707 C 521.78 -1.27466 -6.19625 0
M  V30 5708 C 520.444 -1.54698 -6.49326 0
M  V30 5709 H 519.714 0.227541 -0.705199 0
M  V30 5710 H 522.361 -0.118432 -1.91133 0
M  V30 5711 H 520.666 2.07161 -3.32553 0
M  V30 5712 H 522.363 1.78424 -3.59118 0
M  V30 5713 H 518.953 0.513581 -4.25512 0
M  V30 5714 H 523.137 -0.168133 -4.96015 0
M  V30 5715 H 518.393 -1.11193 -6.01204 0
M  V30 5716 H 522.567 -1.78953 -6.73015 0
M  V30 5717 H 520.194 -2.26748 -7.25596 0
M  V30 5718 N 521.769 1.56035 0.221574 0
M  V30 5719 C 523.016 1.79047 0.94597 0
M  V30 5720 C 523.344 0.62057 1.84334 0
M  V30 5721 O 522.599 -0.395053 1.91671 0
M  V30 5722 C 522.898 3.07813 1.8162 0
M  V30 5723 C 522.564 4.3797 1.07206 0
M  V30 5724 C 521.226 4.73334 0.866508 0
M  V30 5725 C 523.578 5.18326 0.546565 0
M  V30 5726 C 520.906 5.8657 0.123549 0
M  V30 5727 C 523.258 6.32335 -0.18305 0
M  V30 5728 C 521.922 6.66301 -0.399861 0
M  V30 5729 H 521.192 0.655178 0.346155 0
M  V30 5730 H 523.839 1.90299 0.214146 0
M  V30 5731 H 522.144 2.91682 2.61589 0
M  V30 5732 H 523.841 3.2282 2.37884 0
M  V30 5733 H 520.431 4.10202 1.24226 0
M  V30 5734 H 524.615 4.9144 0.692847 0
M  V30 5735 H 519.871 6.11376 -0.0546591 0
M  V30 5736 H 524.045 6.9383 -0.59775 0
M  V30 5737 H 521.672 7.53889 -0.977489 0
M  V30 5738 N 523.247 -0.488276 1.49845 0
M  V30 5739 C 524.663 -0.820566 1.3689 0
M  V30 5740 C 524.863 -1.97248 0.411752 0
M  V30 5741 O 523.919 -2.52042 -0.151931 0
M  V30 5742 C 525.232 -1.1488 2.77891 0
M  V30 5743 C 526.78 -1.25626 2.86683 0
M  V30 5744 C 527.255 -1.61772 4.28479 0
M  V30 5745 N 528.746 -1.68797 4.31349 0
M  V30 5746 C 529.481 -1.98235 5.38043 0
M  V30 5747 N 528.977 -2.2581 6.54967 0
M  V30 5748 N 530.77 -1.99593 5.2547 0
M  V30 5749 H 522.921 0.271123 2.10662 0
M  V30 5750 H 525.184 0.058735 0.946179 0
M  V30 5751 H 524.89 -0.375614 3.49688 0
M  V30 5752 H 524.764 -2.08919 3.14058 0
M  V30 5753 H 527.151 -2.02014 2.15114 0
M  V30 5754 H 527.232 -0.296072 2.54081 0
M  V30 5755 H 526.876 -0.859295 5.00578 0
M  V30 5756 H 526.806 -2.58912 4.58554 0
M  V30 5757 H 529.297 -1.49595 3.4703 0
M  V30 5758 H 529.61 -2.47497 7.32096 0
M  V30 5759 H 527.955 -2.23239 6.58171 0
M  V30 5760 H 531.146 -1.77535 4.33127 0
M  V30 5761 H 531.319 -2.222 6.08713 0
M  V30 5762 N 524.725 -1.39134 -0.740242 0
M  V30 5763 C 526.141 -1.20623 -1.0451 0
M  V30 5764 C 526.341 -0.0641651 -2.01398 0
M  V30 5765 O 525.397 0.585843 -2.4561 0
M  V30 5766 C 526.71 -2.53815 -1.6124 0
M  V30 5767 C 528.258 -2.60615 -1.73346 0
M  V30 5768 C 528.733 -3.94015 -2.33486 0
M  V30 5769 N 530.224 -3.95627 -2.40902 0
M  V30 5770 C 530.959 -4.95616 -2.88361 0
M  V30 5771 N 530.455 -6.06003 -3.35756 0
M  V30 5772 N 532.248 -4.82998 -2.87523 0
M  V30 5773 H 524.399 -2.12176 -0.0975576 0
M  V30 5774 H 526.662 -0.942066 -0.105904 0
M  V30 5775 H 526.368 -3.37911 -0.975144 0
M  V30 5776 H 526.242 -2.73162 -2.6012 0
M  V30 5777 H 528.629 -1.76906 -2.36195 0
M  V30 5778 H 528.71 -2.45123 -0.731336 0
M  V30 5779 H 528.354 -4.78153 -1.71267 0
M  V30 5780 H 528.284 -4.06825 -3.34366 0
M  V30 5781 H 530.775 -3.15903 -2.07398 0
M  V30 5782 H 531.088 -6.78215 -3.70464 0
M  V30 5783 H 529.433 -6.09604 -3.33778 0
M  V30 5784 H 532.624 -3.95866 -2.49816 0
M  V30 5785 H 532.797 -5.61072 -3.24196 0
M  V30 5786 N 526.204 0.969867 -1.24223 0
M  V30 5787 C 527.451 1.71256 -1.08063 0
M  V30 5788 C 527.779 1.90734 0.380872 0
M  V30 5789 O 527.034 1.46469 1.29789 0
M  V30 5790 C 527.333 3.10883 -1.76314 0
M  V30 5791 C 526.999 3.11252 -3.26241 0
M  V30 5792 C 525.661 3.1106 -3.67144 0
M  V30 5793 C 528.013 3.05751 -4.22097 0
M  V30 5794 C 525.341 3.03097 -5.02344 0
M  V30 5795 C 527.693 2.9933 -5.57301 0
M  V30 5796 C 526.357 2.97466 -5.97554 0
M  V30 5797 H 525.627 0.62667 -0.395431 0
M  V30 5798 H 528.274 1.13422 -1.54297 0
M  V30 5799 H 526.579 3.72168 -1.22468 0
M  V30 5800 H 528.276 3.67138 -1.61277 0
M  V30 5801 H 524.866 3.12165 -2.93685 0
M  V30 5802 H 529.05 3.05031 -3.91497 0
M  V30 5803 H 524.306 3.00013 -5.32731 0
M  V30 5804 H 528.48 2.94033 -6.31283 0
M  V30 5805 H 526.107 2.91051 -7.02277 0
M  V30 5806 N 527.682 1.05563 1.17022 0
M  V30 5807 C 529.098 0.777684 1.39371 0
M  V30 5808 C 529.298 -0.626269 1.91521 0
M  V30 5809 O 528.354 -1.38806 2.10924 0
M  V30 5810 C 529.667 1.83642 2.3811 0
M  V30 5811 C 531.215 1.85907 2.51809 0
M  V30 5812 C 531.69 2.90813 3.53824 0
M  V30 5813 N 533.181 2.898 3.61345 0
M  V30 5814 C 533.916 3.6762 4.40049 0
M  V30 5815 N 533.412 4.55237 5.22237 0
M  V30 5816 N 535.205 3.56044 4.34959 0
M  V30 5817 H 527.356 1.9614 0.815047 0
M  V30 5818 H 529.619 0.849527 0.420722 0
M  V30 5819 H 529.325 2.84425 2.06871 0
M  V30 5820 H 529.199 1.6812 3.37662 0
M  V30 5821 H 531.586 0.857865 2.82356 0
M  V30 5822 H 531.667 2.05506 1.52318 0
M  V30 5823 H 531.311 3.91122 3.24015 0
M  V30 5824 H 531.241 2.68465 4.53028 0
M  V30 5825 H 533.732 2.26274 3.02669 0
M  V30 5826 H 534.045 5.11291 5.79484 0
M  V30 5827 H 532.39 4.59296 5.21605 0
M  V30 5828 H 535.581 2.86986 3.69806 0
M  V30 5829 H 535.754 4.16938 4.96051 0
M  V30 5830 N 529.16 -1.33526 0.837174 0
M  V30 5831 C 530.09 -2.31764 0.284206 0
M  V30 5832 C 531.071 -1.58896 -0.607142 0
M  V30 5833 O 532.256 -1.86798 -0.531047 0
M  V30 5834 C 529.386 -3.43029 -0.542962 0
M  V30 5835 C 528.34 -4.27255 0.252451 0
M  V30 5836 C 527.666 -5.3012 -0.69836 0
M  V30 5837 C 528.966 -5.01229 1.46858 0
M  V30 5838 H 530.66 -2.78262 1.10502 0
M  V30 5839 H 528.206 -1.3378 0.532812 0
M  V30 5840 H 530.159 -4.1078 -0.940096 0
M  V30 5841 H 528.883 -2.95216 -1.39697 0
M  V30 5842 H 527.542 -3.61127 0.631124 0
M  V30 5843 H 527.19 -4.78564 -1.54872 0
M  V30 5844 H 526.89 -5.87353 -0.170274 0
M  V30 5845 H 528.414 -6.00737 -1.09305 0
M  V30 5846 H 529.828 -5.61756 1.14469 0
M  V30 5847 H 528.225 -5.68104 1.93333 0
M  V30 5848 H 529.295 -4.301 2.23924 0
M  V30 5849 N 530.638 -0.59345 -1.46 0
M  V30 5850 C 531.915 -0.0157933 -1.95594 0
M  V30 5851 C 532.295 1.44807 -1.53604 0
M  V30 5852 O 531.643 2.14342 -0.791824 0
M  V30 5853 C 531.853 -0.199081 -3.48432 0
M  V30 5854 C 533.201 -0.0724943 -4.24538 0
M  V30 5855 O 534.225 -0.128469 -3.55968 0
M  V30 5856 O 533.084 0.0542426 -5.46473 0
M  V30 5857 H 530.178 0.043749 -0.825842 0
M  V30 5858 H 532.724 -0.662522 -1.56233 0
M  V30 5859 H 531.496 -1.21631 -3.71916 0
M  V30 5860 H 531.119 0.483576 -3.94648 0
M  V30 5861 N 532.116 1.54067 -0.331816 0
M  V30 5862 C 533.527 1.86059 0.15454 0
M  V30 5863 C 533.878 1.25331 1.50952 0
M  V30 5864 O 533.003 0.562441 2.08963 0
M  V30 5865 C 533.598 3.37581 0.287192 0
M  V30 5866 C 532.157 3.69493 0.717773 0
M  V30 5867 C 531.304 2.76863 -0.155569 0
M  V30 5868 H 534.255 1.48797 -0.55182 0
M  V30 5869 H 534.276 3.63744 1.11671 0
M  V30 5870 H 533.788 3.81751 -0.699131 0
M  V30 5871 H 531.889 3.3086 1.71354 0
M  V30 5872 H 532.002 4.76315 0.5158 0
M  V30 5873 H 530.366 2.51995 0.370213 0
M  V30 5874 H 531.149 3.23861 -1.13881 0
M  V30 5875 N 533.594 0.0601682 1.57485 0
M  V30 5876 C 534.524 -0.90889 2.15085 0
M  V30 5877 C 535.505 -1.31838 1.07484 0
M  V30 5878 O 536.69 -1.3915 1.35466 0
M  V30 5879 C 533.82 -2.18059 2.7031 0
M  V30 5880 C 532.774 -1.91088 3.82974 0
M  V30 5881 C 532.1 -3.24789 4.24754 0
M  V30 5882 C 533.4 -1.22535 5.07723 0
M  V30 5883 H 535.094 -0.429093 2.96309 0
M  V30 5884 H 532.64 -0.204952 1.42534 0
M  V30 5885 H 534.593 -2.86258 3.09248 0
M  V30 5886 H 533.317 -2.6826 1.8629 0
M  V30 5887 H 531.976 -1.25297 3.44523 0
M  V30 5888 H 531.624 -3.72809 3.37672 0
M  V30 5889 H 531.324 -3.07538 5.00694 0
M  V30 5890 H 532.848 -3.94205 4.66299 0
M  V30 5891 H 534.262 -1.80783 5.4405 0
M  V30 5892 H 532.659 -1.1558 5.88864 0
M  V30 5893 H 533.729 -0.202692 4.84476 0
M  V30 5894 N 535.072 -1.5615 -0.213296 0
M  V30 5895 C 536.483 -1.69645 -0.779582 0
M  V30 5896 C 536.834 -0.663615 -1.84636 0
M  V30 5897 O 535.959 0.183633 -2.15619 0
M  V30 5898 C 536.554 -3.07567 -1.42084 0
M  V30 5899 C 535.113 -3.22889 -1.93442 0
M  V30 5900 C 534.26 -2.65581 -0.797612 0
M  V30 5901 H 537.211 -1.58696 0.0114951 0
M  V30 5902 H 537.232 -3.03884 -2.28986 0
M  V30 5903 H 536.744 -3.82716 -0.644187 0
M  V30 5904 H 534.845 -2.52623 -2.73884 0
M  V30 5905 H 534.958 -4.30197 -2.10872 0
M  V30 5906 H 533.322 -2.24278 -1.20712 0
M  V30 5907 H 534.105 -3.43284 -0.033494 0
M  V30 5908 N 536.55 0.480323 -1.50102 0
M  V30 5909 C 537.797 1.23307 -1.60629 0
M  V30 5910 C 538.125 1.92135 -0.302375 0
M  V30 5911 O 537.38 1.82321 0.711154 0
M  V30 5912 C 537.679 2.30708 -2.72963 0
M  V30 5913 C 537.345 1.79195 -4.13763 0
M  V30 5914 C 536.007 1.64867 -4.52076 0
M  V30 5915 C 538.359 1.40878 -5.018 0
M  V30 5916 C 535.687 1.10631 -5.76175 0
M  V30 5917 C 538.039 0.880872 -6.26437 0
M  V30 5918 C 536.703 0.724146 -6.6356 0
M  V30 5919 H 535.973 0.451211 -0.587784 0
M  V30 5920 H 538.62 0.53051 -1.84005 0
M  V30 5921 H 536.925 3.06834 -2.43639 0
M  V30 5922 H 538.622 2.88692 -2.78313 0
M  V30 5923 H 535.212 1.91313 -3.83533 0
M  V30 5924 H 539.396 1.50786 -4.7284 0
M  V30 5925 H 534.652 0.972263 -6.0362 0
M  V30 5926 H 538.826 0.575269 -6.9402 0
M  V30 5927 H 536.453 0.301722 -7.59601 0
M  V30 5928 N 538.028 1.39524 0.732853 0
M  V30 5929 C 539.439 1.32905 1.31122 0
M  V30 5930 C 539.79 -0.00558708 1.96199 0
M  V30 5931 O 538.915 -0.907706 1.96443 0
M  V30 5932 C 539.51 2.40704 2.38426 0
M  V30 5933 C 538.069 2.37599 2.91931 0
M  V30 5934 C 537.216 2.2248 1.65523 0
M  V30 5935 H 540.167 1.49581 0.530207 0
M  V30 5936 H 540.188 2.07616 3.18867 0
M  V30 5937 H 539.7 3.37829 1.91033 0
M  V30 5938 H 537.801 1.44119 3.43599 0
M  V30 5939 H 537.914 3.32538 3.44899 0
M  V30 5940 H 536.278 1.69691 1.8994 0
M  V30 5941 H 537.061 3.21577 1.20178 0
M  V30 5942 N 539.506 -0.963266 1.24736 0
M  V30 5943 C 540.922 -1.23273 1.01371 0
M  V30 5944 C 541.122 -1.99618 -0.274776 0
M  V30 5945 O 540.178 -2.32293 -0.989769 0
M  V30 5946 C 541.491 -2.01554 2.23152 0
M  V30 5947 C 543.039 -2.14629 2.27823 0
M  V30 5948 C 543.514 -2.96307 3.49237 0
M  V30 5949 N 545.005 -3.03887 3.49581 0
M  V30 5950 C 545.74 -3.67456 4.40186 0
M  V30 5951 N 545.236 -4.32706 5.41052 0
M  V30 5952 N 547.029 -3.64511 4.27888 0
M  V30 5953 H 539.18 -0.452294 2.07528 0
M  V30 5954 H 541.443 -0.262521 0.910926 0
M  V30 5955 H 541.149 -1.52847 3.1675 0
M  V30 5956 H 541.023 -3.02278 2.25628 0
M  V30 5957 H 543.41 -2.62537 1.34753 0
M  V30 5958 H 543.491 -1.13238 2.2937 0
M  V30 5959 H 543.135 -2.49091 4.42624 0
M  V30 5960 H 543.065 -3.97905 3.44933 0
M  V30 5961 H 545.556 -2.57477 2.76611 0
M  V30 5962 H 545.869 -4.79042 6.06415 0
M  V30 5963 H 544.214 -4.31361 5.44934 0
M  V30 5964 H 547.405 -3.12715 3.4832 0
M  V30 5965 H 547.578 -4.13768 4.98698 0
M  V30 5966 N 540.985 -1.06182 -1.16461 0
M  V30 5967 C 542.231 -0.779015 -1.87241 0
M  V30 5968 C 542.564 0.692715 -1.81425 0
M  V30 5969 O 541.839 1.5074 -1.22913 0
M  V30 5970 C 542.122 -1.2728 -3.36856 0
M  V30 5971 C 541.975 -2.80821 -3.51368 0
M  V30 5972 C 543.294 -0.879799 -4.31216 0
M  V30 5973 H 540.413 -0.284464 -0.679889 0
M  V30 5974 H 543.055 -1.31755 -1.36896 0
M  V30 5975 H 541.205 -0.814673 -3.79862 0
M  V30 5976 H 542.877 -3.34833 -3.17308 0
M  V30 5977 H 541.12 -3.19606 -2.93316 0
M  V30 5978 H 541.791 -3.10435 -4.56436 0
M  V30 5979 H 544.267 -1.27436 -3.96105 0
M  V30 5980 H 543.143 -1.25278 -5.34412 0
M  V30 5981 H 543.404 0.215372 -4.41575 0
M  V30 5982 N 542.463 1.3308 -0.844243 0
M  V30 5983 C 543.393 2.3161 -0.296493 0
M  V30 5984 C 544.374 1.59215 0.598707 0
M  V30 5985 O 545.559 1.87077 0.521134 0
M  V30 5986 C 542.689 3.43313 0.524762 0
M  V30 5987 C 541.643 4.27115 -0.275106 0
M  V30 5988 C 540.969 5.30483 0.670236 0
M  V30 5989 C 542.269 5.00443 -1.49514 0
M  V30 5990 H 543.963 2.77672 -1.11976 0
M  V30 5991 H 541.509 1.33496 -0.539899 0
M  V30 5992 H 543.462 4.11273 0.918298 0
M  V30 5993 H 542.186 2.95952 1.3813 0
M  V30 5994 H 540.845 3.60787 -0.650267 0
M  V30 5995 H 540.493 4.79379 1.52332 0
M  V30 5996 H 540.193 5.87435 0.139123 0
M  V30 5997 H 541.717 6.01308 1.06117 0
M  V30 5998 H 543.131 5.61141 -1.17447 0
M  V30 5999 H 541.528 5.67071 -1.96343 0
M  V30 6000 H 542.598 4.28906 -2.26202 0
M  V30 6001 N 543.941 0.601185 1.45683 0
M  V30 6002 C 544.904 -0.111398 2.28929 0
M  V30 6003 C 545.904 -0.801246 1.39416 0
M  V30 6004 O 547.094 -0.650383 1.61603 0
M  V30 6005 C 544.226 -1.16773 3.20276 0
M  V30 6006 H 545.419 0.620412 2.93413 0
M  V30 6007 H 542.972 0.359946 1.52099 0
M  V30 6008 H 543.707 -1.93051 2.60579 0
M  V30 6009 H 543.492 -0.677358 3.86205 0
M  V30 6010 H 544.982 -1.66698 3.82886 0
M  V30 6011 N 545.419 -1.53889 0.339982 0
M  V30 6012 C 546.351 -2.22435 -0.55275 0
M  V30 6013 C 547.364 -1.22975 -1.06681 0
M  V30 6014 O 548.553 -1.49351 -0.977575 0
M  V30 6015 C 545.653 -2.8882 -1.77302 0
M  V30 6016 C 544.826 -4.14563 -1.39486 0
M  V30 6017 C 543.885 -4.64391 -2.47442 0
M  V30 6018 O 542.911 -5.28687 -2.10899 0
M  V30 6019 N 544.113 -4.40015 -3.78639 0
M  V30 6020 H 546.878 -2.9968 0.0342669 0
M  V30 6021 H 544.439 -1.61068 0.16394 0
M  V30 6022 H 546.431 -3.19072 -2.48948 0
M  V30 6023 H 545.001 -2.15182 -2.26749 0
M  V30 6024 H 544.221 -3.90896 -0.509321 0
M  V30 6025 H 545.509 -4.96362 -1.11813 0
M  V30 6026 H 544.907 -3.88586 -4.11118 0
M  V30 6027 H 543.464 -4.74881 -4.46465 0
M  V30 6028 N 546.897 -0.0685191 -1.57451 0
M  V30 6029 C 548.143 0.602239 -1.93652 0
M  V30 6030 C 548.476 1.6946 -0.948526 0
M  V30 6031 O 547.751 1.94487 0.022782 0
M  V30 6032 C 548.034 1.18223 -3.4014 0
M  V30 6033 C 547.887 0.0967431 -4.49696 0
M  V30 6034 C 549.206 2.08872 -3.87377 0
M  V30 6035 H 546.325 0.217453 -0.70419 0
M  V30 6036 H 548.967 -0.133821 -1.89528 0
M  V30 6037 H 547.117 1.80953 -3.43785 0
M  V30 6038 H 548.789 -0.536155 -4.58174 0
M  V30 6039 H 547.032 -0.573063 -4.29998 0
M  V30 6040 H 547.703 0.542894 -5.49324 0
M  V30 6041 H 550.179 1.56081 -3.85717 0
M  V30 6042 H 549.055 2.46389 -4.90493 0
M  V30 6043 H 549.316 2.99572 -3.25129 0
M  V30 6044 N 548.375 1.56261 0.205012 0
M  V30 6045 C 549.603 1.84141 0.943386 0
M  V30 6046 C 550.018 0.649772 1.77266 0
M  V30 6047 O 549.375 -0.381612 1.78466 0
M  V30 6048 C 549.426 3.10719 1.84759 0
M  V30 6049 O 549.147 4.25286 1.05181 0
M  V30 6050 C 550.648 3.51706 2.69848 0
M  V30 6051 H 547.868 0.611734 0.275721 0
M  V30 6052 H 550.412 2.03364 0.215253 0
M  V30 6053 H 548.567 2.93422 2.52947 0
M  V30 6054 H 548.981 4.97301 1.66709 0
M  V30 6055 H 550.455 4.43266 3.28967 0
M  V30 6056 H 550.932 2.7423 3.43067 0
M  V30 6057 H 551.538 3.71499 2.07047 0
M  V30 6058 N 549.853 -0.472356 1.50355 0
M  V30 6059 C 550.783 -1.57859 1.72055 0
M  V30 6060 C 551.764 -1.60283 0.569505 0
M  V30 6061 O 552.949 -1.7657 0.808503 0
M  V30 6062 C 550.079 -2.96191 1.81351 0
M  V30 6063 C 549.033 -3.08633 2.96529 0
M  V30 6064 C 548.359 -4.486 2.90968 0
M  V30 6065 C 549.659 -2.85969 4.37057 0
M  V30 6066 H 551.353 -1.39953 2.64676 0
M  V30 6067 H 548.899 -0.671846 1.27367 0
M  V30 6068 H 550.852 -3.73507 1.95117 0
M  V30 6069 H 549.576 -3.15251 0.853502 0
M  V30 6070 H 548.235 -2.33749 2.82413 0
M  V30 6071 H 547.883 -4.64577 1.92815 0
M  V30 6072 H 547.583 -4.57861 3.68289 0
M  V30 6073 H 549.107 -5.27938 3.0678 0
M  V30 6074 H 550.521 -3.53036 4.51706 0
M  V30 6075 H 548.918 -3.06677 5.15819 0
M  V30 6076 H 549.988 -1.81838 4.49514 0
M  V30 6077 N 551.331 -1.39911 -0.725443 0
M  V30 6078 C 552.747 -1.21725 -1.03224 0
M  V30 6079 C 552.947 -0.0855224 -2.01318 0
M  V30 6080 O 552.003 0.55976 -2.46217 0
M  V30 6081 C 553.316 -2.55511 -1.58539 0
M  V30 6082 C 554.864 -2.62439 -1.70572 0
M  V30 6083 C 555.339 -3.9647 -2.29294 0
M  V30 6084 N 556.83 -3.98159 -2.36692 0
M  V30 6085 C 557.565 -4.98647 -2.83088 0
M  V30 6086 N 557.061 -6.0953 -3.2931 0
M  V30 6087 N 558.854 -4.8602 -2.82384 0
M  V30 6088 H 551.005 -2.12267 -0.075048 0
M  V30 6089 H 553.268 -0.943136 -0.0959066 0
M  V30 6090 H 552.974 -3.38926 -0.939249 0
M  V30 6091 H 552.848 -2.75905 -2.57208 0
M  V30 6092 H 555.235 -1.79401 -2.34306 0
M  V30 6093 H 555.316 -2.45885 -0.705297 0
M  V30 6094 H 554.96 -4.79942 -1.66186 0
M  V30 6095 H 554.89 -4.10349 -3.30032 0
M  V30 6096 H 557.381 -3.18085 -2.04035 0
M  V30 6097 H 557.694 -6.82106 -3.6325 0
M  V30 6098 H 556.039 -6.1311 -3.27294 0
M  V30 6099 H 559.23 -3.98493 -2.45603 0
M  V30 6100 H 559.403 -5.64478 -3.18226 0
M  V30 6101 N 552.809 0.956637 -1.25245 0
M  V30 6102 C 554.22 1.51569 -1.09012 0
M  V30 6103 C 554.571 1.93322 0.334813 0
M  V30 6104 O 553.696 1.78421 1.22454 0
M  V30 6105 C 554.291 2.75444 -1.97271 0
M  V30 6106 C 552.85 3.27669 -1.8523 0
M  V30 6107 C 551.997 2.00517 -1.91542 0
M  V30 6108 H 554.948 0.773746 -1.3856 0
M  V30 6109 H 554.969 3.4919 -1.51151 0
M  V30 6110 H 554.481 2.45024 -3.00973 0
M  V30 6111 H 552.582 3.62914 -0.844045 0
M  V30 6112 H 552.695 3.9582 -2.69932 0
M  V30 6113 H 551.059 2.15727 -1.35404 0
M  V30 6114 H 551.842 1.72448 -2.96844 0
M  V30 6115 N 554.287 1.06798 1.15896 0
M  V30 6116 C 555.197 0.694564 2.24083 0
M  V30 6117 C 556.213 -0.291687 1.71538 0
M  V30 6118 O 557.389 -0.139723 2.00915 0
M  V30 6119 C 554.454 0.0921014 3.46578 0
M  V30 6120 C 553.515 1.13087 4.14137 0
M  V30 6121 C 552.748 0.557064 5.30785 0
M  V30 6122 O 552.971 -0.628623 5.66925 0
M  V30 6123 O 551.905 1.29924 5.8771 0
M  V30 6124 H 555.731 1.59663 2.58344 0
M  V30 6125 H 553.316 0.840575 1.2351 0
M  V30 6126 H 555.198 -0.241884 4.20705 0
M  V30 6127 H 553.873 -0.78337 3.14078 0
M  V30 6128 H 552.78 1.51712 3.41957 0
M  V30 6129 H 554.113 1.97805 4.50704 0
M  V30 6130 N 555.766 -1.3263 0.851289 0
M  V30 6131 C 557.014 -1.96978 0.452128 0
M  V30 6132 C 557.335 -1.67715 -0.99482 0
M  V30 6133 O 556.605 -0.98259 -1.69476 0
M  V30 6134 H 555.185 -0.72873 0.164202 0
M  V30 6135 H 557.847 -1.61774 1.08698 0
M  V30 6136 H 556.943 -3.06387 0.594407 0
M  V30 6137 N 557.244 -0.608902 -1.45362 0
M  V30 6138 C 558.492 -0.104401 -2.0183 0
M  V30 6139 C 558.813 1.27007 -1.47967 0
M  V30 6140 O 558.083 1.83924 -0.674455 0
M  V30 6141 H 556.663 -0.0356042 -0.746151 0
M  V30 6142 H 559.325 -0.790596 -1.78145 0
M  V30 6143 H 558.421 -0.0551793 -3.12051 0
M  V30 6144 N 558.722 1.53707 -0.348139 0
M  V30 6145 C 559.652 2.28111 0.498766 0
M  V30 6146 C 560.633 1.29851 1.09876 0
M  V30 6147 O 561.818 1.587 1.11928 0
M  V30 6148 C 558.948 3.05735 1.64753 0
M  V30 6149 C 557.902 4.11537 1.17565 0
M  V30 6150 C 557.228 4.77142 2.4133 0
M  V30 6151 C 558.528 5.21587 0.272844 0
M  V30 6152 H 560.222 2.99152 -0.121934 0
M  V30 6153 H 557.768 1.43875 -0.0600842 0
M  V30 6154 H 559.721 3.56526 2.24649 0
M  V30 6155 H 558.445 2.32354 2.2952 0
M  V30 6156 H 557.104 3.61665 0.599483 0
M  V30 6157 H 556.752 4.0035 3.04514 0
M  V30 6158 H 556.452 5.48626 2.10436 0
M  V30 6159 H 557.976 5.30719 3.01943 0
M  V30 6160 H 559.39 5.67986 0.778779 0
M  V30 6161 H 557.787 6.00074 0.0555849 0
M  V30 6162 H 558.857 4.79969 -0.689785 0
M  V30 6163 N 560.2 0.0768682 1.57412 0
M  V30 6164 C 561.611 -0.455037 1.8107 0
M  V30 6165 C 561.962 -1.69323 0.991162 0
M  V30 6166 O 561.087 -2.15328 0.215156 0
M  V30 6167 C 561.682 -0.832316 3.28417 0
M  V30 6168 C 560.241 -1.30906 3.52903 0
M  V30 6169 C 559.388 -0.296714 2.75708 0
M  V30 6170 H 562.339 0.302514 1.5579 0
M  V30 6171 H 562.36 -1.69333 3.40744 0
M  V30 6172 H 561.872 0.0690532 3.88039 0
M  V30 6173 H 559.973 -2.22875 2.98592 0
M  V30 6174 H 560.086 -1.28348 4.61588 0
M  V30 6175 H 558.45 -0.775059 2.42621 0
M  V30 6176 H 559.233 0.597015 3.38069 0
M  V30 6177 N 561.678 -1.56367 -0.196722 0
M  V30 6178 C 562.641 -1.93561 -1.22746 0
M  V30 6179 C 563.641 -0.816566 -1.38524 0
M  V30 6180 O 564.831 -1.084 -1.36363 0
M  V30 6181 C 561.963 -2.20823 -2.59712 0
M  V30 6182 H 563.156 -2.85774 -0.909586 0
M  V30 6183 H 560.709 -1.50032 -0.438174 0
M  V30 6184 H 561.444 -1.31243 -2.96557 0
M  V30 6185 H 561.229 -3.02368 -2.49632 0
M  V30 6186 H 562.719 -2.50608 -3.34044 0
M  V30 6187 N 563.156 0.464375 -1.50603 0
M  V30 6188 C 564.572 0.798684 -1.38178 0
M  V30 6189 C 564.772 1.96568 -0.44308 0
M  V30 6190 O 563.828 2.52252 0.111814 0
M  V30 6191 C 565.141 1.10444 -2.79683 0
M  V30 6192 C 566.689 1.2105 -2.88645 0
M  V30 6193 C 567.164 1.54934 -4.30998 0
M  V30 6194 N 568.655 1.61913 -4.3398 0
M  V30 6195 C 569.39 1.8965 -5.41129 0
M  V30 6196 N 568.886 2.15361 -6.58477 0
M  V30 6197 N 570.679 1.91207 -5.28579 0
M  V30 6198 H 562.83 -0.304603 -2.10204 0
M  V30 6199 H 565.093 -0.0737804 -0.945125 0
M  V30 6200 H 564.799 0.319934 -3.50242 0
M  V30 6201 H 564.673 2.03896 -3.17342 0
M  V30 6202 H 567.06 1.98567 -2.18301 0
M  V30 6203 H 567.141 0.255613 -2.5452 0
M  V30 6204 H 566.785 0.779549 -5.01882 0
M  V30 6205 H 566.715 2.51584 -4.62615 0
M  V30 6206 H 569.206 1.44055 -3.49366 0
M  V30 6207 H 569.519 2.35818 -7.35941 0
M  V30 6208 H 567.864 2.1274 -6.6164 0
M  V30 6209 H 571.055 1.70622 -4.35897 0
M  V30 6210 H 571.228 2.12488 -6.12171 0
M  V30 6211 N 564.634 1.40294 0.718013 0
M  V30 6212 C 566.045 1.34289 1.29705 0
M  V30 6213 C 566.396 0.0152228 1.96194 0
M  V30 6214 O 565.521 -0.88682 1.97394 0
M  V30 6215 C 566.116 2.43219 2.3586 0
M  V30 6216 C 564.675 2.40682 2.89394 0
M  V30 6217 C 563.822 2.24223 1.63154 0
M  V30 6218 H 566.773 1.50135 0.514312 0
M  V30 6219 H 566.794 2.10986 3.16647 0
M  V30 6220 H 566.306 3.39836 1.87439 0
M  V30 6221 H 564.407 1.47756 3.42051 0
M  V30 6222 H 564.52 3.36177 3.41353 0
M  V30 6223 H 562.884 1.71696 1.88129 0
M  V30 6224 H 563.667 3.22834 1.16761 0
M  V30 6225 N 566.112 -0.949982 1.2575 0
M  V30 6226 C 567.528 -1.22191 1.02672 0
M  V30 6227 C 567.728 -1.99898 -0.253588 0
M  V30 6228 O 566.784 -2.33329 -0.965076 0
M  V30 6229 C 568.097 -1.99175 2.25277 0
M  V30 6230 C 569.645 -2.12201 2.30087 0
M  V30 6231 C 570.12 -2.92586 3.5236 0
M  V30 6232 N 571.611 -3.00163 3.52784 0
M  V30 6233 C 572.346 -3.62766 4.44059 0
M  V30 6234 N 571.842 -4.26943 5.45611 0
M  V30 6235 N 573.635 -3.59953 4.3173 0
M  V30 6236 H 565.786 -0.430258 2.07996 0
M  V30 6237 H 568.049 -0.252844 0.91366 0
M  V30 6238 H 567.755 -1.49479 3.18354 0
M  V30 6239 H 567.629 -2.99868 2.28821 0
M  V30 6240 H 570.016 -2.61093 1.3753 0
M  V30 6241 H 570.097 -1.10799 2.30559 0
M  V30 6242 H 569.741 -2.44383 4.45241 0
M  V30 6243 H 569.671 -3.94224 3.49134 0
M  V30 6244 H 572.162 -2.54529 2.79327 0
M  V30 6245 H 572.475 -4.72583 6.11461 0
M  V30 6246 H 570.82 -4.25557 5.49478 0
M  V30 6247 H 574.011 -3.09003 3.51617 0
M  V30 6248 H 574.184 -4.08455 5.03059 0
M  V30 6249 N 567.59 -1.07411 -1.15328 0
M  V30 6250 C 568.5 -0.706438 -2.23711 0
M  V30 6251 C 569.516 0.282586 -1.7169 0
M  V30 6252 O 570.692 0.129066 -2.00986 0
M  V30 6253 C 567.757 -0.11048 -3.46524 0
M  V30 6254 C 566.818 -1.15282 -4.13532 0
M  V30 6255 C 566.051 -0.585205 -5.30482 0
M  V30 6256 O 566.274 0.598549 -5.67251 0
M  V30 6257 O 565.208 -1.33039 -5.87013 0
M  V30 6258 H 569.034 -1.61031 -2.57493 0
M  V30 6259 H 566.619 -0.847113 -1.23062 0
M  V30 6260 H 568.501 0.21957 -4.20828 0
M  V30 6261 H 567.176 0.766703 -3.14489 0
M  V30 6262 H 566.083 -1.53523 -3.41147 0
M  V30 6263 H 567.416 -2.00192 -4.49649 0
M  V30 6264 N 569.068 1.32177 -0.85831 0
M  V30 6265 C 569.978 2.32561 -0.308606 0
M  V30 6266 C 570.994 1.64209 0.575462 0
M  V30 6267 O 572.17 1.95719 0.474961 0
M  V30 6268 C 569.235 3.43207 0.490909 0
M  V30 6269 C 568.296 4.27243 -0.419733 0
M  V30 6270 C 567.529 5.32605 0.341719 0
M  V30 6271 O 567.752 5.48332 1.57125 0
M  V30 6272 O 566.686 6.0118 -0.294379 0
M  V30 6273 H 570.512 2.81477 -1.14037 0
M  V30 6274 H 568.097 1.35866 -0.621349 0
M  V30 6275 H 569.979 4.10677 0.944574 0
M  V30 6276 H 568.654 2.96474 1.29941 0
M  V30 6277 H 567.561 3.62569 -0.921652 0
M  V30 6278 H 568.894 4.7751 -1.19352 0
M  V30 6279 N 570.547 0.616602 1.45037 0
M  V30 6280 C 571.793 0.115501 2.02471 0
M  V30 6281 C 572.126 -1.25406 1.4828 0
M  V30 6282 O 571.401 -1.82922 0.661051 0
M  V30 6283 C 571.684 0.0863588 3.59996 0
M  V30 6284 C 571.537 1.48723 4.24501 0
M  V30 6285 C 572.856 -0.596762 4.36035 0
M  V30 6286 H 569.975 0.0434461 0.735718 0
M  V30 6287 H 572.617 0.7903 1.72784 0
M  V30 6288 H 570.767 -0.488277 3.85419 0
M  V30 6289 H 572.439 2.10964 4.10234 0
M  V30 6290 H 570.682 2.04534 3.82555 0
M  V30 6291 H 571.353 1.419 5.3345 0
M  V30 6292 H 573.829 -0.10824 4.15959 0
M  V30 6293 H 572.705 -0.586289 5.4576 0
M  V30 6294 H 572.966 -1.66451 4.09569 0
M  V30 6295 N 572.025 -1.5352 0.356285 0
M  V30 6296 C 573.441 -1.59599 0.00485267 0
M  V30 6297 C 573.641 -1.37179 -1.47595 0
M  V30 6298 O 572.697 -1.17234 -2.23635 0
M  V30 6299 C 574.01 -2.97277 0.452454 0
M  V30 6300 C 575.558 -3.10357 0.405881 0
M  V30 6301 C 576.033 -4.50432 0.829148 0
M  V30 6302 N 577.524 -4.5652 0.783838 0
M  V30 6303 C 578.259 -5.63077 1.08315 0
M  V30 6304 N 577.755 -6.77429 1.45126 0
M  V30 6305 N 579.548 -5.53014 1.00655 0
M  V30 6306 H 571.699 -1.66346 1.32071 0
M  V30 6307 H 573.962 -0.77971 0.539218 0
M  V30 6308 H 573.668 -3.18792 1.48542 0
M  V30 6309 H 573.542 -3.76836 -0.165762 0
M  V30 6310 H 575.929 -2.88558 -0.617934 0
M  V30 6311 H 576.01 -2.32828 1.05947 0
M  V30 6312 H 575.654 -4.72968 1.85103 0
M  V30 6313 H 575.584 -5.26378 0.152906 0
M  V30 6314 H 578.075 -3.74408 0.512513 0
M  V30 6315 H 578.388 -7.54669 1.66415 0
M  V30 6316 H 576.733 -6.78844 1.48983 0
M  V30 6317 H 579.924 -4.62557 0.718215 0
M  V30 6318 H 580.097 -6.35964 1.24315 0
M  V30 6319 N 573.503 -0.0852151 -1.57369 0
M  V30 6320 C 574.466 0.8627 -2.12344 0
M  V30 6321 C 575.466 1.21746 -1.05046 0
M  V30 6322 O 576.656 1.14852 -1.30976 0
M  V30 6323 C 573.788 2.1618 -2.63589 0
M  V30 6324 H 574.981 0.385511 -2.97412 0
M  V30 6325 H 572.534 0.163663 -1.55441 0
M  V30 6326 H 573.269 2.68406 -1.82013 0
M  V30 6327 H 573.054 1.91723 -3.4203 0
M  V30 6328 H 574.544 2.84011 -3.06149 0
M  V30 6329 O 575.02 1.61406 0.0550718 0
M  V30 6330 H 575.711 1.81412 0.678922 0
M  V30 END ATOM
M  V30 BEGIN BOND
M  V30 END BOND
M  V30 END CTAB
M  END
$$$$
